MODEL 1
REMARK VINA RESULT:      -9.8      0.000      0.000
REMARK SMILES C=C(C)C[N@@H+]1CC[C@H](C(=O)NCCCCNC(=O)c2ccc(-c3c4nc(c(-c5c(F)cc(S(=O)(=O)[O-])cc5F)c5ccc([nH]5)c(-c5c(F)cc(S(=O)(=O)[O-])cc5F)c5nc(c(-c6c(F)cc(S(=O)(=O)[O-])cc6F)c6ccc3[nH]6)C=C5)C=C4)cc2)[C@H]1C
REMARK SMILES IDX 14 1 13 2 12 3 11 4 9 5 10 6 8 8 5 9 6 10 85 11 7 13 86 14
REMARK SMILES IDX 4 15 2 16 1 17 3 18 15 19 16 20 17 21 18 23 19 24 20 25
REMARK SMILES IDX 84 26 21 27 83 28 22 29 23 30 24 31 77 32 25 33 82 34 76 35
REMARK SMILES IDX 78 36 26 37 81 38 75 39 74 40 27 42 61 43 40 44 60 45 41 46
REMARK SMILES IDX 44 47 59 48 79 49 42 50 43 51 58 53 80 54 45 55 28 56 29 57
REMARK SMILES IDX 38 58 30 59 31 60 37 61 39 62 32 63 33 64 34 65 35 66 36 67
REMARK SMILES IDX 62 68 63 69 72 70 64 71 65 72 71 73 73 74 66 75 67 76 68 77
REMARK SMILES IDX 69 78 70 79 46 80 47 81 56 82 48 83 49 84 55 85 57 86 50 87
REMARK SMILES IDX 51 88 52 89 53 90 54 91
REMARK H PARENT 11 7 5 12 16 22 78 41 44 52
REMARK Flexibility Score: inf
ROOT
ATOM      1  C   UNL A   1      33.488  33.539  28.231  1.00  0.00     0.023 C 
ENDROOT
BRANCH   1   2
ATOM      2  C   UNL A   1      34.068  34.922  28.541  1.00  0.00     0.023 C 
BRANCH   2   3
ATOM      3  C   UNL A   1      33.617  35.523  29.870  1.00  0.00     0.116 C 
BRANCH   3   4
ATOM      4  N   UNL A   1      33.372  34.498  30.866  1.00  0.00    -0.356 N 
ATOM      5  C   UNL A   1      34.202  33.964  31.803  1.00  0.00     0.229 C 
ATOM      6  O   UNL A   1      33.735  33.112  32.560  1.00  0.00    -0.275 OA
ATOM      7  H   UNL A   1      32.460  34.129  30.863  1.00  0.00     0.163 HD
BRANCH   5   8
ATOM      8  C   UNL A   1      35.661  34.394  31.870  1.00  0.00     0.142 C 
ATOM      9  N   UNL A   1      37.506  33.309  32.897  1.00  0.00    -0.329 N 
ATOM     10  C   UNL A   1      36.678  33.847  33.975  1.00  0.00     0.263 C 
ATOM     11  C   UNL A   1      36.586  33.162  31.750  1.00  0.00     0.193 C 
ATOM     12  H   UNL A   1      38.278  33.929  32.649  1.00  0.00     0.348 HD
ATOM     13  C   UNL A   1      35.981  34.980  33.252  1.00  0.00     0.081 C 
ATOM     14  C   UNL A   1      37.339  33.129  30.422  1.00  0.00     0.076 C 
BRANCH   9  15
ATOM     15  C   UNL A   1      38.215  32.090  33.283  1.00  0.00     0.293 C 
BRANCH  15  16
ATOM     16  C   UNL A   1      39.699  32.352  33.428  1.00  0.00    -0.026 C 
ATOM     17  C   UNL A   1      40.569  31.394  33.792  1.00  0.00     0.013 C 
ATOM     18  C   UNL A   1      40.161  33.757  33.147  1.00  0.00     0.045 C 
ENDBRANCH  15  16
ENDBRANCH   9  15
ENDBRANCH   5   8
ENDBRANCH   3   4
ENDBRANCH   2   3
ENDBRANCH   1   2
BRANCH   1  19
ATOM     19  C   UNL A   1      34.499  32.397  28.214  1.00  0.00     0.116 C 
BRANCH  19  20
ATOM     20  N   UNL A   1      33.892  31.101  27.958  1.00  0.00    -0.352 N 
ATOM     21  C   UNL A   1      34.501  29.866  27.909  1.00  0.00     0.251 C 
ATOM     22  H   UNL A   1      32.920  31.107  27.799  1.00  0.00     0.163 HD
ATOM     23  O   UNL A   1      33.869  28.877  27.562  1.00  0.00    -0.269 OA
BRANCH  21  24
ATOM     24  C   UNL A   1      35.937  29.759  28.245  1.00  0.00     0.039 A 
ATOM     25  C   UNL A   1      36.307  29.387  29.538  1.00  0.00     0.014 A 
ATOM     26  C   UNL A   1      36.911  29.975  27.265  1.00  0.00     0.014 A 
ATOM     27  C   UNL A   1      37.653  29.153  29.833  1.00  0.00     0.010 A 
ATOM     28  C   UNL A   1      38.242  29.679  27.542  1.00  0.00     0.010 A 
ATOM     29  C   UNL A   1      38.625  29.257  28.825  1.00  0.00    -0.014 A 
BRANCH  29  30
ATOM     30  C   UNL A   1      40.051  28.919  29.073  1.00  0.00     0.031 A 
ATOM     31  C   UNL A   1      40.993  29.977  29.576  1.00  0.00     0.074 A 
ATOM     32  C   UNL A   1      40.517  27.696  28.749  1.00  0.00     0.049 A 
ATOM     33  N   UNL A   1      42.294  29.933  29.706  1.00  0.00    -0.248 NA
ATOM     34  C   UNL A   1      40.395  31.267  29.955  1.00  0.00     0.031 C 
ATOM     35  C   UNL A   1      39.711  26.595  28.216  1.00  0.00     0.029 A 
ATOM     36  N   UNL A   1      41.789  27.181  28.799  1.00  0.00    -0.354 N 
ATOM     37  C   UNL A   1      42.673  31.192  30.151  1.00  0.00     0.074 A 
ATOM     38  C   UNL A   1      41.468  31.991  30.234  1.00  0.00     0.031 C 
ATOM     39  C   UNL A   1      40.506  25.535  27.995  1.00  0.00     0.029 A 
ATOM     40  C   UNL A   1      41.882  25.892  28.328  1.00  0.00     0.049 A 
ATOM     41  H   UNL A   1      42.562  27.687  29.138  1.00  0.00     0.167 HD
ATOM     42  C   UNL A   1      43.910  31.639  30.478  1.00  0.00     0.037 A 
ATOM     43  C   UNL A   1      42.955  25.093  28.167  1.00  0.00     0.037 A 
ATOM     44  C   UNL A   1      45.099  30.829  30.425  1.00  0.00     0.049 A 
ATOM     45  C   UNL A   1      44.317  25.606  28.549  1.00  0.00     0.074 A 
ATOM     46  C   UNL A   1      46.389  31.173  30.786  1.00  0.00     0.029 A 
ATOM     47  N   UNL A   1      45.143  29.513  29.989  1.00  0.00    -0.354 N 
ATOM     48  N   UNL A   1      44.653  26.787  29.010  1.00  0.00    -0.248 NA
ATOM     49  C   UNL A   1      45.446  24.678  28.393  1.00  0.00     0.031 C 
ATOM     50  C   UNL A   1      47.220  30.075  30.539  1.00  0.00     0.029 A 
ATOM     51  C   UNL A   1      46.439  29.033  30.063  1.00  0.00     0.049 A 
ATOM     52  H   UNL A   1      44.366  28.997  29.673  1.00  0.00     0.167 HD
ATOM     53  C   UNL A   1      46.025  26.733  29.229  1.00  0.00     0.074 A 
ATOM     54  C   UNL A   1      46.458  25.404  28.852  1.00  0.00     0.031 C 
ATOM     55  C   UNL A   1      46.850  27.699  29.702  1.00  0.00     0.037 A 
BRANCH  42  56
ATOM     56  C   UNL A   1      44.036  33.070  30.922  1.00  0.00     0.058 A 
ATOM     57  C   UNL A   1      43.848  33.445  32.261  1.00  0.00     0.135 A 
ATOM     58  C   UNL A   1      44.370  34.076  30.000  1.00  0.00     0.135 A 
ATOM     59  F   UNL A   1      43.512  32.525  33.180  1.00  0.00    -0.206 F 
ATOM     60  C   UNL A   1      43.952  34.771  32.666  1.00  0.00     0.059 A 
ATOM     61  C   UNL A   1      44.506  35.406  30.389  1.00  0.00     0.059 A 
ATOM     62  F   UNL A   1      44.561  33.772  28.706  1.00  0.00    -0.206 F 
ATOM     63  C   UNL A   1      44.278  35.746  31.721  1.00  0.00     0.060 A 
BRANCH  63  64
ATOM     64  S   UNL A   1      44.402  37.464  32.260  1.00  0.00     0.124 S 
ATOM     65  O   UNL A   1      43.539  37.461  33.437  1.00  0.00    -0.237 OA
ATOM     66  O   UNL A   1      45.830  37.609  32.522  1.00  0.00    -0.237 OA
ATOM     67  O   UNL A   1      43.899  38.216  31.114  1.00  0.00    -0.744 OA
ENDBRANCH  63  64
ENDBRANCH  42  56
BRANCH  43  68
ATOM     68  C   UNL A   1      42.780  23.715  27.638  1.00  0.00     0.058 A 
ATOM     69  C   UNL A   1      42.542  22.638  28.505  1.00  0.00     0.135 A 
ATOM     70  C   UNL A   1      42.826  23.449  26.261  1.00  0.00     0.135 A 
ATOM     71  F   UNL A   1      42.498  22.841  29.830  1.00  0.00    -0.206 F 
ATOM     72  C   UNL A   1      42.368  21.343  28.028  1.00  0.00     0.059 A 
ATOM     73  C   UNL A   1      42.631  22.166  25.758  1.00  0.00     0.059 A 
ATOM     74  F   UNL A   1      43.033  24.449  25.390  1.00  0.00    -0.206 F 
ATOM     75  C   UNL A   1      42.411  21.117  26.651  1.00  0.00     0.060 A 
BRANCH  75  76
ATOM     76  S   UNL A   1      42.126  19.442  26.037  1.00  0.00     0.124 S 
ATOM     77  O   UNL A   1      40.679  19.439  25.858  1.00  0.00    -0.237 OA
ATOM     78  O   UNL A   1      42.922  19.424  24.814  1.00  0.00    -0.237 OA
ATOM     79  O   UNL A   1      42.632  18.600  27.117  1.00  0.00    -0.744 OA
ENDBRANCH  75  76
ENDBRANCH  43  68
BRANCH  55  80
ATOM     80  C   UNL A   1      48.298  27.345  29.893  1.00  0.00     0.058 A 
ATOM     81  C   UNL A   1      49.259  27.609  28.907  1.00  0.00     0.135 A 
ATOM     82  C   UNL A   1      48.737  26.796  31.109  1.00  0.00     0.135 A 
ATOM     83  F   UNL A   1      48.890  28.127  27.725  1.00  0.00    -0.206 F 
ATOM     84  C   UNL A   1      50.607  27.331  29.115  1.00  0.00     0.059 A 
ATOM     85  C   UNL A   1      50.080  26.532  31.347  1.00  0.00     0.059 A 
ATOM     86  F   UNL A   1      47.857  26.532  32.088  1.00  0.00    -0.206 F 
ATOM     87  C   UNL A   1      51.008  26.796  30.340  1.00  0.00     0.060 A 
BRANCH  87  88
ATOM     88  S   UNL A   1      52.765  26.485  30.619  1.00  0.00     0.124 S 
ATOM     89  O   UNL A   1      52.723  25.318  31.494  1.00  0.00    -0.237 OA
ATOM     90  O   UNL A   1      53.258  26.246  29.265  1.00  0.00    -0.237 OA
ATOM     91  O   UNL A   1      53.234  27.721  31.239  1.00  0.00    -0.744 OA
ENDBRANCH  87  88
ENDBRANCH  55  80
ENDBRANCH  29  30
ENDBRANCH  21  24
ENDBRANCH  19  20
ENDBRANCH   1  19
TORSDOF 16
ENDMDL
MODEL 2
REMARK VINA RESULT:      -9.6      2.983      5.686
REMARK SMILES C=C(C)C[N@@H+]1CC[C@H](C(=O)NCCCCNC(=O)c2ccc(-c3c4nc(c(-c5c(F)cc(S(=O)(=O)[O-])cc5F)c5ccc([nH]5)c(-c5c(F)cc(S(=O)(=O)[O-])cc5F)c5nc(c(-c6c(F)cc(S(=O)(=O)[O-])cc6F)c6ccc3[nH]6)C=C5)C=C4)cc2)[C@H]1C
REMARK SMILES IDX 14 1 13 2 12 3 11 4 9 5 10 6 8 8 5 9 6 10 85 11 7 13 86 14
REMARK SMILES IDX 4 15 2 16 1 17 3 18 15 19 16 20 17 21 18 23 19 24 20 25
REMARK SMILES IDX 84 26 21 27 83 28 22 29 23 30 24 31 77 32 25 33 82 34 76 35
REMARK SMILES IDX 78 36 26 37 81 38 75 39 74 40 27 42 61 43 40 44 60 45 41 46
REMARK SMILES IDX 44 47 59 48 79 49 42 50 43 51 58 53 80 54 45 55 28 56 29 57
REMARK SMILES IDX 38 58 30 59 31 60 37 61 39 62 32 63 33 64 34 65 35 66 36 67
REMARK SMILES IDX 62 68 63 69 72 70 64 71 65 72 71 73 73 74 66 75 67 76 68 77
REMARK SMILES IDX 69 78 70 79 46 80 47 81 56 82 48 83 49 84 55 85 57 86 50 87
REMARK SMILES IDX 51 88 52 89 53 90 54 91
REMARK H PARENT 11 7 5 12 16 22 78 41 44 52
REMARK Flexibility Score: inf
ROOT
ATOM      1  C   UNL A   1      33.744  28.470  25.658  1.00  0.00     0.023 C 
ENDROOT
BRANCH   1   2
ATOM      2  C   UNL A   1      32.774  29.286  24.799  1.00  0.00     0.023 C 
BRANCH   2   3
ATOM      3  C   UNL A   1      31.951  28.468  23.806  1.00  0.00     0.116 C 
BRANCH   3   4
ATOM      4  N   UNL A   1      32.782  27.899  22.764  1.00  0.00    -0.356 N 
ATOM      5  C   UNL A   1      33.203  26.619  22.573  1.00  0.00     0.229 C 
ATOM      6  O   UNL A   1      33.890  26.386  21.577  1.00  0.00    -0.275 OA
ATOM      7  H   UNL A   1      33.091  28.541  22.085  1.00  0.00     0.163 HD
BRANCH   5   8
ATOM      8  C   UNL A   1      32.856  25.538  23.587  1.00  0.00     0.142 C 
ATOM      9  N   UNL A   1      33.692  23.324  23.776  1.00  0.00    -0.329 N 
ATOM     10  C   UNL A   1      32.814  23.346  22.608  1.00  0.00     0.263 C 
ATOM     11  C   UNL A   1      34.119  24.727  23.956  1.00  0.00     0.193 C 
ATOM     12  H   UNL A   1      33.218  22.992  24.616  1.00  0.00     0.348 HD
ATOM     13  C   UNL A   1      31.907  24.506  22.963  1.00  0.00     0.081 C 
ATOM     14  C   UNL A   1      34.586  24.997  25.384  1.00  0.00     0.076 C 
BRANCH   9  15
ATOM     15  C   UNL A   1      34.781  22.357  23.646  1.00  0.00     0.293 C 
BRANCH  15  16
ATOM     16  C   UNL A   1      34.712  21.316  24.743  1.00  0.00    -0.026 C 
ATOM     17  C   UNL A   1      35.651  21.213  25.700  1.00  0.00     0.013 C 
ATOM     18  C   UNL A   1      33.530  20.384  24.708  1.00  0.00     0.045 C 
ENDBRANCH  15  16
ENDBRANCH   9  15
ENDBRANCH   5   8
ENDBRANCH   3   4
ENDBRANCH   2   3
ENDBRANCH   1   2
BRANCH   1  19
ATOM     19  C   UNL A   1      33.546  28.596  27.165  1.00  0.00     0.116 C 
BRANCH  19  20
ATOM     20  N   UNL A   1      33.468  29.977  27.616  1.00  0.00    -0.352 N 
ATOM     21  C   UNL A   1      34.437  30.726  28.246  1.00  0.00     0.251 C 
ATOM     22  H   UNL A   1      32.612  30.434  27.450  1.00  0.00     0.163 HD
ATOM     23  O   UNL A   1      34.176  31.843  28.673  1.00  0.00    -0.269 OA
BRANCH  21  24
ATOM     24  C   UNL A   1      35.785  30.147  28.433  1.00  0.00     0.039 A 
ATOM     25  C   UNL A   1      36.679  30.146  27.361  1.00  0.00     0.014 A 
ATOM     26  C   UNL A   1      36.177  29.656  29.682  1.00  0.00     0.014 A 
ATOM     27  C   UNL A   1      37.996  29.724  27.560  1.00  0.00     0.010 A 
ATOM     28  C   UNL A   1      37.504  29.298  29.894  1.00  0.00     0.010 A 
ATOM     29  C   UNL A   1      38.430  29.337  28.839  1.00  0.00    -0.014 A 
BRANCH  29  30
ATOM     30  C   UNL A   1      39.846  28.980  29.112  1.00  0.00     0.031 A 
ATOM     31  C   UNL A   1      40.793  30.025  29.634  1.00  0.00     0.074 A 
ATOM     32  C   UNL A   1      40.302  27.752  28.794  1.00  0.00     0.049 A 
ATOM     33  N   UNL A   1      42.091  29.964  29.786  1.00  0.00    -0.248 NA
ATOM     34  C   UNL A   1      40.205  31.322  30.003  1.00  0.00     0.031 C 
ATOM     35  C   UNL A   1      39.491  26.662  28.245  1.00  0.00     0.029 A 
ATOM     36  N   UNL A   1      41.565  27.220  28.866  1.00  0.00    -0.354 N 
ATOM     37  C   UNL A   1      42.478  31.218  30.240  1.00  0.00     0.074 A 
ATOM     38  C   UNL A   1      41.282  32.032  30.302  1.00  0.00     0.031 C 
ATOM     39  C   UNL A   1      40.276  25.592  28.036  1.00  0.00     0.029 A 
ATOM     40  C   UNL A   1      41.650  25.930  28.395  1.00  0.00     0.049 A 
ATOM     41  H   UNL A   1      42.339  27.716  29.220  1.00  0.00     0.167 HD
ATOM     42  C   UNL A   1      43.715  31.647  30.589  1.00  0.00     0.037 A 
ATOM     43  C   UNL A   1      42.715  25.118  28.252  1.00  0.00     0.037 A 
ATOM     44  C   UNL A   1      44.894  30.823  30.556  1.00  0.00     0.049 A 
ATOM     45  C   UNL A   1      44.077  25.612  28.659  1.00  0.00     0.074 A 
ATOM     46  C   UNL A   1      46.182  31.149  30.941  1.00  0.00     0.029 A 
ATOM     47  N   UNL A   1      44.928  29.507  30.119  1.00  0.00    -0.354 N 
ATOM     48  N   UNL A   1      44.420  26.788  29.127  1.00  0.00    -0.248 NA
ATOM     49  C   UNL A   1      45.197  24.669  28.522  1.00  0.00     0.031 C 
ATOM     50  C   UNL A   1      47.003  30.040  30.706  1.00  0.00     0.029 A 
ATOM     51  C   UNL A   1      46.216  29.010  30.215  1.00  0.00     0.049 A 
ATOM     52  H   UNL A   1      44.150  29.001  29.789  1.00  0.00     0.167 HD
ATOM     53  C   UNL A   1      45.787  26.716  29.370  1.00  0.00     0.074 A 
ATOM     54  C   UNL A   1      46.209  25.382  28.999  1.00  0.00     0.031 C 
ATOM     55  C   UNL A   1      46.616  27.671  29.860  1.00  0.00     0.037 A 
BRANCH  42  56
ATOM     56  C   UNL A   1      43.851  33.076  31.037  1.00  0.00     0.058 A 
ATOM     57  C   UNL A   1      44.016  34.124  30.118  1.00  0.00     0.135 A 
ATOM     58  C   UNL A   1      43.795  33.405  32.402  1.00  0.00     0.135 A 
ATOM     59  F   UNL A   1      44.093  33.863  28.803  1.00  0.00    -0.206 F 
ATOM     60  C   UNL A   1      44.156  35.443  30.536  1.00  0.00     0.059 A 
ATOM     61  C   UNL A   1      43.904  34.721  32.841  1.00  0.00     0.059 A 
ATOM     62  F   UNL A   1      43.637  32.441  33.324  1.00  0.00    -0.206 F 
ATOM     63  C   UNL A   1      44.102  35.731  31.901  1.00  0.00     0.060 A 
BRANCH  63  64
ATOM     64  S   UNL A   1      44.292  37.446  32.429  1.00  0.00     0.124 S 
ATOM     65  O   UNL A   1      43.262  37.549  33.458  1.00  0.00    -0.237 OA
ATOM     66  O   UNL A   1      45.671  37.477  32.909  1.00  0.00    -0.237 OA
ATOM     67  O   UNL A   1      44.040  38.207  31.209  1.00  0.00    -0.744 OA
ENDBRANCH  63  64
ENDBRANCH  42  56
BRANCH  43  68
ATOM     68  C   UNL A   1      42.532  23.742  27.718  1.00  0.00     0.058 A 
ATOM     69  C   UNL A   1      42.489  23.509  26.335  1.00  0.00     0.135 A 
ATOM     70  C   UNL A   1      42.418  22.635  28.572  1.00  0.00     0.135 A 
ATOM     71  F   UNL A   1      42.586  24.537  25.479  1.00  0.00    -0.206 F 
ATOM     72  C   UNL A   1      42.327  22.229  25.816  1.00  0.00     0.059 A 
ATOM     73  C   UNL A   1      42.278  21.342  28.077  1.00  0.00     0.059 A 
ATOM     74  F   UNL A   1      42.471  22.804  29.902  1.00  0.00    -0.206 F 
ATOM     75  C   UNL A   1      42.225  21.150  26.696  1.00  0.00     0.060 A 
BRANCH  75  76
ATOM     76  S   UNL A   1      42.074  19.485  26.013  1.00  0.00     0.124 S 
ATOM     77  O   UNL A   1      40.638  19.399  25.768  1.00  0.00    -0.237 OA
ATOM     78  O   UNL A   1      42.920  19.562  24.827  1.00  0.00    -0.237 OA
ATOM     79  O   UNL A   1      42.586  18.636  27.084  1.00  0.00    -0.744 OA
ENDBRANCH  75  76
ENDBRANCH  43  68
BRANCH  55  80
ATOM     80  C   UNL A   1      48.056  27.297  30.076  1.00  0.00     0.058 A 
ATOM     81  C   UNL A   1      49.020  27.458  29.070  1.00  0.00     0.135 A 
ATOM     82  C   UNL A   1      48.486  26.837  31.331  1.00  0.00     0.135 A 
ATOM     83  F   UNL A   1      48.659  27.888  27.851  1.00  0.00    -0.206 F 
ATOM     84  C   UNL A   1      50.361  27.164  29.297  1.00  0.00     0.059 A 
ATOM     85  C   UNL A   1      49.823  26.559  31.587  1.00  0.00     0.059 A 
ATOM     86  F   UNL A   1      47.603  26.674  32.330  1.00  0.00    -0.206 F 
ATOM     87  C   UNL A   1      50.754  26.719  30.561  1.00  0.00     0.060 A 
BRANCH  87  88
ATOM     88  S   UNL A   1      52.503  26.388  30.860  1.00  0.00     0.124 S 
ATOM     89  O   UNL A   1      52.908  27.583  31.594  1.00  0.00    -0.237 OA
ATOM     90  O   UNL A   1      52.460  25.152  31.636  1.00  0.00    -0.237 OA
ATOM     91  O   UNL A   1      53.058  26.257  29.516  1.00  0.00    -0.744 OA
ENDBRANCH  87  88
ENDBRANCH  55  80
ENDBRANCH  29  30
ENDBRANCH  21  24
ENDBRANCH  19  20
ENDBRANCH   1  19
TORSDOF 16
ENDMDL
MODEL 3
REMARK VINA RESULT:      -9.4      1.038      2.224
REMARK SMILES C=C(C)C[N@@H+]1CC[C@H](C(=O)NCCCCNC(=O)c2ccc(-c3c4nc(c(-c5c(F)cc(S(=O)(=O)[O-])cc5F)c5ccc([nH]5)c(-c5c(F)cc(S(=O)(=O)[O-])cc5F)c5nc(c(-c6c(F)cc(S(=O)(=O)[O-])cc6F)c6ccc3[nH]6)C=C5)C=C4)cc2)[C@H]1C
REMARK SMILES IDX 14 1 13 2 12 3 11 4 9 5 10 6 8 8 5 9 6 10 85 11 7 13 86 14
REMARK SMILES IDX 4 15 2 16 1 17 3 18 15 19 16 20 17 21 18 23 19 24 20 25
REMARK SMILES IDX 84 26 21 27 83 28 22 29 23 30 24 31 77 32 25 33 82 34 76 35
REMARK SMILES IDX 78 36 26 37 81 38 75 39 74 40 27 42 61 43 40 44 60 45 41 46
REMARK SMILES IDX 44 47 59 48 79 49 42 50 43 51 58 53 80 54 45 55 28 56 29 57
REMARK SMILES IDX 38 58 30 59 31 60 37 61 39 62 32 63 33 64 34 65 35 66 36 67
REMARK SMILES IDX 62 68 63 69 72 70 64 71 65 72 71 73 73 74 66 75 67 76 68 77
REMARK SMILES IDX 69 78 70 79 46 80 47 81 56 82 48 83 49 84 55 85 57 86 50 87
REMARK SMILES IDX 51 88 52 89 53 90 54 91
REMARK H PARENT 11 7 5 12 16 22 78 41 44 52
REMARK Flexibility Score: inf
ROOT
ATOM      1  C   UNL A   1      34.431  33.571  30.412  1.00  0.00     0.023 C 
ENDROOT
BRANCH   1   2
ATOM      2  C   UNL A   1      34.755  33.159  31.851  1.00  0.00     0.023 C 
BRANCH   2   3
ATOM      3  C   UNL A   1      35.563  34.184  32.646  1.00  0.00     0.116 C 
BRANCH   3   4
ATOM      4  N   UNL A   1      35.905  33.688  33.965  1.00  0.00    -0.356 N 
ATOM      5  C   UNL A   1      36.865  32.804  34.352  1.00  0.00     0.229 C 
ATOM      6  O   UNL A   1      36.971  32.568  35.556  1.00  0.00    -0.275 OA
ATOM      7  H   UNL A   1      35.355  34.048  34.697  1.00  0.00     0.163 HD
BRANCH   5   8
ATOM      8  C   UNL A   1      37.740  32.118  33.313  1.00  0.00     0.142 C 
ATOM      9  N   UNL A   1      39.756  30.899  33.607  1.00  0.00    -0.329 N 
ATOM     10  C   UNL A   1      40.080  32.309  33.820  1.00  0.00     0.263 C 
ATOM     11  C   UNL A   1      38.307  30.798  33.881  1.00  0.00     0.193 C 
ATOM     12  H   UNL A   1      39.955  30.590  32.656  1.00  0.00     0.348 HD
ATOM     13  C   UNL A   1      38.981  32.971  33.014  1.00  0.00     0.081 C 
ATOM     14  C   UNL A   1      37.692  29.569  33.216  1.00  0.00     0.076 C 
BRANCH   9  15
ATOM     15  C   UNL A   1      40.600  30.002  34.396  1.00  0.00     0.293 C 
BRANCH  15  16
ATOM     16  C   UNL A   1      41.371  29.058  33.497  1.00  0.00    -0.026 C 
ATOM     17  C   UNL A   1      40.764  28.168  32.695  1.00  0.00     0.013 C 
ATOM     18  C   UNL A   1      42.872  29.162  33.550  1.00  0.00     0.045 C 
ENDBRANCH  15  16
ENDBRANCH   9  15
ENDBRANCH   5   8
ENDBRANCH   3   4
ENDBRANCH   2   3
ENDBRANCH   1   2
BRANCH   1  19
ATOM     19  C   UNL A   1      35.123  32.753  29.328  1.00  0.00     0.116 C 
BRANCH  19  20
ATOM     20  N   UNL A   1      34.225  31.832  28.648  1.00  0.00    -0.352 N 
ATOM     21  C   UNL A   1      34.510  30.592  28.122  1.00  0.00     0.251 C 
ATOM     22  H   UNL A   1      33.294  32.136  28.550  1.00  0.00     0.163 HD
ATOM     23  O   UNL A   1      33.669  29.987  27.470  1.00  0.00    -0.269 OA
BRANCH  21  24
ATOM     24  C   UNL A   1      35.859  30.018  28.324  1.00  0.00     0.039 A 
ATOM     25  C   UNL A   1      36.792  30.096  27.289  1.00  0.00     0.014 A 
ATOM     26  C   UNL A   1      36.210  29.451  29.552  1.00  0.00     0.014 A 
ATOM     27  C   UNL A   1      38.107  29.678  27.510  1.00  0.00     0.010 A 
ATOM     28  C   UNL A   1      37.534  29.096  29.791  1.00  0.00     0.010 A 
ATOM     29  C   UNL A   1      38.497  29.214  28.777  1.00  0.00    -0.014 A 
BRANCH  29  30
ATOM     30  C   UNL A   1      39.908  28.856  29.080  1.00  0.00     0.031 A 
ATOM     31  C   UNL A   1      40.840  29.898  29.633  1.00  0.00     0.074 A 
ATOM     32  C   UNL A   1      40.373  27.632  28.763  1.00  0.00     0.049 A 
ATOM     33  N   UNL A   1      42.134  29.838  29.815  1.00  0.00    -0.248 NA
ATOM     34  C   UNL A   1      40.242  31.192  30.000  1.00  0.00     0.031 C 
ATOM     35  C   UNL A   1      39.577  26.545  28.186  1.00  0.00     0.029 A 
ATOM     36  N   UNL A   1      41.635  27.101  28.860  1.00  0.00    -0.354 N 
ATOM     37  C   UNL A   1      42.509  31.088  30.289  1.00  0.00     0.074 A 
ATOM     38  C   UNL A   1      41.311  31.901  30.330  1.00  0.00     0.031 C 
ATOM     39  C   UNL A   1      40.368  25.479  27.986  1.00  0.00     0.029 A 
ATOM     40  C   UNL A   1      41.733  25.816  28.380  1.00  0.00     0.049 A 
ATOM     41  H   UNL A   1      42.399  27.595  29.236  1.00  0.00     0.167 HD
ATOM     42  C   UNL A   1      43.736  31.517  30.671  1.00  0.00     0.037 A 
ATOM     43  C   UNL A   1      42.802  25.006  28.255  1.00  0.00     0.037 A 
ATOM     44  C   UNL A   1      44.917  30.694  30.659  1.00  0.00     0.049 A 
ATOM     45  C   UNL A   1      44.154  25.499  28.698  1.00  0.00     0.074 A 
ATOM     46  C   UNL A   1      46.195  31.019  31.076  1.00  0.00     0.029 A 
ATOM     47  N   UNL A   1      44.964  29.382  30.211  1.00  0.00    -0.354 N 
ATOM     48  N   UNL A   1      44.483  26.671  29.184  1.00  0.00    -0.248 NA
ATOM     49  C   UNL A   1      45.278  24.559  28.579  1.00  0.00     0.031 C 
ATOM     50  C   UNL A   1      47.023  29.913  30.852  1.00  0.00     0.029 A 
ATOM     51  C   UNL A   1      46.250  28.886  30.333  1.00  0.00     0.049 A 
ATOM     52  H   UNL A   1      44.194  28.878  29.858  1.00  0.00     0.167 HD
ATOM     53  C   UNL A   1      45.844  26.599  29.459  1.00  0.00     0.074 A 
ATOM     54  C   UNL A   1      46.277  25.268  29.087  1.00  0.00     0.031 C 
ATOM     55  C   UNL A   1      46.661  27.551  29.976  1.00  0.00     0.037 A 
BRANCH  42  56
ATOM     56  C   UNL A   1      43.860  32.942  31.134  1.00  0.00     0.058 A 
ATOM     57  C   UNL A   1      44.194  33.978  30.249  1.00  0.00     0.135 A 
ATOM     58  C   UNL A   1      43.620  33.279  32.477  1.00  0.00     0.135 A 
ATOM     59  F   UNL A   1      44.448  33.708  28.958  1.00  0.00    -0.206 F 
ATOM     60  C   UNL A   1      44.320  35.293  30.682  1.00  0.00     0.059 A 
ATOM     61  C   UNL A   1      43.715  34.593  32.927  1.00  0.00     0.059 A 
ATOM     62  F   UNL A   1      43.297  32.327  33.366  1.00  0.00    -0.206 F 
ATOM     63  C   UNL A   1      44.082  35.590  32.026  1.00  0.00     0.060 A 
BRANCH  63  64
ATOM     64  S   UNL A   1      44.258  37.300  32.576  1.00  0.00     0.124 S 
ATOM     65  O   UNL A   1      43.874  38.032  31.374  1.00  0.00    -0.237 OA
ATOM     66  O   UNL A   1      43.316  37.371  33.689  1.00  0.00    -0.237 OA
ATOM     67  O   UNL A   1      45.667  37.394  32.946  1.00  0.00    -0.744 OA
ENDBRANCH  63  64
ENDBRANCH  42  56
BRANCH  43  68
ATOM     68  C   UNL A   1      42.634  23.635  27.705  1.00  0.00     0.058 A 
ATOM     69  C   UNL A   1      42.662  23.409  26.321  1.00  0.00     0.135 A 
ATOM     70  C   UNL A   1      42.464  22.525  28.546  1.00  0.00     0.135 A 
ATOM     71  F   UNL A   1      42.815  24.439  25.476  1.00  0.00    -0.206 F 
ATOM     72  C   UNL A   1      42.515  22.132  25.788  1.00  0.00     0.059 A 
ATOM     73  C   UNL A   1      42.338  21.236  28.038  1.00  0.00     0.059 A 
ATOM     74  F   UNL A   1      42.448  22.687  29.879  1.00  0.00    -0.206 F 
ATOM     75  C   UNL A   1      42.356  21.051  26.656  1.00  0.00     0.060 A 
BRANCH  75  76
ATOM     76  S   UNL A   1      42.224  19.390  25.957  1.00  0.00     0.124 S 
ATOM     77  O   UNL A   1      40.782  19.258  25.788  1.00  0.00    -0.237 OA
ATOM     78  O   UNL A   1      43.003  19.512  24.728  1.00  0.00    -0.237 OA
ATOM     79  O   UNL A   1      42.822  18.545  26.986  1.00  0.00    -0.744 OA
ENDBRANCH  75  76
ENDBRANCH  43  68
BRANCH  55  80
ATOM     80  C   UNL A   1      48.095  27.177  30.223  1.00  0.00     0.058 A 
ATOM     81  C   UNL A   1      49.076  27.316  29.230  1.00  0.00     0.135 A 
ATOM     82  C   UNL A   1      48.503  26.740  31.494  1.00  0.00     0.135 A 
ATOM     83  F   UNL A   1      48.736  27.724  27.997  1.00  0.00    -0.206 F 
ATOM     84  C   UNL A   1      50.412  27.023  29.485  1.00  0.00     0.059 A 
ATOM     85  C   UNL A   1      49.836  26.464  31.777  1.00  0.00     0.059 A 
ATOM     86  F   UNL A   1      47.604  26.598  32.480  1.00  0.00    -0.206 F 
ATOM     87  C   UNL A   1      50.783  26.601  30.763  1.00  0.00     0.060 A 
BRANCH  87  88
ATOM     88  S   UNL A   1      52.526  26.271  31.097  1.00  0.00     0.124 S 
ATOM     89  O   UNL A   1      52.458  24.976  31.766  1.00  0.00    -0.237 OA
ATOM     90  O   UNL A   1      53.105  26.263  29.757  1.00  0.00    -0.237 OA
ATOM     91  O   UNL A   1      52.929  27.394  31.939  1.00  0.00    -0.744 OA
ENDBRANCH  87  88
ENDBRANCH  55  80
ENDBRANCH  29  30
ENDBRANCH  21  24
ENDBRANCH  19  20
ENDBRANCH   1  19
TORSDOF 16
ENDMDL
