MODEL 1
REMARK VINA RESULT:     -13.7      0.000      0.000
REMARK SMILES Cc1nn2c(nnc3c(=O)n(CCCC(=O)NCCCCNC(=O)c4ccc(-c5c6nc(c(-c7c(F)cc(S(=O)(=O)[O-])cc7F)c7ccc([nH]7)c(-c7c(F)cc(S(=O)(=O)[O-])cc7F)c7nc(c(-c8c(F)cc(S(=O)(=O)[O-])cc8F)c8ccc5[nH]8)C=C7)C=C6)cc4)ccc32)c1-c1ccc(F)cc1
REMARK SMILES IDX 19 1 18 2 17 3 15 4 16 5 14 7 13 8 12 9 11 10 1 11 2 12 3 13
REMARK SMILES IDX 94 14 4 15 5 16 93 17 6 18 8 19 92 20 7 21 9 22 91 23 10 24
REMARK SMILES IDX 95 25 96 26 101 27 97 28 100 29 98 30 99 31 20 32 21 33
REMARK SMILES IDX 22 34 23 35 24 37 25 38 26 39 90 40 27 41 89 42 28 43 29 44
REMARK SMILES IDX 30 45 83 46 31 47 88 48 82 49 84 50 32 51 87 52 81 53 80 54
REMARK SMILES IDX 33 56 67 57 46 58 66 59 47 60 50 61 65 62 85 63 48 64 49 65
REMARK SMILES IDX 64 67 86 68 51 69 34 70 35 71 44 72 36 73 37 74 43 75 45 76
REMARK SMILES IDX 38 77 39 78 40 79 41 80 42 81 68 82 69 83 78 84 70 85 71 86
REMARK SMILES IDX 77 87 79 88 72 89 73 90 74 91 75 92 76 93 52 94 53 95 62 96
REMARK SMILES IDX 54 97 55 98 61 99 63 100 56 101 57 102 58 103 59 104 60 105
REMARK H PARENT 17 6 22 36 84 55 50 66
REMARK Flexibility Score: inf
ROOT
ATOM      1  C   UNL A   1      32.598  27.610  26.073  1.00  0.00     0.023 C 
ENDROOT
BRANCH   1   2
ATOM      2  C   UNL A   1      33.741  26.671  25.665  1.00  0.00     0.116 C 
BRANCH   2   3
ATOM      3  N   UNL A   1      33.576  25.351  26.230  1.00  0.00    -0.356 N 
ATOM      4  C   UNL A   1      34.171  24.155  26.021  1.00  0.00     0.220 C 
ATOM      5  O   UNL A   1      33.772  23.241  26.758  1.00  0.00    -0.275 OA
ATOM      6  H   UNL A   1      32.875  25.314  26.920  1.00  0.00     0.163 HD
BRANCH   4   7
ATOM      7  C   UNL A   1      35.309  23.852  25.052  1.00  0.00     0.102 C 
BRANCH   7   8
ATOM      8  C   UNL A   1      35.204  22.999  23.785  1.00  0.00     0.032 C 
BRANCH   8   9
ATOM      9  C   UNL A   1      34.012  22.956  22.818  1.00  0.00     0.126 C 
BRANCH   9  10
ATOM     10  N   UNL A   1      32.894  23.924  22.851  1.00  0.00    -0.313 N 
ATOM     11  C   UNL A   1      26.416  27.817  23.880  1.00  0.00     0.069 C 
ATOM     12  C   UNL A   1      27.861  27.655  23.584  1.00  0.00     0.070 A 
ATOM     13  N   UNL A   1      28.466  26.478  23.814  1.00  0.00    -0.170 NA
ATOM     14  C   UNL A   1      28.737  28.602  23.008  1.00  0.00     0.051 A 
ATOM     15  N   UNL A   1      29.739  26.649  23.355  1.00  0.00    -0.210 N 
ATOM     16  C   UNL A   1      29.932  27.936  22.874  1.00  0.00     0.186 A 
ATOM     17  C   UNL A   1      30.779  25.725  23.254  1.00  0.00     0.102 A 
ATOM     18  N   UNL A   1      31.133  28.318  22.361  1.00  0.00    -0.129 NA
ATOM     19  C   UNL A   1      31.892  26.175  22.655  1.00  0.00     0.177 A 
ATOM     20  C   UNL A   1      30.707  24.361  23.727  1.00  0.00     0.049 A 
ATOM     21  N   UNL A   1      32.054  27.477  22.231  1.00  0.00    -0.141 NA
ATOM     22  C   UNL A   1      33.027  25.243  22.412  1.00  0.00     0.280 A 
ATOM     23  C   UNL A   1      31.739  23.528  23.527  1.00  0.00     0.091 A 
ATOM     24  O   UNL A   1      34.022  25.701  21.866  1.00  0.00    -0.267 OA
BRANCH  14  25
ATOM     25  C   UNL A   1      28.581  29.970  22.567  1.00  0.00    -0.012 A 
ATOM     26  C   UNL A   1      28.408  30.257  21.209  1.00  0.00     0.012 A 
ATOM     27  C   UNL A   1      28.473  30.999  23.517  1.00  0.00     0.012 A 
ATOM     28  C   UNL A   1      28.119  31.564  20.807  1.00  0.00     0.040 A 
ATOM     29  C   UNL A   1      28.187  32.302  23.112  1.00  0.00     0.040 A 
ATOM     30  C   UNL A   1      28.012  32.572  21.760  1.00  0.00     0.123 A 
ATOM     31  F   UNL A   1      27.728  33.821  21.372  1.00  0.00    -0.207 F 
ENDBRANCH  14  25
ENDBRANCH   9  10
ENDBRANCH   8   9
ENDBRANCH   7   8
ENDBRANCH   4   7
ENDBRANCH   2   3
ENDBRANCH   1   2
BRANCH   1  32
ATOM     32  C   UNL A   1      32.922  29.105  25.993  1.00  0.00     0.023 C 
BRANCH  32  33
ATOM     33  C   UNL A   1      33.771  29.607  27.153  1.00  0.00     0.116 C 
BRANCH  33  34
ATOM     34  N   UNL A   1      33.980  31.055  27.123  1.00  0.00    -0.352 N 
ATOM     35  C   UNL A   1      34.969  31.760  27.778  1.00  0.00     0.251 C 
ATOM     36  H   UNL A   1      33.348  31.580  26.581  1.00  0.00     0.163 HD
ATOM     37  O   UNL A   1      34.849  32.964  27.997  1.00  0.00    -0.269 OA
BRANCH  35  38
ATOM     38  C   UNL A   1      36.182  31.035  28.184  1.00  0.00     0.039 A 
ATOM     39  C   UNL A   1      36.439  29.733  27.744  1.00  0.00     0.014 A 
ATOM     40  C   UNL A   1      37.086  31.716  29.001  1.00  0.00     0.014 A 
ATOM     41  C   UNL A   1      37.653  29.145  28.086  1.00  0.00     0.010 A 
ATOM     42  C   UNL A   1      38.329  31.186  29.229  1.00  0.00     0.010 A 
ATOM     43  C   UNL A   1      38.592  29.883  28.821  1.00  0.00    -0.014 A 
BRANCH  43  44
ATOM     44  C   UNL A   1      39.902  29.332  29.123  1.00  0.00     0.031 A 
ATOM     45  C   UNL A   1      40.147  29.052  30.562  1.00  0.00     0.074 A 
ATOM     46  C   UNL A   1      40.741  28.913  28.154  1.00  0.00     0.049 A 
ATOM     47  N   UNL A   1      40.901  29.715  31.373  1.00  0.00    -0.248 NA
ATOM     48  C   UNL A   1      39.341  28.013  31.223  1.00  0.00     0.031 C 
ATOM     49  C   UNL A   1      40.502  28.819  26.708  1.00  0.00     0.029 A 
ATOM     50  N   UNL A   1      41.983  28.382  28.282  1.00  0.00    -0.354 N 
ATOM     51  C   UNL A   1      40.862  29.028  32.586  1.00  0.00     0.074 A 
ATOM     52  C   UNL A   1      39.735  28.138  32.493  1.00  0.00     0.031 C 
ATOM     53  C   UNL A   1      41.465  28.061  26.139  1.00  0.00     0.029 A 
ATOM     54  C   UNL A   1      42.471  27.760  27.139  1.00  0.00     0.049 A 
ATOM     55  H   UNL A   1      42.499  28.433  29.120  1.00  0.00     0.167 HD
ATOM     56  C   UNL A   1      41.911  29.078  33.456  1.00  0.00     0.037 A 
ATOM     57  C   UNL A   1      43.607  27.022  27.046  1.00  0.00     0.037 A 
ATOM     58  C   UNL A   1      42.828  30.132  33.088  1.00  0.00     0.049 A 
ATOM     59  C   UNL A   1      44.475  27.438  28.183  1.00  0.00     0.074 A 
ATOM     60  C   UNL A   1      42.727  31.501  32.938  1.00  0.00     0.029 A 
ATOM     61  N   UNL A   1      43.976  29.768  32.423  1.00  0.00    -0.354 N 
ATOM     62  N   UNL A   1      44.973  28.642  28.308  1.00  0.00    -0.248 NA
ATOM     63  C   UNL A   1      44.371  26.681  29.422  1.00  0.00     0.031 C 
ATOM     64  C   UNL A   1      43.521  31.802  31.792  1.00  0.00     0.029 A 
ATOM     65  C   UNL A   1      44.122  30.619  31.358  1.00  0.00     0.049 A 
ATOM     66  H   UNL A   1      44.582  29.031  32.667  1.00  0.00     0.167 HD
ATOM     67  C   UNL A   1      44.844  28.948  29.657  1.00  0.00     0.074 A 
ATOM     68  C   UNL A   1      44.533  27.671  30.303  1.00  0.00     0.031 C 
ATOM     69  C   UNL A   1      44.711  30.237  30.090  1.00  0.00     0.037 A 
BRANCH  56  70
ATOM     70  C   UNL A   1      42.333  27.966  34.395  1.00  0.00     0.058 A 
ATOM     71  C   UNL A   1      42.280  28.201  35.787  1.00  0.00     0.135 A 
ATOM     72  C   UNL A   1      43.062  26.823  34.003  1.00  0.00     0.135 A 
ATOM     73  F   UNL A   1      41.591  29.243  36.282  1.00  0.00    -0.206 F 
ATOM     74  C   UNL A   1      42.999  27.435  36.705  1.00  0.00     0.059 A 
ATOM     75  C   UNL A   1      43.743  26.014  34.909  1.00  0.00     0.059 A 
ATOM     76  F   UNL A   1      43.233  26.481  32.723  1.00  0.00    -0.206 F 
ATOM     77  C   UNL A   1      43.750  26.359  36.249  1.00  0.00     0.060 A 
BRANCH  77  78
ATOM     78  S   UNL A   1      44.792  25.460  37.410  1.00  0.00     0.124 S 
ATOM     79  O   UNL A   1      44.184  25.821  38.684  1.00  0.00    -0.237 OA
ATOM     80  O   UNL A   1      44.600  24.079  36.977  1.00  0.00    -0.237 OA
ATOM     81  O   UNL A   1      46.121  26.011  37.164  1.00  0.00    -0.744 OA
ENDBRANCH  77  78
ENDBRANCH  56  70
BRANCH  57  82
ATOM     82  C   UNL A   1      43.777  25.743  26.300  1.00  0.00     0.058 A 
ATOM     83  C   UNL A   1      44.849  25.544  25.411  1.00  0.00     0.135 A 
ATOM     84  C   UNL A   1      43.038  24.589  26.641  1.00  0.00     0.135 A 
ATOM     85  F   UNL A   1      45.624  26.577  25.050  1.00  0.00    -0.206 F 
ATOM     86  C   UNL A   1      45.189  24.274  24.921  1.00  0.00     0.059 A 
ATOM     87  C   UNL A   1      43.352  23.318  26.160  1.00  0.00     0.059 A 
ATOM     88  F   UNL A   1      42.036  24.647  27.531  1.00  0.00    -0.206 F 
ATOM     89  C   UNL A   1      44.443  23.164  25.316  1.00  0.00     0.060 A 
BRANCH  89  90
ATOM     90  S   UNL A   1      44.965  21.507  24.805  1.00  0.00     0.124 S 
ATOM     91  O   UNL A   1      44.729  21.544  23.365  1.00  0.00    -0.237 OA
ATOM     92  O   UNL A   1      46.362  21.482  25.221  1.00  0.00    -0.237 OA
ATOM     93  O   UNL A   1      44.077  20.623  25.557  1.00  0.00    -0.744 OA
ENDBRANCH  89  90
ENDBRANCH  57  82
BRANCH  69  94
ATOM     94  C   UNL A   1      44.977  31.366  29.124  1.00  0.00     0.058 A 
ATOM     95  C   UNL A   1      46.259  31.817  28.759  1.00  0.00     0.135 A 
ATOM     96  C   UNL A   1      43.893  31.865  28.385  1.00  0.00     0.135 A 
ATOM     97  F   UNL A   1      47.357  31.322  29.344  1.00  0.00    -0.206 F 
ATOM     98  C   UNL A   1      46.450  32.735  27.722  1.00  0.00     0.059 A 
ATOM     99  C   UNL A   1      44.062  32.757  27.330  1.00  0.00     0.059 A 
ATOM    100  F   UNL A   1      42.649  31.429  28.642  1.00  0.00    -0.206 F 
ATOM    101  C   UNL A   1      45.345  33.193  27.006  1.00  0.00     0.060 A 
BRANCH 101 102
ATOM    102  S   UNL A   1      45.601  34.305  25.607  1.00  0.00     0.124 S 
ATOM    103  O   UNL A   1      45.049  35.561  26.105  1.00  0.00    -0.237 OA
ATOM    104  O   UNL A   1      47.051  34.275  25.440  1.00  0.00    -0.237 OA
ATOM    105  O   UNL A   1      44.844  33.679  24.526  1.00  0.00    -0.744 OA
ENDBRANCH 101 102
ENDBRANCH  69  94
ENDBRANCH  43  44
ENDBRANCH  35  38
ENDBRANCH  33  34
ENDBRANCH  32  33
ENDBRANCH   1  32
TORSDOF 18
ENDMDL
MODEL 2
REMARK VINA RESULT:     -13.5      3.432      9.103
REMARK SMILES Cc1nn2c(nnc3c(=O)n(CCCC(=O)NCCCCNC(=O)c4ccc(-c5c6nc(c(-c7c(F)cc(S(=O)(=O)[O-])cc7F)c7ccc([nH]7)c(-c7c(F)cc(S(=O)(=O)[O-])cc7F)c7nc(c(-c8c(F)cc(S(=O)(=O)[O-])cc8F)c8ccc5[nH]8)C=C7)C=C6)cc4)ccc32)c1-c1ccc(F)cc1
REMARK SMILES IDX 19 1 18 2 17 3 15 4 16 5 14 7 13 8 12 9 11 10 1 11 2 12 3 13
REMARK SMILES IDX 94 14 4 15 5 16 93 17 6 18 8 19 92 20 7 21 9 22 91 23 10 24
REMARK SMILES IDX 95 25 96 26 101 27 97 28 100 29 98 30 99 31 20 32 21 33
REMARK SMILES IDX 22 34 23 35 24 37 25 38 26 39 90 40 27 41 89 42 28 43 29 44
REMARK SMILES IDX 30 45 83 46 31 47 88 48 82 49 84 50 32 51 87 52 81 53 80 54
REMARK SMILES IDX 33 56 67 57 46 58 66 59 47 60 50 61 65 62 85 63 48 64 49 65
REMARK SMILES IDX 64 67 86 68 51 69 34 70 35 71 44 72 36 73 37 74 43 75 45 76
REMARK SMILES IDX 38 77 39 78 40 79 41 80 42 81 68 82 69 83 78 84 70 85 71 86
REMARK SMILES IDX 77 87 79 88 72 89 73 90 74 91 75 92 76 93 52 94 53 95 62 96
REMARK SMILES IDX 54 97 55 98 61 99 63 100 56 101 57 102 58 103 59 104 60 105
REMARK H PARENT 17 6 22 36 84 55 50 66
REMARK Flexibility Score: inf
ROOT
ATOM      1  C   UNL A   1      36.147  20.916  25.479  1.00  0.00     0.023 C 
ENDROOT
BRANCH   1   2
ATOM      2  C   UNL A   1      36.884  19.876  24.625  1.00  0.00     0.116 C 
BRANCH   2   3
ATOM      3  N   UNL A   1      36.520  18.527  24.992  1.00  0.00    -0.356 N 
ATOM      4  C   UNL A   1      35.411  17.772  24.828  1.00  0.00     0.220 C 
ATOM      5  O   UNL A   1      35.505  16.611  25.254  1.00  0.00    -0.275 OA
ATOM      6  H   UNL A   1      37.240  18.052  25.467  1.00  0.00     0.163 HD
BRANCH   4   7
ATOM      7  C   UNL A   1      34.123  18.174  24.117  1.00  0.00     0.102 C 
BRANCH   7   8
ATOM      8  C   UNL A   1      33.010  19.047  24.704  1.00  0.00     0.032 C 
BRANCH   8   9
ATOM      9  C   UNL A   1      32.204  20.115  23.950  1.00  0.00     0.126 C 
BRANCH   9  10
ATOM     10  N   UNL A   1      32.528  21.558  23.978  1.00  0.00    -0.313 N 
ATOM     11  C   UNL A   1      34.160  28.873  22.565  1.00  0.00     0.069 C 
ATOM     12  C   UNL A   1      33.670  27.732  23.377  1.00  0.00     0.070 A 
ATOM     13  N   UNL A   1      33.461  26.538  22.800  1.00  0.00    -0.170 NA
ATOM     14  C   UNL A   1      33.430  27.701  24.769  1.00  0.00     0.051 A 
ATOM     15  N   UNL A   1      33.111  25.714  23.829  1.00  0.00    -0.210 N 
ATOM     16  C   UNL A   1      33.071  26.402  25.033  1.00  0.00     0.186 A 
ATOM     17  C   UNL A   1      32.873  24.339  23.825  1.00  0.00     0.102 A 
ATOM     18  N   UNL A   1      32.750  25.765  26.192  1.00  0.00    -0.129 NA
ATOM     19  C   UNL A   1      32.650  23.792  25.030  1.00  0.00     0.177 A 
ATOM     20  C   UNL A   1      32.873  23.514  22.639  1.00  0.00     0.049 A 
ATOM     21  N   UNL A   1      32.577  24.523  26.197  1.00  0.00    -0.141 NA
ATOM     22  C   UNL A   1      32.479  22.317  25.149  1.00  0.00     0.280 A 
ATOM     23  C   UNL A   1      32.697  22.189  22.745  1.00  0.00     0.091 A 
ATOM     24  O   UNL A   1      32.274  21.865  26.267  1.00  0.00    -0.267 OA
BRANCH  14  25
ATOM     25  C   UNL A   1      33.524  28.688  25.821  1.00  0.00    -0.012 A 
ATOM     26  C   UNL A   1      34.686  28.787  26.593  1.00  0.00     0.012 A 
ATOM     27  C   UNL A   1      32.497  29.633  25.982  1.00  0.00     0.012 A 
ATOM     28  C   UNL A   1      34.822  29.831  27.513  1.00  0.00     0.040 A 
ATOM     29  C   UNL A   1      32.636  30.672  26.902  1.00  0.00     0.040 A 
ATOM     30  C   UNL A   1      33.798  30.761  27.658  1.00  0.00     0.123 A 
ATOM     31  F   UNL A   1      33.935  31.764  28.534  1.00  0.00    -0.207 F 
ENDBRANCH  14  25
ENDBRANCH   9  10
ENDBRANCH   8   9
ENDBRANCH   7   8
ENDBRANCH   4   7
ENDBRANCH   2   3
ENDBRANCH   1   2
BRANCH   1  32
ATOM     32  C   UNL A   1      36.353  22.374  25.057  1.00  0.00     0.023 C 
BRANCH  32  33
ATOM     33  C   UNL A   1      37.484  23.069  25.802  1.00  0.00     0.116 C 
BRANCH  33  34
ATOM     34  N   UNL A   1      38.459  22.132  26.362  1.00  0.00    -0.352 N 
ATOM     35  C   UNL A   1      39.701  22.443  26.876  1.00  0.00     0.251 C 
ATOM     36  H   UNL A   1      38.202  21.182  26.371  1.00  0.00     0.163 HD
ATOM     37  O   UNL A   1      40.579  21.587  26.973  1.00  0.00    -0.269 OA
BRANCH  35  38
ATOM     38  C   UNL A   1      39.939  23.822  27.326  1.00  0.00     0.039 A 
ATOM     39  C   UNL A   1      38.950  24.806  27.226  1.00  0.00     0.014 A 
ATOM     40  C   UNL A   1      41.184  24.101  27.892  1.00  0.00     0.014 A 
ATOM     41  C   UNL A   1      39.208  26.063  27.763  1.00  0.00     0.010 A 
ATOM     42  C   UNL A   1      41.387  25.296  28.531  1.00  0.00     0.010 A 
ATOM     43  C   UNL A   1      40.425  26.293  28.419  1.00  0.00    -0.014 A 
BRANCH  43  44
ATOM     44  C   UNL A   1      40.695  27.567  29.066  1.00  0.00     0.031 A 
ATOM     45  C   UNL A   1      41.765  28.379  28.429  1.00  0.00     0.074 A 
ATOM     46  C   UNL A   1      39.894  28.061  30.031  1.00  0.00     0.049 A 
ATOM     47  N   UNL A   1      42.961  28.584  28.868  1.00  0.00    -0.248 NA
ATOM     48  C   UNL A   1      41.541  28.893  27.068  1.00  0.00     0.031 C 
ATOM     49  C   UNL A   1      38.619  27.530  30.529  1.00  0.00     0.029 A 
ATOM     50  N   UNL A   1      40.017  29.224  30.719  1.00  0.00    -0.354 N 
ATOM     51  C   UNL A   1      43.560  29.460  27.964  1.00  0.00     0.074 A 
ATOM     52  C   UNL A   1      42.729  29.435  26.790  1.00  0.00     0.031 C 
ATOM     53  C   UNL A   1      37.988  28.476  31.259  1.00  0.00     0.029 A 
ATOM     54  C   UNL A   1      38.881  29.609  31.421  1.00  0.00     0.049 A 
ATOM     55  H   UNL A   1      40.847  29.755  30.721  1.00  0.00     0.167 HD
ATOM     56  C   UNL A   1      44.547  30.314  28.362  1.00  0.00     0.037 A 
ATOM     57  C   UNL A   1      38.687  30.793  32.055  1.00  0.00     0.037 A 
ATOM     58  C   UNL A   1      45.041  29.947  29.669  1.00  0.00     0.049 A 
ATOM     59  C   UNL A   1      40.042  31.354  32.324  1.00  0.00     0.074 A 
ATOM     60  C   UNL A   1      45.632  28.818  30.204  1.00  0.00     0.029 A 
ATOM     61  N   UNL A   1      44.592  30.678  30.744  1.00  0.00    -0.354 N 
ATOM     62  N   UNL A   1      40.912  30.787  33.120  1.00  0.00    -0.248 NA
ATOM     63  C   UNL A   1      40.608  32.253  31.329  1.00  0.00     0.031 C 
ATOM     64  C   UNL A   1      45.065  28.693  31.506  1.00  0.00     0.029 A 
ATOM     65  C   UNL A   1      44.226  29.789  31.722  1.00  0.00     0.049 A 
ATOM     66  H   UNL A   1      44.541  31.659  30.802  1.00  0.00     0.167 HD
ATOM     67  C   UNL A   1      42.133  30.914  32.470  1.00  0.00     0.074 A 
ATOM     68  C   UNL A   1      41.891  31.890  31.406  1.00  0.00     0.031 C 
ATOM     69  C   UNL A   1      43.143  30.013  32.658  1.00  0.00     0.037 A 
BRANCH  56  70
ATOM     70  C   UNL A   1      44.809  31.690  27.785  1.00  0.00     0.058 A 
ATOM     71  C   UNL A   1      46.029  31.917  27.109  1.00  0.00     0.135 A 
ATOM     72  C   UNL A   1      44.081  32.851  28.121  1.00  0.00     0.135 A 
ATOM     73  F   UNL A   1      46.796  30.888  26.712  1.00  0.00    -0.206 F 
ATOM     74  C   UNL A   1      46.544  33.196  26.899  1.00  0.00     0.059 A 
ATOM     75  C   UNL A   1      44.552  34.137  27.873  1.00  0.00     0.059 A 
ATOM     76  F   UNL A   1      42.925  32.809  28.790  1.00  0.00    -0.206 F 
ATOM     77  C   UNL A   1      45.807  34.300  27.311  1.00  0.00     0.060 A 
BRANCH  77  78
ATOM     78  S   UNL A   1      46.531  35.942  27.174  1.00  0.00     0.124 S 
ATOM     79  O   UNL A   1      46.378  36.207  25.748  1.00  0.00    -0.237 OA
ATOM     80  O   UNL A   1      45.679  36.721  28.065  1.00  0.00    -0.237 OA
ATOM     81  O   UNL A   1      47.901  35.744  27.638  1.00  0.00    -0.744 OA
ENDBRANCH  77  78
ENDBRANCH  56  70
BRANCH  57  82
ATOM     82  C   UNL A   1      37.440  31.608  32.055  1.00  0.00     0.058 A 
ATOM     83  C   UNL A   1      36.852  32.058  33.251  1.00  0.00     0.135 A 
ATOM     84  C   UNL A   1      36.941  32.188  30.869  1.00  0.00     0.135 A 
ATOM     85  F   UNL A   1      37.279  31.584  34.430  1.00  0.00    -0.206 F 
ATOM     86  C   UNL A   1      35.856  33.047  33.271  1.00  0.00     0.059 A 
ATOM     87  C   UNL A   1      35.947  33.166  30.863  1.00  0.00     0.059 A 
ATOM     88  F   UNL A   1      37.470  31.884  29.674  1.00  0.00    -0.206 F 
ATOM     89  C   UNL A   1      35.423  33.608  32.070  1.00  0.00     0.060 A 
BRANCH  89  90
ATOM     90  S   UNL A   1      34.247  34.984  32.098  1.00  0.00     0.124 S 
ATOM     91  O   UNL A   1      33.079  34.375  32.725  1.00  0.00    -0.237 OA
ATOM     92  O   UNL A   1      34.955  35.977  32.898  1.00  0.00    -0.237 OA
ATOM     93  O   UNL A   1      34.088  35.325  30.686  1.00  0.00    -0.744 OA
ENDBRANCH  89  90
ENDBRANCH  57  82
BRANCH  69  94
ATOM     94  C   UNL A   1      43.036  29.017  33.788  1.00  0.00     0.058 A 
ATOM     95  C   UNL A   1      43.327  29.307  35.135  1.00  0.00     0.135 A 
ATOM     96  C   UNL A   1      42.415  27.788  33.522  1.00  0.00     0.135 A 
ATOM     97  F   UNL A   1      43.830  30.495  35.492  1.00  0.00    -0.206 F 
ATOM     98  C   UNL A   1      43.031  28.406  36.162  1.00  0.00     0.059 A 
ATOM     99  C   UNL A   1      42.084  26.889  34.532  1.00  0.00     0.059 A 
ATOM    100  F   UNL A   1      42.055  27.476  32.266  1.00  0.00    -0.206 F 
ATOM    101  C   UNL A   1      42.401  27.202  35.852  1.00  0.00     0.060 A 
BRANCH 101 102
ATOM    102  S   UNL A   1      41.934  26.082  37.190  1.00  0.00     0.124 S 
ATOM    103  O   UNL A   1      43.023  26.270  38.144  1.00  0.00    -0.237 OA
ATOM    104  O   UNL A   1      40.635  26.605  37.602  1.00  0.00    -0.237 OA
ATOM    105  O   UNL A   1      41.892  24.773  36.543  1.00  0.00    -0.744 OA
ENDBRANCH 101 102
ENDBRANCH  69  94
ENDBRANCH  43  44
ENDBRANCH  35  38
ENDBRANCH  33  34
ENDBRANCH  32  33
ENDBRANCH   1  32
TORSDOF 18
ENDMDL
MODEL 3
REMARK VINA RESULT:     -13.3      3.172      6.015
REMARK SMILES Cc1nn2c(nnc3c(=O)n(CCCC(=O)NCCCCNC(=O)c4ccc(-c5c6nc(c(-c7c(F)cc(S(=O)(=O)[O-])cc7F)c7ccc([nH]7)c(-c7c(F)cc(S(=O)(=O)[O-])cc7F)c7nc(c(-c8c(F)cc(S(=O)(=O)[O-])cc8F)c8ccc5[nH]8)C=C7)C=C6)cc4)ccc32)c1-c1ccc(F)cc1
REMARK SMILES IDX 19 1 18 2 17 3 15 4 16 5 14 7 13 8 12 9 11 10 1 11 2 12 3 13
REMARK SMILES IDX 94 14 4 15 5 16 93 17 6 18 8 19 92 20 7 21 9 22 91 23 10 24
REMARK SMILES IDX 95 25 96 26 101 27 97 28 100 29 98 30 99 31 20 32 21 33
REMARK SMILES IDX 22 34 23 35 24 37 25 38 26 39 90 40 27 41 89 42 28 43 29 44
REMARK SMILES IDX 30 45 83 46 31 47 88 48 82 49 84 50 32 51 87 52 81 53 80 54
REMARK SMILES IDX 33 56 67 57 46 58 66 59 47 60 50 61 65 62 85 63 48 64 49 65
REMARK SMILES IDX 64 67 86 68 51 69 34 70 35 71 44 72 36 73 37 74 43 75 45 76
REMARK SMILES IDX 38 77 39 78 40 79 41 80 42 81 68 82 69 83 78 84 70 85 71 86
REMARK SMILES IDX 77 87 79 88 72 89 73 90 74 91 75 92 76 93 52 94 53 95 62 96
REMARK SMILES IDX 54 97 55 98 61 99 63 100 56 101 57 102 58 103 59 104 60 105
REMARK H PARENT 17 6 22 36 84 55 50 66
REMARK Flexibility Score: inf
ROOT
ATOM      1  C   UNL A   1      34.878  32.636  27.970  1.00  0.00     0.023 C 
ENDROOT
BRANCH   1   2
ATOM      2  C   UNL A   1      34.360  31.195  27.872  1.00  0.00     0.116 C 
BRANCH   2   3
ATOM      3  N   UNL A   1      33.075  31.132  27.213  1.00  0.00    -0.356 N 
ATOM      4  C   UNL A   1      32.554  30.356  26.236  1.00  0.00     0.220 C 
ATOM      5  O   UNL A   1      31.364  30.585  25.970  1.00  0.00    -0.275 OA
ATOM      6  H   UNL A   1      32.438  31.803  27.550  1.00  0.00     0.163 HD
BRANCH   4   7
ATOM      7  C   UNL A   1      33.243  29.206  25.511  1.00  0.00     0.102 C 
BRANCH   7   8
ATOM      8  C   UNL A   1      32.835  28.630  24.152  1.00  0.00     0.032 C 
BRANCH   8   9
ATOM      9  C   UNL A   1      32.037  27.340  23.917  1.00  0.00     0.126 C 
BRANCH   9  10
ATOM     10  N   UNL A   1      32.619  25.984  24.026  1.00  0.00    -0.313 N 
ATOM     11  C   UNL A   1      36.939  19.764  24.927  1.00  0.00     0.069 C 
ATOM     12  C   UNL A   1      35.669  20.529  24.876  1.00  0.00     0.070 A 
ATOM     13  N   UNL A   1      35.694  21.872  24.853  1.00  0.00    -0.170 NA
ATOM     14  C   UNL A   1      34.354  20.019  24.785  1.00  0.00     0.051 A 
ATOM     15  N   UNL A   1      34.388  22.239  24.716  1.00  0.00    -0.210 N 
ATOM     16  C   UNL A   1      33.553  21.131  24.687  1.00  0.00     0.186 A 
ATOM     17  C   UNL A   1      33.835  23.508  24.541  1.00  0.00     0.102 A 
ATOM     18  N   UNL A   1      32.207  21.272  24.548  1.00  0.00    -0.129 NA
ATOM     19  C   UNL A   1      32.510  23.533  24.327  1.00  0.00     0.177 A 
ATOM     20  C   UNL A   1      34.593  24.738  24.563  1.00  0.00     0.049 A 
ATOM     21  N   UNL A   1      31.714  22.408  24.350  1.00  0.00    -0.141 NA
ATOM     22  C   UNL A   1      31.836  24.828  24.034  1.00  0.00     0.280 A 
ATOM     23  C   UNL A   1      33.980  25.907  24.321  1.00  0.00     0.091 A 
ATOM     24  O   UNL A   1      30.627  24.801  23.850  1.00  0.00    -0.267 OA
BRANCH  14  25
ATOM     25  C   UNL A   1      33.801  18.683  24.752  1.00  0.00    -0.012 A 
ATOM     26  C   UNL A   1      34.210  17.775  23.770  1.00  0.00     0.012 A 
ATOM     27  C   UNL A   1      32.948  18.258  25.784  1.00  0.00     0.012 A 
ATOM     28  C   UNL A   1      33.776  16.448  23.827  1.00  0.00     0.040 A 
ATOM     29  C   UNL A   1      32.516  16.933  25.837  1.00  0.00     0.040 A 
ATOM     30  C   UNL A   1      32.935  16.040  24.858  1.00  0.00     0.123 A 
ATOM     31  F   UNL A   1      32.528  14.767  24.915  1.00  0.00    -0.207 F 
ENDBRANCH  14  25
ENDBRANCH   9  10
ENDBRANCH   8   9
ENDBRANCH   7   8
ENDBRANCH   4   7
ENDBRANCH   2   3
ENDBRANCH   1   2
BRANCH   1  32
ATOM     32  C   UNL A   1      33.809  33.697  28.251  1.00  0.00     0.023 C 
BRANCH  32  33
ATOM     33  C   UNL A   1      34.374  35.001  28.796  1.00  0.00     0.116 C 
BRANCH  33  34
ATOM     34  N   UNL A   1      33.806  35.370  30.094  1.00  0.00    -0.352 N 
ATOM     35  C   UNL A   1      33.954  34.689  31.284  1.00  0.00     0.251 C 
ATOM     36  H   UNL A   1      33.260  36.189  30.118  1.00  0.00     0.163 HD
ATOM     37  O   UNL A   1      33.162  34.852  32.210  1.00  0.00    -0.269 OA
BRANCH  35  38
ATOM     38  C   UNL A   1      35.101  33.779  31.422  1.00  0.00     0.039 A 
ATOM     39  C   UNL A   1      34.929  32.395  31.523  1.00  0.00     0.014 A 
ATOM     40  C   UNL A   1      36.373  34.353  31.411  1.00  0.00     0.014 A 
ATOM     41  C   UNL A   1      36.061  31.586  31.550  1.00  0.00     0.010 A 
ATOM     42  C   UNL A   1      37.480  33.550  31.310  1.00  0.00     0.010 A 
ATOM     43  C   UNL A   1      37.329  32.174  31.435  1.00  0.00    -0.014 A 
BRANCH  43  44
ATOM     44  C   UNL A   1      38.528  31.355  31.374  1.00  0.00     0.031 A 
ATOM     45  C   UNL A   1      39.164  31.077  32.689  1.00  0.00     0.074 A 
ATOM     46  C   UNL A   1      38.906  30.726  30.243  1.00  0.00     0.049 A 
ATOM     47  N   UNL A   1      40.257  31.582  33.154  1.00  0.00    -0.248 NA
ATOM     48  C   UNL A   1      38.424  30.268  33.670  1.00  0.00     0.031 C 
ATOM     49  C   UNL A   1      38.198  30.637  28.959  1.00  0.00     0.029 A 
ATOM     50  N   UNL A   1      39.989  29.936  30.037  1.00  0.00    -0.354 N 
ATOM     51  C   UNL A   1      40.475  30.964  34.384  1.00  0.00     0.074 A 
ATOM     52  C   UNL A   1      39.224  30.346  34.736  1.00  0.00     0.031 C 
ATOM     53  C   UNL A   1      38.752  29.665  28.203  1.00  0.00     0.029 A 
ATOM     54  C   UNL A   1      39.946  29.181  28.870  1.00  0.00     0.049 A 
ATOM     55  H   UNL A   1      40.748  29.899  30.664  1.00  0.00     0.167 HD
ATOM     56  C   UNL A   1      41.737  30.809  34.878  1.00  0.00     0.037 A 
ATOM     57  C   UNL A   1      40.818  28.205  28.509  1.00  0.00     0.037 A 
ATOM     58  C   UNL A   1      42.677  31.618  34.137  1.00  0.00     0.049 A 
ATOM     59  C   UNL A   1      42.073  28.456  29.273  1.00  0.00     0.074 A 
ATOM     60  C   UNL A   1      42.809  32.969  33.884  1.00  0.00     0.029 A 
ATOM     61  N   UNL A   1      43.450  30.984  33.193  1.00  0.00    -0.354 N 
ATOM     62  N   UNL A   1      42.815  29.522  29.112  1.00  0.00    -0.248 NA
ATOM     63  C   UNL A   1      42.225  27.784  30.556  1.00  0.00     0.031 C 
ATOM     64  C   UNL A   1      43.233  33.045  32.524  1.00  0.00     0.029 A 
ATOM     65  C   UNL A   1      43.412  31.743  32.052  1.00  0.00     0.049 A 
ATOM     66  H   UNL A   1      43.942  30.139  33.314  1.00  0.00     0.167 HD
ATOM     67  C   UNL A   1      43.194  29.895  30.395  1.00  0.00     0.074 A 
ATOM     68  C   UNL A   1      42.859  28.744  31.235  1.00  0.00     0.031 C 
ATOM     69  C   UNL A   1      43.470  31.196  30.712  1.00  0.00     0.037 A 
BRANCH  56  70
ATOM     70  C   UNL A   1      42.208  29.664  35.752  1.00  0.00     0.058 A 
ATOM     71  C   UNL A   1      43.137  29.937  36.781  1.00  0.00     0.135 A 
ATOM     72  C   UNL A   1      42.038  28.298  35.440  1.00  0.00     0.135 A 
ATOM     73  F   UNL A   1      43.362  31.199  37.185  1.00  0.00    -0.206 F 
ATOM     74  C   UNL A   1      43.925  28.945  37.363  1.00  0.00     0.059 A 
ATOM     75  C   UNL A   1      42.777  27.287  36.048  1.00  0.00     0.059 A 
ATOM     76  F   UNL A   1      41.222  27.876  34.470  1.00  0.00    -0.206 F 
ATOM     77  C   UNL A   1      43.755  27.624  36.967  1.00  0.00     0.060 A 
BRANCH  77  78
ATOM     78  S   UNL A   1      44.867  26.363  37.609  1.00  0.00     0.124 S 
ATOM     79  O   UNL A   1      46.139  26.775  37.026  1.00  0.00    -0.237 OA
ATOM     80  O   UNL A   1      44.733  26.549  39.050  1.00  0.00    -0.237 OA
ATOM     81  O   UNL A   1      44.304  25.122  37.086  1.00  0.00    -0.744 OA
ENDBRANCH  77  78
ENDBRANCH  56  70
BRANCH  57  82
ATOM     82  C   UNL A   1      40.478  26.896  27.884  1.00  0.00     0.058 A 
ATOM     83  C   UNL A   1      41.131  26.438  26.725  1.00  0.00     0.135 A 
ATOM     84  C   UNL A   1      39.687  25.942  28.561  1.00  0.00     0.135 A 
ATOM     85  F   UNL A   1      41.925  27.265  26.031  1.00  0.00    -0.206 F 
ATOM     86  C   UNL A   1      41.034  25.109  26.286  1.00  0.00     0.059 A 
ATOM     87  C   UNL A   1      39.569  24.618  28.139  1.00  0.00     0.059 A 
ATOM     88  F   UNL A   1      39.070  26.247  29.713  1.00  0.00    -0.206 F 
ATOM     89  C   UNL A   1      40.263  24.201  27.012  1.00  0.00     0.060 A 
BRANCH  89  90
ATOM     90  S   UNL A   1      40.251  22.455  26.536  1.00  0.00     0.124 S 
ATOM     91  O   UNL A   1      39.003  22.351  25.788  1.00  0.00    -0.237 OA
ATOM     92  O   UNL A   1      41.475  22.342  25.751  1.00  0.00    -0.237 OA
ATOM     93  O   UNL A   1      40.269  21.752  27.816  1.00  0.00    -0.744 OA
ENDBRANCH  89  90
ENDBRANCH  57  82
BRANCH  69  94
ATOM     94  C   UNL A   1      43.629  32.203  29.598  1.00  0.00     0.058 A 
ATOM     95  C   UNL A   1      42.651  33.147  29.232  1.00  0.00     0.135 A 
ATOM     96  C   UNL A   1      44.901  32.350  29.024  1.00  0.00     0.135 A 
ATOM     97  F   UNL A   1      41.440  33.142  29.803  1.00  0.00    -0.206 F 
ATOM     98  C   UNL A   1      42.922  34.174  28.324  1.00  0.00     0.059 A 
ATOM     99  C   UNL A   1      45.201  33.382  28.140  1.00  0.00     0.059 A 
ATOM    100  F   UNL A   1      45.896  31.520  29.377  1.00  0.00    -0.206 F 
ATOM    101  C   UNL A   1      44.205  34.290  27.789  1.00  0.00     0.060 A 
BRANCH 101 102
ATOM    102  S   UNL A   1      44.579  35.672  26.689  1.00  0.00     0.124 S 
ATOM    103  O   UNL A   1      45.208  36.627  27.596  1.00  0.00    -0.237 OA
ATOM    104  O   UNL A   1      45.466  35.061  25.703  1.00  0.00    -0.237 OA
ATOM    105  O   UNL A   1      43.270  36.068  26.177  1.00  0.00    -0.744 OA
ENDBRANCH 101 102
ENDBRANCH  69  94
ENDBRANCH  43  44
ENDBRANCH  35  38
ENDBRANCH  33  34
ENDBRANCH  32  33
ENDBRANCH   1  32
TORSDOF 18
ENDMDL
