MODEL 1
REMARK VINA RESULT:     -13.5      0.000      0.000
REMARK SMILES O=C(NCCCCNC(=O)[C@H]1Cc2[nH]cnc2CN1C(=O)c1ccncc1Cl)c1ccc(-c2c3nc(c(-c4c(F)cc(S(=O)(=O)[O-])cc4F)c4ccc([nH]4)c(-c4c(F)cc(S(=O)(=O)[O-])cc4F)c4nc(c(-c5c(F)cc(S(=O)(=O)[O-])cc5F)c5ccc2[nH]5)C=C4)C=C3)cc1
REMARK SMILES IDX 5 1 4 2 3 3 1 4 2 5 29 7 30 8 94 9 31 10 93 11 32 12 33 13
REMARK SMILES IDX 34 14 87 15 35 16 92 17 86 18 88 19 36 20 91 21 85 22 84 23
REMARK SMILES IDX 37 25 71 26 50 27 70 28 51 29 54 30 69 31 89 32 52 33 53 34
REMARK SMILES IDX 68 36 90 37 55 38 38 39 39 40 48 41 40 42 41 43 47 44 49 45
REMARK SMILES IDX 42 46 43 47 44 48 45 49 46 50 72 51 73 52 82 53 74 54 75 55
REMARK SMILES IDX 81 56 83 57 76 58 77 59 78 60 79 61 80 62 56 63 57 64 66 65
REMARK SMILES IDX 58 66 59 67 65 68 67 69 60 70 61 71 62 72 63 73 64 74 6 75
REMARK SMILES IDX 7 76 8 77 9 78 10 80 11 81 12 82 19 83 13 84 18 85 14 86
REMARK SMILES IDX 17 87 15 88 16 90 20 91 21 92 22 93 23 94 27 95 24 96 26 97
REMARK SMILES IDX 28 98 25 99
REMARK H PARENT 3 6 88 24 54 35 8 79 14 89
REMARK Flexibility Score: inf
ROOT
ATOM      1  C   UNL A   1      35.960  21.485  25.526  1.00  0.00     0.023 C 
ENDROOT
BRANCH   1   2
ATOM      2  C   UNL A   1      37.180  22.366  25.284  1.00  0.00     0.116 C 
BRANCH   2   3
ATOM      3  N   UNL A   1      38.417  21.736  25.687  1.00  0.00    -0.352 N 
ATOM      4  O   UNL A   1      40.400  21.263  26.496  1.00  0.00    -0.269 OA
ATOM      5  C   UNL A   1      39.533  22.134  26.371  1.00  0.00     0.251 C 
ATOM      6  H   UNL A   1      38.469  20.796  25.401  1.00  0.00     0.163 HD
BRANCH   5   7
ATOM      7  C   UNL A   1      39.786  23.489  26.946  1.00  0.00     0.039 A 
ATOM      8  C   UNL A   1      38.971  24.616  26.820  1.00  0.00     0.014 A 
ATOM      9  C   UNL A   1      40.961  23.607  27.716  1.00  0.00     0.014 A 
ATOM     10  C   UNL A   1      39.328  25.826  27.432  1.00  0.00     0.010 A 
ATOM     11  C   UNL A   1      41.315  24.806  28.333  1.00  0.00     0.010 A 
ATOM     12  C   UNL A   1      40.505  25.927  28.182  1.00  0.00    -0.014 A 
BRANCH  12  13
ATOM     13  C   UNL A   1      40.794  27.178  28.893  1.00  0.00     0.031 A 
ATOM     14  C   UNL A   1      41.912  28.010  28.340  1.00  0.00     0.074 A 
ATOM     15  C   UNL A   1      40.006  27.701  29.856  1.00  0.00     0.049 A 
ATOM     16  N   UNL A   1      42.990  28.420  28.930  1.00  0.00    -0.248 NA
ATOM     17  C   UNL A   1      41.834  28.393  26.922  1.00  0.00     0.031 C 
ATOM     18  C   UNL A   1      38.690  27.230  30.298  1.00  0.00     0.029 A 
ATOM     19  N   UNL A   1      40.176  28.852  30.573  1.00  0.00    -0.354 N 
ATOM     20  C   UNL A   1      43.649  29.251  28.018  1.00  0.00     0.074 A 
ATOM     21  C   UNL A   1      42.949  29.109  26.767  1.00  0.00     0.031 C 
ATOM     22  C   UNL A   1      38.096  28.194  31.036  1.00  0.00     0.029 A 
ATOM     23  C   UNL A   1      39.035  29.286  31.235  1.00  0.00     0.049 A 
ATOM     24  H   UNL A   1      41.035  29.331  30.616  1.00  0.00     0.167 HD
ATOM     25  C   UNL A   1      44.633  30.121  28.388  1.00  0.00     0.037 A 
ATOM     26  C   UNL A   1      38.852  30.482  31.849  1.00  0.00     0.037 A 
ATOM     27  C   UNL A   1      45.153  29.817  29.692  1.00  0.00     0.049 A 
ATOM     28  C   UNL A   1      40.193  31.049  32.138  1.00  0.00     0.074 A 
ATOM     29  C   UNL A   1      45.800  28.738  30.257  1.00  0.00     0.029 A 
ATOM     30  N   UNL A   1      44.761  30.607  30.745  1.00  0.00    -0.354 N 
ATOM     31  N   UNL A   1      41.042  30.544  32.990  1.00  0.00    -0.248 NA
ATOM     32  C   UNL A   1      40.756  31.991  31.182  1.00  0.00     0.031 C 
ATOM     33  C   UNL A   1      45.331  28.688  31.602  1.00  0.00     0.029 A 
ATOM     34  C   UNL A   1      44.455  29.760  31.778  1.00  0.00     0.049 A 
ATOM     35  H   UNL A   1      44.711  31.590  30.756  1.00  0.00     0.167 HD
ATOM     36  C   UNL A   1      42.290  30.777  32.431  1.00  0.00     0.074 A 
ATOM     37  C   UNL A   1      42.055  31.759  31.378  1.00  0.00     0.031 C 
ATOM     38  C   UNL A   1      43.350  29.959  32.691  1.00  0.00     0.037 A 
BRANCH  25  39
ATOM     39  C   UNL A   1      44.946  31.432  27.702  1.00  0.00     0.058 A 
ATOM     40  C   UNL A   1      46.159  31.582  26.994  1.00  0.00     0.135 A 
ATOM     41  C   UNL A   1      44.241  32.628  27.955  1.00  0.00     0.135 A 
ATOM     42  F   UNL A   1      46.916  30.512  26.698  1.00  0.00    -0.206 F 
ATOM     43  C   UNL A   1      46.673  32.830  26.639  1.00  0.00     0.059 A 
ATOM     44  C   UNL A   1      44.710  33.880  27.563  1.00  0.00     0.059 A 
ATOM     45  F   UNL A   1      43.116  32.646  28.680  1.00  0.00    -0.206 F 
ATOM     46  C   UNL A   1      45.949  33.976  26.950  1.00  0.00     0.060 A 
BRANCH  46  47
ATOM     47  S   UNL A   1      46.671  35.594  26.619  1.00  0.00     0.124 S 
ATOM     48  O   UNL A   1      47.472  35.806  27.819  1.00  0.00    -0.237 OA
ATOM     49  O   UNL A   1      47.417  35.351  25.388  1.00  0.00    -0.237 OA
ATOM     50  O   UNL A   1      45.504  36.459  26.476  1.00  0.00    -0.744 OA
ENDBRANCH  46  47
ENDBRANCH  25  39
BRANCH  26  51
ATOM     51  C   UNL A   1      37.613  31.302  31.905  1.00  0.00     0.058 A 
ATOM     52  C   UNL A   1      37.042  31.689  33.130  1.00  0.00     0.135 A 
ATOM     53  C   UNL A   1      37.121  31.956  30.757  1.00  0.00     0.135 A 
ATOM     54  F   UNL A   1      37.468  31.138  34.277  1.00  0.00    -0.206 F 
ATOM     55  C   UNL A   1      36.072  32.694  33.217  1.00  0.00     0.059 A 
ATOM     56  C   UNL A   1      36.147  32.952  30.818  1.00  0.00     0.059 A 
ATOM     57  F   UNL A   1      37.642  31.714  29.545  1.00  0.00    -0.206 F 
ATOM     58  C   UNL A   1      35.644  33.334  32.055  1.00  0.00     0.060 A 
BRANCH  58  59
ATOM     59  S   UNL A   1      34.522  34.749  32.176  1.00  0.00     0.124 S 
ATOM     60  O   UNL A   1      33.379  34.168  32.871  1.00  0.00    -0.237 OA
ATOM     61  O   UNL A   1      35.315  35.706  32.941  1.00  0.00    -0.237 OA
ATOM     62  O   UNL A   1      34.284  35.114  30.782  1.00  0.00    -0.744 OA
ENDBRANCH  58  59
ENDBRANCH  26  51
BRANCH  38  63
ATOM     63  C   UNL A   1      43.260  28.993  33.841  1.00  0.00     0.058 A 
ATOM     64  C   UNL A   1      43.494  29.343  35.181  1.00  0.00     0.135 A 
ATOM     65  C   UNL A   1      42.716  27.724  33.591  1.00  0.00     0.135 A 
ATOM     66  F   UNL A   1      43.922  30.569  35.510  1.00  0.00    -0.206 F 
ATOM     67  C   UNL A   1      43.210  28.462  36.227  1.00  0.00     0.059 A 
ATOM     68  C   UNL A   1      42.396  26.842  34.620  1.00  0.00     0.059 A 
ATOM     69  F   UNL A   1      42.416  27.355  32.333  1.00  0.00    -0.206 F 
ATOM     70  C   UNL A   1      42.649  27.219  35.937  1.00  0.00     0.060 A 
BRANCH  70  71
ATOM     71  S   UNL A   1      42.147  26.138  37.296  1.00  0.00     0.124 S 
ATOM     72  O   UNL A   1      43.146  26.448  38.317  1.00  0.00    -0.237 OA
ATOM     73  O   UNL A   1      40.788  26.600  37.582  1.00  0.00    -0.237 OA
ATOM     74  O   UNL A   1      42.232  24.804  36.722  1.00  0.00    -0.744 OA
ENDBRANCH  70  71
ENDBRANCH  38  63
ENDBRANCH  12  13
ENDBRANCH   5   7
ENDBRANCH   2   3
ENDBRANCH   1   2
BRANCH   1  75
ATOM     75  C   UNL A   1      34.942  22.061  26.524  1.00  0.00     0.023 C 
BRANCH  75  76
ATOM     76  C   UNL A   1      33.536  21.466  26.473  1.00  0.00     0.116 C 
BRANCH  76  77
ATOM     77  N   UNL A   1      32.515  22.285  27.111  1.00  0.00    -0.354 N 
ATOM     78  C   UNL A   1      31.892  23.422  26.682  1.00  0.00     0.243 C 
ATOM     79  H   UNL A   1      32.226  21.967  27.997  1.00  0.00     0.163 HD
ATOM     80  O   UNL A   1      30.895  23.803  27.299  1.00  0.00    -0.273 OA
BRANCH  78  81
ATOM     81  C   UNL A   1      32.415  24.189  25.462  1.00  0.00     0.181 C 
ATOM     82  C   UNL A   1      31.604  23.857  24.169  1.00  0.00     0.091 C 
ATOM     83  N   UNL A   1      32.642  25.671  25.543  1.00  0.00    -0.320 N 
ATOM     84  C   UNL A   1      32.305  24.546  23.046  1.00  0.00     0.042 A 
ATOM     85  C   UNL A   1      33.607  26.166  24.528  1.00  0.00     0.178 C 
ATOM     86  N   UNL A   1      32.247  24.290  21.709  1.00  0.00    -0.348 N 
ATOM     87  C   UNL A   1      33.206  25.584  23.196  1.00  0.00     0.081 A 
ATOM     88  C   UNL A   1      33.134  25.147  21.109  1.00  0.00     0.197 A 
ATOM     89  H   UNL A   1      31.681  23.621  21.261  1.00  0.00     0.167 HD
ATOM     90  N   UNL A   1      33.735  25.929  21.981  1.00  0.00    -0.240 NA
BRANCH  83  91
ATOM     91  C   UNL A   1      31.702  26.617  25.985  1.00  0.00     0.256 C 
ATOM     92  O   UNL A   1      31.479  26.855  27.169  1.00  0.00    -0.269 OA
BRANCH  91  93
ATOM     93  C   UNL A   1      30.914  27.393  25.017  1.00  0.00     0.061 A 
ATOM     94  C   UNL A   1      29.905  26.746  24.305  1.00  0.00     0.035 A 
ATOM     95  C   UNL A   1      31.248  28.705  24.697  1.00  0.00     0.072 A 
ATOM     96  C   UNL A   1      29.170  27.494  23.401  1.00  0.00     0.112 A 
ATOM     97  C   UNL A   1      30.410  29.386  23.830  1.00  0.00     0.132 A 
ATOM     98  Cl  UNL A   1      32.718  29.434  25.189  1.00  0.00    -0.082 Cl
ATOM     99  N   UNL A   1      29.361  28.815  23.190  1.00  0.00    -0.263 NA
ENDBRANCH  91  93
ENDBRANCH  83  91
ENDBRANCH  78  81
ENDBRANCH  76  77
ENDBRANCH  75  76
ENDBRANCH   1  75
TORSDOF 16
ENDMDL
MODEL 2
REMARK VINA RESULT:     -13.3      1.263      1.891
REMARK SMILES O=C(NCCCCNC(=O)[C@H]1Cc2[nH]cnc2CN1C(=O)c1ccncc1Cl)c1ccc(-c2c3nc(c(-c4c(F)cc(S(=O)(=O)[O-])cc4F)c4ccc([nH]4)c(-c4c(F)cc(S(=O)(=O)[O-])cc4F)c4nc(c(-c5c(F)cc(S(=O)(=O)[O-])cc5F)c5ccc2[nH]5)C=C4)C=C3)cc1
REMARK SMILES IDX 5 1 4 2 3 3 1 4 2 5 29 7 30 8 94 9 31 10 93 11 32 12 33 13
REMARK SMILES IDX 34 14 87 15 35 16 92 17 86 18 88 19 36 20 91 21 85 22 84 23
REMARK SMILES IDX 37 25 71 26 50 27 70 28 51 29 54 30 69 31 89 32 52 33 53 34
REMARK SMILES IDX 68 36 90 37 55 38 38 39 39 40 48 41 40 42 41 43 47 44 49 45
REMARK SMILES IDX 42 46 43 47 44 48 45 49 46 50 72 51 73 52 82 53 74 54 75 55
REMARK SMILES IDX 81 56 83 57 76 58 77 59 78 60 79 61 80 62 56 63 57 64 66 65
REMARK SMILES IDX 58 66 59 67 65 68 67 69 60 70 61 71 62 72 63 73 64 74 6 75
REMARK SMILES IDX 7 76 8 77 9 78 10 80 11 81 12 82 19 83 13 84 18 85 14 86
REMARK SMILES IDX 17 87 15 88 16 90 20 91 21 92 22 93 23 94 27 95 24 96 26 97
REMARK SMILES IDX 28 98 25 99
REMARK H PARENT 3 6 88 24 54 35 8 79 14 89
REMARK Flexibility Score: inf
ROOT
ATOM      1  C   UNL A   1      36.378  21.304  25.075  1.00  0.00     0.023 C 
ENDROOT
BRANCH   1   2
ATOM      2  C   UNL A   1      37.440  22.365  25.338  1.00  0.00     0.116 C 
BRANCH   2   3
ATOM      3  N   UNL A   1      38.735  21.800  25.645  1.00  0.00    -0.352 N 
ATOM      4  O   UNL A   1      40.789  21.425  26.315  1.00  0.00    -0.269 OA
ATOM      5  C   UNL A   1      39.866  22.244  26.271  1.00  0.00     0.251 C 
ATOM      6  H   UNL A   1      38.824  20.872  25.326  1.00  0.00     0.163 HD
BRANCH   5   7
ATOM      7  C   UNL A   1      40.075  23.595  26.873  1.00  0.00     0.039 A 
ATOM      8  C   UNL A   1      39.256  24.716  26.716  1.00  0.00     0.014 A 
ATOM      9  C   UNL A   1      41.207  23.717  27.703  1.00  0.00     0.014 A 
ATOM     10  C   UNL A   1      39.568  25.922  27.358  1.00  0.00     0.010 A 
ATOM     11  C   UNL A   1      41.516  24.912  28.350  1.00  0.00     0.010 A 
ATOM     12  C   UNL A   1      40.704  26.027  28.169  1.00  0.00    -0.014 A 
BRANCH  12  13
ATOM     13  C   UNL A   1      40.943  27.274  28.907  1.00  0.00     0.031 A 
ATOM     14  C   UNL A   1      42.047  28.146  28.390  1.00  0.00     0.074 A 
ATOM     15  C   UNL A   1      40.122  27.756  29.863  1.00  0.00     0.049 A 
ATOM     16  N   UNL A   1      43.101  28.577  29.008  1.00  0.00    -0.248 NA
ATOM     17  C   UNL A   1      41.984  28.552  26.978  1.00  0.00     0.031 C 
ATOM     18  C   UNL A   1      38.812  27.240  30.272  1.00  0.00     0.029 A 
ATOM     19  N   UNL A   1      40.245  28.898  30.603  1.00  0.00    -0.354 N 
ATOM     20  C   UNL A   1      43.753  29.443  28.124  1.00  0.00     0.074 A 
ATOM     21  C   UNL A   1      43.080  29.303  26.858  1.00  0.00     0.031 C 
ATOM     22  C   UNL A   1      38.175  28.173  31.014  1.00  0.00     0.029 A 
ATOM     23  C   UNL A   1      39.079  29.288  31.250  1.00  0.00     0.049 A 
ATOM     24  H   UNL A   1      41.088  29.402  30.672  1.00  0.00     0.167 HD
ATOM     25  C   UNL A   1      44.703  30.334  28.528  1.00  0.00     0.037 A 
ATOM     26  C   UNL A   1      38.850  30.467  31.881  1.00  0.00     0.037 A 
ATOM     27  C   UNL A   1      45.207  30.022  29.837  1.00  0.00     0.049 A 
ATOM     28  C   UNL A   1      40.167  31.067  32.206  1.00  0.00     0.074 A 
ATOM     29  C   UNL A   1      45.875  28.952  30.396  1.00  0.00     0.029 A 
ATOM     30  N   UNL A   1      44.772  30.781  30.895  1.00  0.00    -0.354 N 
ATOM     31  N   UNL A   1      41.014  30.571  33.066  1.00  0.00    -0.248 NA
ATOM     32  C   UNL A   1      40.721  32.041  31.277  1.00  0.00     0.031 C 
ATOM     33  C   UNL A   1      45.382  28.865  31.730  1.00  0.00     0.029 A 
ATOM     34  C   UNL A   1      44.471  29.908  31.908  1.00  0.00     0.049 A 
ATOM     35  H   UNL A   1      44.694  31.762  30.922  1.00  0.00     0.167 HD
ATOM     36  C   UNL A   1      42.265  30.851  32.535  1.00  0.00     0.074 A 
ATOM     37  C   UNL A   1      42.022  31.844  31.495  1.00  0.00     0.031 C 
ATOM     38  C   UNL A   1      43.344  30.059  32.801  1.00  0.00     0.037 A 
BRANCH  25  39
ATOM     39  C   UNL A   1      44.991  31.665  27.871  1.00  0.00     0.058 A 
ATOM     40  C   UNL A   1      46.257  31.902  27.290  1.00  0.00     0.135 A 
ATOM     41  C   UNL A   1      44.181  32.807  28.045  1.00  0.00     0.135 A 
ATOM     42  F   UNL A   1      47.114  30.890  27.078  1.00  0.00    -0.206 F 
ATOM     43  C   UNL A   1      46.714  33.185  26.983  1.00  0.00     0.059 A 
ATOM     44  C   UNL A   1      44.598  34.091  27.697  1.00  0.00     0.059 A 
ATOM     45  F   UNL A   1      42.989  32.744  28.651  1.00  0.00    -0.206 F 
ATOM     46  C   UNL A   1      45.883  34.276  27.212  1.00  0.00     0.060 A 
BRANCH  46  47
ATOM     47  S   UNL A   1      46.518  35.942  26.948  1.00  0.00     0.124 S 
ATOM     48  O   UNL A   1      45.300  36.737  27.048  1.00  0.00    -0.237 OA
ATOM     49  O   UNL A   1      47.467  36.086  28.048  1.00  0.00    -0.237 OA
ATOM     50  O   UNL A   1      47.117  35.866  25.619  1.00  0.00    -0.744 OA
ENDBRANCH  46  47
ENDBRANCH  25  39
BRANCH  26  51
ATOM     51  C   UNL A   1      37.586  31.250  31.926  1.00  0.00     0.058 A 
ATOM     52  C   UNL A   1      37.006  31.640  33.146  1.00  0.00     0.135 A 
ATOM     53  C   UNL A   1      37.072  31.870  30.769  1.00  0.00     0.135 A 
ATOM     54  F   UNL A   1      37.452  31.121  34.301  1.00  0.00    -0.206 F 
ATOM     55  C   UNL A   1      36.006  32.617  33.220  1.00  0.00     0.059 A 
ATOM     56  C   UNL A   1      36.069  32.836  30.816  1.00  0.00     0.059 A 
ATOM     57  F   UNL A   1      37.598  31.623  29.560  1.00  0.00    -0.206 F 
ATOM     58  C   UNL A   1      35.557  33.224  32.048  1.00  0.00     0.060 A 
BRANCH  58  59
ATOM     59  S   UNL A   1      34.393  34.606  32.149  1.00  0.00     0.124 S 
ATOM     60  O   UNL A   1      33.278  34.008  32.876  1.00  0.00    -0.237 OA
ATOM     61  O   UNL A   1      35.165  35.608  32.876  1.00  0.00    -0.237 OA
ATOM     62  O   UNL A   1      34.124  34.925  30.749  1.00  0.00    -0.744 OA
ENDBRANCH  58  59
ENDBRANCH  26  51
BRANCH  38  63
ATOM     63  C   UNL A   1      43.260  29.070  33.933  1.00  0.00     0.058 A 
ATOM     64  C   UNL A   1      43.512  29.391  35.277  1.00  0.00     0.135 A 
ATOM     65  C   UNL A   1      42.703  27.811  33.664  1.00  0.00     0.135 A 
ATOM     66  F   UNL A   1      43.954  30.607  35.626  1.00  0.00    -0.206 F 
ATOM     67  C   UNL A   1      43.234  28.491  36.308  1.00  0.00     0.059 A 
ATOM     68  C   UNL A   1      42.389  26.911  34.679  1.00  0.00     0.059 A 
ATOM     69  F   UNL A   1      42.385  27.470  32.403  1.00  0.00    -0.206 F 
ATOM     70  C   UNL A   1      42.660  27.258  36.000  1.00  0.00     0.060 A 
BRANCH  70  71
ATOM     71  S   UNL A   1      42.166  26.154  37.343  1.00  0.00     0.124 S 
ATOM     72  O   UNL A   1      43.113  26.513  38.397  1.00  0.00    -0.237 OA
ATOM     73  O   UNL A   1      40.777  26.549  37.581  1.00  0.00    -0.237 OA
ATOM     74  O   UNL A   1      42.336  24.826  36.774  1.00  0.00    -0.744 OA
ENDBRANCH  70  71
ENDBRANCH  38  63
ENDBRANCH  12  13
ENDBRANCH   5   7
ENDBRANCH   2   3
ENDBRANCH   1   2
BRANCH   1  75
ATOM     75  C   UNL A   1      35.117  21.431  25.944  1.00  0.00     0.023 C 
BRANCH  75  76
ATOM     76  C   UNL A   1      33.845  21.882  25.228  1.00  0.00     0.116 C 
BRANCH  76  77
ATOM     77  N   UNL A   1      34.081  22.671  24.027  1.00  0.00    -0.354 N 
ATOM     78  C   UNL A   1      33.915  24.007  23.795  1.00  0.00     0.243 C 
ATOM     79  H   UNL A   1      34.414  22.157  23.256  1.00  0.00     0.163 HD
ATOM     80  O   UNL A   1      34.403  24.479  22.766  1.00  0.00    -0.273 OA
BRANCH  78  81
ATOM     81  C   UNL A   1      33.156  24.887  24.793  1.00  0.00     0.181 C 
ATOM     82  C   UNL A   1      33.586  26.386  24.699  1.00  0.00     0.091 C 
ATOM     83  N   UNL A   1      31.660  24.802  24.890  1.00  0.00    -0.320 N 
ATOM     84  C   UNL A   1      32.889  27.094  25.813  1.00  0.00     0.042 A 
ATOM     85  C   UNL A   1      31.136  25.278  26.196  1.00  0.00     0.178 C 
ATOM     86  N   UNL A   1      33.193  28.285  26.400  1.00  0.00    -0.348 N 
ATOM     87  C   UNL A   1      31.788  26.605  26.492  1.00  0.00     0.081 A 
ATOM     88  C   UNL A   1      32.299  28.454  27.426  1.00  0.00     0.197 A 
ATOM     89  H   UNL A   1      33.914  28.902  26.139  1.00  0.00     0.167 HD
ATOM     90  N   UNL A   1      31.448  27.453  27.513  1.00  0.00    -0.240 NA
BRANCH  83  91
ATOM     91  C   UNL A   1      30.765  24.907  23.813  1.00  0.00     0.256 C 
ATOM     92  O   UNL A   1      30.408  23.953  23.126  1.00  0.00    -0.269 OA
BRANCH  91  93
ATOM     93  C   UNL A   1      30.195  26.211  23.442  1.00  0.00     0.061 A 
ATOM     94  C   UNL A   1      28.908  26.525  23.876  1.00  0.00     0.035 A 
ATOM     95  C   UNL A   1      30.849  27.061  22.557  1.00  0.00     0.072 A 
ATOM     96  C   UNL A   1      28.390  27.759  23.520  1.00  0.00     0.112 A 
ATOM     97  C   UNL A   1      30.277  28.300  22.318  1.00  0.00     0.132 A 
ATOM     98  Cl  UNL A   1      32.213  26.576  21.640  1.00  0.00    -0.082 Cl
ATOM     99  N   UNL A   1      29.069  28.678  22.800  1.00  0.00    -0.263 NA
ENDBRANCH  91  93
ENDBRANCH  83  91
ENDBRANCH  78  81
ENDBRANCH  76  77
ENDBRANCH  75  76
ENDBRANCH   1  75
TORSDOF 16
ENDMDL
MODEL 3
REMARK VINA RESULT:     -13.3      1.606      2.545
REMARK SMILES O=C(NCCCCNC(=O)[C@H]1Cc2[nH]cnc2CN1C(=O)c1ccncc1Cl)c1ccc(-c2c3nc(c(-c4c(F)cc(S(=O)(=O)[O-])cc4F)c4ccc([nH]4)c(-c4c(F)cc(S(=O)(=O)[O-])cc4F)c4nc(c(-c5c(F)cc(S(=O)(=O)[O-])cc5F)c5ccc2[nH]5)C=C4)C=C3)cc1
REMARK SMILES IDX 5 1 4 2 3 3 1 4 2 5 29 7 30 8 94 9 31 10 93 11 32 12 33 13
REMARK SMILES IDX 34 14 87 15 35 16 92 17 86 18 88 19 36 20 91 21 85 22 84 23
REMARK SMILES IDX 37 25 71 26 50 27 70 28 51 29 54 30 69 31 89 32 52 33 53 34
REMARK SMILES IDX 68 36 90 37 55 38 38 39 39 40 48 41 40 42 41 43 47 44 49 45
REMARK SMILES IDX 42 46 43 47 44 48 45 49 46 50 72 51 73 52 82 53 74 54 75 55
REMARK SMILES IDX 81 56 83 57 76 58 77 59 78 60 79 61 80 62 56 63 57 64 66 65
REMARK SMILES IDX 58 66 59 67 65 68 67 69 60 70 61 71 62 72 63 73 64 74 6 75
REMARK SMILES IDX 7 76 8 77 9 78 10 80 11 81 12 82 19 83 13 84 18 85 14 86
REMARK SMILES IDX 17 87 15 88 16 90 20 91 21 92 22 93 23 94 27 95 24 96 26 97
REMARK SMILES IDX 28 98 25 99
REMARK H PARENT 3 6 88 24 54 35 8 79 14 89
REMARK Flexibility Score: inf
ROOT
ATOM      1  C   UNL A   1      35.346  21.675  25.488  1.00  0.00     0.023 C 
ENDROOT
BRANCH   1   2
ATOM      2  C   UNL A   1      36.538  22.591  25.737  1.00  0.00     0.116 C 
BRANCH   2   3
ATOM      3  N   UNL A   1      37.776  21.867  25.918  1.00  0.00    -0.352 N 
ATOM      4  O   UNL A   1      39.827  21.237  26.372  1.00  0.00    -0.269 OA
ATOM      5  C   UNL A   1      39.017  22.170  26.405  1.00  0.00     0.251 C 
ATOM      6  H   UNL A   1      37.709  20.931  25.620  1.00  0.00     0.163 HD
BRANCH   5   7
ATOM      7  C   UNL A   1      39.463  23.491  26.938  1.00  0.00     0.039 A 
ATOM      8  C   UNL A   1      38.794  24.711  26.816  1.00  0.00     0.014 A 
ATOM      9  C   UNL A   1      40.673  23.472  27.661  1.00  0.00     0.014 A 
ATOM     10  C   UNL A   1      39.327  25.876  27.386  1.00  0.00     0.010 A 
ATOM     11  C   UNL A   1      41.201  24.626  28.238  1.00  0.00     0.010 A 
ATOM     12  C   UNL A   1      40.535  25.839  28.091  1.00  0.00    -0.014 A 
BRANCH  12  13
ATOM     13  C   UNL A   1      41.010  27.056  28.761  1.00  0.00     0.031 A 
ATOM     14  C   UNL A   1      42.241  27.690  28.188  1.00  0.00     0.074 A 
ATOM     15  C   UNL A   1      40.308  27.724  29.701  1.00  0.00     0.049 A 
ATOM     16  N   UNL A   1      43.368  27.953  28.770  1.00  0.00    -0.248 NA
ATOM     17  C   UNL A   1      42.223  28.032  26.757  1.00  0.00     0.031 C 
ATOM     18  C   UNL A   1      38.936  27.472  30.151  1.00  0.00     0.029 A 
ATOM     19  N   UNL A   1      40.649  28.859  30.381  1.00  0.00    -0.354 N 
ATOM     20  C   UNL A   1      44.146  28.644  27.836  1.00  0.00     0.074 A 
ATOM     21  C   UNL A   1      43.433  28.567  26.586  1.00  0.00     0.031 C 
ATOM     22  C   UNL A   1      38.493  28.539  30.853  1.00  0.00     0.029 A 
ATOM     23  C   UNL A   1      39.586  29.483  31.021  1.00  0.00     0.049 A 
ATOM     24  H   UNL A   1      41.571  29.205  30.414  1.00  0.00     0.167 HD
ATOM     25  C   UNL A   1      45.249  29.368  28.183  1.00  0.00     0.037 A 
ATOM     26  C   UNL A   1      39.585  30.713  31.594  1.00  0.00     0.037 A 
ATOM     27  C   UNL A   1      45.715  29.033  29.499  1.00  0.00     0.049 A 
ATOM     28  C   UNL A   1      40.996  31.080  31.872  1.00  0.00     0.074 A 
ATOM     29  C   UNL A   1      46.192  27.887  30.104  1.00  0.00     0.029 A 
ATOM     30  N   UNL A   1      45.446  29.907  30.523  1.00  0.00    -0.354 N 
ATOM     31  N   UNL A   1      41.758  30.482  32.746  1.00  0.00    -0.248 NA
ATOM     32  C   UNL A   1      41.696  31.893  30.889  1.00  0.00     0.031 C 
ATOM     33  C   UNL A   1      45.720  27.954  31.447  1.00  0.00     0.029 A 
ATOM     34  C   UNL A   1      45.015  29.152  31.582  1.00  0.00     0.049 A 
ATOM     35  H   UNL A   1      45.546  30.887  30.501  1.00  0.00     0.167 HD
ATOM     36  C   UNL A   1      43.027  30.506  32.187  1.00  0.00     0.074 A 
ATOM     37  C   UNL A   1      42.944  31.476  31.101  1.00  0.00     0.031 C 
ATOM     38  C   UNL A   1      43.952  29.546  32.480  1.00  0.00     0.037 A 
BRANCH  25  39
ATOM     39  C   UNL A   1      45.757  30.592  27.455  1.00  0.00     0.058 A 
ATOM     40  C   UNL A   1      47.125  30.691  27.118  1.00  0.00     0.135 A 
ATOM     41  C   UNL A   1      45.016  31.787  27.337  1.00  0.00     0.135 A 
ATOM     42  F   UNL A   1      47.929  29.617  27.194  1.00  0.00    -0.206 F 
ATOM     43  C   UNL A   1      47.728  31.902  26.771  1.00  0.00     0.059 A 
ATOM     44  C   UNL A   1      45.587  32.995  26.942  1.00  0.00     0.059 A 
ATOM     45  F   UNL A   1      43.728  31.860  27.695  1.00  0.00    -0.206 F 
ATOM     46  C   UNL A   1      46.952  33.054  26.708  1.00  0.00     0.060 A 
BRANCH  46  47
ATOM     47  S   UNL A   1      47.749  34.640  26.397  1.00  0.00     0.124 S 
ATOM     48  O   UNL A   1      46.767  35.570  26.943  1.00  0.00    -0.237 OA
ATOM     49  O   UNL A   1      48.993  34.511  27.148  1.00  0.00    -0.237 OA
ATOM     50  O   UNL A   1      47.900  34.660  24.945  1.00  0.00    -0.744 OA
ENDBRANCH  46  47
ENDBRANCH  25  39
BRANCH  26  51
ATOM     51  C   UNL A   1      38.484  31.711  31.615  1.00  0.00     0.058 A 
ATOM     52  C   UNL A   1      37.897  32.183  30.427  1.00  0.00     0.135 A 
ATOM     53  C   UNL A   1      37.795  32.012  32.808  1.00  0.00     0.135 A 
ATOM     54  F   UNL A   1      38.469  31.920  29.242  1.00  0.00    -0.206 F 
ATOM     55  C   UNL A   1      36.680  32.875  30.418  1.00  0.00     0.059 A 
ATOM     56  C   UNL A   1      36.589  32.709  32.825  1.00  0.00     0.059 A 
ATOM     57  F   UNL A   1      38.229  31.553  33.991  1.00  0.00    -0.206 F 
ATOM     58  C   UNL A   1      36.023  33.116  31.623  1.00  0.00     0.060 A 
BRANCH  58  59
ATOM     59  S   UNL A   1      34.371  33.854  31.606  1.00  0.00     0.124 S 
ATOM     60  O   UNL A   1      34.647  35.221  32.037  1.00  0.00    -0.237 OA
ATOM     61  O   UNL A   1      33.975  33.692  30.211  1.00  0.00    -0.237 OA
ATOM     62  O   UNL A   1      33.625  33.039  32.562  1.00  0.00    -0.744 OA
ENDBRANCH  58  59
ENDBRANCH  26  51
BRANCH  38  63
ATOM     63  C   UNL A   1      43.715  28.644  33.661  1.00  0.00     0.058 A 
ATOM     64  C   UNL A   1      44.034  28.984  34.987  1.00  0.00     0.135 A 
ATOM     65  C   UNL A   1      42.950  27.485  33.460  1.00  0.00     0.135 A 
ATOM     66  F   UNL A   1      44.680  30.124  35.270  1.00  0.00    -0.206 F 
ATOM     67  C   UNL A   1      43.621  28.197  36.063  1.00  0.00     0.059 A 
ATOM     68  C   UNL A   1      42.501  26.703  34.520  1.00  0.00     0.059 A 
ATOM     69  F   UNL A   1      42.565  27.140  32.218  1.00  0.00    -0.206 F 
ATOM     70  C   UNL A   1      42.843  27.066  35.821  1.00  0.00     0.060 A 
BRANCH  70  71
ATOM     71  S   UNL A   1      42.186  26.129  37.220  1.00  0.00     0.124 S 
ATOM     72  O   UNL A   1      43.195  26.370  38.250  1.00  0.00    -0.237 OA
ATOM     73  O   UNL A   1      40.888  26.769  37.447  1.00  0.00    -0.237 OA
ATOM     74  O   UNL A   1      42.117  24.766  36.718  1.00  0.00    -0.744 OA
ENDBRANCH  70  71
ENDBRANCH  38  63
ENDBRANCH  12  13
ENDBRANCH   5   7
ENDBRANCH   2   3
ENDBRANCH   1   2
BRANCH   1  75
ATOM     75  C   UNL A   1      34.177  22.335  24.739  1.00  0.00     0.023 C 
BRANCH  75  76
ATOM     76  C   UNL A   1      34.212  23.859  24.641  1.00  0.00     0.116 C 
BRANCH  76  77
ATOM     77  N   UNL A   1      34.062  24.377  23.289  1.00  0.00    -0.354 N 
ATOM     78  C   UNL A   1      33.664  25.607  22.848  1.00  0.00     0.243 C 
ATOM     79  H   UNL A   1      34.281  23.735  22.575  1.00  0.00     0.163 HD
ATOM     80  O   UNL A   1      33.839  25.879  21.658  1.00  0.00    -0.273 OA
BRANCH  78  81
ATOM     81  C   UNL A   1      33.034  26.619  23.812  1.00  0.00     0.181 C 
ATOM     82  C   UNL A   1      33.791  27.986  23.804  1.00  0.00     0.091 C 
ATOM     83  N   UNL A   1      31.553  26.867  23.783  1.00  0.00    -0.320 N 
ATOM     84  C   UNL A   1      33.173  28.813  24.881  1.00  0.00     0.042 A 
ATOM     85  C   UNL A   1      31.036  27.428  25.058  1.00  0.00     0.178 C 
ATOM     86  N   UNL A   1      33.679  29.898  25.531  1.00  0.00    -0.348 N 
ATOM     87  C   UNL A   1      31.936  28.572  25.451  1.00  0.00     0.081 A 
ATOM     88  C   UNL A   1      32.759  30.246  26.487  1.00  0.00     0.197 A 
ATOM     89  H   UNL A   1      34.538  30.344  25.352  1.00  0.00     0.167 HD
ATOM     90  N   UNL A   1      31.704  29.458  26.470  1.00  0.00    -0.240 NA
BRANCH  83  91
ATOM     91  C   UNL A   1      30.801  27.185  22.641  1.00  0.00     0.256 C 
ATOM     92  O   UNL A   1      30.925  26.612  21.561  1.00  0.00    -0.269 OA
BRANCH  91  93
ATOM     93  C   UNL A   1      29.798  28.258  22.684  1.00  0.00     0.061 A 
ATOM     94  C   UNL A   1      30.207  29.567  22.433  1.00  0.00     0.035 A 
ATOM     95  C   UNL A   1      28.496  28.015  23.110  1.00  0.00     0.072 A 
ATOM     96  C   UNL A   1      29.246  30.563  22.474  1.00  0.00     0.112 A 
ATOM     97  C   UNL A   1      27.596  29.066  23.051  1.00  0.00     0.132 A 
ATOM     98  Cl  UNL A   1      28.021  26.544  23.848  1.00  0.00    -0.082 Cl
ATOM     99  N   UNL A   1      27.938  30.334  22.720  1.00  0.00    -0.263 NA
ENDBRANCH  91  93
ENDBRANCH  83  91
ENDBRANCH  78  81
ENDBRANCH  76  77
ENDBRANCH  75  76
ENDBRANCH   1  75
TORSDOF 16
ENDMDL
