MODEL 1
REMARK VINA RESULT:     -12.7      0.000      0.000
REMARK SMILES O=C(NCCCCNC(=O)c1ccccc1Nc1cccc(S(F)(F)(F)(F)F)c1)c1ccc(-c2c3nc(c(-c4c(F)cc(S(=O)(=O)[O-])cc4F)c4ccc([nH]4)c(-c4c(F)cc(S(=O)(=O)[O-])cc4F)c4nc(c(-c5c(F)cc(S(=O)(=O)[O-])cc5F)c5ccc2[nH]5)C=C4)C=C3)cc1
REMARK SMILES IDX 5 1 4 2 3 3 1 4 2 5 30 7 31 8 95 9 32 10 94 11 33 12 34 13
REMARK SMILES IDX 35 14 88 15 36 16 93 17 87 18 89 19 37 20 92 21 86 22 85 23
REMARK SMILES IDX 38 25 72 26 51 27 71 28 52 29 55 30 70 31 90 32 53 33 54 34
REMARK SMILES IDX 69 36 91 37 56 38 39 39 40 40 49 41 41 42 42 43 48 44 50 45
REMARK SMILES IDX 43 46 44 47 45 48 46 49 47 50 73 51 74 52 83 53 75 54 76 55
REMARK SMILES IDX 82 56 84 57 77 58 78 59 79 60 80 61 81 62 57 63 58 64 67 65
REMARK SMILES IDX 59 66 60 67 66 68 68 69 61 70 62 71 63 72 64 73 65 74 6 75
REMARK SMILES IDX 7 76 8 77 9 78 10 80 11 81 12 82 16 83 13 84 15 85 14 86
REMARK SMILES IDX 17 87 18 89 19 90 29 91 20 92 22 93 21 94 23 95 24 96 25 97
REMARK SMILES IDX 26 98 27 99 28 100
REMARK H PARENT 3 6 89 24 55 35 8 79 17 88
REMARK Flexibility Score: inf
ROOT
ATOM      1  C   UNL A   1      38.276  20.494  25.009  1.00  0.00     0.023 C 
ENDROOT
BRANCH   1   2
ATOM      2  C   UNL A   1      39.306  20.457  26.126  1.00  0.00     0.116 C 
BRANCH   2   3
ATOM      3  N   UNL A   1      40.156  19.268  25.969  1.00  0.00    -0.352 N 
ATOM      4  O   UNL A   1      42.350  18.356  25.973  1.00  0.00    -0.269 OA
ATOM      5  C   UNL A   1      41.615  19.384  26.109  1.00  0.00     0.251 C 
ATOM      6  H   UNL A   1      39.748  18.395  25.769  1.00  0.00     0.163 HD
BRANCH   5   7
ATOM      7  C   UNL A   1      42.244  20.732  26.418  1.00  0.00     0.039 A 
ATOM      8  C   UNL A   1      42.482  21.079  27.737  1.00  0.00     0.014 A 
ATOM      9  C   UNL A   1      42.519  21.570  25.425  1.00  0.00     0.014 A 
ATOM     10  C   UNL A   1      42.744  22.456  27.930  1.00  0.00     0.010 A 
ATOM     11  C   UNL A   1      42.902  22.864  25.688  1.00  0.00     0.010 A 
ATOM     12  C   UNL A   1      43.098  23.293  26.971  1.00  0.00    -0.014 A 
BRANCH  12  13
ATOM     13  C   UNL A   1      43.692  24.657  27.278  1.00  0.00     0.031 A 
ATOM     14  C   UNL A   1      45.058  24.852  27.065  1.00  0.00     0.074 A 
ATOM     15  C   UNL A   1      42.828  25.648  27.711  1.00  0.00     0.049 A 
ATOM     16  N   UNL A   1      45.749  25.985  27.200  1.00  0.00    -0.248 NA
ATOM     17  C   UNL A   1      45.984  23.793  26.638  1.00  0.00     0.031 C 
ATOM     18  C   UNL A   1      41.446  25.462  27.919  1.00  0.00     0.029 A 
ATOM     19  N   UNL A   1      43.126  26.958  28.013  1.00  0.00    -0.354 N 
ATOM     20  C   UNL A   1      47.031  25.783  26.889  1.00  0.00     0.074 A 
ATOM     21  C   UNL A   1      47.202  24.369  26.530  1.00  0.00     0.031 C 
ATOM     22  C   UNL A   1      40.922  26.638  28.352  1.00  0.00     0.029 A 
ATOM     23  C   UNL A   1      41.967  27.580  28.421  1.00  0.00     0.049 A 
ATOM     24  H   UNL A   1      44.015  27.377  27.949  1.00  0.00     0.167 HD
ATOM     25  C   UNL A   1      48.063  26.722  26.890  1.00  0.00     0.037 A 
ATOM     26  C   UNL A   1      41.810  28.894  28.835  1.00  0.00     0.037 A 
ATOM     27  C   UNL A   1      47.896  28.047  27.262  1.00  0.00     0.049 A 
ATOM     28  C   UNL A   1      42.854  29.819  28.892  1.00  0.00     0.074 A 
ATOM     29  C   UNL A   1      48.925  29.009  27.261  1.00  0.00     0.029 A 
ATOM     30  N   UNL A   1      46.743  28.664  27.693  1.00  0.00    -0.354 N 
ATOM     31  N   UNL A   1      44.127  29.627  28.543  1.00  0.00    -0.248 NA
ATOM     32  C   UNL A   1      42.705  31.204  29.359  1.00  0.00     0.031 C 
ATOM     33  C   UNL A   1      48.401  30.187  27.695  1.00  0.00     0.029 A 
ATOM     34  C   UNL A   1      47.037  29.979  27.974  1.00  0.00     0.049 A 
ATOM     35  H   UNL A   1      45.860  28.236  27.785  1.00  0.00     0.167 HD
ATOM     36  C   UNL A   1      44.826  30.750  28.718  1.00  0.00     0.074 A 
ATOM     37  C   UNL A   1      43.923  31.778  29.252  1.00  0.00     0.031 C 
ATOM     38  C   UNL A   1      46.180  30.960  28.449  1.00  0.00     0.037 A 
BRANCH  25  39
ATOM     39  C   UNL A   1      49.447  26.268  26.458  1.00  0.00     0.058 A 
ATOM     40  C   UNL A   1      50.216  25.662  27.438  1.00  0.00     0.135 A 
ATOM     41  C   UNL A   1      49.892  26.390  25.212  1.00  0.00     0.135 A 
ATOM     42  F   UNL A   1      49.726  25.293  28.618  1.00  0.00    -0.206 F 
ATOM     43  C   UNL A   1      51.570  25.474  27.072  1.00  0.00     0.059 A 
ATOM     44  C   UNL A   1      51.187  26.058  24.896  1.00  0.00     0.059 A 
ATOM     45  F   UNL A   1      49.076  26.837  24.263  1.00  0.00    -0.206 F 
ATOM     46  C   UNL A   1      52.021  25.510  25.831  1.00  0.00     0.060 A 
BRANCH  46  47
ATOM     47  S   UNL A   1      53.656  24.869  25.393  1.00  0.00     0.124 S 
ATOM     48  O   UNL A   1      53.556  23.369  25.105  1.00  0.00    -0.237 OA
ATOM     49  O   UNL A   1      54.171  25.594  24.149  1.00  0.00    -0.237 OA
ATOM     50  O   UNL A   1      54.737  25.129  26.693  1.00  0.00    -0.744 OA
ENDBRANCH  46  47
ENDBRANCH  25  39
BRANCH  26  51
ATOM     51  C   UNL A   1      40.422  29.353  29.251  1.00  0.00     0.058 A 
ATOM     52  C   UNL A   1      39.504  29.736  28.286  1.00  0.00     0.135 A 
ATOM     53  C   UNL A   1      40.146  29.462  30.546  1.00  0.00     0.135 A 
ATOM     54  F   UNL A   1      39.627  29.416  27.001  1.00  0.00    -0.206 F 
ATOM     55  C   UNL A   1      38.425  30.499  28.792  1.00  0.00     0.059 A 
ATOM     56  C   UNL A   1      39.005  30.102  30.965  1.00  0.00     0.059 A 
ATOM     57  F   UNL A   1      40.982  28.948  31.443  1.00  0.00    -0.206 F 
ATOM     58  C   UNL A   1      38.082  30.559  30.065  1.00  0.00     0.060 A 
BRANCH  58  59
ATOM     59  S   UNL A   1      36.478  31.212  30.592  1.00  0.00     0.124 S 
ATOM     60  O   UNL A   1      36.633  32.677  31.001  1.00  0.00    -0.237 OA
ATOM     61  O   UNL A   1      35.481  31.108  29.435  1.00  0.00    -0.237 OA
ATOM     62  O   UNL A   1      35.903  30.305  31.923  1.00  0.00    -0.744 OA
ENDBRANCH  58  59
ENDBRANCH  26  51
BRANCH  38  63
ATOM     63  C   UNL A   1      46.750  32.348  28.693  1.00  0.00     0.058 A 
ATOM     64  C   UNL A   1      47.266  32.654  29.942  1.00  0.00     0.135 A 
ATOM     65  C   UNL A   1      46.713  33.252  27.722  1.00  0.00     0.135 A 
ATOM     66  F   UNL A   1      47.556  31.730  30.854  1.00  0.00    -0.206 F 
ATOM     67  C   UNL A   1      47.457  34.039  30.159  1.00  0.00     0.059 A 
ATOM     68  C   UNL A   1      47.044  34.563  27.974  1.00  0.00     0.059 A 
ATOM     69  F   UNL A   1      46.352  32.887  26.495  1.00  0.00    -0.206 F 
ATOM     70  C   UNL A   1      47.505  34.948  29.202  1.00  0.00     0.060 A 
BRANCH  70  71
ATOM     71  S   UNL A   1      48.147  36.613  29.499  1.00  0.00     0.124 S 
ATOM     72  O   UNL A   1      46.981  37.601  29.593  1.00  0.00    -0.237 OA
ATOM     73  O   UNL A   1      48.936  36.630  30.810  1.00  0.00    -0.237 OA
ATOM     74  O   UNL A   1      49.174  37.068  28.209  1.00  0.00    -0.744 OA
ENDBRANCH  70  71
ENDBRANCH  38  63
ENDBRANCH  12  13
ENDBRANCH   5   7
ENDBRANCH   2   3
ENDBRANCH   1   2
BRANCH   1  75
ATOM     75  C   UNL A   1      37.486  21.790  25.091  1.00  0.00     0.023 C 
BRANCH  75  76
ATOM     76  C   UNL A   1      35.998  21.478  25.100  1.00  0.00     0.116 C 
BRANCH  76  77
ATOM     77  N   UNL A   1      35.527  21.386  26.490  1.00  0.00    -0.352 N 
ATOM     78  C   UNL A   1      34.402  22.218  26.941  1.00  0.00     0.253 C 
ATOM     79  H   UNL A   1      35.964  20.766  27.119  1.00  0.00     0.163 HD
ATOM     80  O   UNL A   1      33.994  22.138  28.142  1.00  0.00    -0.269 OA
BRANCH  78  81
ATOM     81  C   UNL A   1      33.725  23.173  25.971  1.00  0.00     0.063 A 
ATOM     82  C   UNL A   1      34.335  24.385  25.693  1.00  0.00     0.016 A 
ATOM     83  C   UNL A   1      32.591  22.821  25.379  1.00  0.00     0.051 A 
ATOM     84  C   UNL A   1      33.512  25.291  24.983  1.00  0.00     0.001 A 
ATOM     85  C   UNL A   1      31.908  23.713  24.588  1.00  0.00     0.027 A 
ATOM     86  C   UNL A   1      32.422  24.951  24.318  1.00  0.00     0.002 A 
BRANCH  83  87
ATOM     87  N   UNL A   1      32.060  21.463  25.570  1.00  0.00    -0.355 N 
ATOM     88  H   UNL A   1      31.474  21.267  26.335  1.00  0.00     0.167 HD
BRANCH  87  89
ATOM     89  C   UNL A   1      32.405  20.398  24.617  1.00  0.00     0.040 A 
ATOM     90  C   UNL A   1      32.126  20.567  23.270  1.00  0.00     0.026 A 
ATOM     91  C   UNL A   1      32.982  19.290  25.066  1.00  0.00     0.050 A 
ATOM     92  C   UNL A   1      32.232  19.379  22.509  1.00  0.00     0.004 A 
ATOM     93  C   UNL A   1      33.179  18.215  24.232  1.00  0.00     0.109 A 
ATOM     94  C   UNL A   1      32.870  18.293  22.902  1.00  0.00     0.024 A 
BRANCH  93  95
ATOM     95  S   UNL A   1      33.855  16.677  24.904  1.00  0.00     0.310 S 
ATOM     96  F   UNL A   1      33.878  15.975  23.483  1.00  0.00    -0.094 F 
ATOM     97  F   UNL A   1      32.380  16.149  25.066  1.00  0.00    -0.094 F 
ATOM     98  F   UNL A   1      34.423  15.357  25.498  1.00  0.00    -0.094 F 
ATOM     99  F   UNL A   1      35.327  17.167  24.607  1.00  0.00    -0.094 F 
ATOM    100  F   UNL A   1      33.297  17.976  24.197  1.00  0.00    -0.094 F 
ENDBRANCH  93  95
ENDBRANCH  87  89
ENDBRANCH  83  87
ENDBRANCH  78  81
ENDBRANCH  76  77
ENDBRANCH  75  76
ENDBRANCH   1  75
TORSDOF 17
ENDMDL
MODEL 2
REMARK VINA RESULT:     -12.7      3.203      7.404
REMARK SMILES O=C(NCCCCNC(=O)c1ccccc1Nc1cccc(S(F)(F)(F)(F)F)c1)c1ccc(-c2c3nc(c(-c4c(F)cc(S(=O)(=O)[O-])cc4F)c4ccc([nH]4)c(-c4c(F)cc(S(=O)(=O)[O-])cc4F)c4nc(c(-c5c(F)cc(S(=O)(=O)[O-])cc5F)c5ccc2[nH]5)C=C4)C=C3)cc1
REMARK SMILES IDX 5 1 4 2 3 3 1 4 2 5 30 7 31 8 95 9 32 10 94 11 33 12 34 13
REMARK SMILES IDX 35 14 88 15 36 16 93 17 87 18 89 19 37 20 92 21 86 22 85 23
REMARK SMILES IDX 38 25 72 26 51 27 71 28 52 29 55 30 70 31 90 32 53 33 54 34
REMARK SMILES IDX 69 36 91 37 56 38 39 39 40 40 49 41 41 42 42 43 48 44 50 45
REMARK SMILES IDX 43 46 44 47 45 48 46 49 47 50 73 51 74 52 83 53 75 54 76 55
REMARK SMILES IDX 82 56 84 57 77 58 78 59 79 60 80 61 81 62 57 63 58 64 67 65
REMARK SMILES IDX 59 66 60 67 66 68 68 69 61 70 62 71 63 72 64 73 65 74 6 75
REMARK SMILES IDX 7 76 8 77 9 78 10 80 11 81 12 82 16 83 13 84 15 85 14 86
REMARK SMILES IDX 17 87 18 89 19 90 29 91 20 92 22 93 21 94 23 95 24 96 25 97
REMARK SMILES IDX 26 98 27 99 28 100
REMARK H PARENT 3 6 89 24 55 35 8 79 17 88
REMARK Flexibility Score: inf
ROOT
ATOM      1  C   UNL A   1      33.318  27.581  25.690  1.00  0.00     0.023 C 
ENDROOT
BRANCH   1   2
ATOM      2  C   UNL A   1      34.263  28.247  26.677  1.00  0.00     0.116 C 
BRANCH   2   3
ATOM      3  N   UNL A   1      33.675  29.512  27.140  1.00  0.00    -0.352 N 
ATOM      4  O   UNL A   1      33.977  31.551  28.322  1.00  0.00    -0.269 OA
ATOM      5  C   UNL A   1      34.486  30.457  27.922  1.00  0.00     0.251 C 
ATOM      6  H   UNL A   1      32.737  29.726  26.927  1.00  0.00     0.163 HD
BRANCH   5   7
ATOM      7  C   UNL A   1      35.932  30.127  28.250  1.00  0.00     0.039 A 
ATOM      8  C   UNL A   1      36.904  30.324  27.284  1.00  0.00     0.014 A 
ATOM      9  C   UNL A   1      36.235  29.618  29.438  1.00  0.00     0.014 A 
ATOM     10  C   UNL A   1      38.132  29.680  27.565  1.00  0.00     0.010 A 
ATOM     11  C   UNL A   1      37.495  29.129  29.689  1.00  0.00     0.010 A 
ATOM     12  C   UNL A   1      38.490  29.237  28.757  1.00  0.00    -0.014 A 
BRANCH  12  13
ATOM     13  C   UNL A   1      39.929  28.870  29.076  1.00  0.00     0.031 A 
ATOM     14  C   UNL A   1      40.390  27.604  28.708  1.00  0.00     0.074 A 
ATOM     15  C   UNL A   1      40.718  29.836  29.676  1.00  0.00     0.049 A 
ATOM     16  N   UNL A   1      41.629  27.122  28.830  1.00  0.00    -0.248 NA
ATOM     17  C   UNL A   1      39.547  26.564  28.101  1.00  0.00     0.031 C 
ATOM     18  C   UNL A   1      40.262  31.118  30.042  1.00  0.00     0.029 A 
ATOM     19  N   UNL A   1      42.047  29.746  30.025  1.00  0.00    -0.354 N 
ATOM     20  C   UNL A   1      41.689  25.878  28.350  1.00  0.00     0.074 A 
ATOM     21  C   UNL A   1      40.349  25.499  27.880  1.00  0.00     0.031 C 
ATOM     22  C   UNL A   1      41.298  31.787  30.612  1.00  0.00     0.029 A 
ATOM     23  C   UNL A   1      42.419  30.934  30.613  1.00  0.00     0.049 A 
ATOM     24  H   UNL A   1      42.631  28.967  29.878  1.00  0.00     0.167 HD
ATOM     25  C   UNL A   1      42.807  25.046  28.283  1.00  0.00     0.037 A 
ATOM     26  C   UNL A   1      43.660  31.274  31.128  1.00  0.00     0.037 A 
ATOM     27  C   UNL A   1      44.059  25.403  28.759  1.00  0.00     0.049 A 
ATOM     28  C   UNL A   1      44.765  30.421  31.115  1.00  0.00     0.074 A 
ATOM     29  C   UNL A   1      45.200  24.579  28.694  1.00  0.00     0.029 A 
ATOM     30  N   UNL A   1      44.426  26.582  29.370  1.00  0.00    -0.354 N 
ATOM     31  N   UNL A   1      44.835  29.193  30.599  1.00  0.00    -0.248 NA
ATOM     32  C   UNL A   1      46.075  30.759  31.687  1.00  0.00     0.031 C 
ATOM     33  C   UNL A   1      46.237  25.249  29.265  1.00  0.00     0.029 A 
ATOM     34  C   UNL A   1      45.761  26.501  29.697  1.00  0.00     0.049 A 
ATOM     35  H   UNL A   1      43.834  27.351  29.542  1.00  0.00     0.167 HD
ATOM     36  C   UNL A   1      46.063  28.696  30.759  1.00  0.00     0.074 A 
ATOM     37  C   UNL A   1      46.877  29.693  31.467  1.00  0.00     0.031 C 
ATOM     38  C   UNL A   1      46.539  27.453  30.338  1.00  0.00     0.037 A 
BRANCH  25  39
ATOM     39  C   UNL A   1      42.644  23.673  27.654  1.00  0.00     0.058 A 
ATOM     40  C   UNL A   1      42.481  22.620  28.539  1.00  0.00     0.135 A 
ATOM     41  C   UNL A   1      42.608  23.480  26.340  1.00  0.00     0.135 A 
ATOM     42  F   UNL A   1      42.259  22.794  29.839  1.00  0.00    -0.206 F 
ATOM     43  C   UNL A   1      42.575  21.344  27.936  1.00  0.00     0.059 A 
ATOM     44  C   UNL A   1      42.562  22.209  25.821  1.00  0.00     0.059 A 
ATOM     45  F   UNL A   1      42.616  24.527  25.521  1.00  0.00    -0.206 F 
ATOM     46  C   UNL A   1      42.461  21.118  26.640  1.00  0.00     0.060 A 
BRANCH  46  47
ATOM     47  S   UNL A   1      42.185  19.454  25.983  1.00  0.00     0.124 S 
ATOM     48  O   UNL A   1      42.963  19.287  24.675  1.00  0.00    -0.237 OA
ATOM     49  O   UNL A   1      42.668  18.418  27.000  1.00  0.00    -0.237 OA
ATOM     50  O   UNL A   1      40.516  19.227  25.686  1.00  0.00    -0.744 OA
ENDBRANCH  46  47
ENDBRANCH  25  39
BRANCH  26  51
ATOM     51  C   UNL A   1      43.827  32.655  31.742  1.00  0.00     0.058 A 
ATOM     52  C   UNL A   1      44.218  33.720  30.947  1.00  0.00     0.135 A 
ATOM     53  C   UNL A   1      43.681  32.792  33.055  1.00  0.00     0.135 A 
ATOM     54  F   UNL A   1      44.133  33.704  29.620  1.00  0.00    -0.206 F 
ATOM     55  C   UNL A   1      44.715  34.827  31.676  1.00  0.00     0.059 A 
ATOM     56  C   UNL A   1      44.063  33.953  33.683  1.00  0.00     0.059 A 
ATOM     57  F   UNL A   1      43.162  31.796  33.768  1.00  0.00    -0.206 F 
ATOM     58  C   UNL A   1      44.513  35.026  32.966  1.00  0.00     0.060 A 
BRANCH  58  59
ATOM     59  S   UNL A   1      44.819  36.633  33.742  1.00  0.00     0.124 S 
ATOM     60  O   UNL A   1      43.869  36.816  34.927  1.00  0.00    -0.237 OA
ATOM     61  O   UNL A   1      46.267  36.694  34.233  1.00  0.00    -0.237 OA
ATOM     62  O   UNL A   1      44.552  37.878  32.599  1.00  0.00    -0.744 OA
ENDBRANCH  58  59
ENDBRANCH  26  51
BRANCH  38  63
ATOM     63  C   UNL A   1      47.999  27.122  30.599  1.00  0.00     0.058 A 
ATOM     64  C   UNL A   1      48.351  26.532  31.803  1.00  0.00     0.135 A 
ATOM     65  C   UNL A   1      48.915  27.432  29.690  1.00  0.00     0.135 A 
ATOM     66  F   UNL A   1      47.466  25.978  32.626  1.00  0.00    -0.206 F 
ATOM     67  C   UNL A   1      49.739  26.574  32.077  1.00  0.00     0.059 A 
ATOM     68  C   UNL A   1      50.254  27.318  29.979  1.00  0.00     0.059 A 
ATOM     69  F   UNL A   1      48.534  27.855  28.488  1.00  0.00    -0.206 F 
ATOM     70  C   UNL A   1      50.675  26.800  31.172  1.00  0.00     0.060 A 
BRANCH  70  71
ATOM     71  S   UNL A   1      52.419  26.442  31.494  1.00  0.00     0.124 S 
ATOM     72  O   UNL A   1      52.576  24.966  31.869  1.00  0.00    -0.237 OA
ATOM     73  O   UNL A   1      53.241  26.740  30.239  1.00  0.00    -0.237 OA
ATOM     74  O   UNL A   1      52.973  27.418  32.785  1.00  0.00    -0.744 OA
ENDBRANCH  70  71
ENDBRANCH  38  63
ENDBRANCH  12  13
ENDBRANCH   5   7
ENDBRANCH   2   3
ENDBRANCH   1   2
BRANCH   1  75
ATOM     75  C   UNL A   1      32.140  26.981  26.441  1.00  0.00     0.023 C 
BRANCH  75  76
ATOM     76  C   UNL A   1      31.715  25.687  25.768  1.00  0.00     0.116 C 
BRANCH  76  77
ATOM     77  N   UNL A   1      31.505  24.650  26.788  1.00  0.00    -0.352 N 
ATOM     78  C   UNL A   1      32.439  23.520  26.891  1.00  0.00     0.253 C 
ATOM     79  H   UNL A   1      30.738  24.713  27.404  1.00  0.00     0.163 HD
ATOM     80  O   UNL A   1      32.258  22.624  27.774  1.00  0.00    -0.269 OA
BRANCH  78  81
ATOM     81  C   UNL A   1      33.623  23.423  25.943  1.00  0.00     0.063 A 
ATOM     82  C   UNL A   1      34.723  24.234  26.162  1.00  0.00     0.016 A 
ATOM     83  C   UNL A   1      33.604  22.541  24.950  1.00  0.00     0.051 A 
ATOM     84  C   UNL A   1      35.650  24.244  25.093  1.00  0.00     0.001 A 
ATOM     85  C   UNL A   1      34.613  22.516  24.018  1.00  0.00     0.027 A 
ATOM     86  C   UNL A   1      35.703  23.332  24.138  1.00  0.00     0.002 A 
BRANCH  83  87
ATOM     87  N   UNL A   1      32.493  21.583  24.847  1.00  0.00    -0.355 N 
ATOM     88  H   UNL A   1      31.642  21.765  25.307  1.00  0.00     0.167 HD
BRANCH  87  89
ATOM     89  C   UNL A   1      32.654  20.354  24.058  1.00  0.00     0.040 A 
ATOM     90  C   UNL A   1      32.145  20.295  22.771  1.00  0.00     0.026 A 
ATOM     91  C   UNL A   1      33.288  19.318  24.595  1.00  0.00     0.050 A 
ATOM     92  C   UNL A   1      32.103  18.988  22.230  1.00  0.00     0.004 A 
ATOM     93  C   UNL A   1      33.323  18.106  23.948  1.00  0.00     0.109 A 
ATOM     94  C   UNL A   1      32.787  17.962  22.698  1.00  0.00     0.024 A 
BRANCH  93  95
ATOM     95  S   UNL A   1      34.089  16.683  24.761  1.00  0.00     0.310 S 
ATOM     96  F   UNL A   1      34.387  15.957  23.383  1.00  0.00    -0.094 F 
ATOM     97  F   UNL A   1      32.683  15.975  24.753  1.00  0.00    -0.094 F 
ATOM     98  F   UNL A   1      34.732  15.459  25.475  1.00  0.00    -0.094 F 
ATOM     99  F   UNL A   1      35.516  17.349  24.636  1.00  0.00    -0.094 F 
ATOM    100  F   UNL A   1      33.474  17.883  23.937  1.00  0.00    -0.094 F 
ENDBRANCH  93  95
ENDBRANCH  87  89
ENDBRANCH  83  87
ENDBRANCH  78  81
ENDBRANCH  76  77
ENDBRANCH  75  76
ENDBRANCH   1  75
TORSDOF 17
ENDMDL
MODEL 3
REMARK VINA RESULT:     -12.5      4.168      8.340
REMARK SMILES O=C(NCCCCNC(=O)c1ccccc1Nc1cccc(S(F)(F)(F)(F)F)c1)c1ccc(-c2c3nc(c(-c4c(F)cc(S(=O)(=O)[O-])cc4F)c4ccc([nH]4)c(-c4c(F)cc(S(=O)(=O)[O-])cc4F)c4nc(c(-c5c(F)cc(S(=O)(=O)[O-])cc5F)c5ccc2[nH]5)C=C4)C=C3)cc1
REMARK SMILES IDX 5 1 4 2 3 3 1 4 2 5 30 7 31 8 95 9 32 10 94 11 33 12 34 13
REMARK SMILES IDX 35 14 88 15 36 16 93 17 87 18 89 19 37 20 92 21 86 22 85 23
REMARK SMILES IDX 38 25 72 26 51 27 71 28 52 29 55 30 70 31 90 32 53 33 54 34
REMARK SMILES IDX 69 36 91 37 56 38 39 39 40 40 49 41 41 42 42 43 48 44 50 45
REMARK SMILES IDX 43 46 44 47 45 48 46 49 47 50 73 51 74 52 83 53 75 54 76 55
REMARK SMILES IDX 82 56 84 57 77 58 78 59 79 60 80 61 81 62 57 63 58 64 67 65
REMARK SMILES IDX 59 66 60 67 66 68 68 69 61 70 62 71 63 72 64 73 65 74 6 75
REMARK SMILES IDX 7 76 8 77 9 78 10 80 11 81 12 82 16 83 13 84 15 85 14 86
REMARK SMILES IDX 17 87 18 89 19 90 29 91 20 92 22 93 21 94 23 95 24 96 25 97
REMARK SMILES IDX 26 98 27 99 28 100
REMARK H PARENT 3 6 89 24 55 35 8 79 17 88
REMARK Flexibility Score: inf
ROOT
ATOM      1  C   UNL A   1      33.215  27.341  26.519  1.00  0.00     0.023 C 
ENDROOT
BRANCH   1   2
ATOM      2  C   UNL A   1      34.330  28.314  26.869  1.00  0.00     0.116 C 
BRANCH   2   3
ATOM      3  N   UNL A   1      33.746  29.570  27.361  1.00  0.00    -0.352 N 
ATOM      4  O   UNL A   1      34.068  31.599  28.554  1.00  0.00    -0.269 OA
ATOM      5  C   UNL A   1      34.572  30.514  28.129  1.00  0.00     0.251 C 
ATOM      6  H   UNL A   1      32.801  29.779  27.178  1.00  0.00     0.163 HD
BRANCH   5   7
ATOM      7  C   UNL A   1      36.030  30.191  28.411  1.00  0.00     0.039 A 
ATOM      8  C   UNL A   1      36.964  30.357  27.403  1.00  0.00     0.014 A 
ATOM      9  C   UNL A   1      36.378  29.719  29.602  1.00  0.00     0.014 A 
ATOM     10  C   UNL A   1      38.202  29.720  27.657  1.00  0.00     0.010 A 
ATOM     11  C   UNL A   1      37.647  29.236  29.819  1.00  0.00     0.010 A 
ATOM     12  C   UNL A   1      38.605  29.313  28.847  1.00  0.00    -0.014 A 
BRANCH  12  13
ATOM     13  C   UNL A   1      40.056  28.954  29.122  1.00  0.00     0.031 A 
ATOM     14  C   UNL A   1      40.492  27.664  28.810  1.00  0.00     0.074 A 
ATOM     15  C   UNL A   1      40.876  29.947  29.627  1.00  0.00     0.049 A 
ATOM     16  N   UNL A   1      41.732  27.180  28.904  1.00  0.00    -0.248 NA
ATOM     17  C   UNL A   1      39.616  26.597  28.305  1.00  0.00     0.031 C 
ATOM     18  C   UNL A   1      40.445  31.252  29.935  1.00  0.00     0.029 A 
ATOM     19  N   UNL A   1      42.220  29.867  29.919  1.00  0.00    -0.354 N 
ATOM     20  C   UNL A   1      41.763  25.910  28.497  1.00  0.00     0.074 A 
ATOM     21  C   UNL A   1      40.401  25.514  28.113  1.00  0.00     0.031 C 
ATOM     22  C   UNL A   1      41.510  31.946  30.417  1.00  0.00     0.029 A 
ATOM     23  C   UNL A   1      42.624  31.085  30.418  1.00  0.00     0.049 A 
ATOM     24  H   UNL A   1      42.791  29.076  29.794  1.00  0.00     0.167 HD
ATOM     25  C   UNL A   1      42.872  25.066  28.430  1.00  0.00     0.037 A 
ATOM     26  C   UNL A   1      43.890  31.445  30.854  1.00  0.00     0.037 A 
ATOM     27  C   UNL A   1      44.147  25.440  28.827  1.00  0.00     0.049 A 
ATOM     28  C   UNL A   1      44.988  30.583  30.843  1.00  0.00     0.074 A 
ATOM     29  C   UNL A   1      45.279  24.604  28.759  1.00  0.00     0.029 A 
ATOM     30  N   UNL A   1      44.548  26.651  29.348  1.00  0.00    -0.354 N 
ATOM     31  N   UNL A   1      45.028  29.326  30.399  1.00  0.00    -0.248 NA
ATOM     32  C   UNL A   1      46.325  30.944  31.333  1.00  0.00     0.031 C 
ATOM     33  C   UNL A   1      46.344  25.298  29.241  1.00  0.00     0.029 A 
ATOM     34  C   UNL A   1      45.896  26.578  29.619  1.00  0.00     0.049 A 
ATOM     35  H   UNL A   1      43.969  27.433  29.501  1.00  0.00     0.167 HD
ATOM     36  C   UNL A   1      46.259  28.830  30.532  1.00  0.00     0.074 A 
ATOM     37  C   UNL A   1      47.110  29.861  31.141  1.00  0.00     0.031 C 
ATOM     38  C   UNL A   1      46.708  27.560  30.166  1.00  0.00     0.037 A 
BRANCH  25  39
ATOM     39  C   UNL A   1      42.673  23.659  27.893  1.00  0.00     0.058 A 
ATOM     40  C   UNL A   1      42.740  23.526  26.516  1.00  0.00     0.135 A 
ATOM     41  C   UNL A   1      42.494  22.603  28.678  1.00  0.00     0.135 A 
ATOM     42  F   UNL A   1      43.164  24.497  25.713  1.00  0.00    -0.206 F 
ATOM     43  C   UNL A   1      42.314  22.263  26.040  1.00  0.00     0.059 A 
ATOM     44  C   UNL A   1      42.216  21.371  28.141  1.00  0.00     0.059 A 
ATOM     45  F   UNL A   1      42.586  22.742  29.998  1.00  0.00    -0.206 F 
ATOM     46  C   UNL A   1      42.207  21.179  26.787  1.00  0.00     0.060 A 
BRANCH  46  47
ATOM     47  S   UNL A   1      42.054  19.529  26.057  1.00  0.00     0.124 S 
ATOM     48  O   UNL A   1      42.931  19.443  24.805  1.00  0.00    -0.237 OA
ATOM     49  O   UNL A   1      42.508  18.479  27.072  1.00  0.00    -0.237 OA
ATOM     50  O   UNL A   1      40.423  19.243  25.631  1.00  0.00    -0.744 OA
ENDBRANCH  46  47
ENDBRANCH  25  39
BRANCH  26  51
ATOM     51  C   UNL A   1      44.093  32.858  31.377  1.00  0.00     0.058 A 
ATOM     52  C   UNL A   1      43.797  33.154  32.697  1.00  0.00     0.135 A 
ATOM     53  C   UNL A   1      44.468  33.807  30.525  1.00  0.00     0.135 A 
ATOM     54  F   UNL A   1      43.667  32.223  33.637  1.00  0.00    -0.206 F 
ATOM     55  C   UNL A   1      43.646  34.538  32.955  1.00  0.00     0.059 A 
ATOM     56  C   UNL A   1      44.423  35.130  30.890  1.00  0.00     0.059 A 
ATOM     57  F   UNL A   1      44.889  33.471  29.309  1.00  0.00    -0.206 F 
ATOM     58  C   UNL A   1      44.083  35.499  32.162  1.00  0.00     0.060 A 
BRANCH  58  59
ATOM     59  S   UNL A   1      44.222  37.213  32.728  1.00  0.00     0.124 S 
ATOM     60  O   UNL A   1      45.678  37.517  33.082  1.00  0.00    -0.237 OA
ATOM     61  O   UNL A   1      43.759  38.157  31.615  1.00  0.00    -0.237 OA
ATOM     62  O   UNL A   1      43.239  37.437  34.111  1.00  0.00    -0.744 OA
ENDBRANCH  58  59
ENDBRANCH  26  51
BRANCH  38  63
ATOM     63  C   UNL A   1      48.177  27.232  30.380  1.00  0.00     0.058 A 
ATOM     64  C   UNL A   1      48.584  26.734  31.607  1.00  0.00     0.135 A 
ATOM     65  C   UNL A   1      49.049  27.460  29.405  1.00  0.00     0.135 A 
ATOM     66  F   UNL A   1      47.736  26.256  32.514  1.00  0.00    -0.206 F 
ATOM     67  C   UNL A   1      49.984  26.780  31.808  1.00  0.00     0.059 A 
ATOM     68  C   UNL A   1      50.400  27.354  29.636  1.00  0.00     0.059 A 
ATOM     69  F   UNL A   1      48.611  27.793  28.194  1.00  0.00    -0.206 F 
ATOM     70  C   UNL A   1      50.875  26.924  30.844  1.00  0.00     0.060 A 
BRANCH  70  71
ATOM     71  S   UNL A   1      52.630  26.572  31.107  1.00  0.00     0.124 S 
ATOM     72  O   UNL A   1      53.357  26.569  29.759  1.00  0.00    -0.237 OA
ATOM     73  O   UNL A   1      53.237  27.648  32.010  1.00  0.00    -0.237 OA
ATOM     74  O   UNL A   1      52.800  25.041  31.849  1.00  0.00    -0.744 OA
ENDBRANCH  70  71
ENDBRANCH  38  63
ENDBRANCH  12  13
ENDBRANCH   5   7
ENDBRANCH   2   3
ENDBRANCH   1   2
BRANCH   1  75
ATOM     75  C   UNL A   1      33.709  26.363  25.466  1.00  0.00     0.023 C 
BRANCH  75  76
ATOM     76  C   UNL A   1      33.634  24.947  26.013  1.00  0.00     0.116 C 
BRANCH  76  77
ATOM     77  N   UNL A   1      32.393  24.786  26.784  1.00  0.00    -0.352 N 
ATOM     78  C   UNL A   1      31.559  23.590  26.593  1.00  0.00     0.253 C 
ATOM     79  H   UNL A   1      32.120  25.478  27.429  1.00  0.00     0.163 HD
ATOM     80  O   UNL A   1      30.486  23.450  27.260  1.00  0.00    -0.269 OA
BRANCH  78  81
ATOM     81  C   UNL A   1      31.979  22.520  25.599  1.00  0.00     0.063 A 
ATOM     82  C   UNL A   1      32.756  21.464  26.042  1.00  0.00     0.016 A 
ATOM     83  C   UNL A   1      31.566  22.590  24.339  1.00  0.00     0.051 A 
ATOM     84  C   UNL A   1      33.291  20.670  25.001  1.00  0.00     0.001 A 
ATOM     85  C   UNL A   1      32.025  21.697  23.402  1.00  0.00     0.027 A 
ATOM     86  C   UNL A   1      32.844  20.662  23.758  1.00  0.00     0.002 A 
BRANCH  83  87
ATOM     87  N   UNL A   1      30.607  23.633  23.943  1.00  0.00    -0.355 N 
ATOM     88  H   UNL A   1      29.650  23.523  24.144  1.00  0.00     0.167 HD
BRANCH  87  89
ATOM     89  C   UNL A   1      31.079  24.839  23.247  1.00  0.00     0.040 A 
ATOM     90  C   UNL A   1      32.130  24.745  22.349  1.00  0.00     0.026 A 
ATOM     91  C   UNL A   1      30.486  26.001  23.493  1.00  0.00     0.050 A 
ATOM     92  C   UNL A   1      32.676  25.995  21.973  1.00  0.00     0.004 A 
ATOM     93  C   UNL A   1      30.996  27.170  22.981  1.00  0.00     0.109 A 
ATOM     94  C   UNL A   1      32.070  27.156  22.133  1.00  0.00     0.024 A 
BRANCH  93  95
ATOM     95  S   UNL A   1      30.237  28.749  23.434  1.00  0.00     0.310 S 
ATOM     96  F   UNL A   1      31.023  29.539  22.306  1.00  0.00    -0.094 F 
ATOM     97  F   UNL A   1      31.464  29.018  24.383  1.00  0.00    -0.094 F 
ATOM     98  F   UNL A   1      29.587  30.101  23.843  1.00  0.00    -0.094 F 
ATOM     99  F   UNL A   1      29.086  28.526  22.375  1.00  0.00    -0.094 F 
ATOM    100  F   UNL A   1      30.939  27.427  22.925  1.00  0.00    -0.094 F 
ENDBRANCH  93  95
ENDBRANCH  87  89
ENDBRANCH  83  87
ENDBRANCH  78  81
ENDBRANCH  76  77
ENDBRANCH  75  76
ENDBRANCH   1  75
TORSDOF 17
ENDMDL
