MODEL 1
REMARK VINA RESULT:     -13.3      0.000      0.000
REMARK SMILES O=C(NCCCCNC(=O)[C@@H](c1cccc(O)c1)[NH+]1CC[NH+](C2CCCC2)CC1)c1ccc(-c2c3nc(c(-c4c(F)cc(S(=O)(=O)[O-])cc4F)c4ccc([nH]4)c(-c4c(F)cc(S(=O)(=O)[O-])cc4F)c4nc(c(-c5c(F)cc(S(=O)(=O)[O-])cc5F)c5ccc2[nH]5)C=C4)C=C3)cc1
REMARK SMILES IDX 5 1 4 2 3 3 1 4 2 5 30 7 31 8 95 9 32 10 94 11 33 12 34 13
REMARK SMILES IDX 35 14 88 15 36 16 93 17 87 18 89 19 37 20 92 21 86 22 85 23
REMARK SMILES IDX 38 25 72 26 51 27 71 28 52 29 55 30 70 31 90 32 53 33 54 34
REMARK SMILES IDX 69 36 91 37 56 38 39 39 40 40 49 41 41 42 42 43 48 44 50 45
REMARK SMILES IDX 43 46 44 47 45 48 46 49 47 50 73 51 74 52 83 53 75 54 76 55
REMARK SMILES IDX 82 56 84 57 77 58 78 59 79 60 80 61 81 62 57 63 58 64 67 65
REMARK SMILES IDX 59 66 60 67 66 68 68 69 61 70 62 71 63 72 64 73 65 74 6 75
REMARK SMILES IDX 7 76 8 77 9 78 10 80 11 81 12 82 13 83 18 84 14 85 16 86
REMARK SMILES IDX 15 87 17 88 19 90 20 91 29 92 21 94 28 95 22 96 23 98 24 99
REMARK SMILES IDX 27 100 25 101 26 102
REMARK H PARENT 3 6 89 24 55 35 8 79 17 89 19 93 22 97
REMARK Flexibility Score: inf
ROOT
ATOM      1  C   UNL A   1      39.335  21.979  26.503  1.00  0.00     0.023 C 
ENDROOT
BRANCH   1   2
ATOM      2  C   UNL A   1      40.277  23.076  26.978  1.00  0.00     0.116 C 
BRANCH   2   3
ATOM      3  N   UNL A   1      40.633  24.059  25.958  1.00  0.00    -0.352 N 
ATOM      4  O   UNL A   1      41.205  26.121  25.194  1.00  0.00    -0.269 OA
ATOM      5  C   UNL A   1      40.965  25.388  26.139  1.00  0.00     0.251 C 
ATOM      6  H   UNL A   1      40.638  23.734  25.028  1.00  0.00     0.163 HD
BRANCH   5   7
ATOM      7  C   UNL A   1      40.972  25.904  27.524  1.00  0.00     0.039 A 
ATOM      8  C   UNL A   1      39.777  25.930  28.243  1.00  0.00     0.014 A 
ATOM      9  C   UNL A   1      42.117  26.536  28.014  1.00  0.00     0.014 A 
ATOM     10  C   UNL A   1      39.669  26.784  29.331  1.00  0.00     0.010 A 
ATOM     11  C   UNL A   1      42.029  27.305  29.178  1.00  0.00     0.010 A 
ATOM     12  C   UNL A   1      40.787  27.497  29.805  1.00  0.00    -0.014 A 
BRANCH  12  13
ATOM     13  C   UNL A   1      40.611  28.445  30.938  1.00  0.00     0.031 A 
ATOM     14  C   UNL A   1      41.544  28.433  32.126  1.00  0.00     0.074 A 
ATOM     15  C   UNL A   1      39.641  29.377  30.856  1.00  0.00     0.049 A 
ATOM     16  N   UNL A   1      41.539  29.208  33.183  1.00  0.00    -0.248 NA
ATOM     17  C   UNL A   1      42.610  27.419  32.140  1.00  0.00     0.031 C 
ATOM     18  C   UNL A   1      38.676  29.491  29.759  1.00  0.00     0.029 A 
ATOM     19  N   UNL A   1      39.329  30.426  31.680  1.00  0.00    -0.354 N 
ATOM     20  C   UNL A   1      42.562  28.746  34.005  1.00  0.00     0.074 A 
ATOM     21  C   UNL A   1      43.168  27.621  33.327  1.00  0.00     0.031 C 
ATOM     22  C   UNL A   1      37.935  30.592  29.937  1.00  0.00     0.029 A 
ATOM     23  C   UNL A   1      38.316  31.219  31.198  1.00  0.00     0.049 A 
ATOM     24  H   UNL A   1      39.786  30.595  32.536  1.00  0.00     0.167 HD
ATOM     25  C   UNL A   1      42.960  29.220  35.212  1.00  0.00     0.037 A 
ATOM     26  C   UNL A   1      37.744  32.323  31.712  1.00  0.00     0.037 A 
ATOM     27  C   UNL A   1      42.389  30.375  35.858  1.00  0.00     0.049 A 
ATOM     28  C   UNL A   1      38.227  32.848  33.030  1.00  0.00     0.074 A 
ATOM     29  C   UNL A   1      42.744  30.952  37.065  1.00  0.00     0.029 A 
ATOM     30  N   UNL A   1      41.351  31.139  35.344  1.00  0.00    -0.354 N 
ATOM     31  N   UNL A   1      39.187  32.387  33.796  1.00  0.00    -0.248 NA
ATOM     32  C   UNL A   1      37.544  34.034  33.560  1.00  0.00     0.031 C 
ATOM     33  C   UNL A   1      41.903  32.047  37.294  1.00  0.00     0.029 A 
ATOM     34  C   UNL A   1      41.049  32.175  36.212  1.00  0.00     0.049 A 
ATOM     35  H   UNL A   1      40.896  30.969  34.487  1.00  0.00     0.167 HD
ATOM     36  C   UNL A   1      39.229  33.232  34.897  1.00  0.00     0.074 A 
ATOM     37  C   UNL A   1      38.212  34.244  34.686  1.00  0.00     0.031 C 
ATOM     38  C   UNL A   1      40.034  33.173  35.986  1.00  0.00     0.037 A 
BRANCH  25  39
ATOM     39  C   UNL A   1      44.050  28.475  35.936  1.00  0.00     0.058 A 
ATOM     40  C   UNL A   1      45.404  28.819  35.801  1.00  0.00     0.135 A 
ATOM     41  C   UNL A   1      43.727  27.428  36.816  1.00  0.00     0.135 A 
ATOM     42  F   UNL A   1      45.772  29.800  34.964  1.00  0.00    -0.206 F 
ATOM     43  C   UNL A   1      46.400  28.136  36.495  1.00  0.00     0.059 A 
ATOM     44  C   UNL A   1      44.703  26.747  37.537  1.00  0.00     0.059 A 
ATOM     45  F   UNL A   1      42.447  27.060  36.986  1.00  0.00    -0.206 F 
ATOM     46  C   UNL A   1      46.040  27.098  37.358  1.00  0.00     0.060 A 
BRANCH  46  47
ATOM     47  S   UNL A   1      47.341  26.219  38.252  1.00  0.00     0.124 S 
ATOM     48  O   UNL A   1      46.624  25.776  39.443  1.00  0.00    -0.237 OA
ATOM     49  O   UNL A   1      47.714  25.167  37.311  1.00  0.00    -0.237 OA
ATOM     50  O   UNL A   1      48.354  27.245  38.474  1.00  0.00    -0.744 OA
ENDBRANCH  46  47
ENDBRANCH  25  39
BRANCH  26  51
ATOM     51  C   UNL A   1      36.652  32.997  30.964  1.00  0.00     0.058 A 
ATOM     52  C   UNL A   1      35.316  32.864  31.365  1.00  0.00     0.135 A 
ATOM     53  C   UNL A   1      36.931  33.828  29.869  1.00  0.00     0.135 A 
ATOM     54  F   UNL A   1      35.002  32.077  32.406  1.00  0.00    -0.206 F 
ATOM     55  C   UNL A   1      34.290  33.530  30.704  1.00  0.00     0.059 A 
ATOM     56  C   UNL A   1      35.926  34.525  29.209  1.00  0.00     0.059 A 
ATOM     57  F   UNL A   1      38.198  34.003  29.462  1.00  0.00    -0.206 F 
ATOM     58  C   UNL A   1      34.607  34.362  29.628  1.00  0.00     0.060 A 
BRANCH  58  59
ATOM     59  S   UNL A   1      33.282  35.284  28.820  1.00  0.00     0.124 S 
ATOM     60  O   UNL A   1      32.630  34.236  28.042  1.00  0.00    -0.237 OA
ATOM     61  O   UNL A   1      32.525  35.803  29.955  1.00  0.00    -0.237 OA
ATOM     62  O   UNL A   1      34.002  36.291  28.046  1.00  0.00    -0.744 OA
ENDBRANCH  58  59
ENDBRANCH  26  51
BRANCH  38  63
ATOM     63  C   UNL A   1      39.858  34.250  37.016  1.00  0.00     0.058 A 
ATOM     64  C   UNL A   1      39.065  34.053  38.157  1.00  0.00     0.135 A 
ATOM     65  C   UNL A   1      40.497  35.491  36.863  1.00  0.00     0.135 A 
ATOM     66  F   UNL A   1      38.428  32.886  38.344  1.00  0.00    -0.206 F 
ATOM     67  C   UNL A   1      38.885  35.062  39.097  1.00  0.00     0.059 A 
ATOM     68  C   UNL A   1      40.348  36.506  37.801  1.00  0.00     0.059 A 
ATOM     69  F   UNL A   1      41.272  35.724  35.792  1.00  0.00    -0.206 F 
ATOM     70  C   UNL A   1      39.525  36.288  38.906  1.00  0.00     0.060 A 
BRANCH  70  71
ATOM     71  S   UNL A   1      39.290  37.593  40.132  1.00  0.00     0.124 S 
ATOM     72  O   UNL A   1      38.950  36.819  41.320  1.00  0.00    -0.237 OA
ATOM     73  O   UNL A   1      40.594  38.248  40.152  1.00  0.00    -0.237 OA
ATOM     74  O   UNL A   1      38.205  38.391  39.569  1.00  0.00    -0.744 OA
ENDBRANCH  70  71
ENDBRANCH  38  63
ENDBRANCH  12  13
ENDBRANCH   5   7
ENDBRANCH   2   3
ENDBRANCH   1   2
BRANCH   1  75
ATOM     75  C   UNL A   1      38.186  22.446  25.624  1.00  0.00     0.023 C 
BRANCH  75  76
ATOM     76  C   UNL A   1      36.908  21.618  25.737  1.00  0.00     0.116 C 
BRANCH  76  77
ATOM     77  N   UNL A   1      35.935  22.210  26.632  1.00  0.00    -0.351 N 
ATOM     78  C   UNL A   1      34.637  22.587  26.411  1.00  0.00     0.283 C 
ATOM     79  H   UNL A   1      36.259  22.365  27.548  1.00  0.00     0.163 HD
ATOM     80  O   UNL A   1      34.011  22.968  27.412  1.00  0.00    -0.268 OA
BRANCH  78  81
ATOM     81  C   UNL A   1      33.923  22.544  25.019  1.00  0.00     0.306 C 
BRANCH  81  82
ATOM     82  C   UNL A   1      33.303  21.172  24.715  1.00  0.00     0.023 A 
ATOM     83  C   UNL A   1      32.833  20.798  23.446  1.00  0.00     0.011 A 
ATOM     84  C   UNL A   1      33.267  20.193  25.721  1.00  0.00     0.056 A 
ATOM     85  C   UNL A   1      32.301  19.531  23.193  1.00  0.00     0.004 A 
ATOM     86  C   UNL A   1      32.761  18.921  25.460  1.00  0.00     0.116 A 
ATOM     87  C   UNL A   1      32.262  18.585  24.206  1.00  0.00     0.046 A 
BRANCH  86  88
ATOM     88  O   UNL A   1      32.782  18.007  26.473  1.00  0.00    -0.508 OA
ATOM     89  H   UNL A   1      32.914  17.099  26.283  1.00  0.00     0.293 HD
ENDBRANCH  86  88
ENDBRANCH  81  82
BRANCH  81  90
ATOM     90  N   UNL A   1      33.038  23.678  24.779  1.00  0.00    -0.312 N 
ATOM     91  C   UNL A   1      31.657  23.708  25.200  1.00  0.00     0.325 C 
ATOM     92  C   UNL A   1      33.368  24.779  23.903  1.00  0.00     0.325 C 
ATOM     93  H   UNL A   1      33.679  23.654  25.573  1.00  0.00     0.349 HD
ATOM     94  C   UNL A   1      31.495  24.886  26.174  1.00  0.00     0.324 C 
ATOM     95  C   UNL A   1      32.969  26.136  24.561  1.00  0.00     0.324 C 
ATOM     96  N   UNL A   1      32.296  26.094  25.879  1.00  0.00    -0.323 N 
ATOM     97  H   UNL A   1      33.112  26.021  26.486  1.00  0.00     0.348 HD
BRANCH  96  98
ATOM     98  C   UNL A   1      31.607  27.316  26.280  1.00  0.00     0.184 C 
ATOM     99  C   UNL A   1      32.290  28.118  27.398  1.00  0.00     0.065 C 
ATOM    100  C   UNL A   1      31.364  28.318  25.131  1.00  0.00     0.065 C 
ATOM    101  C   UNL A   1      31.815  29.541  27.149  1.00  0.00     0.006 C 
ATOM    102  C   UNL A   1      31.881  29.658  25.636  1.00  0.00     0.006 C 
ENDBRANCH  96  98
ENDBRANCH  81  90
ENDBRANCH  78  81
ENDBRANCH  76  77
ENDBRANCH  75  76
ENDBRANCH   1  75
TORSDOF 18
ENDMDL
MODEL 2
REMARK VINA RESULT:     -13.3      1.332      3.905
REMARK SMILES O=C(NCCCCNC(=O)[C@@H](c1cccc(O)c1)[NH+]1CC[NH+](C2CCCC2)CC1)c1ccc(-c2c3nc(c(-c4c(F)cc(S(=O)(=O)[O-])cc4F)c4ccc([nH]4)c(-c4c(F)cc(S(=O)(=O)[O-])cc4F)c4nc(c(-c5c(F)cc(S(=O)(=O)[O-])cc5F)c5ccc2[nH]5)C=C4)C=C3)cc1
REMARK SMILES IDX 5 1 4 2 3 3 1 4 2 5 30 7 31 8 95 9 32 10 94 11 33 12 34 13
REMARK SMILES IDX 35 14 88 15 36 16 93 17 87 18 89 19 37 20 92 21 86 22 85 23
REMARK SMILES IDX 38 25 72 26 51 27 71 28 52 29 55 30 70 31 90 32 53 33 54 34
REMARK SMILES IDX 69 36 91 37 56 38 39 39 40 40 49 41 41 42 42 43 48 44 50 45
REMARK SMILES IDX 43 46 44 47 45 48 46 49 47 50 73 51 74 52 83 53 75 54 76 55
REMARK SMILES IDX 82 56 84 57 77 58 78 59 79 60 80 61 81 62 57 63 58 64 67 65
REMARK SMILES IDX 59 66 60 67 66 68 68 69 61 70 62 71 63 72 64 73 65 74 6 75
REMARK SMILES IDX 7 76 8 77 9 78 10 80 11 81 12 82 13 83 18 84 14 85 16 86
REMARK SMILES IDX 15 87 17 88 19 90 20 91 29 92 21 94 28 95 22 96 23 98 24 99
REMARK SMILES IDX 27 100 25 101 26 102
REMARK H PARENT 3 6 89 24 55 35 8 79 17 89 19 93 22 97
REMARK Flexibility Score: inf
ROOT
ATOM      1  C   UNL A   1      39.803  22.497  27.264  1.00  0.00     0.023 C 
ENDROOT
BRANCH   1   2
ATOM      2  C   UNL A   1      41.180  23.073  26.967  1.00  0.00     0.116 C 
BRANCH   2   3
ATOM      3  N   UNL A   1      41.200  24.110  25.939  1.00  0.00    -0.352 N 
ATOM      4  O   UNL A   1      41.168  26.247  25.167  1.00  0.00    -0.269 OA
ATOM      5  C   UNL A   1      41.191  25.481  26.116  1.00  0.00     0.251 C 
ATOM      6  H   UNL A   1      41.224  23.794  25.006  1.00  0.00     0.163 HD
BRANCH   5   7
ATOM      7  C   UNL A   1      41.160  25.987  27.504  1.00  0.00     0.039 A 
ATOM      8  C   UNL A   1      39.943  26.025  28.184  1.00  0.00     0.014 A 
ATOM      9  C   UNL A   1      42.298  26.598  28.036  1.00  0.00     0.014 A 
ATOM     10  C   UNL A   1      39.811  26.873  29.274  1.00  0.00     0.010 A 
ATOM     11  C   UNL A   1      42.183  27.360  29.203  1.00  0.00     0.010 A 
ATOM     12  C   UNL A   1      40.924  27.565  29.790  1.00  0.00    -0.014 A 
BRANCH  12  13
ATOM     13  C   UNL A   1      40.724  28.508  30.924  1.00  0.00     0.031 A 
ATOM     14  C   UNL A   1      41.648  28.508  32.119  1.00  0.00     0.074 A 
ATOM     15  C   UNL A   1      39.741  29.425  30.837  1.00  0.00     0.049 A 
ATOM     16  N   UNL A   1      41.624  29.279  33.177  1.00  0.00    -0.248 NA
ATOM     17  C   UNL A   1      42.730  27.510  32.138  1.00  0.00     0.031 C 
ATOM     18  C   UNL A   1      38.783  29.527  29.733  1.00  0.00     0.029 A 
ATOM     19  N   UNL A   1      39.406  30.467  31.661  1.00  0.00    -0.354 N 
ATOM     20  C   UNL A   1      42.648  28.831  34.007  1.00  0.00     0.074 A 
ATOM     21  C   UNL A   1      43.275  27.717  33.330  1.00  0.00     0.031 C 
ATOM     22  C   UNL A   1      38.023  30.616  29.908  1.00  0.00     0.029 A 
ATOM     23  C   UNL A   1      38.386  31.246  31.173  1.00  0.00     0.049 A 
ATOM     24  H   UNL A   1      39.855  30.641  32.520  1.00  0.00     0.167 HD
ATOM     25  C   UNL A   1      43.028  29.307  35.218  1.00  0.00     0.037 A 
ATOM     26  C   UNL A   1      37.793  32.339  31.685  1.00  0.00     0.037 A 
ATOM     27  C   UNL A   1      42.435  30.452  35.862  1.00  0.00     0.049 A 
ATOM     28  C   UNL A   1      38.258  32.868  33.008  1.00  0.00     0.074 A 
ATOM     29  C   UNL A   1      42.772  31.032  37.073  1.00  0.00     0.029 A 
ATOM     30  N   UNL A   1      41.390  31.201  35.342  1.00  0.00    -0.354 N 
ATOM     31  N   UNL A   1      39.219  32.420  33.781  1.00  0.00    -0.248 NA
ATOM     32  C   UNL A   1      37.552  34.042  33.536  1.00  0.00     0.031 C 
ATOM     33  C   UNL A   1      41.913  32.113  37.299  1.00  0.00     0.029 A 
ATOM     34  C   UNL A   1      41.065  32.231  36.210  1.00  0.00     0.049 A 
ATOM     35  H   UNL A   1      40.943  31.027  34.482  1.00  0.00     0.167 HD
ATOM     36  C   UNL A   1      39.239  33.263  34.884  1.00  0.00     0.074 A 
ATOM     37  C   UNL A   1      38.209  34.260  34.667  1.00  0.00     0.031 C 
ATOM     38  C   UNL A   1      40.036  33.213  35.979  1.00  0.00     0.037 A 
BRANCH  25  39
ATOM     39  C   UNL A   1      44.124  28.578  35.948  1.00  0.00     0.058 A 
ATOM     40  C   UNL A   1      43.859  27.496  36.803  1.00  0.00     0.135 A 
ATOM     41  C   UNL A   1      45.468  28.939  35.750  1.00  0.00     0.135 A 
ATOM     42  F   UNL A   1      42.594  27.117  37.039  1.00  0.00    -0.206 F 
ATOM     43  C   UNL A   1      44.885  26.815  37.454  1.00  0.00     0.059 A 
ATOM     44  C   UNL A   1      46.510  28.258  36.373  1.00  0.00     0.059 A 
ATOM     45  F   UNL A   1      45.779  29.963  34.941  1.00  0.00    -0.206 F 
ATOM     46  C   UNL A   1      46.208  27.206  37.236  1.00  0.00     0.060 A 
BRANCH  46  47
ATOM     47  S   UNL A   1      47.530  26.316  38.086  1.00  0.00     0.124 S 
ATOM     48  O   UNL A   1      48.096  25.528  36.996  1.00  0.00    -0.237 OA
ATOM     49  O   UNL A   1      48.370  27.401  38.585  1.00  0.00    -0.237 OA
ATOM     50  O   UNL A   1      46.822  25.554  39.110  1.00  0.00    -0.744 OA
ENDBRANCH  46  47
ENDBRANCH  25  39
BRANCH  26  51
ATOM     51  C   UNL A   1      36.696  32.998  30.931  1.00  0.00     0.058 A 
ATOM     52  C   UNL A   1      35.360  32.851  31.326  1.00  0.00     0.135 A 
ATOM     53  C   UNL A   1      36.970  33.830  29.835  1.00  0.00     0.135 A 
ATOM     54  F   UNL A   1      35.051  32.064  32.369  1.00  0.00    -0.206 F 
ATOM     55  C   UNL A   1      34.330  33.503  30.659  1.00  0.00     0.059 A 
ATOM     56  C   UNL A   1      35.960  34.512  29.168  1.00  0.00     0.059 A 
ATOM     57  F   UNL A   1      38.237  34.017  29.432  1.00  0.00    -0.206 F 
ATOM     58  C   UNL A   1      34.641  34.336  29.582  1.00  0.00     0.060 A 
BRANCH  58  59
ATOM     59  S   UNL A   1      33.309  35.239  28.765  1.00  0.00     0.124 S 
ATOM     60  O   UNL A   1      32.561  35.753  29.907  1.00  0.00    -0.237 OA
ATOM     61  O   UNL A   1      34.039  36.230  27.980  1.00  0.00    -0.237 OA
ATOM     62  O   UNL A   1      32.638  34.204  27.983  1.00  0.00    -0.744 OA
ENDBRANCH  58  59
ENDBRANCH  26  51
BRANCH  38  63
ATOM     63  C   UNL A   1      39.837  34.285  37.011  1.00  0.00     0.058 A 
ATOM     64  C   UNL A   1      40.479  35.529  36.911  1.00  0.00     0.135 A 
ATOM     65  C   UNL A   1      38.988  34.066  38.107  1.00  0.00     0.135 A 
ATOM     66  F   UNL A   1      41.306  35.781  35.885  1.00  0.00    -0.206 F 
ATOM     67  C   UNL A   1      40.312  36.510  37.882  1.00  0.00     0.059 A 
ATOM     68  C   UNL A   1      38.789  35.042  39.079  1.00  0.00     0.059 A 
ATOM     69  F   UNL A   1      38.345  32.896  38.242  1.00  0.00    -0.206 F 
ATOM     70  C   UNL A   1      39.470  36.254  38.966  1.00  0.00     0.060 A 
BRANCH  70  71
ATOM     71  S   UNL A   1      39.254  37.534  40.222  1.00  0.00     0.124 S 
ATOM     72  O   UNL A   1      38.174  38.328  39.646  1.00  0.00    -0.237 OA
ATOM     73  O   UNL A   1      38.908  36.758  41.409  1.00  0.00    -0.237 OA
ATOM     74  O   UNL A   1      40.560  38.185  40.266  1.00  0.00    -0.744 OA
ENDBRANCH  70  71
ENDBRANCH  38  63
ENDBRANCH  12  13
ENDBRANCH   5   7
ENDBRANCH   2   3
ENDBRANCH   1   2
BRANCH   1  75
ATOM     75  C   UNL A   1      38.961  22.166  26.042  1.00  0.00     0.023 C 
BRANCH  75  76
ATOM     76  C   UNL A   1      37.828  23.147  25.753  1.00  0.00     0.116 C 
BRANCH  76  77
ATOM     77  N   UNL A   1      37.275  22.989  24.424  1.00  0.00    -0.351 N 
ATOM     78  C   UNL A   1      36.011  23.222  23.952  1.00  0.00     0.283 C 
ATOM     79  H   UNL A   1      37.912  22.659  23.750  1.00  0.00     0.163 HD
ATOM     80  O   UNL A   1      35.863  23.098  22.728  1.00  0.00    -0.268 OA
BRANCH  78  81
ATOM     81  C   UNL A   1      34.794  23.645  24.842  1.00  0.00     0.306 C 
BRANCH  81  82
ATOM     82  C   UNL A   1      34.174  24.979  24.401  1.00  0.00     0.023 A 
ATOM     83  C   UNL A   1      33.834  26.008  25.294  1.00  0.00     0.011 A 
ATOM     84  C   UNL A   1      34.002  25.240  23.033  1.00  0.00     0.056 A 
ATOM     85  C   UNL A   1      33.299  27.223  24.859  1.00  0.00     0.004 A 
ATOM     86  C   UNL A   1      33.493  26.464  22.599  1.00  0.00     0.116 A 
ATOM     87  C   UNL A   1      33.125  27.454  23.502  1.00  0.00     0.046 A 
BRANCH  86  88
ATOM     88  O   UNL A   1      33.380  26.665  21.254  1.00  0.00    -0.508 OA
ATOM     89  H   UNL A   1      34.149  26.723  20.722  1.00  0.00     0.293 HD
ENDBRANCH  86  88
ENDBRANCH  81  82
BRANCH  81  90
ATOM     90  N   UNL A   1      33.833  22.571  25.067  1.00  0.00    -0.312 N 
ATOM     91  C   UNL A   1      32.730  22.296  24.176  1.00  0.00     0.325 C 
ATOM     92  C   UNL A   1      33.737  21.828  26.303  1.00  0.00     0.325 C 
ATOM     93  H   UNL A   1      34.735  22.401  24.621  1.00  0.00     0.349 HD
ATOM     94  C   UNL A   1      32.907  20.865  23.646  1.00  0.00     0.324 C 
ATOM     95  C   UNL A   1      33.564  20.306  26.011  1.00  0.00     0.324 C 
ATOM     96  N   UNL A   1      33.468  19.880  24.596  1.00  0.00    -0.323 N 
ATOM     97  H   UNL A   1      34.460  19.829  24.365  1.00  0.00     0.348 HD
BRANCH  96  98
ATOM     98  C   UNL A   1      32.935  18.540  24.371  1.00  0.00     0.184 C 
ATOM     99  C   UNL A   1      33.862  17.585  23.603  1.00  0.00     0.065 C 
ATOM    100  C   UNL A   1      32.530  17.790  25.658  1.00  0.00     0.065 C 
ATOM    101  C   UNL A   1      33.423  16.210  24.083  1.00  0.00     0.006 C 
ATOM    102  C   UNL A   1      33.205  16.428  25.571  1.00  0.00     0.006 C 
ENDBRANCH  96  98
ENDBRANCH  81  90
ENDBRANCH  78  81
ENDBRANCH  76  77
ENDBRANCH  75  76
ENDBRANCH   1  75
TORSDOF 18
ENDMDL
MODEL 3
REMARK VINA RESULT:     -13.0      6.737     12.289
REMARK SMILES O=C(NCCCCNC(=O)[C@@H](c1cccc(O)c1)[NH+]1CC[NH+](C2CCCC2)CC1)c1ccc(-c2c3nc(c(-c4c(F)cc(S(=O)(=O)[O-])cc4F)c4ccc([nH]4)c(-c4c(F)cc(S(=O)(=O)[O-])cc4F)c4nc(c(-c5c(F)cc(S(=O)(=O)[O-])cc5F)c5ccc2[nH]5)C=C4)C=C3)cc1
REMARK SMILES IDX 5 1 4 2 3 3 1 4 2 5 30 7 31 8 95 9 32 10 94 11 33 12 34 13
REMARK SMILES IDX 35 14 88 15 36 16 93 17 87 18 89 19 37 20 92 21 86 22 85 23
REMARK SMILES IDX 38 25 72 26 51 27 71 28 52 29 55 30 70 31 90 32 53 33 54 34
REMARK SMILES IDX 69 36 91 37 56 38 39 39 40 40 49 41 41 42 42 43 48 44 50 45
REMARK SMILES IDX 43 46 44 47 45 48 46 49 47 50 73 51 74 52 83 53 75 54 76 55
REMARK SMILES IDX 82 56 84 57 77 58 78 59 79 60 80 61 81 62 57 63 58 64 67 65
REMARK SMILES IDX 59 66 60 67 66 68 68 69 61 70 62 71 63 72 64 73 65 74 6 75
REMARK SMILES IDX 7 76 8 77 9 78 10 80 11 81 12 82 13 83 18 84 14 85 16 86
REMARK SMILES IDX 15 87 17 88 19 90 20 91 29 92 21 94 28 95 22 96 23 98 24 99
REMARK SMILES IDX 27 100 25 101 26 102
REMARK H PARENT 3 6 89 24 55 35 8 79 17 89 19 93 22 97
REMARK Flexibility Score: inf
ROOT
ATOM      1  C   UNL A   1      34.413  29.206  27.437  1.00  0.00     0.023 C 
ENDROOT
BRANCH   1   2
ATOM      2  C   UNL A   1      35.217  30.467  27.725  1.00  0.00     0.116 C 
BRANCH   2   3
ATOM      3  N   UNL A   1      35.334  30.806  29.141  1.00  0.00    -0.352 N 
ATOM      4  O   UNL A   1      36.328  30.807  31.185  1.00  0.00    -0.269 OA
ATOM      5  C   UNL A   1      36.369  30.500  30.004  1.00  0.00     0.251 C 
ATOM      6  H   UNL A   1      34.584  31.315  29.527  1.00  0.00     0.163 HD
BRANCH   5   7
ATOM      7  C   UNL A   1      37.512  29.740  29.454  1.00  0.00     0.039 A 
ATOM      8  C   UNL A   1      38.352  29.054  30.329  1.00  0.00     0.014 A 
ATOM      9  C   UNL A   1      37.845  29.885  28.105  1.00  0.00     0.014 A 
ATOM     10  C   UNL A   1      39.630  28.720  29.906  1.00  0.00     0.010 A 
ATOM     11  C   UNL A   1      39.093  29.442  27.658  1.00  0.00     0.010 A 
ATOM     12  C   UNL A   1      40.026  28.923  28.570  1.00  0.00    -0.014 A 
BRANCH  12  13
ATOM     13  C   UNL A   1      41.425  28.603  28.176  1.00  0.00     0.031 A 
ATOM     14  C   UNL A   1      42.523  29.636  28.264  1.00  0.00     0.074 A 
ATOM     15  C   UNL A   1      41.719  27.341  27.805  1.00  0.00     0.049 A 
ATOM     16  N   UNL A   1      43.795  29.510  27.980  1.00  0.00    -0.248 NA
ATOM     17  C   UNL A   1      42.148  30.986  28.716  1.00  0.00     0.031 C 
ATOM     18  C   UNL A   1      40.745  26.254  27.681  1.00  0.00     0.029 A 
ATOM     19  N   UNL A   1      42.917  26.748  27.504  1.00  0.00    -0.354 N 
ATOM     20  C   UNL A   1      44.361  30.767  28.169  1.00  0.00     0.074 A 
ATOM     21  C   UNL A   1      43.293  31.646  28.592  1.00  0.00     0.031 C 
ATOM     22  C   UNL A   1      41.391  25.113  27.409  1.00  0.00     0.029 A 
ATOM     23  C   UNL A   1      42.814  25.400  27.262  1.00  0.00     0.049 A 
ATOM     24  H   UNL A   1      43.768  27.241  27.466  1.00  0.00     0.167 HD
ATOM     25  C   UNL A   1      45.652  31.150  28.008  1.00  0.00     0.037 A 
ATOM     26  C   UNL A   1      43.753  24.491  26.945  1.00  0.00     0.037 A 
ATOM     27  C   UNL A   1      46.722  30.258  27.640  1.00  0.00     0.049 A 
ATOM     28  C   UNL A   1      45.179  24.932  26.809  1.00  0.00     0.074 A 
ATOM     29  C   UNL A   1      48.068  30.542  27.484  1.00  0.00     0.029 A 
ATOM     30  N   UNL A   1      46.573  28.902  27.385  1.00  0.00    -0.354 N 
ATOM     31  N   UNL A   1      45.689  26.129  26.980  1.00  0.00    -0.248 NA
ATOM     32  C   UNL A   1      46.156  23.905  26.427  1.00  0.00     0.031 C 
ATOM     33  C   UNL A   1      48.727  29.367  27.106  1.00  0.00     0.029 A 
ATOM     34  C   UNL A   1      47.797  28.340  27.064  1.00  0.00     0.049 A 
ATOM     35  H   UNL A   1      45.720  28.411  27.425  1.00  0.00     0.167 HD
ATOM     36  C   UNL A   1      47.049  25.998  26.734  1.00  0.00     0.074 A 
ATOM     37  C   UNL A   1      47.284  24.601  26.423  1.00  0.00     0.031 C 
ATOM     38  C   UNL A   1      48.014  26.949  26.758  1.00  0.00     0.037 A 
BRANCH  25  39
ATOM     39  C   UNL A   1      45.983  32.606  28.200  1.00  0.00     0.058 A 
ATOM     40  C   UNL A   1      46.421  33.115  29.433  1.00  0.00     0.135 A 
ATOM     41  C   UNL A   1      45.906  33.497  27.116  1.00  0.00     0.135 A 
ATOM     42  F   UNL A   1      46.500  32.312  30.505  1.00  0.00    -0.206 F 
ATOM     43  C   UNL A   1      46.746  34.460  29.590  1.00  0.00     0.059 A 
ATOM     44  C   UNL A   1      46.248  34.841  27.245  1.00  0.00     0.059 A 
ATOM     45  F   UNL A   1      45.498  33.063  25.914  1.00  0.00    -0.206 F 
ATOM     46  C   UNL A   1      46.653  35.317  28.491  1.00  0.00     0.060 A 
BRANCH  46  47
ATOM     47  S   UNL A   1      47.077  37.059  28.707  1.00  0.00     0.124 S 
ATOM     48  O   UNL A   1      45.909  37.715  28.125  1.00  0.00    -0.237 OA
ATOM     49  O   UNL A   1      47.210  37.174  30.155  1.00  0.00    -0.237 OA
ATOM     50  O   UNL A   1      48.318  37.203  27.953  1.00  0.00    -0.744 OA
ENDBRANCH  46  47
ENDBRANCH  25  39
BRANCH  26  51
ATOM     51  C   UNL A   1      43.360  23.074  26.738  1.00  0.00     0.058 A 
ATOM     52  C   UNL A   1      43.347  22.509  25.456  1.00  0.00     0.135 A 
ATOM     53  C   UNL A   1      43.042  22.245  27.825  1.00  0.00     0.135 A 
ATOM     54  F   UNL A   1      43.642  23.264  24.386  1.00  0.00    -0.206 F 
ATOM     55  C   UNL A   1      43.029  21.170  25.256  1.00  0.00     0.059 A 
ATOM     56  C   UNL A   1      42.746  20.898  27.653  1.00  0.00     0.059 A 
ATOM     57  F   UNL A   1      43.061  22.737  29.074  1.00  0.00    -0.206 F 
ATOM     58  C   UNL A   1      42.734  20.372  26.363  1.00  0.00     0.060 A 
BRANCH  58  59
ATOM     59  S   UNL A   1      42.394  18.617  26.106  1.00  0.00     0.124 S 
ATOM     60  O   UNL A   1      40.980  18.642  25.751  1.00  0.00    -0.237 OA
ATOM     61  O   UNL A   1      43.319  18.275  25.029  1.00  0.00    -0.237 OA
ATOM     62  O   UNL A   1      42.712  18.025  27.403  1.00  0.00    -0.744 OA
ENDBRANCH  58  59
ENDBRANCH  26  51
BRANCH  38  63
ATOM     63  C   UNL A   1      49.416  26.499  26.464  1.00  0.00     0.058 A 
ATOM     64  C   UNL A   1      50.221  25.913  27.453  1.00  0.00     0.135 A 
ATOM     65  C   UNL A   1      49.955  26.650  25.177  1.00  0.00     0.135 A 
ATOM     66  F   UNL A   1      49.751  25.756  28.701  1.00  0.00    -0.206 F 
ATOM     67  C   UNL A   1      51.527  25.521  27.184  1.00  0.00     0.059 A 
ATOM     68  C   UNL A   1      51.252  26.244  24.881  1.00  0.00     0.059 A 
ATOM     69  F   UNL A   1      49.221  27.197  24.196  1.00  0.00    -0.206 F 
ATOM     70  C   UNL A   1      52.036  25.697  25.896  1.00  0.00     0.060 A 
BRANCH  70  71
ATOM     71  S   UNL A   1      53.733  25.181  25.552  1.00  0.00     0.124 S 
ATOM     72  O   UNL A   1      54.446  25.747  26.692  1.00  0.00    -0.237 OA
ATOM     73  O   UNL A   1      53.624  23.726  25.531  1.00  0.00    -0.237 OA
ATOM     74  O   UNL A   1      54.018  25.800  24.261  1.00  0.00    -0.744 OA
ENDBRANCH  70  71
ENDBRANCH  38  63
ENDBRANCH  12  13
ENDBRANCH   5   7
ENDBRANCH   2   3
ENDBRANCH   1   2
BRANCH   1  75
ATOM     75  C   UNL A   1      32.917  29.416  27.268  1.00  0.00     0.023 C 
BRANCH  75  76
ATOM     76  C   UNL A   1      32.516  30.276  26.072  1.00  0.00     0.116 C 
BRANCH  76  77
ATOM     77  N   UNL A   1      33.097  29.813  24.829  1.00  0.00    -0.351 N 
ATOM     78  C   UNL A   1      32.647  28.885  23.928  1.00  0.00     0.283 C 
ATOM     79  H   UNL A   1      33.955  30.234  24.593  1.00  0.00     0.163 HD
ATOM     80  O   UNL A   1      33.314  28.778  22.889  1.00  0.00    -0.268 OA
BRANCH  78  81
ATOM     81  C   UNL A   1      31.369  28.001  24.125  1.00  0.00     0.306 C 
BRANCH  81  82
ATOM     82  C   UNL A   1      30.144  28.561  23.387  1.00  0.00     0.023 A 
ATOM     83  C   UNL A   1      28.851  28.031  23.520  1.00  0.00     0.011 A 
ATOM     84  C   UNL A   1      30.282  29.711  22.594  1.00  0.00     0.056 A 
ATOM     85  C   UNL A   1      27.750  28.580  22.858  1.00  0.00     0.004 A 
ATOM     86  C   UNL A   1      29.178  30.274  21.956  1.00  0.00     0.116 A 
ATOM     87  C   UNL A   1      27.913  29.709  22.068  1.00  0.00     0.046 A 
BRANCH  86  88
ATOM     88  O   UNL A   1      29.376  31.409  21.226  1.00  0.00    -0.508 OA
ATOM     89  H   UNL A   1      29.469  32.235  21.658  1.00  0.00     0.293 HD
ENDBRANCH  86  88
ENDBRANCH  81  82
BRANCH  81  90
ATOM     90  N   UNL A   1      31.605  26.577  23.920  1.00  0.00    -0.312 N 
ATOM     91  C   UNL A   1      31.698  25.969  22.613  1.00  0.00     0.325 C 
ATOM     92  C   UNL A   1      31.539  25.594  24.978  1.00  0.00     0.325 C 
ATOM     93  H   UNL A   1      32.371  27.230  24.092  1.00  0.00     0.349 HD
ATOM     94  C   UNL A   1      33.096  25.344  22.490  1.00  0.00     0.324 C 
ATOM     95  C   UNL A   1      32.727  24.590  24.864  1.00  0.00     0.324 C 
ATOM     96  N   UNL A   1      33.656  24.746  23.721  1.00  0.00    -0.323 N 
ATOM     97  H   UNL A   1      34.276  25.461  24.101  1.00  0.00     0.348 HD
BRANCH  96  98
ATOM     98  C   UNL A   1      34.505  23.595  23.432  1.00  0.00     0.184 C 
ATOM     99  C   UNL A   1      35.876  23.599  24.123  1.00  0.00     0.065 C 
ATOM    100  C   UNL A   1      33.867  22.230  23.769  1.00  0.00     0.065 C 
ATOM    101  C   UNL A   1      36.224  22.122  24.221  1.00  0.00     0.006 C 
ATOM    102  C   UNL A   1      34.898  21.489  24.609  1.00  0.00     0.006 C 
ENDBRANCH  96  98
ENDBRANCH  81  90
ENDBRANCH  78  81
ENDBRANCH  76  77
ENDBRANCH  75  76
ENDBRANCH   1  75
TORSDOF 18
ENDMDL
