MODEL 1
REMARK VINA RESULT:     -11.2      0.000      0.000
REMARK SMILES O=C(NCCCCNC(=O)c1ccc(Cl)nc1NC[C@@H]1C[N@@H+]2CCC[C@@H]2CO1)c1ccc(-c2c3nc(c(-c4c(F)cc(S(=O)(=O)[O-])cc4F)c4ccc([nH]4)c(-c4c(F)cc(S(=O)(=O)[O-])cc4F)c4nc(c(-c5c(F)cc(S(=O)(=O)[O-])cc5F)c5ccc2[nH]5)C=C4)C=C3)cc1
REMARK SMILES IDX 5 1 4 2 3 3 1 4 2 5 29 7 30 8 94 9 31 10 93 11 32 12 33 13
REMARK SMILES IDX 34 14 87 15 35 16 92 17 86 18 88 19 36 20 91 21 85 22 84 23
REMARK SMILES IDX 37 25 71 26 50 27 70 28 51 29 54 30 69 31 89 32 52 33 53 34
REMARK SMILES IDX 68 36 90 37 55 38 38 39 39 40 48 41 40 42 41 43 47 44 49 45
REMARK SMILES IDX 42 46 43 47 44 48 45 49 46 50 72 51 73 52 82 53 74 54 75 55
REMARK SMILES IDX 81 56 83 57 76 58 77 59 78 60 79 61 80 62 56 63 57 64 66 65
REMARK SMILES IDX 58 66 59 67 65 68 67 69 60 70 61 71 62 72 63 73 64 74 6 75
REMARK SMILES IDX 7 76 8 77 9 78 10 80 11 81 12 82 17 83 13 84 16 85 14 86
REMARK SMILES IDX 15 87 18 88 19 90 20 91 21 92 28 93 22 94 27 95 23 96 26 97
REMARK SMILES IDX 24 99 25 100
REMARK H PARENT 3 6 88 24 54 35 8 79 18 89 22 98
REMARK Flexibility Score: inf
ROOT
ATOM      1  C   UNL A   1      33.243  28.743  25.499  1.00  0.00     0.023 C 
ENDROOT
BRANCH   1   2
ATOM      2  C   UNL A   1      33.901  28.719  26.874  1.00  0.00     0.116 C 
BRANCH   2   3
ATOM      3  N   UNL A   1      33.756  29.969  27.605  1.00  0.00    -0.352 N 
ATOM      4  O   UNL A   1      34.321  31.630  29.020  1.00  0.00    -0.269 OA
ATOM      5  C   UNL A   1      34.667  30.629  28.398  1.00  0.00     0.251 C 
ATOM      6  H   UNL A   1      32.878  30.406  27.520  1.00  0.00     0.163 HD
BRANCH   5   7
ATOM      7  C   UNL A   1      36.046  30.107  28.533  1.00  0.00     0.039 A 
ATOM      8  C   UNL A   1      36.484  29.544  29.733  1.00  0.00     0.014 A 
ATOM      9  C   UNL A   1      36.921  30.210  27.448  1.00  0.00     0.014 A 
ATOM     10  C   UNL A   1      37.834  29.254  29.904  1.00  0.00     0.010 A 
ATOM     11  C   UNL A   1      38.261  29.835  27.596  1.00  0.00     0.010 A 
ATOM     12  C   UNL A   1      38.742  29.404  28.842  1.00  0.00    -0.014 A 
BRANCH  12  13
ATOM     13  C   UNL A   1      40.180  29.099  29.067  1.00  0.00     0.031 A 
ATOM     14  C   UNL A   1      40.763  27.767  28.672  1.00  0.00     0.074 A 
ATOM     15  C   UNL A   1      40.978  30.057  29.579  1.00  0.00     0.049 A 
ATOM     16  N   UNL A   1      42.006  27.361  28.740  1.00  0.00    -0.248 NA
ATOM     17  C   UNL A   1      39.834  26.755  28.146  1.00  0.00     0.031 C 
ATOM     18  C   UNL A   1      40.529  31.382  30.016  1.00  0.00     0.029 A 
ATOM     19  N   UNL A   1      42.331  30.079  29.794  1.00  0.00    -0.354 N 
ATOM     20  C   UNL A   1      42.005  26.044  28.292  1.00  0.00     0.074 A 
ATOM     21  C   UNL A   1      40.633  25.711  27.974  1.00  0.00     0.031 C 
ATOM     22  C   UNL A   1      41.593  32.106  30.390  1.00  0.00     0.029 A 
ATOM     23  C   UNL A   1      42.793  31.284  30.268  1.00  0.00     0.049 A 
ATOM     24  H   UNL A   1      42.917  29.306  29.626  1.00  0.00     0.167 HD
ATOM     25  C   UNL A   1      43.052  25.194  28.151  1.00  0.00     0.037 A 
ATOM     26  C   UNL A   1      44.041  31.687  30.570  1.00  0.00     0.037 A 
ATOM     27  C   UNL A   1      44.422  25.539  28.435  1.00  0.00     0.049 A 
ATOM     28  C   UNL A   1      45.186  30.735  30.379  1.00  0.00     0.074 A 
ATOM     29  C   UNL A   1      45.556  24.758  28.284  1.00  0.00     0.029 A 
ATOM     30  N   UNL A   1      44.846  26.767  28.922  1.00  0.00    -0.354 N 
ATOM     31  N   UNL A   1      45.166  29.504  29.928  1.00  0.00    -0.248 NA
ATOM     32  C   UNL A   1      46.523  31.228  30.736  1.00  0.00     0.031 C 
ATOM     33  C   UNL A   1      46.662  25.504  28.709  1.00  0.00     0.029 A 
ATOM     34  C   UNL A   1      46.221  26.761  29.088  1.00  0.00     0.049 A 
ATOM     35  H   UNL A   1      44.257  27.529  29.120  1.00  0.00     0.167 HD
ATOM     36  C   UNL A   1      46.489  29.079  29.929  1.00  0.00     0.074 A 
ATOM     37  C   UNL A   1      47.284  30.191  30.412  1.00  0.00     0.031 C 
ATOM     38  C   UNL A   1      46.999  27.877  29.565  1.00  0.00     0.037 A 
BRANCH  25  39
ATOM     39  C   UNL A   1      42.756  23.795  27.681  1.00  0.00     0.058 A 
ATOM     40  C   UNL A   1      42.549  22.740  28.583  1.00  0.00     0.135 A 
ATOM     41  C   UNL A   1      42.642  23.516  26.310  1.00  0.00     0.135 A 
ATOM     42  F   UNL A   1      42.661  22.948  29.905  1.00  0.00    -0.206 F 
ATOM     43  C   UNL A   1      42.266  21.450  28.141  1.00  0.00     0.059 A 
ATOM     44  C   UNL A   1      42.338  22.239  25.846  1.00  0.00     0.059 A 
ATOM     45  F   UNL A   1      42.829  24.489  25.404  1.00  0.00    -0.206 F 
ATOM     46  C   UNL A   1      42.168  21.209  26.770  1.00  0.00     0.060 A 
BRANCH  46  47
ATOM     47  S   UNL A   1      41.807  19.531  26.209  1.00  0.00     0.124 S 
ATOM     48  O   UNL A   1      40.366  19.601  25.995  1.00  0.00    -0.237 OA
ATOM     49  O   UNL A   1      42.621  19.421  25.002  1.00  0.00    -0.237 OA
ATOM     50  O   UNL A   1      42.236  18.699  27.328  1.00  0.00    -0.744 OA
ENDBRANCH  46  47
ENDBRANCH  25  39
BRANCH  26  51
ATOM     51  C   UNL A   1      44.268  33.070  31.064  1.00  0.00     0.058 A 
ATOM     52  C   UNL A   1      44.470  34.130  30.168  1.00  0.00     0.135 A 
ATOM     53  C   UNL A   1      44.252  33.362  32.435  1.00  0.00     0.135 A 
ATOM     54  F   UNL A   1      44.496  33.897  28.848  1.00  0.00    -0.206 F 
ATOM     55  C   UNL A   1      44.659  35.433  30.616  1.00  0.00     0.059 A 
ATOM     56  C   UNL A   1      44.413  34.660  32.906  1.00  0.00     0.059 A 
ATOM     57  F   UNL A   1      44.042  32.383  33.329  1.00  0.00    -0.206 F 
ATOM     58  C   UNL A   1      44.625  35.688  31.988  1.00  0.00     0.060 A 
BRANCH  58  59
ATOM     59  S   UNL A   1      44.806  37.391  32.562  1.00  0.00     0.124 S 
ATOM     60  O   UNL A   1      45.160  38.080  31.327  1.00  0.00    -0.237 OA
ATOM     61  O   UNL A   1      43.479  37.680  33.097  1.00  0.00    -0.237 OA
ATOM     62  O   UNL A   1      45.867  37.294  33.560  1.00  0.00    -0.744 OA
ENDBRANCH  58  59
ENDBRANCH  26  51
BRANCH  38  63
ATOM     63  C   UNL A   1      48.489  27.716  29.645  1.00  0.00     0.058 A 
ATOM     64  C   UNL A   1      49.327  28.078  28.578  1.00  0.00     0.135 A 
ATOM     65  C   UNL A   1      49.088  27.212  30.810  1.00  0.00     0.135 A 
ATOM     66  F   UNL A   1      48.801  28.558  27.441  1.00  0.00    -0.206 F 
ATOM     67  C   UNL A   1      50.706  27.916  28.653  1.00  0.00     0.059 A 
ATOM     68  C   UNL A   1      50.467  27.062  30.914  1.00  0.00     0.059 A 
ATOM     69  F   UNL A   1      48.331  26.860  31.861  1.00  0.00    -0.206 F 
ATOM     70  C   UNL A   1      51.267  27.403  29.823  1.00  0.00     0.060 A 
BRANCH  70  71
ATOM     71  S   UNL A   1      53.059  27.205  29.917  1.00  0.00     0.124 S 
ATOM     72  O   UNL A   1      53.297  26.202  28.884  1.00  0.00    -0.237 OA
ATOM     73  O   UNL A   1      53.542  28.550  29.618  1.00  0.00    -0.237 OA
ATOM     74  O   UNL A   1      53.278  26.759  31.290  1.00  0.00    -0.744 OA
ENDBRANCH  70  71
ENDBRANCH  38  63
ENDBRANCH  12  13
ENDBRANCH   5   7
ENDBRANCH   2   3
ENDBRANCH   1   2
BRANCH   1  75
ATOM     75  C   UNL A   1      34.090  28.202  24.348  1.00  0.00     0.023 C 
BRANCH  75  76
ATOM     76  C   UNL A   1      33.779  28.787  22.971  1.00  0.00     0.116 C 
BRANCH  76  77
ATOM     77  N   UNL A   1      33.665  27.763  21.948  1.00  0.00    -0.352 N 
ATOM     78  C   UNL A   1      32.992  26.569  21.974  1.00  0.00     0.255 C 
ATOM     79  H   UNL A   1      34.143  27.954  21.109  1.00  0.00     0.163 HD
ATOM     80  O   UNL A   1      33.198  25.737  21.093  1.00  0.00    -0.269 OA
BRANCH  78  81
ATOM     81  C   UNL A   1      32.023  26.266  23.045  1.00  0.00     0.082 A 
ATOM     82  C   UNL A   1      30.832  26.997  23.131  1.00  0.00     0.021 A 
ATOM     83  C   UNL A   1      32.236  25.177  23.906  1.00  0.00     0.140 A 
ATOM     84  C   UNL A   1      29.918  26.689  24.129  1.00  0.00     0.042 A 
ATOM     85  N   UNL A   1      31.339  24.881  24.875  1.00  0.00    -0.219 NA
ATOM     86  C   UNL A   1      30.228  25.638  24.969  1.00  0.00     0.131 A 
ATOM     87  Cl  UNL A   1      29.168  25.192  26.243  1.00  0.00    -0.062 Cl
BRANCH  83  88
ATOM     88  N   UNL A   1      33.397  24.424  23.833  1.00  0.00    -0.367 N 
ATOM     89  H   UNL A   1      34.255  24.878  23.668  1.00  0.00     0.162 HD
BRANCH  88  90
ATOM     90  C   UNL A   1      33.379  22.981  23.993  1.00  0.00     0.152 C 
BRANCH  90  91
ATOM     91  C   UNL A   1      33.895  22.450  25.362  1.00  0.00     0.192 C 
ATOM     92  C   UNL A   1      34.866  23.343  26.194  1.00  0.00     0.296 C 
ATOM     93  O   UNL A   1      34.370  21.093  25.205  1.00  0.00    -0.364 OA
ATOM     94  N   UNL A   1      36.250  22.915  26.400  1.00  0.00    -0.328 N 
ATOM     95  C   UNL A   1      35.720  21.082  24.736  1.00  0.00     0.225 C 
ATOM     96  C   UNL A   1      37.265  23.918  26.113  1.00  0.00     0.262 C 
ATOM     97  C   UNL A   1      36.646  21.631  25.818  1.00  0.00     0.210 C 
ATOM     98  H   UNL A   1      36.219  22.772  27.410  1.00  0.00     0.348 HD
ATOM     99  C   UNL A   1      38.535  23.087  26.056  1.00  0.00     0.068 C 
ATOM    100  C   UNL A   1      38.078  21.838  25.322  1.00  0.00     0.073 C 
ENDBRANCH  90  91
ENDBRANCH  88  90
ENDBRANCH  83  88
ENDBRANCH  78  81
ENDBRANCH  76  77
ENDBRANCH  75  76
ENDBRANCH   1  75
TORSDOF 17
ENDMDL
MODEL 2
REMARK VINA RESULT:     -11.2      1.058      1.860
REMARK SMILES O=C(NCCCCNC(=O)c1ccc(Cl)nc1NC[C@@H]1C[N@@H+]2CCC[C@@H]2CO1)c1ccc(-c2c3nc(c(-c4c(F)cc(S(=O)(=O)[O-])cc4F)c4ccc([nH]4)c(-c4c(F)cc(S(=O)(=O)[O-])cc4F)c4nc(c(-c5c(F)cc(S(=O)(=O)[O-])cc5F)c5ccc2[nH]5)C=C4)C=C3)cc1
REMARK SMILES IDX 5 1 4 2 3 3 1 4 2 5 29 7 30 8 94 9 31 10 93 11 32 12 33 13
REMARK SMILES IDX 34 14 87 15 35 16 92 17 86 18 88 19 36 20 91 21 85 22 84 23
REMARK SMILES IDX 37 25 71 26 50 27 70 28 51 29 54 30 69 31 89 32 52 33 53 34
REMARK SMILES IDX 68 36 90 37 55 38 38 39 39 40 48 41 40 42 41 43 47 44 49 45
REMARK SMILES IDX 42 46 43 47 44 48 45 49 46 50 72 51 73 52 82 53 74 54 75 55
REMARK SMILES IDX 81 56 83 57 76 58 77 59 78 60 79 61 80 62 56 63 57 64 66 65
REMARK SMILES IDX 58 66 59 67 65 68 67 69 60 70 61 71 62 72 63 73 64 74 6 75
REMARK SMILES IDX 7 76 8 77 9 78 10 80 11 81 12 82 17 83 13 84 16 85 14 86
REMARK SMILES IDX 15 87 18 88 19 90 20 91 21 92 28 93 22 94 27 95 23 96 26 97
REMARK SMILES IDX 24 99 25 100
REMARK H PARENT 3 6 88 24 54 35 8 79 18 89 22 98
REMARK Flexibility Score: inf
ROOT
ATOM      1  C   UNL A   1      33.637  28.213  25.728  1.00  0.00     0.023 C 
ENDROOT
BRANCH   1   2
ATOM      2  C   UNL A   1      33.667  28.392  27.242  1.00  0.00     0.116 C 
BRANCH   2   3
ATOM      3  N   UNL A   1      33.589  29.783  27.661  1.00  0.00    -0.352 N 
ATOM      4  O   UNL A   1      34.268  31.711  28.610  1.00  0.00    -0.269 OA
ATOM      5  C   UNL A   1      34.557  30.581  28.228  1.00  0.00     0.251 C 
ATOM      6  H   UNL A   1      32.718  30.218  27.517  1.00  0.00     0.163 HD
BRANCH   5   7
ATOM      7  C   UNL A   1      35.930  30.059  28.416  1.00  0.00     0.039 A 
ATOM      8  C   UNL A   1      36.352  29.584  29.659  1.00  0.00     0.014 A 
ATOM      9  C   UNL A   1      36.816  30.073  27.335  1.00  0.00     0.014 A 
ATOM     10  C   UNL A   1      37.697  29.296  29.865  1.00  0.00     0.010 A 
ATOM     11  C   UNL A   1      38.151  29.699  27.524  1.00  0.00     0.010 A 
ATOM     12  C   UNL A   1      38.616  29.358  28.803  1.00  0.00    -0.014 A 
BRANCH  12  13
ATOM     13  C   UNL A   1      40.049  29.059  29.065  1.00  0.00     0.031 A 
ATOM     14  C   UNL A   1      40.653  27.737  28.667  1.00  0.00     0.074 A 
ATOM     15  C   UNL A   1      40.826  30.014  29.615  1.00  0.00     0.049 A 
ATOM     16  N   UNL A   1      41.896  27.337  28.764  1.00  0.00    -0.248 NA
ATOM     17  C   UNL A   1      39.746  26.727  28.099  1.00  0.00     0.031 C 
ATOM     18  C   UNL A   1      40.355  31.329  30.058  1.00  0.00     0.029 A 
ATOM     19  N   UNL A   1      42.173  30.041  29.868  1.00  0.00    -0.354 N 
ATOM     20  C   UNL A   1      41.917  26.028  28.296  1.00  0.00     0.074 A 
ATOM     21  C   UNL A   1      40.557  25.691  27.934  1.00  0.00     0.031 C 
ATOM     22  C   UNL A   1      41.404  32.054  30.474  1.00  0.00     0.029 A 
ATOM     23  C   UNL A   1      42.612  31.242  30.374  1.00  0.00     0.049 A 
ATOM     24  H   UNL A   1      42.768  29.275  29.705  1.00  0.00     0.167 HD
ATOM     25  C   UNL A   1      42.973  25.187  28.172  1.00  0.00     0.037 A 
ATOM     26  C   UNL A   1      43.849  31.648  30.718  1.00  0.00     0.037 A 
ATOM     27  C   UNL A   1      44.332  25.536  28.500  1.00  0.00     0.049 A 
ATOM     28  C   UNL A   1      45.005  30.706  30.545  1.00  0.00     0.074 A 
ATOM     29  C   UNL A   1      45.475  24.765  28.371  1.00  0.00     0.029 A 
ATOM     30  N   UNL A   1      44.733  26.759  29.018  1.00  0.00    -0.354 N 
ATOM     31  N   UNL A   1      45.006  29.482  30.075  1.00  0.00    -0.248 NA
ATOM     32  C   UNL A   1      46.328  31.202  30.948  1.00  0.00     0.031 C 
ATOM     33  C   UNL A   1      46.564  25.511  28.839  1.00  0.00     0.029 A 
ATOM     34  C   UNL A   1      46.103  26.759  29.224  1.00  0.00     0.049 A 
ATOM     35  H   UNL A   1      44.134  27.514  29.211  1.00  0.00     0.167 HD
ATOM     36  C   UNL A   1      46.331  29.066  30.108  1.00  0.00     0.074 A 
ATOM     37  C   UNL A   1      47.105  30.175  30.630  1.00  0.00     0.031 C 
ATOM     38  C   UNL A   1      46.860  27.873  29.740  1.00  0.00     0.037 A 
BRANCH  25  39
ATOM     39  C   UNL A   1      42.701  23.793  27.673  1.00  0.00     0.058 A 
ATOM     40  C   UNL A   1      42.513  22.716  28.552  1.00  0.00     0.135 A 
ATOM     41  C   UNL A   1      42.588  23.542  26.296  1.00  0.00     0.135 A 
ATOM     42  F   UNL A   1      42.624  22.897  29.878  1.00  0.00    -0.206 F 
ATOM     43  C   UNL A   1      42.251  21.431  28.083  1.00  0.00     0.059 A 
ATOM     44  C   UNL A   1      42.305  22.270  25.805  1.00  0.00     0.059 A 
ATOM     45  F   UNL A   1      42.756  24.537  25.411  1.00  0.00    -0.206 F 
ATOM     46  C   UNL A   1      42.155  21.218  26.707  1.00  0.00     0.060 A 
BRANCH  46  47
ATOM     47  S   UNL A   1      41.821  19.546  26.110  1.00  0.00     0.124 S 
ATOM     48  O   UNL A   1      42.729  19.460  24.971  1.00  0.00    -0.237 OA
ATOM     49  O   UNL A   1      42.173  18.724  27.264  1.00  0.00    -0.237 OA
ATOM     50  O   UNL A   1      40.400  19.582  25.779  1.00  0.00    -0.744 OA
ENDBRANCH  46  47
ENDBRANCH  25  39
BRANCH  26  51
ATOM     51  C   UNL A   1      44.051  33.024  31.239  1.00  0.00     0.058 A 
ATOM     52  C   UNL A   1      44.195  34.111  30.365  1.00  0.00     0.135 A 
ATOM     53  C   UNL A   1      44.072  33.282  32.617  1.00  0.00     0.135 A 
ATOM     54  F   UNL A   1      44.185  33.911  29.038  1.00  0.00    -0.206 F 
ATOM     55  C   UNL A   1      44.361  35.408  30.839  1.00  0.00     0.059 A 
ATOM     56  C   UNL A   1      44.211  34.573  33.116  1.00  0.00     0.059 A 
ATOM     57  F   UNL A   1      43.918  32.276  33.492  1.00  0.00    -0.206 F 
ATOM     58  C   UNL A   1      44.364  35.629  32.218  1.00  0.00     0.060 A 
BRANCH  58  59
ATOM     59  S   UNL A   1      44.514  37.322  32.828  1.00  0.00     0.124 S 
ATOM     60  O   UNL A   1      43.200  37.537  33.421  1.00  0.00    -0.237 OA
ATOM     61  O   UNL A   1      45.629  37.216  33.764  1.00  0.00    -0.237 OA
ATOM     62  O   UNL A   1      44.795  38.087  31.617  1.00  0.00    -0.744 OA
ENDBRANCH  58  59
ENDBRANCH  26  51
BRANCH  38  63
ATOM     63  C   UNL A   1      48.348  27.720  29.860  1.00  0.00     0.058 A 
ATOM     64  C   UNL A   1      48.944  27.207  31.023  1.00  0.00     0.135 A 
ATOM     65  C   UNL A   1      49.186  28.073  28.791  1.00  0.00     0.135 A 
ATOM     66  F   UNL A   1      48.185  26.862  32.075  1.00  0.00    -0.206 F 
ATOM     67  C   UNL A   1      50.325  27.079  31.133  1.00  0.00     0.059 A 
ATOM     68  C   UNL A   1      50.568  27.931  28.872  1.00  0.00     0.059 A 
ATOM     69  F   UNL A   1      48.665  28.559  27.654  1.00  0.00    -0.206 F 
ATOM     70  C   UNL A   1      51.129  27.448  30.054  1.00  0.00     0.060 A 
BRANCH  70  71
ATOM     71  S   UNL A   1      52.919  27.268  30.199  1.00  0.00     0.124 S 
ATOM     72  O   UNL A   1      53.036  26.484  31.425  1.00  0.00    -0.237 OA
ATOM     73  O   UNL A   1      53.269  26.570  28.965  1.00  0.00    -0.237 OA
ATOM     74  O   UNL A   1      53.391  28.647  30.287  1.00  0.00    -0.744 OA
ENDBRANCH  70  71
ENDBRANCH  38  63
ENDBRANCH  12  13
ENDBRANCH   5   7
ENDBRANCH   2   3
ENDBRANCH   1   2
BRANCH   1  75
ATOM     75  C   UNL A   1      33.016  29.362  24.936  1.00  0.00     0.023 C 
BRANCH  75  76
ATOM     76  C   UNL A   1      31.512  29.255  24.691  1.00  0.00     0.116 C 
BRANCH  76  77
ATOM     77  N   UNL A   1      31.202  28.669  23.398  1.00  0.00    -0.352 N 
ATOM     78  C   UNL A   1      31.027  27.355  23.050  1.00  0.00     0.255 C 
ATOM     79  H   UNL A   1      31.104  29.313  22.660  1.00  0.00     0.163 HD
ATOM     80  O   UNL A   1      30.991  27.041  21.862  1.00  0.00    -0.269 OA
BRANCH  78  81
ATOM     81  C   UNL A   1      30.881  26.310  24.082  1.00  0.00     0.082 A 
ATOM     82  C   UNL A   1      29.779  26.336  24.946  1.00  0.00     0.021 A 
ATOM     83  C   UNL A   1      31.775  25.228  24.126  1.00  0.00     0.140 A 
ATOM     84  C   UNL A   1      29.640  25.336  25.897  1.00  0.00     0.042 A 
ATOM     85  N   UNL A   1      31.631  24.254  25.055  1.00  0.00    -0.219 NA
ATOM     86  C   UNL A   1      30.593  24.336  25.910  1.00  0.00     0.131 A 
ATOM     87  Cl  UNL A   1      30.515  23.065  27.059  1.00  0.00    -0.062 Cl
BRANCH  83  88
ATOM     88  N   UNL A   1      32.863  25.165  23.271  1.00  0.00    -0.367 N 
ATOM     89  H   UNL A   1      32.714  24.979  22.315  1.00  0.00     0.162 HD
BRANCH  88  90
ATOM     90  C   UNL A   1      34.219  25.367  23.750  1.00  0.00     0.152 C 
BRANCH  90  91
ATOM     91  C   UNL A   1      35.118  24.097  23.781  1.00  0.00     0.192 C 
ATOM     92  C   UNL A   1      34.503  22.732  23.342  1.00  0.00     0.296 C 
ATOM     93  O   UNL A   1      35.807  24.024  25.050  1.00  0.00    -0.364 OA
ATOM     94  N   UNL A   1      34.324  21.666  24.327  1.00  0.00    -0.328 N 
ATOM     95  C   UNL A   1      34.977  23.413  26.040  1.00  0.00     0.225 C 
ATOM     96  C   UNL A   1      33.006  21.049  24.351  1.00  0.00     0.262 C 
ATOM     97  C   UNL A   1      34.765  21.941  25.697  1.00  0.00     0.210 C 
ATOM     98  H   UNL A   1      34.986  20.989  23.945  1.00  0.00     0.348 HD
ATOM     99  C   UNL A   1      33.025  20.292  25.667  1.00  0.00     0.068 C 
ATOM    100  C   UNL A   1      33.728  21.267  26.596  1.00  0.00     0.073 C 
ENDBRANCH  90  91
ENDBRANCH  88  90
ENDBRANCH  83  88
ENDBRANCH  78  81
ENDBRANCH  76  77
ENDBRANCH  75  76
ENDBRANCH   1  75
TORSDOF 17
ENDMDL
MODEL 3
REMARK VINA RESULT:     -11.2      2.581      8.709
REMARK SMILES O=C(NCCCCNC(=O)c1ccc(Cl)nc1NC[C@@H]1C[N@@H+]2CCC[C@@H]2CO1)c1ccc(-c2c3nc(c(-c4c(F)cc(S(=O)(=O)[O-])cc4F)c4ccc([nH]4)c(-c4c(F)cc(S(=O)(=O)[O-])cc4F)c4nc(c(-c5c(F)cc(S(=O)(=O)[O-])cc5F)c5ccc2[nH]5)C=C4)C=C3)cc1
REMARK SMILES IDX 5 1 4 2 3 3 1 4 2 5 29 7 30 8 94 9 31 10 93 11 32 12 33 13
REMARK SMILES IDX 34 14 87 15 35 16 92 17 86 18 88 19 36 20 91 21 85 22 84 23
REMARK SMILES IDX 37 25 71 26 50 27 70 28 51 29 54 30 69 31 89 32 52 33 53 34
REMARK SMILES IDX 68 36 90 37 55 38 38 39 39 40 48 41 40 42 41 43 47 44 49 45
REMARK SMILES IDX 42 46 43 47 44 48 45 49 46 50 72 51 73 52 82 53 74 54 75 55
REMARK SMILES IDX 81 56 83 57 76 58 77 59 78 60 79 61 80 62 56 63 57 64 66 65
REMARK SMILES IDX 58 66 59 67 65 68 67 69 60 70 61 71 62 72 63 73 64 74 6 75
REMARK SMILES IDX 7 76 8 77 9 78 10 80 11 81 12 82 17 83 13 84 16 85 14 86
REMARK SMILES IDX 15 87 18 88 19 90 20 91 21 92 28 93 22 94 27 95 23 96 26 97
REMARK SMILES IDX 24 99 25 100
REMARK H PARENT 3 6 88 24 54 35 8 79 18 89 22 98
REMARK Flexibility Score: inf
ROOT
ATOM      1  C   UNL A   1      34.506  28.794  27.049  1.00  0.00     0.023 C 
ENDROOT
BRANCH   1   2
ATOM      2  C   UNL A   1      35.502  29.767  27.668  1.00  0.00     0.116 C 
BRANCH   2   3
ATOM      3  N   UNL A   1      35.375  29.880  29.113  1.00  0.00    -0.352 N 
ATOM      4  O   UNL A   1      36.029  29.826  31.270  1.00  0.00    -0.269 OA
ATOM      5  C   UNL A   1      36.349  29.808  30.084  1.00  0.00     0.251 C 
ATOM      6  H   UNL A   1      34.461  30.030  29.445  1.00  0.00     0.163 HD
BRANCH   5   7
ATOM      7  C   UNL A   1      37.771  29.667  29.698  1.00  0.00     0.039 A 
ATOM      8  C   UNL A   1      38.208  30.039  28.426  1.00  0.00     0.014 A 
ATOM      9  C   UNL A   1      38.674  29.125  30.617  1.00  0.00     0.014 A 
ATOM     10  C   UNL A   1      39.495  29.705  28.015  1.00  0.00     0.010 A 
ATOM     11  C   UNL A   1      39.994  28.871  30.229  1.00  0.00     0.010 A 
ATOM     12  C   UNL A   1      40.402  29.109  28.908  1.00  0.00    -0.014 A 
BRANCH  12  13
ATOM     13  C   UNL A   1      41.763  28.751  28.428  1.00  0.00     0.031 A 
ATOM     14  C   UNL A   1      42.884  29.759  28.447  1.00  0.00     0.074 A 
ATOM     15  C   UNL A   1      42.003  27.487  28.026  1.00  0.00     0.049 A 
ATOM     16  N   UNL A   1      44.143  29.596  28.126  1.00  0.00    -0.248 NA
ATOM     17  C   UNL A   1      42.550  31.128  28.870  1.00  0.00     0.031 C 
ATOM     18  C   UNL A   1      40.997  26.424  27.946  1.00  0.00     0.029 A 
ATOM     19  N   UNL A   1      43.166  26.873  27.638  1.00  0.00    -0.354 N 
ATOM     20  C   UNL A   1      44.743  30.840  28.280  1.00  0.00     0.074 A 
ATOM     21  C   UNL A   1      43.706  31.756  28.705  1.00  0.00     0.031 C 
ATOM     22  C   UNL A   1      41.596  25.278  27.592  1.00  0.00     0.029 A 
ATOM     23  C   UNL A   1      43.016  25.532  27.371  1.00  0.00     0.049 A 
ATOM     24  H   UNL A   1      44.025  27.346  27.556  1.00  0.00     0.167 HD
ATOM     25  C   UNL A   1      46.041  31.187  28.093  1.00  0.00     0.037 A 
ATOM     26  C   UNL A   1      43.918  24.608  26.994  1.00  0.00     0.037 A 
ATOM     27  C   UNL A   1      47.078  30.266  27.704  1.00  0.00     0.049 A 
ATOM     28  C   UNL A   1      45.354  25.012  26.820  1.00  0.00     0.074 A 
ATOM     29  C   UNL A   1      48.430  30.515  27.528  1.00  0.00     0.029 A 
ATOM     30  N   UNL A   1      46.884  28.919  27.435  1.00  0.00    -0.354 N 
ATOM     31  N   UNL A   1      45.905  26.189  26.998  1.00  0.00    -0.248 NA
ATOM     32  C   UNL A   1      46.290  23.962  26.396  1.00  0.00     0.031 C 
ATOM     33  C   UNL A   1      49.047  29.325  27.124  1.00  0.00     0.029 A 
ATOM     34  C   UNL A   1      48.086  28.327  27.084  1.00  0.00     0.049 A 
ATOM     35  H   UNL A   1      46.019  28.453  27.486  1.00  0.00     0.167 HD
ATOM     36  C   UNL A   1      47.257  26.018  26.725  1.00  0.00     0.074 A 
ATOM     37  C   UNL A   1      47.441  24.621  26.385  1.00  0.00     0.031 C 
ATOM     38  C   UNL A   1      48.255  26.935  26.753  1.00  0.00     0.037 A 
BRANCH  25  39
ATOM     39  C   UNL A   1      46.413  32.632  28.291  1.00  0.00     0.058 A 
ATOM     40  C   UNL A   1      46.342  33.564  27.245  1.00  0.00     0.135 A 
ATOM     41  C   UNL A   1      46.809  33.096  29.556  1.00  0.00     0.135 A 
ATOM     42  F   UNL A   1      45.983  33.172  26.012  1.00  0.00    -0.206 F 
ATOM     43  C   UNL A   1      46.679  34.901  27.438  1.00  0.00     0.059 A 
ATOM     44  C   UNL A   1      47.129  34.432  29.777  1.00  0.00     0.059 A 
ATOM     45  F   UNL A   1      46.891  32.246  30.592  1.00  0.00    -0.206 F 
ATOM     46  C   UNL A   1      47.076  35.324  28.707  1.00  0.00     0.060 A 
BRANCH  46  47
ATOM     47  S   UNL A   1      47.516  37.060  28.945  1.00  0.00     0.124 S 
ATOM     48  O   UNL A   1      48.725  37.165  28.136  1.00  0.00    -0.237 OA
ATOM     49  O   UNL A   1      46.344  37.756  28.425  1.00  0.00    -0.237 OA
ATOM     50  O   UNL A   1      47.715  37.165  30.387  1.00  0.00    -0.744 OA
ENDBRANCH  46  47
ENDBRANCH  25  39
BRANCH  26  51
ATOM     51  C   UNL A   1      43.485  23.203  26.778  1.00  0.00     0.058 A 
ATOM     52  C   UNL A   1      43.472  22.644  25.493  1.00  0.00     0.135 A 
ATOM     53  C   UNL A   1      43.109  22.387  27.855  1.00  0.00     0.135 A 
ATOM     54  F   UNL A   1      43.821  23.389  24.433  1.00  0.00    -0.206 F 
ATOM     55  C   UNL A   1      43.093  21.323  25.279  1.00  0.00     0.059 A 
ATOM     56  C   UNL A   1      42.750  21.056  27.670  1.00  0.00     0.059 A 
ATOM     57  F   UNL A   1      43.125  22.873  29.106  1.00  0.00    -0.206 F 
ATOM     58  C   UNL A   1      42.737  20.536  26.376  1.00  0.00     0.060 A 
BRANCH  58  59
ATOM     59  S   UNL A   1      42.307  18.803  26.102  1.00  0.00     0.124 S 
ATOM     60  O   UNL A   1      43.200  18.451  25.005  1.00  0.00    -0.237 OA
ATOM     61  O   UNL A   1      42.613  18.199  27.395  1.00  0.00    -0.237 OA
ATOM     62  O   UNL A   1      40.887  18.862  25.768  1.00  0.00    -0.744 OA
ENDBRANCH  58  59
ENDBRANCH  26  51
BRANCH  38  63
ATOM     63  C   UNL A   1      49.639  26.446  26.438  1.00  0.00     0.058 A 
ATOM     64  C   UNL A   1      50.484  25.936  27.435  1.00  0.00     0.135 A 
ATOM     65  C   UNL A   1      50.117  26.473  25.118  1.00  0.00     0.135 A 
ATOM     66  F   UNL A   1      50.074  25.896  28.712  1.00  0.00    -0.206 F 
ATOM     67  C   UNL A   1      51.770  25.495  27.139  1.00  0.00     0.059 A 
ATOM     68  C   UNL A   1      51.392  26.016  24.797  1.00  0.00     0.059 A 
ATOM     69  F   UNL A   1      49.345  26.943  24.127  1.00  0.00    -0.206 F 
ATOM     70  C   UNL A   1      52.217  25.544  25.818  1.00  0.00     0.060 A 
BRANCH  70  71
ATOM     71  S   UNL A   1      53.883  24.961  25.440  1.00  0.00     0.124 S 
ATOM     72  O   UNL A   1      54.234  25.800  24.298  1.00  0.00    -0.237 OA
ATOM     73  O   UNL A   1      54.605  25.240  26.677  1.00  0.00    -0.237 OA
ATOM     74  O   UNL A   1      53.686  23.545  25.142  1.00  0.00    -0.744 OA
ENDBRANCH  70  71
ENDBRANCH  38  63
ENDBRANCH  12  13
ENDBRANCH   5   7
ENDBRANCH   2   3
ENDBRANCH   1   2
BRANCH   1  75
ATOM     75  C   UNL A   1      33.687  29.336  25.878  1.00  0.00     0.023 C 
BRANCH  75  76
ATOM     76  C   UNL A   1      32.170  29.275  26.051  1.00  0.00     0.116 C 
BRANCH  76  77
ATOM     77  N   UNL A   1      31.737  28.051  26.703  1.00  0.00    -0.352 N 
ATOM     78  C   UNL A   1      31.387  26.843  26.157  1.00  0.00     0.255 C 
ATOM     79  H   UNL A   1      31.688  28.095  27.685  1.00  0.00     0.163 HD
ATOM     80  O   UNL A   1      30.835  25.998  26.857  1.00  0.00    -0.269 OA
BRANCH  78  81
ATOM     81  C   UNL A   1      31.664  26.543  24.739  1.00  0.00     0.082 A 
ATOM     82  C   UNL A   1      30.775  26.982  23.749  1.00  0.00     0.021 A 
ATOM     83  C   UNL A   1      32.867  25.921  24.368  1.00  0.00     0.140 A 
ATOM     84  C   UNL A   1      31.057  26.712  22.418  1.00  0.00     0.042 A 
ATOM     85  N   UNL A   1      33.136  25.664  23.067  1.00  0.00    -0.219 NA
ATOM     86  C   UNL A   1      32.236  26.048  22.141  1.00  0.00     0.131 A 
ATOM     87  Cl  UNL A   1      32.663  25.656  20.527  1.00  0.00    -0.062 Cl
BRANCH  83  88
ATOM     88  N   UNL A   1      33.774  25.492  25.324  1.00  0.00    -0.367 N 
ATOM     89  H   UNL A   1      33.977  26.076  26.091  1.00  0.00     0.162 HD
BRANCH  88  90
ATOM     90  C   UNL A   1      34.433  24.202  25.223  1.00  0.00     0.152 C 
BRANCH  90  91
ATOM     91  C   UNL A   1      33.928  23.110  26.209  1.00  0.00     0.192 C 
ATOM     92  C   UNL A   1      34.712  21.763  26.302  1.00  0.00     0.296 C 
ATOM     93  O   UNL A   1      32.505  22.924  26.037  1.00  0.00    -0.364 OA
ATOM     94  N   UNL A   1      34.082  20.524  25.847  1.00  0.00    -0.328 N 
ATOM     95  C   UNL A   1      32.241  22.020  24.963  1.00  0.00     0.225 C 
ATOM     96  C   UNL A   1      34.883  19.708  24.946  1.00  0.00     0.262 C 
ATOM     97  C   UNL A   1      32.711  20.618  25.341  1.00  0.00     0.210 C 
ATOM     98  H   UNL A   1      34.022  20.042  26.745  1.00  0.00     0.348 HD
ATOM     99  C   UNL A   1      33.856  18.742  24.384  1.00  0.00     0.068 C 
ATOM    100  C   UNL A   1      32.646  19.636  24.170  1.00  0.00     0.073 C 
ENDBRANCH  90  91
ENDBRANCH  88  90
ENDBRANCH  83  88
ENDBRANCH  78  81
ENDBRANCH  76  77
ENDBRANCH  75  76
ENDBRANCH   1  75
TORSDOF 17
ENDMDL
