MODEL 1
REMARK VINA RESULT:     -10.8      0.000      0.000
REMARK SMILES O=C(NCCCCNC(=O)c1ccc(C[NH2+][C@@H]2CCCC[C@H]2O)nc1)c1ccc(-c2c3nc(c(-c4c(F)cc(S(=O)(=O)[O-])cc4F)c4ccc([nH]4)c(-c4c(F)cc(S(=O)(=O)[O-])cc4F)c4nc(c(-c5c(F)cc(S(=O)(=O)[O-])cc5F)c5ccc2[nH]5)C=C4)C=C3)cc1
REMARK SMILES IDX 6 1 5 2 4 3 3 4 1 5 2 6 26 8 27 9 91 10 28 11 90 12 29 13
REMARK SMILES IDX 30 14 31 15 84 16 32 17 89 18 83 19 85 20 33 21 88 22 82 23
REMARK SMILES IDX 81 24 34 26 68 27 47 28 67 29 48 30 51 31 66 32 86 33 49 34
REMARK SMILES IDX 50 35 65 37 87 38 52 39 35 40 36 41 45 42 37 43 38 44 44 45
REMARK SMILES IDX 46 46 39 47 40 48 41 49 42 50 43 51 69 52 70 53 79 54 71 55
REMARK SMILES IDX 72 56 78 57 80 58 73 59 74 60 75 61 76 62 77 63 53 64 54 65
REMARK SMILES IDX 63 66 55 67 56 68 62 69 64 70 57 71 58 72 59 73 60 74 61 75
REMARK SMILES IDX 7 76 8 77 9 78 10 80 11 81 12 82 25 83 13 84 24 85 14 86
REMARK SMILES IDX 15 87 16 88 17 91 18 92 22 93 19 94 21 95 20 96 23 97
REMARK H PARENT 3 7 85 25 51 36 8 79 16 89 16 90 23 98
REMARK Flexibility Score: inf
ROOT
ATOM      1  C   UNL A   1      33.246  29.086  24.603  1.00  0.00     0.023 C 
ENDROOT
BRANCH   1   2
ATOM      2  C   UNL A   1      33.631  27.841  25.396  1.00  0.00     0.023 C 
BRANCH   2   3
ATOM      3  C   UNL A   1      33.813  28.057  26.893  1.00  0.00     0.116 C 
BRANCH   3   4
ATOM      4  N   UNL A   1      33.571  29.431  27.302  1.00  0.00    -0.352 N 
ATOM      5  O   UNL A   1      34.000  31.388  28.341  1.00  0.00    -0.269 OA
ATOM      6  C   UNL A   1      34.418  30.304  27.947  1.00  0.00     0.251 C 
ATOM      7  H   UNL A   1      32.677  29.786  27.089  1.00  0.00     0.163 HD
BRANCH   6   8
ATOM      8  C   UNL A   1      35.825  29.911  28.185  1.00  0.00     0.039 A 
ATOM      9  C   UNL A   1      36.228  29.446  29.438  1.00  0.00     0.014 A 
ATOM     10  C   UNL A   1      36.754  30.036  27.149  1.00  0.00     0.014 A 
ATOM     11  C   UNL A   1      37.580  29.256  29.700  1.00  0.00     0.010 A 
ATOM     12  C   UNL A   1      38.102  29.757  27.390  1.00  0.00     0.010 A 
ATOM     13  C   UNL A   1      38.532  29.397  28.677  1.00  0.00    -0.014 A 
BRANCH  13  14
ATOM     14  C   UNL A   1      39.960  29.106  28.966  1.00  0.00     0.031 A 
ATOM     15  C   UNL A   1      40.571  27.774  28.624  1.00  0.00     0.074 A 
ATOM     16  C   UNL A   1      40.713  30.074  29.524  1.00  0.00     0.049 A 
ATOM     17  N   UNL A   1      41.799  27.362  28.811  1.00  0.00    -0.248 NA
ATOM     18  C   UNL A   1      39.693  26.773  27.998  1.00  0.00     0.031 C 
ATOM     19  C   UNL A   1      40.225  31.401  29.908  1.00  0.00     0.029 A 
ATOM     20  N   UNL A   1      42.043  30.102  29.854  1.00  0.00    -0.354 N 
ATOM     21  C   UNL A   1      41.839  26.052  28.347  1.00  0.00     0.074 A 
ATOM     22  C   UNL A   1      40.504  25.729  27.889  1.00  0.00     0.031 C 
ATOM     23  C   UNL A   1      41.248  32.127  30.383  1.00  0.00     0.029 A 
ATOM     24  C   UNL A   1      42.447  31.298  30.398  1.00  0.00     0.049 A 
ATOM     25  H   UNL A   1      42.649  29.340  29.716  1.00  0.00     0.167 HD
ATOM     26  C   UNL A   1      42.895  25.202  28.301  1.00  0.00     0.037 A 
ATOM     27  C   UNL A   1      43.644  31.683  30.877  1.00  0.00     0.037 A 
ATOM     28  C   UNL A   1      44.224  25.540  28.747  1.00  0.00     0.049 A 
ATOM     29  C   UNL A   1      44.791  30.715  30.834  1.00  0.00     0.074 A 
ATOM     30  C   UNL A   1      45.367  24.760  28.712  1.00  0.00     0.029 A 
ATOM     31  N   UNL A   1      44.588  26.753  29.312  1.00  0.00    -0.354 N 
ATOM     32  N   UNL A   1      44.815  29.490  30.368  1.00  0.00    -0.248 NA
ATOM     33  C   UNL A   1      46.070  31.180  31.383  1.00  0.00     0.031 C 
ATOM     34  C   UNL A   1      46.412  25.485  29.294  1.00  0.00     0.029 A 
ATOM     35  C   UNL A   1      45.933  26.736  29.649  1.00  0.00     0.049 A 
ATOM     36  H   UNL A   1      43.982  27.515  29.452  1.00  0.00     0.167 HD
ATOM     37  C   UNL A   1      46.116  29.040  30.554  1.00  0.00     0.074 A 
ATOM     38  C   UNL A   1      46.852  30.132  31.159  1.00  0.00     0.031 C 
ATOM     39  C   UNL A   1      46.651  27.832  30.252  1.00  0.00     0.037 A 
BRANCH  26  40
ATOM     40  C   UNL A   1      42.656  23.814  27.769  1.00  0.00     0.058 A 
ATOM     41  C   UNL A   1      42.432  22.721  28.621  1.00  0.00     0.135 A 
ATOM     42  C   UNL A   1      42.605  23.582  26.384  1.00  0.00     0.135 A 
ATOM     43  F   UNL A   1      42.482  22.882  29.953  1.00  0.00    -0.206 F 
ATOM     44  C   UNL A   1      42.193  21.444  28.121  1.00  0.00     0.059 A 
ATOM     45  C   UNL A   1      42.343  22.319  25.861  1.00  0.00     0.059 A 
ATOM     46  F   UNL A   1      42.809  24.591  25.522  1.00  0.00    -0.206 F 
ATOM     47  C   UNL A   1      42.152  21.252  26.738  1.00  0.00     0.060 A 
BRANCH  47  48
ATOM     48  S   UNL A   1      41.845  19.590  26.105  1.00  0.00     0.124 S 
ATOM     49  O   UNL A   1      42.700  19.567  24.922  1.00  0.00    -0.237 OA
ATOM     50  O   UNL A   1      42.276  18.746  27.215  1.00  0.00    -0.237 OA
ATOM     51  O   UNL A   1      40.409  19.586  25.842  1.00  0.00    -0.744 OA
ENDBRANCH  47  48
ENDBRANCH  26  40
BRANCH  27  52
ATOM     52  C   UNL A   1      43.803  33.047  31.444  1.00  0.00     0.058 A 
ATOM     53  C   UNL A   1      44.192  34.125  30.637  1.00  0.00     0.135 A 
ATOM     54  C   UNL A   1      43.527  33.306  32.797  1.00  0.00     0.135 A 
ATOM     55  F   UNL A   1      44.469  33.926  29.340  1.00  0.00    -0.206 F 
ATOM     56  C   UNL A   1      44.310  35.412  31.151  1.00  0.00     0.059 A 
ATOM     57  C   UNL A   1      43.612  34.587  33.328  1.00  0.00     0.059 A 
ATOM     58  F   UNL A   1      43.132  32.309  33.604  1.00  0.00    -0.206 F 
ATOM     59  C   UNL A   1      44.013  35.633  32.498  1.00  0.00     0.060 A 
BRANCH  59  60
ATOM     60  S   UNL A   1      44.108  37.317  33.142  1.00  0.00     0.124 S 
ATOM     61  O   UNL A   1      44.029  38.104  31.917  1.00  0.00    -0.237 OA
ATOM     62  O   UNL A   1      42.942  37.379  34.019  1.00  0.00    -0.237 OA
ATOM     63  O   UNL A   1      45.398  37.341  33.827  1.00  0.00    -0.744 OA
ENDBRANCH  59  60
ENDBRANCH  27  52
BRANCH  39  64
ATOM     64  C   UNL A   1      48.111  27.636  30.550  1.00  0.00     0.058 A 
ATOM     65  C   UNL A   1      48.549  27.107  31.774  1.00  0.00     0.135 A 
ATOM     66  C   UNL A   1      49.081  27.947  29.584  1.00  0.00     0.135 A 
ATOM     67  F   UNL A   1      47.661  26.801  32.734  1.00  0.00    -0.206 F 
ATOM     68  C   UNL A   1      49.901  26.914  32.040  1.00  0.00     0.059 A 
ATOM     69  C   UNL A   1      50.437  27.739  29.819  1.00  0.00     0.059 A 
ATOM     70  F   UNL A   1      48.714  28.449  28.395  1.00  0.00    -0.206 F 
ATOM     71  C   UNL A   1      50.838  27.234  31.054  1.00  0.00     0.060 A 
BRANCH  71  72
ATOM     72  S   UNL A   1      52.587  26.954  31.400  1.00  0.00     0.124 S 
ATOM     73  O   UNL A   1      53.212  27.466  30.184  1.00  0.00    -0.237 OA
ATOM     74  O   UNL A   1      52.800  27.748  32.606  1.00  0.00    -0.237 OA
ATOM     75  O   UNL A   1      52.668  25.508  31.587  1.00  0.00    -0.744 OA
ENDBRANCH  71  72
ENDBRANCH  39  64
ENDBRANCH  13  14
ENDBRANCH   6   8
ENDBRANCH   3   4
ENDBRANCH   2   3
ENDBRANCH   1   2
BRANCH   1  76
ATOM     76  C   UNL A   1      33.258  28.921  23.085  1.00  0.00     0.116 C 
BRANCH  76  77
ATOM     77  N   UNL A   1      32.020  29.361  22.457  1.00  0.00    -0.352 N 
ATOM     78  C   UNL A   1      30.842  28.671  22.287  1.00  0.00     0.252 C 
ATOM     79  H   UNL A   1      32.027  30.282  22.107  1.00  0.00     0.163 HD
ATOM     80  O   UNL A   1      29.926  29.128  21.624  1.00  0.00    -0.269 OA
BRANCH  78  81
ATOM     81  C   UNL A   1      30.706  27.347  22.903  1.00  0.00     0.058 A 
ATOM     82  C   UNL A   1      30.003  27.166  24.092  1.00  0.00     0.017 A 
ATOM     83  C   UNL A   1      31.344  26.262  22.327  1.00  0.00     0.125 A 
ATOM     84  C   UNL A   1      30.061  25.928  24.716  1.00  0.00     0.030 A 
ATOM     85  N   UNL A   1      31.421  25.046  22.920  1.00  0.00    -0.255 NA
ATOM     86  C   UNL A   1      30.812  24.906  24.126  1.00  0.00     0.094 A 
BRANCH  86  87
ATOM     87  C   UNL A   1      31.077  23.640  24.921  1.00  0.00     0.318 C 
BRANCH  87  88
ATOM     88  N   UNL A   1      32.110  23.763  25.940  1.00  0.00    -0.337 N 
ATOM     89  H   UNL A   1      31.677  23.565  26.842  1.00  0.00     0.346 HD
ATOM     90  H   UNL A   1      32.473  24.711  25.836  1.00  0.00     0.346 HD
BRANCH  88  91
ATOM     91  C   UNL A   1      33.284  22.885  25.808  1.00  0.00     0.211 C 
ATOM     92  C   UNL A   1      34.600  23.651  26.042  1.00  0.00     0.068 C 
ATOM     93  C   UNL A   1      33.405  21.994  24.535  1.00  0.00     0.172 C 
ATOM     94  C   UNL A   1      35.054  24.453  24.829  1.00  0.00     0.006 C 
ATOM     95  C   UNL A   1      33.953  22.717  23.297  1.00  0.00     0.038 C 
ATOM     96  C   UNL A   1      35.186  23.575  23.586  1.00  0.00     0.003 C 
BRANCH  93  97
ATOM     97  O   UNL A   1      34.298  20.903  24.808  1.00  0.00    -0.387 OA
ATOM     98  H   UNL A   1      34.530  20.459  23.977  1.00  0.00     0.211 HD
ENDBRANCH  93  97
ENDBRANCH  88  91
ENDBRANCH  87  88
ENDBRANCH  86  87
ENDBRANCH  78  81
ENDBRANCH  76  77
ENDBRANCH   1  76
TORSDOF 18
ENDMDL
MODEL 2
REMARK VINA RESULT:     -10.8      0.437      8.282
REMARK SMILES O=C(NCCCCNC(=O)c1ccc(C[NH2+][C@@H]2CCCC[C@H]2O)nc1)c1ccc(-c2c3nc(c(-c4c(F)cc(S(=O)(=O)[O-])cc4F)c4ccc([nH]4)c(-c4c(F)cc(S(=O)(=O)[O-])cc4F)c4nc(c(-c5c(F)cc(S(=O)(=O)[O-])cc5F)c5ccc2[nH]5)C=C4)C=C3)cc1
REMARK SMILES IDX 6 1 5 2 4 3 3 4 1 5 2 6 26 8 27 9 91 10 28 11 90 12 29 13
REMARK SMILES IDX 30 14 31 15 84 16 32 17 89 18 83 19 85 20 33 21 88 22 82 23
REMARK SMILES IDX 81 24 34 26 68 27 47 28 67 29 48 30 51 31 66 32 86 33 49 34
REMARK SMILES IDX 50 35 65 37 87 38 52 39 35 40 36 41 45 42 37 43 38 44 44 45
REMARK SMILES IDX 46 46 39 47 40 48 41 49 42 50 43 51 69 52 70 53 79 54 71 55
REMARK SMILES IDX 72 56 78 57 80 58 73 59 74 60 75 61 76 62 77 63 53 64 54 65
REMARK SMILES IDX 63 66 55 67 56 68 62 69 64 70 57 71 58 72 59 73 60 74 61 75
REMARK SMILES IDX 7 76 8 77 9 78 10 80 11 81 12 82 25 83 13 84 24 85 14 86
REMARK SMILES IDX 15 87 16 88 17 91 18 92 22 93 19 94 21 95 20 96 23 97
REMARK H PARENT 3 7 85 25 51 36 8 79 16 89 16 90 23 98
REMARK Flexibility Score: inf
ROOT
ATOM      1  C   UNL A   1      33.376  29.108  24.440  1.00  0.00     0.023 C 
ENDROOT
BRANCH   1   2
ATOM      2  C   UNL A   1      33.606  27.859  25.287  1.00  0.00     0.023 C 
BRANCH   2   3
ATOM      3  C   UNL A   1      33.717  28.105  26.786  1.00  0.00     0.116 C 
BRANCH   3   4
ATOM      4  N   UNL A   1      33.498  29.495  27.152  1.00  0.00    -0.352 N 
ATOM      5  O   UNL A   1      33.952  31.470  28.144  1.00  0.00    -0.269 OA
ATOM      6  C   UNL A   1      34.353  30.367  27.787  1.00  0.00     0.251 C 
ATOM      7  H   UNL A   1      32.616  29.862  26.914  1.00  0.00     0.163 HD
BRANCH   6   8
ATOM      8  C   UNL A   1      35.746  29.952  28.060  1.00  0.00     0.039 A 
ATOM      9  C   UNL A   1      36.114  29.492  29.326  1.00  0.00     0.014 A 
ATOM     10  C   UNL A   1      36.700  30.051  27.043  1.00  0.00     0.014 A 
ATOM     11  C   UNL A   1      37.456  29.280  29.620  1.00  0.00     0.010 A 
ATOM     12  C   UNL A   1      38.038  29.750  27.318  1.00  0.00     0.010 A 
ATOM     13  C   UNL A   1      38.433  29.395  28.617  1.00  0.00    -0.014 A 
BRANCH  13  14
ATOM     14  C   UNL A   1      39.849  29.081  28.941  1.00  0.00     0.031 A 
ATOM     15  C   UNL A   1      40.737  30.090  29.618  1.00  0.00     0.074 A 
ATOM     16  C   UNL A   1      40.322  27.857  28.635  1.00  0.00     0.049 A 
ATOM     17  N   UNL A   1      41.993  29.974  29.968  1.00  0.00    -0.248 NA
ATOM     18  C   UNL A   1      40.145  31.398  29.939  1.00  0.00     0.031 C 
ATOM     19  C   UNL A   1      39.554  26.802  27.969  1.00  0.00     0.029 A 
ATOM     20  N   UNL A   1      41.549  27.286  28.854  1.00  0.00    -0.354 N 
ATOM     21  C   UNL A   1      42.349  31.194  30.530  1.00  0.00     0.074 A 
ATOM     22  C   UNL A   1      41.181  32.047  30.455  1.00  0.00     0.031 C 
ATOM     23  C   UNL A   1      40.313  25.701  27.869  1.00  0.00     0.029 A 
ATOM     24  C   UNL A   1      41.638  25.991  28.404  1.00  0.00     0.049 A 
ATOM     25  H   UNL A   1      42.294  27.759  29.289  1.00  0.00     0.167 HD
ATOM     26  C   UNL A   1      43.539  31.565  31.065  1.00  0.00     0.037 A 
ATOM     27  C   UNL A   1      42.676  25.134  28.400  1.00  0.00     0.037 A 
ATOM     28  C   UNL A   1      44.691  30.701  31.148  1.00  0.00     0.049 A 
ATOM     29  C   UNL A   1      43.987  25.576  28.980  1.00  0.00     0.074 A 
ATOM     30  C   UNL A   1      45.931  30.972  31.702  1.00  0.00     0.029 A 
ATOM     31  N   UNL A   1      44.749  29.404  30.662  1.00  0.00    -0.354 N 
ATOM     32  N   UNL A   1      44.297  26.725  29.530  1.00  0.00    -0.248 NA
ATOM     33  C   UNL A   1      45.090  24.609  28.937  1.00  0.00     0.031 C 
ATOM     34  C   UNL A   1      46.750  29.855  31.512  1.00  0.00     0.029 A 
ATOM     35  C   UNL A   1      46.008  28.868  30.884  1.00  0.00     0.049 A 
ATOM     36  H   UNL A   1      44.004  28.931  30.224  1.00  0.00     0.167 HD
ATOM     37  C   UNL A   1      45.628  26.616  29.913  1.00  0.00     0.074 A 
ATOM     38  C   UNL A   1      46.058  25.281  29.547  1.00  0.00     0.031 C 
ATOM     39  C   UNL A   1      46.421  27.537  30.511  1.00  0.00     0.037 A 
BRANCH  26  40
ATOM     40  C   UNL A   1      43.666  32.970  31.588  1.00  0.00     0.058 A 
ATOM     41  C   UNL A   1      43.378  33.294  32.924  1.00  0.00     0.135 A 
ATOM     42  C   UNL A   1      44.127  34.002  30.753  1.00  0.00     0.135 A 
ATOM     43  F   UNL A   1      42.921  32.351  33.763  1.00  0.00    -0.206 F 
ATOM     44  C   UNL A   1      43.516  34.592  33.405  1.00  0.00     0.059 A 
ATOM     45  C   UNL A   1      44.297  35.302  31.219  1.00  0.00     0.059 A 
ATOM     46  F   UNL A   1      44.421  33.750  29.467  1.00  0.00    -0.206 F 
ATOM     47  C   UNL A   1      43.975  35.592  32.544  1.00  0.00     0.060 A 
BRANCH  47  48
ATOM     48  S   UNL A   1      44.146  37.271  33.182  1.00  0.00     0.124 S 
ATOM     49  O   UNL A   1      44.042  38.059  31.958  1.00  0.00    -0.237 OA
ATOM     50  O   UNL A   1      43.016  37.375  34.100  1.00  0.00    -0.237 OA
ATOM     51  O   UNL A   1      45.463  37.264  33.813  1.00  0.00    -0.744 OA
ENDBRANCH  47  48
ENDBRANCH  26  40
BRANCH  27  52
ATOM     52  C   UNL A   1      42.505  23.778  27.817  1.00  0.00     0.058 A 
ATOM     53  C   UNL A   1      42.570  23.572  26.432  1.00  0.00     0.135 A 
ATOM     54  C   UNL A   1      42.315  22.655  28.639  1.00  0.00     0.135 A 
ATOM     55  F   UNL A   1      42.746  24.614  25.606  1.00  0.00    -0.206 F 
ATOM     56  C   UNL A   1      42.446  22.302  25.880  1.00  0.00     0.059 A 
ATOM     57  C   UNL A   1      42.215  21.373  28.113  1.00  0.00     0.059 A 
ATOM     58  F   UNL A   1      42.267  22.800  29.973  1.00  0.00    -0.206 F 
ATOM     59  C   UNL A   1      42.273  21.207  26.731  1.00  0.00     0.060 A 
BRANCH  59  60
ATOM     60  S   UNL A   1      42.175  19.555  26.010  1.00  0.00     0.124 S 
ATOM     61  O   UNL A   1      42.660  18.727  27.107  1.00  0.00    -0.237 OA
ATOM     62  O   UNL A   1      40.752  19.437  25.700  1.00  0.00    -0.237 OA
ATOM     63  O   UNL A   1      43.054  19.644  24.847  1.00  0.00    -0.744 OA
ENDBRANCH  59  60
ENDBRANCH  27  52
BRANCH  39  64
ATOM     64  C   UNL A   1      47.830  27.123  30.831  1.00  0.00     0.058 A 
ATOM     65  C   UNL A   1      48.873  27.284  29.906  1.00  0.00     0.135 A 
ATOM     66  C   UNL A   1      48.146  26.595  32.092  1.00  0.00     0.135 A 
ATOM     67  F   UNL A   1      48.620  27.777  28.682  1.00  0.00    -0.206 F 
ATOM     68  C   UNL A   1      50.178  26.912  30.211  1.00  0.00     0.059 A 
ATOM     69  C   UNL A   1      49.449  26.240  32.428  1.00  0.00     0.059 A 
ATOM     70  F   UNL A   1      47.187  26.428  33.016  1.00  0.00    -0.206 F 
ATOM     71  C   UNL A   1      50.456  26.391  31.476  1.00  0.00     0.060 A 
BRANCH  71  72
ATOM     72  S   UNL A   1      52.159  25.938  31.871  1.00  0.00     0.124 S 
ATOM     73  O   UNL A   1      52.392  26.709  33.089  1.00  0.00    -0.237 OA
ATOM     74  O   UNL A   1      52.066  24.491  32.043  1.00  0.00    -0.237 OA
ATOM     75  O   UNL A   1      52.907  26.377  30.696  1.00  0.00    -0.744 OA
ENDBRANCH  71  72
ENDBRANCH  39  64
ENDBRANCH  13  14
ENDBRANCH   6   8
ENDBRANCH   3   4
ENDBRANCH   2   3
ENDBRANCH   1   2
BRANCH   1  76
ATOM     76  C   UNL A   1      33.284  28.867  22.936  1.00  0.00     0.116 C 
BRANCH  76  77
ATOM     77  N   UNL A   1      32.030  29.335  22.363  1.00  0.00    -0.352 N 
ATOM     78  C   UNL A   1      30.818  28.688  22.283  1.00  0.00     0.252 C 
ATOM     79  H   UNL A   1      32.053  30.242  21.979  1.00  0.00     0.163 HD
ATOM     80  O   UNL A   1      29.885  29.159  21.656  1.00  0.00    -0.269 OA
BRANCH  78  81
ATOM     81  C   UNL A   1      30.667  27.392  22.954  1.00  0.00     0.058 A 
ATOM     82  C   UNL A   1      30.020  27.280  24.182  1.00  0.00     0.017 A 
ATOM     83  C   UNL A   1      31.235  26.265  22.386  1.00  0.00     0.125 A 
ATOM     84  C   UNL A   1      30.066  26.063  24.848  1.00  0.00     0.030 A 
ATOM     85  N   UNL A   1      31.298  25.068  23.020  1.00  0.00    -0.255 NA
ATOM     86  C   UNL A   1      30.748  24.993  24.258  1.00  0.00     0.094 A 
BRANCH  86  87
ATOM     87  C   UNL A   1      31.008  23.747  25.086  1.00  0.00     0.318 C 
BRANCH  87  88
ATOM     88  N   UNL A   1      31.961  23.921  26.172  1.00  0.00    -0.337 N 
ATOM     89  H   UNL A   1      31.481  23.691  27.042  1.00  0.00     0.346 HD
ATOM     90  H   UNL A   1      32.272  24.890  26.098  1.00  0.00     0.346 HD
BRANCH  88  91
ATOM     91  C   UNL A   1      33.192  23.117  26.116  1.00  0.00     0.211 C 
ATOM     92  C   UNL A   1      34.446  23.999  25.961  1.00  0.00     0.068 C 
ATOM     93  C   UNL A   1      33.253  21.924  25.115  1.00  0.00     0.172 C 
ATOM     94  C   UNL A   1      34.678  24.468  24.530  1.00  0.00     0.006 C 
ATOM     95  C   UNL A   1      33.583  22.317  23.669  1.00  0.00     0.038 C 
ATOM     96  C   UNL A   1      34.752  23.297  23.554  1.00  0.00     0.003 C 
BRANCH  93  97
ATOM     97  O   UNL A   1      34.273  21.005  25.539  1.00  0.00    -0.387 OA
ATOM     98  H   UNL A   1      35.145  21.406  25.403  1.00  0.00     0.211 HD
ENDBRANCH  93  97
ENDBRANCH  88  91
ENDBRANCH  87  88
ENDBRANCH  86  87
ENDBRANCH  78  81
ENDBRANCH  76  77
ENDBRANCH   1  76
TORSDOF 18
ENDMDL
MODEL 3
REMARK VINA RESULT:     -10.7      1.328      3.820
REMARK SMILES O=C(NCCCCNC(=O)c1ccc(C[NH2+][C@@H]2CCCC[C@H]2O)nc1)c1ccc(-c2c3nc(c(-c4c(F)cc(S(=O)(=O)[O-])cc4F)c4ccc([nH]4)c(-c4c(F)cc(S(=O)(=O)[O-])cc4F)c4nc(c(-c5c(F)cc(S(=O)(=O)[O-])cc5F)c5ccc2[nH]5)C=C4)C=C3)cc1
REMARK SMILES IDX 6 1 5 2 4 3 3 4 1 5 2 6 26 8 27 9 91 10 28 11 90 12 29 13
REMARK SMILES IDX 30 14 31 15 84 16 32 17 89 18 83 19 85 20 33 21 88 22 82 23
REMARK SMILES IDX 81 24 34 26 68 27 47 28 67 29 48 30 51 31 66 32 86 33 49 34
REMARK SMILES IDX 50 35 65 37 87 38 52 39 35 40 36 41 45 42 37 43 38 44 44 45
REMARK SMILES IDX 46 46 39 47 40 48 41 49 42 50 43 51 69 52 70 53 79 54 71 55
REMARK SMILES IDX 72 56 78 57 80 58 73 59 74 60 75 61 76 62 77 63 53 64 54 65
REMARK SMILES IDX 63 66 55 67 56 68 62 69 64 70 57 71 58 72 59 73 60 74 61 75
REMARK SMILES IDX 7 76 8 77 9 78 10 80 11 81 12 82 25 83 13 84 24 85 14 86
REMARK SMILES IDX 15 87 16 88 17 91 18 92 22 93 19 94 21 95 20 96 23 97
REMARK H PARENT 3 7 85 25 51 36 8 79 16 89 16 90 23 98
REMARK Flexibility Score: inf
ROOT
ATOM      1  C   UNL A   1      33.417  25.248  25.938  1.00  0.00     0.023 C 
ENDROOT
BRANCH   1   2
ATOM      2  C   UNL A   1      32.969  26.693  26.144  1.00  0.00     0.023 C 
BRANCH   2   3
ATOM      3  C   UNL A   1      34.082  27.674  26.485  1.00  0.00     0.116 C 
BRANCH   3   4
ATOM      4  N   UNL A   1      33.587  28.987  26.864  1.00  0.00    -0.352 N 
ATOM      5  O   UNL A   1      33.600  30.977  27.929  1.00  0.00    -0.269 OA
ATOM      6  C   UNL A   1      34.221  29.978  27.579  1.00  0.00     0.251 C 
ATOM      7  H   UNL A   1      32.670  29.197  26.570  1.00  0.00     0.163 HD
BRANCH   6   8
ATOM      8  C   UNL A   1      35.645  29.813  27.945  1.00  0.00     0.039 A 
ATOM      9  C   UNL A   1      36.650  30.057  27.007  1.00  0.00     0.014 A 
ATOM     10  C   UNL A   1      35.975  29.385  29.233  1.00  0.00     0.014 A 
ATOM     11  C   UNL A   1      37.967  29.724  27.305  1.00  0.00     0.010 A 
ATOM     12  C   UNL A   1      37.311  29.136  29.560  1.00  0.00     0.010 A 
ATOM     13  C   UNL A   1      38.315  29.272  28.588  1.00  0.00    -0.014 A 
BRANCH  13  14
ATOM     14  C   UNL A   1      39.743  29.003  28.903  1.00  0.00     0.031 A 
ATOM     15  C   UNL A   1      40.386  27.688  28.555  1.00  0.00     0.074 A 
ATOM     16  C   UNL A   1      40.465  29.977  29.490  1.00  0.00     0.049 A 
ATOM     17  N   UNL A   1      41.617  27.296  28.762  1.00  0.00    -0.248 NA
ATOM     18  C   UNL A   1      39.539  26.680  27.897  1.00  0.00     0.031 C 
ATOM     19  C   UNL A   1      39.945  31.289  29.882  1.00  0.00     0.029 A 
ATOM     20  N   UNL A   1      41.788  30.026  29.848  1.00  0.00    -0.354 N 
ATOM     21  C   UNL A   1      41.691  25.993  28.281  1.00  0.00     0.074 A 
ATOM     22  C   UNL A   1      40.372  25.653  27.790  1.00  0.00     0.031 C 
ATOM     23  C   UNL A   1      40.944  32.027  30.388  1.00  0.00     0.029 A 
ATOM     24  C   UNL A   1      42.158  31.220  30.416  1.00  0.00     0.049 A 
ATOM     25  H   UNL A   1      42.411  29.276  29.712  1.00  0.00     0.167 HD
ATOM     26  C   UNL A   1      42.763  25.164  28.245  1.00  0.00     0.037 A 
ATOM     27  C   UNL A   1      43.337  31.621  30.926  1.00  0.00     0.037 A 
ATOM     28  C   UNL A   1      44.076  25.520  28.723  1.00  0.00     0.049 A 
ATOM     29  C   UNL A   1      44.503  30.676  30.893  1.00  0.00     0.074 A 
ATOM     30  C   UNL A   1      45.235  24.762  28.701  1.00  0.00     0.029 A 
ATOM     31  N   UNL A   1      44.406  26.732  29.312  1.00  0.00    -0.354 N 
ATOM     32  N   UNL A   1      44.560  29.458  30.411  1.00  0.00    -0.248 NA
ATOM     33  C   UNL A   1      45.762  31.156  31.475  1.00  0.00     0.031 C 
ATOM     34  C   UNL A   1      46.253  25.499  29.315  1.00  0.00     0.029 A 
ATOM     35  C   UNL A   1      45.744  26.735  29.677  1.00  0.00     0.049 A 
ATOM     36  H   UNL A   1      43.783  27.481  29.450  1.00  0.00     0.167 HD
ATOM     37  C   UNL A   1      45.865  29.029  30.617  1.00  0.00     0.074 A 
ATOM     38  C   UNL A   1      46.567  30.126  31.252  1.00  0.00     0.031 C 
ATOM     39  C   UNL A   1      46.429  27.836  30.310  1.00  0.00     0.037 A 
BRANCH  26  40
ATOM     40  C   UNL A   1      42.562  23.780  27.689  1.00  0.00     0.058 A 
ATOM     41  C   UNL A   1      42.537  23.533  26.307  1.00  0.00     0.135 A 
ATOM     42  C   UNL A   1      42.437  22.677  28.550  1.00  0.00     0.135 A 
ATOM     43  F   UNL A   1      42.638  24.551  25.437  1.00  0.00    -0.206 F 
ATOM     44  C   UNL A   1      42.370  22.248  25.799  1.00  0.00     0.059 A 
ATOM     45  C   UNL A   1      42.295  21.380  28.065  1.00  0.00     0.059 A 
ATOM     46  F   UNL A   1      42.457  22.854  29.881  1.00  0.00    -0.206 F 
ATOM     47  C   UNL A   1      42.247  21.177  26.687  1.00  0.00     0.060 A 
BRANCH  47  48
ATOM     48  S   UNL A   1      42.027  19.516  26.014  1.00  0.00     0.124 S 
ATOM     49  O   UNL A   1      42.893  19.562  24.839  1.00  0.00    -0.237 OA
ATOM     50  O   UNL A   1      42.490  18.670  27.109  1.00  0.00    -0.237 OA
ATOM     51  O   UNL A   1      40.596  19.448  25.736  1.00  0.00    -0.744 OA
ENDBRANCH  47  48
ENDBRANCH  26  40
BRANCH  27  52
ATOM     52  C   UNL A   1      43.459  32.979  31.514  1.00  0.00     0.058 A 
ATOM     53  C   UNL A   1      43.115  33.223  32.851  1.00  0.00     0.135 A 
ATOM     54  C   UNL A   1      43.963  34.052  30.761  1.00  0.00     0.135 A 
ATOM     55  F   UNL A   1      42.625  32.230  33.609  1.00  0.00    -0.206 F 
ATOM     56  C   UNL A   1      43.258  34.484  33.420  1.00  0.00     0.059 A 
ATOM     57  C   UNL A   1      44.141  35.314  31.314  1.00  0.00     0.059 A 
ATOM     58  F   UNL A   1      44.326  33.863  29.482  1.00  0.00    -0.206 F 
ATOM     59  C   UNL A   1      43.777  35.523  32.644  1.00  0.00     0.060 A 
BRANCH  59  60
ATOM     60  S   UNL A   1      44.017  37.140  33.408  1.00  0.00     0.124 S 
ATOM     61  O   UNL A   1      43.768  38.035  32.284  1.00  0.00    -0.237 OA
ATOM     62  O   UNL A   1      43.005  37.138  34.461  1.00  0.00    -0.237 OA
ATOM     63  O   UNL A   1      45.398  37.086  33.879  1.00  0.00    -0.744 OA
ENDBRANCH  59  60
ENDBRANCH  27  52
BRANCH  39  64
ATOM     64  C   UNL A   1      47.886  27.663  30.635  1.00  0.00     0.058 A 
ATOM     65  C   UNL A   1      48.892  28.058  29.740  1.00  0.00     0.135 A 
ATOM     66  C   UNL A   1      48.279  27.131  31.873  1.00  0.00     0.135 A 
ATOM     67  F   UNL A   1      48.566  28.564  28.539  1.00  0.00    -0.206 F 
ATOM     68  C   UNL A   1      50.239  27.909  30.050  1.00  0.00     0.059 A 
ATOM     69  C   UNL A   1      49.622  26.997  32.215  1.00  0.00     0.059 A 
ATOM     70  F   UNL A   1      47.357  26.746  32.768  1.00  0.00    -0.206 F 
ATOM     71  C   UNL A   1      50.594  27.377  31.291  1.00  0.00     0.060 A 
BRANCH  71  72
ATOM     72  S   UNL A   1      52.346  27.215  31.695  1.00  0.00     0.124 S 
ATOM     73  O   UNL A   1      52.964  28.030  30.655  1.00  0.00    -0.237 OA
ATOM     74  O   UNL A   1      52.408  27.759  33.049  1.00  0.00    -0.237 OA
ATOM     75  O   UNL A   1      52.586  25.778  31.593  1.00  0.00    -0.744 OA
ENDBRANCH  71  72
ENDBRANCH  39  64
ENDBRANCH  13  14
ENDBRANCH   6   8
ENDBRANCH   3   4
ENDBRANCH   2   3
ENDBRANCH   1   2
BRANCH   1  76
ATOM     76  C   UNL A   1      34.672  25.072  25.087  1.00  0.00     0.116 C 
BRANCH  76  77
ATOM     77  N   UNL A   1      34.468  24.178  23.956  1.00  0.00    -0.352 N 
ATOM     78  C   UNL A   1      33.698  24.365  22.831  1.00  0.00     0.252 C 
ATOM     79  H   UNL A   1      34.949  23.320  24.002  1.00  0.00     0.163 HD
ATOM     80  O   UNL A   1      33.521  23.469  22.023  1.00  0.00    -0.269 OA
BRANCH  78  81
ATOM     81  C   UNL A   1      33.063  25.671  22.622  1.00  0.00     0.058 A 
ATOM     82  C   UNL A   1      33.818  26.823  22.420  1.00  0.00     0.017 A 
ATOM     83  C   UNL A   1      31.684  25.773  22.693  1.00  0.00     0.125 A 
ATOM     84  C   UNL A   1      33.168  28.050  22.408  1.00  0.00     0.030 A 
ATOM     85  N   UNL A   1      31.028  26.960  22.690  1.00  0.00    -0.255 NA
ATOM     86  C   UNL A   1      31.782  28.084  22.588  1.00  0.00     0.094 A 
BRANCH  86  87
ATOM     87  C   UNL A   1      31.107  29.424  22.819  1.00  0.00     0.318 C 
BRANCH  87  88
ATOM     88  N   UNL A   1      30.460  29.995  21.646  1.00  0.00    -0.337 N 
ATOM     89  H   UNL A   1      30.777  29.468  20.833  1.00  0.00     0.346 HD
ATOM     90  H   UNL A   1      30.726  30.980  21.649  1.00  0.00     0.346 HD
BRANCH  88  91
ATOM     91  C   UNL A   1      28.988  29.995  21.629  1.00  0.00     0.211 C 
ATOM     92  C   UNL A   1      28.424  31.225  20.892  1.00  0.00     0.068 C 
ATOM     93  C   UNL A   1      28.232  29.787  22.976  1.00  0.00     0.172 C 
ATOM     94  C   UNL A   1      28.422  32.488  21.744  1.00  0.00     0.006 C 
ATOM     95  C   UNL A   1      28.105  31.048  23.841  1.00  0.00     0.038 C 
ATOM     96  C   UNL A   1      27.667  32.286  23.056  1.00  0.00     0.003 C 
BRANCH  93  97
ATOM     97  O   UNL A   1      26.896  29.336  22.700  1.00  0.00    -0.387 OA
ATOM     98  H   UNL A   1      26.618  28.711  23.388  1.00  0.00     0.211 HD
ENDBRANCH  93  97
ENDBRANCH  88  91
ENDBRANCH  87  88
ENDBRANCH  86  87
ENDBRANCH  78  81
ENDBRANCH  76  77
ENDBRANCH   1  76
TORSDOF 18
ENDMDL
