MODEL 1
REMARK VINA RESULT:     -10.5      0.000      0.000
REMARK SMILES CC1(C)CC[C@@]2(C(=O)NCCCCNC(=O)c3ccc(-c4c5nc(c(-c6c(F)cc(S(=O)(=O)[O-])cc6F)c6ccc([nH]6)c(-c6c(F)cc(S(=O)(=O)[O-])cc6F)c6nc(c(-c7c(F)cc(S(=O)(=O)[O-])cc7F)c7ccc4[nH]7)C=C6)C=C5)cc3)CC[C@@]3(C)C(=CC[C@H]4[C@@]5(C)CC[C@H](O)C(C)(C)[C@@H]5CC[C@]43C)[C@@H]2C1
REMARK SMILES IDX 12 1 11 2 10 3 9 4 7 5 8 6 6 8 1 9 2 10 3 11 4 12 106 13
REMARK SMILES IDX 5 14 105 15 87 16 83 17 85 18 88 19 84 20 86 21 103 22 89 23
REMARK SMILES IDX 90 24 102 25 104 26 91 27 101 28 92 29 93 30 100 31 94 32
REMARK SMILES IDX 97 33 95 34 98 35 99 36 96 37 13 39 14 40 15 41 16 43 17 44
REMARK SMILES IDX 18 45 82 46 19 47 81 48 20 49 21 50 22 51 75 52 23 53 80 54
REMARK SMILES IDX 74 55 76 56 24 57 79 58 73 59 72 60 25 62 59 63 38 64 58 65
REMARK SMILES IDX 39 66 42 67 57 68 77 69 40 70 41 71 56 73 78 74 43 75 26 76
REMARK SMILES IDX 27 77 36 78 28 79 29 80 35 81 37 82 30 83 31 84 32 85 33 86
REMARK SMILES IDX 34 87 60 88 61 89 70 90 62 91 63 92 69 93 71 94 64 95 65 96
REMARK SMILES IDX 66 97 67 98 68 99 44 100 45 101 54 102 46 103 47 104 53 105
REMARK SMILES IDX 55 106 48 107 49 108 50 109 51 110 52 111
REMARK H PARENT 9 7 96 38 14 42 76 61 42 72
REMARK Flexibility Score: inf
ROOT
ATOM      1  C   UNL A   1      39.602  34.258  30.437  1.00  0.00     0.023 C 
ENDROOT
BRANCH   1   2
ATOM      2  C   UNL A   1      39.556  33.900  31.938  1.00  0.00     0.023 C 
BRANCH   2   3
ATOM      3  C   UNL A   1      39.017  32.548  32.422  1.00  0.00     0.116 C 
BRANCH   3   4
ATOM      4  N   UNL A   1      38.140  31.765  31.575  1.00  0.00    -0.356 N 
ATOM      5  C   UNL A   1      38.520  30.974  30.510  1.00  0.00     0.226 C 
ATOM      6  O   UNL A   1      39.504  31.252  29.823  1.00  0.00    -0.274 OA
ATOM      7  H   UNL A   1      37.177  31.801  31.779  1.00  0.00     0.163 HD
BRANCH   5   8
ATOM      8  C   UNL A   1      37.709  29.627  30.282  1.00  0.00     0.056 C 
ATOM      9  C   UNL A   1      34.538  30.791  27.828  1.00  0.00     0.011 C 
ATOM     10  C   UNL A   1      35.913  31.197  28.385  1.00  0.00    -0.035 C 
ATOM     11  C   UNL A   1      36.171  32.620  27.792  1.00  0.00     0.011 C 
ATOM     12  C   UNL A   1      35.804  31.316  29.922  1.00  0.00     0.007 C 
ATOM     13  C   UNL A   1      36.997  30.173  27.871  1.00  0.00     0.015 C 
ATOM     14  C   UNL A   1      36.259  30.065  30.685  1.00  0.00     0.018 C 
ATOM     15  C   UNL A   1      37.608  29.070  28.839  1.00  0.00     0.031 C 
ATOM     16  C   UNL A   1      38.993  28.460  28.446  1.00  0.00    -0.064 C 
ATOM     17  C   UNL A   1      38.157  28.445  31.208  1.00  0.00     0.018 C 
ATOM     18  C   UNL A   1      39.756  27.384  29.319  1.00  0.00    -0.006 C 
ATOM     19  C   UNL A   1      39.661  29.049  27.441  1.00  0.00    -0.027 C 
ATOM     20  C   UNL A   1      39.408  27.576  30.828  1.00  0.00     0.013 C 
ATOM     21  C   UNL A   1      39.144  25.985  28.978  1.00  0.00     0.017 C 
ATOM     22  C   UNL A   1      41.402  27.364  28.849  1.00  0.00    -0.020 C 
ATOM     23  C   UNL A   1      41.071  29.520  27.651  1.00  0.00     0.032 C 
ATOM     24  C   UNL A   1      41.880  28.843  28.762  1.00  0.00     0.006 C 
ATOM     25  C   UNL A   1      42.571  26.591  29.586  1.00  0.00     0.008 C 
ATOM     26  C   UNL A   1      41.469  26.717  27.384  1.00  0.00     0.012 C 
ATOM     27  C   UNL A   1      42.345  29.586  30.176  1.00  0.00    -0.025 C 
ATOM     28  C   UNL A   1      43.741  27.476  30.159  1.00  0.00     0.005 C 
ATOM     29  C   UNL A   1      43.218  30.772  29.717  1.00  0.00     0.012 C 
ATOM     30  C   UNL A   1      41.304  30.196  31.148  1.00  0.00     0.010 C 
ATOM     31  C   UNL A   1      43.099  28.534  31.035  1.00  0.00     0.003 C 
ATOM     32  C   UNL A   1      41.493  30.155  32.700  1.00  0.00     0.033 C 
ATOM     33  C   UNL A   1      43.766  29.037  32.369  1.00  0.00    -0.006 C 
ATOM     34  C   UNL A   1      42.533  29.190  33.305  1.00  0.00     0.120 C 
ATOM     35  C   UNL A   1      44.540  30.372  32.357  1.00  0.00     0.014 C 
ATOM     36  C   UNL A   1      44.757  28.002  32.930  1.00  0.00     0.014 C 
BRANCH  34  37
ATOM     37  O   UNL A   1      42.889  29.589  34.626  1.00  0.00    -0.393 OA
ATOM     38  H   UNL A   1      42.903  28.811  35.206  1.00  0.00     0.210 HD
ENDBRANCH  34  37
ENDBRANCH   5   8
ENDBRANCH   3   4
ENDBRANCH   2   3
ENDBRANCH   1   2
BRANCH   1  39
ATOM     39  C   UNL A   1      40.953  34.411  29.751  1.00  0.00     0.116 C 
BRANCH  39  40
ATOM     40  N   UNL A   1      41.008  35.548  28.861  1.00  0.00    -0.352 N 
ATOM     41  C   UNL A   1      41.974  35.894  27.952  1.00  0.00     0.251 C 
ATOM     42  H   UNL A   1      40.241  36.163  28.916  1.00  0.00     0.163 HD
ATOM     43  O   UNL A   1      41.917  37.004  27.412  1.00  0.00    -0.269 OA
BRANCH  41  44
ATOM     44  C   UNL A   1      43.098  34.983  27.638  1.00  0.00     0.039 A 
ATOM     45  C   UNL A   1      43.914  34.556  28.687  1.00  0.00     0.014 A 
ATOM     46  C   UNL A   1      43.385  34.578  26.330  1.00  0.00     0.014 A 
ATOM     47  C   UNL A   1      44.985  33.695  28.433  1.00  0.00     0.010 A 
ATOM     48  C   UNL A   1      44.402  33.649  26.090  1.00  0.00     0.010 A 
ATOM     49  C   UNL A   1      45.227  33.210  27.136  1.00  0.00    -0.014 A 
BRANCH  49  50
ATOM     50  C   UNL A   1      46.361  32.276  26.888  1.00  0.00     0.031 A 
ATOM     51  C   UNL A   1      47.757  32.804  26.667  1.00  0.00     0.074 A 
ATOM     52  C   UNL A   1      46.136  30.946  26.865  1.00  0.00     0.049 A 
ATOM     53  N   UNL A   1      48.873  32.141  26.496  1.00  0.00    -0.248 NA
ATOM     54  C   UNL A   1      47.922  34.266  26.605  1.00  0.00     0.031 C 
ATOM     55  C   UNL A   1      44.822  30.309  26.995  1.00  0.00     0.029 A 
ATOM     56  N   UNL A   1      47.001  29.887  26.734  1.00  0.00    -0.354 N 
ATOM     57  C   UNL A   1      49.861  33.098  26.295  1.00  0.00     0.074 A 
ATOM     58  C   UNL A   1      49.209  34.387  26.310  1.00  0.00     0.031 C 
ATOM     59  C   UNL A   1      44.972  28.975  26.974  1.00  0.00     0.029 A 
ATOM     60  C   UNL A   1      46.385  28.656  26.798  1.00  0.00     0.049 A 
ATOM     61  H   UNL A   1      47.971  29.996  26.607  1.00  0.00     0.167 HD
ATOM     62  C   UNL A   1      51.196  32.922  26.140  1.00  0.00     0.037 A 
ATOM     63  C   UNL A   1      46.899  27.412  26.724  1.00  0.00     0.037 A 
ATOM     64  C   UNL A   1      51.847  31.637  26.167  1.00  0.00     0.049 A 
ATOM     65  C   UNL A   1      48.390  27.246  26.591  1.00  0.00     0.074 A 
ATOM     66  C   UNL A   1      53.201  31.359  26.104  1.00  0.00     0.029 A 
ATOM     67  N   UNL A   1      51.193  30.418  26.258  1.00  0.00    -0.354 N 
ATOM     68  N   UNL A   1      49.319  28.170  26.502  1.00  0.00    -0.248 NA
ATOM     69  C   UNL A   1      48.907  25.871  26.564  1.00  0.00     0.031 C 
ATOM     70  C   UNL A   1      53.363  29.970  26.097  1.00  0.00     0.029 A 
ATOM     71  C   UNL A   1      52.113  29.383  26.221  1.00  0.00     0.049 A 
ATOM     72  H   UNL A   1      50.218  30.304  26.336  1.00  0.00     0.167 HD
ATOM     73  C   UNL A   1      50.529  27.487  26.432  1.00  0.00     0.074 A 
ATOM     74  C   UNL A   1      50.216  26.076  26.517  1.00  0.00     0.031 C 
ATOM     75  C   UNL A   1      51.786  27.983  26.306  1.00  0.00     0.037 A 
BRANCH  62  76
ATOM     76  C   UNL A   1      52.053  34.143  25.931  1.00  0.00     0.058 A 
ATOM     77  C   UNL A   1      52.338  34.639  24.648  1.00  0.00     0.135 A 
ATOM     78  C   UNL A   1      52.540  34.865  27.033  1.00  0.00     0.135 A 
ATOM     79  F   UNL A   1      51.914  33.981  23.558  1.00  0.00    -0.206 F 
ATOM     80  C   UNL A   1      53.088  35.798  24.466  1.00  0.00     0.059 A 
ATOM     81  C   UNL A   1      53.266  36.042  26.875  1.00  0.00     0.059 A 
ATOM     82  F   UNL A   1      52.301  34.435  28.282  1.00  0.00    -0.206 F 
ATOM     83  C   UNL A   1      53.541  36.496  25.586  1.00  0.00     0.060 A 
BRANCH  83  84
ATOM     84  S   UNL A   1      54.479  38.018  25.330  1.00  0.00     0.124 S 
ATOM     85  O   UNL A   1      53.447  39.032  25.519  1.00  0.00    -0.237 OA
ATOM     86  O   UNL A   1      55.490  37.939  26.380  1.00  0.00    -0.237 OA
ATOM     87  O   UNL A   1      54.983  37.882  23.968  1.00  0.00    -0.744 OA
ENDBRANCH  83  84
ENDBRANCH  62  76
BRANCH  63  88
ATOM     88  C   UNL A   1      46.002  26.223  26.781  1.00  0.00     0.058 A 
ATOM     89  C   UNL A   1      45.252  25.815  25.667  1.00  0.00     0.135 A 
ATOM     90  C   UNL A   1      45.865  25.480  27.964  1.00  0.00     0.135 A 
ATOM     91  F   UNL A   1      45.343  26.492  24.512  1.00  0.00    -0.206 F 
ATOM     92  C   UNL A   1      44.373  24.737  25.732  1.00  0.00     0.059 A 
ATOM     93  C   UNL A   1      45.017  24.379  28.045  1.00  0.00     0.059 A 
ATOM     94  F   UNL A   1      46.572  25.814  29.054  1.00  0.00    -0.206 F 
ATOM     95  C   UNL A   1      44.263  24.026  26.928  1.00  0.00     0.060 A 
BRANCH  95  96
ATOM     96  S   UNL A   1      43.137  22.615  26.999  1.00  0.00     0.124 S 
ATOM     97  O   UNL A   1      41.938  23.164  26.380  1.00  0.00    -0.237 OA
ATOM     98  O   UNL A   1      43.857  21.610  26.222  1.00  0.00    -0.237 OA
ATOM     99  O   UNL A   1      43.040  22.337  28.430  1.00  0.00    -0.744 OA
ENDBRANCH  95  96
ENDBRANCH  63  88
BRANCH  75 100
ATOM    100  C   UNL A   1      52.918  26.991  26.284  1.00  0.00     0.058 A 
ATOM    101  C   UNL A   1      53.591  26.606  27.455  1.00  0.00     0.135 A 
ATOM    102  C   UNL A   1      53.322  26.400  25.075  1.00  0.00     0.135 A 
ATOM    103  F   UNL A   1      53.247  27.140  28.638  1.00  0.00    -0.206 F 
ATOM    104  C   UNL A   1      54.653  25.708  27.422  1.00  0.00     0.059 A 
ATOM    105  C   UNL A   1      54.356  25.473  25.023  1.00  0.00     0.059 A 
ATOM    106  F   UNL A   1      52.703  26.718  23.927  1.00  0.00    -0.206 F 
ATOM    107  C   UNL A   1      55.030  25.150  26.199  1.00  0.00     0.060 A 
BRANCH 107 108
ATOM    108  S   UNL A   1      56.412  23.988  26.169  1.00  0.00     0.124 S 
ATOM    109  O   UNL A   1      55.744  22.731  26.493  1.00  0.00    -0.237 OA
ATOM    110  O   UNL A   1      56.895  24.114  24.798  1.00  0.00    -0.237 OA
ATOM    111  O   UNL A   1      57.312  24.504  27.196  1.00  0.00    -0.744 OA
ENDBRANCH 107 108
ENDBRANCH  75 100
ENDBRANCH  49  50
ENDBRANCH  41  44
ENDBRANCH  39  40
ENDBRANCH   1  39
TORSDOF 15
ENDMDL
MODEL 2
REMARK VINA RESULT:     -10.3      5.676     13.745
REMARK SMILES CC1(C)CC[C@@]2(C(=O)NCCCCNC(=O)c3ccc(-c4c5nc(c(-c6c(F)cc(S(=O)(=O)[O-])cc6F)c6ccc([nH]6)c(-c6c(F)cc(S(=O)(=O)[O-])cc6F)c6nc(c(-c7c(F)cc(S(=O)(=O)[O-])cc7F)c7ccc4[nH]7)C=C6)C=C5)cc3)CC[C@@]3(C)C(=CC[C@H]4[C@@]5(C)CC[C@H](O)C(C)(C)[C@@H]5CC[C@]43C)[C@@H]2C1
REMARK SMILES IDX 12 1 11 2 10 3 9 4 7 5 8 6 6 8 1 9 2 10 3 11 4 12 106 13
REMARK SMILES IDX 5 14 105 15 87 16 83 17 85 18 88 19 84 20 86 21 103 22 89 23
REMARK SMILES IDX 90 24 102 25 104 26 91 27 101 28 92 29 93 30 100 31 94 32
REMARK SMILES IDX 97 33 95 34 98 35 99 36 96 37 13 39 14 40 15 41 16 43 17 44
REMARK SMILES IDX 18 45 82 46 19 47 81 48 20 49 21 50 22 51 75 52 23 53 80 54
REMARK SMILES IDX 74 55 76 56 24 57 79 58 73 59 72 60 25 62 59 63 38 64 58 65
REMARK SMILES IDX 39 66 42 67 57 68 77 69 40 70 41 71 56 73 78 74 43 75 26 76
REMARK SMILES IDX 27 77 36 78 28 79 29 80 35 81 37 82 30 83 31 84 32 85 33 86
REMARK SMILES IDX 34 87 60 88 61 89 70 90 62 91 63 92 69 93 71 94 64 95 65 96
REMARK SMILES IDX 66 97 67 98 68 99 44 100 45 101 54 102 46 103 47 104 53 105
REMARK SMILES IDX 55 106 48 107 49 108 50 109 51 110 52 111
REMARK H PARENT 9 7 96 38 14 42 76 61 42 72
REMARK Flexibility Score: inf
ROOT
ATOM      1  C   UNL A   1      45.390  24.891  26.960  1.00  0.00     0.023 C 
ENDROOT
BRANCH   1   2
ATOM      2  C   UNL A   1      46.592  24.126  27.555  1.00  0.00     0.023 C 
BRANCH   2   3
ATOM      3  C   UNL A   1      47.987  24.760  27.629  1.00  0.00     0.116 C 
BRANCH   3   4
ATOM      4  N   UNL A   1      48.131  26.197  27.745  1.00  0.00    -0.356 N 
ATOM      5  C   UNL A   1      49.303  26.916  27.625  1.00  0.00     0.226 C 
ATOM      6  O   UNL A   1      50.388  26.435  27.954  1.00  0.00    -0.274 OA
ATOM      7  H   UNL A   1      47.311  26.712  27.926  1.00  0.00     0.163 HD
BRANCH   5   8
ATOM      8  C   UNL A   1      49.210  28.344  26.933  1.00  0.00     0.056 C 
ATOM      9  C   UNL A   1      48.289  27.453  22.959  1.00  0.00     0.011 C 
ATOM     10  C   UNL A   1      48.347  26.898  24.392  1.00  0.00    -0.035 C 
ATOM     11  C   UNL A   1      47.902  25.406  24.252  1.00  0.00     0.011 C 
ATOM     12  C   UNL A   1      49.815  26.929  24.872  1.00  0.00     0.007 C 
ATOM     13  C   UNL A   1      47.334  27.701  25.295  1.00  0.00     0.015 C 
ATOM     14  C   UNL A   1      50.177  28.162  25.712  1.00  0.00     0.018 C 
ATOM     15  C   UNL A   1      47.846  28.782  26.342  1.00  0.00     0.031 C 
ATOM     16  C   UNL A   1      46.889  29.144  27.525  1.00  0.00    -0.064 C 
ATOM     17  C   UNL A   1      49.734  29.522  27.823  1.00  0.00     0.018 C 
ATOM     18  C   UNL A   1      47.262  30.166  28.672  1.00  0.00    -0.006 C 
ATOM     19  C   UNL A   1      45.799  28.377  27.688  1.00  0.00    -0.027 C 
ATOM     20  C   UNL A   1      48.802  30.159  28.914  1.00  0.00     0.013 C 
ATOM     21  C   UNL A   1      46.983  31.605  28.125  1.00  0.00     0.017 C 
ATOM     22  C   UNL A   1      46.217  29.902  30.002  1.00  0.00    -0.020 C 
ATOM     23  C   UNL A   1      45.533  27.723  29.014  1.00  0.00     0.032 C 
ATOM     24  C   UNL A   1      46.163  28.366  30.253  1.00  0.00     0.006 C 
ATOM     25  C   UNL A   1      46.356  30.555  31.438  1.00  0.00     0.008 C 
ATOM     26  C   UNL A   1      44.758  30.403  29.567  1.00  0.00     0.012 C 
ATOM     27  C   UNL A   1      47.390  27.689  31.147  1.00  0.00    -0.025 C 
ATOM     28  C   UNL A   1      46.569  29.560  32.640  1.00  0.00     0.005 C 
ATOM     29  C   UNL A   1      46.807  26.351  31.648  1.00  0.00     0.012 C 
ATOM     30  C   UNL A   1      48.753  27.326  30.504  1.00  0.00     0.010 C 
ATOM     31  C   UNL A   1      47.757  28.688  32.279  1.00  0.00     0.003 C 
ATOM     32  C   UNL A   1      50.103  27.473  31.279  1.00  0.00     0.033 C 
ATOM     33  C   UNL A   1      48.804  28.209  33.352  1.00  0.00    -0.006 C 
ATOM     34  C   UNL A   1      50.141  28.322  32.566  1.00  0.00     0.120 C 
ATOM     35  C   UNL A   1      48.689  26.778  33.919  1.00  0.00     0.014 C 
ATOM     36  C   UNL A   1      48.811  29.131  34.584  1.00  0.00     0.014 C 
BRANCH  34  37
ATOM     37  O   UNL A   1      51.278  27.991  33.360  1.00  0.00    -0.393 OA
ATOM     38  H   UNL A   1      51.217  28.443  34.216  1.00  0.00     0.210 HD
ENDBRANCH  34  37
ENDBRANCH   5   8
ENDBRANCH   3   4
ENDBRANCH   2   3
ENDBRANCH   1   2
BRANCH   1  39
ATOM     39  C   UNL A   1      44.000  24.274  27.047  1.00  0.00     0.116 C 
BRANCH  39  40
ATOM     40  N   UNL A   1      43.131  24.690  25.970  1.00  0.00    -0.352 N 
ATOM     41  C   UNL A   1      42.069  25.556  25.996  1.00  0.00     0.251 C 
ATOM     42  H   UNL A   1      43.330  24.294  25.092  1.00  0.00     0.163 HD
ATOM     43  O   UNL A   1      41.342  25.643  25.001  1.00  0.00    -0.269 OA
BRANCH  41  44
ATOM     44  C   UNL A   1      41.756  26.355  27.203  1.00  0.00     0.039 A 
ATOM     45  C   UNL A   1      42.330  27.622  27.324  1.00  0.00     0.014 A 
ATOM     46  C   UNL A   1      40.944  25.863  28.231  1.00  0.00     0.014 A 
ATOM     47  C   UNL A   1      42.059  28.407  28.448  1.00  0.00     0.010 A 
ATOM     48  C   UNL A   1      40.604  26.684  29.311  1.00  0.00     0.010 A 
ATOM     49  C   UNL A   1      41.173  27.959  29.443  1.00  0.00    -0.014 A 
BRANCH  49  50
ATOM     50  C   UNL A   1      40.879  28.820  30.623  1.00  0.00     0.031 A 
ATOM     51  C   UNL A   1      41.677  28.676  31.896  1.00  0.00     0.074 A 
ATOM     52  C   UNL A   1      39.894  29.738  30.550  1.00  0.00     0.049 A 
ATOM     53  N   UNL A   1      41.603  29.376  33.000  1.00  0.00    -0.248 NA
ATOM     54  C   UNL A   1      42.672  27.592  31.949  1.00  0.00     0.031 C 
ATOM     55  C   UNL A   1      39.003  29.931  29.403  1.00  0.00     0.029 A 
ATOM     56  N   UNL A   1      39.478  30.689  31.450  1.00  0.00    -0.354 N 
ATOM     57  C   UNL A   1      42.525  28.811  33.875  1.00  0.00     0.074 A 
ATOM     58  C   UNL A   1      43.109  27.677  33.197  1.00  0.00     0.031 C 
ATOM     59  C   UNL A   1      38.173  30.957  29.654  1.00  0.00     0.029 A 
ATOM     60  C   UNL A   1      38.447  31.477  30.989  1.00  0.00     0.049 A 
ATOM     61  H   UNL A   1      39.879  30.797  32.343  1.00  0.00     0.167 HD
ATOM     62  C   UNL A   1      42.874  29.217  35.120  1.00  0.00     0.037 A 
ATOM     63  C   UNL A   1      37.797  32.504  31.573  1.00  0.00     0.037 A 
ATOM     64  C   UNL A   1      42.317  30.372  35.776  1.00  0.00     0.049 A 
ATOM     65  C   UNL A   1      38.232  32.958  32.941  1.00  0.00     0.074 A 
ATOM     66  C   UNL A   1      42.665  30.915  37.001  1.00  0.00     0.029 A 
ATOM     67  N   UNL A   1      41.295  31.159  35.266  1.00  0.00    -0.354 N 
ATOM     68  N   UNL A   1      39.177  32.470  33.711  1.00  0.00    -0.248 NA
ATOM     69  C   UNL A   1      37.527  34.112  33.515  1.00  0.00     0.031 C 
ATOM     70  C   UNL A   1      41.812  31.993  37.259  1.00  0.00     0.029 A 
ATOM     71  C   UNL A   1      40.977  32.163  36.166  1.00  0.00     0.049 A 
ATOM     72  H   UNL A   1      40.859  31.022  34.394  1.00  0.00     0.167 HD
ATOM     73  C   UNL A   1      39.192  33.271  34.849  1.00  0.00     0.074 A 
ATOM     74  C   UNL A   1      38.183  34.291  34.653  1.00  0.00     0.031 C 
ATOM     75  C   UNL A   1      39.969  33.171  35.957  1.00  0.00     0.037 A 
BRANCH  62  76
ATOM     76  C   UNL A   1      43.908  28.413  35.864  1.00  0.00     0.058 A 
ATOM     77  C   UNL A   1      45.234  28.856  36.002  1.00  0.00     0.135 A 
ATOM     78  C   UNL A   1      43.549  27.216  36.506  1.00  0.00     0.135 A 
ATOM     79  F   UNL A   1      45.638  29.984  35.396  1.00  0.00    -0.206 F 
ATOM     80  C   UNL A   1      46.170  28.132  36.736  1.00  0.00     0.059 A 
ATOM     81  C   UNL A   1      44.462  26.492  37.269  1.00  0.00     0.059 A 
ATOM     82  F   UNL A   1      42.298  26.743  36.404  1.00  0.00    -0.206 F 
ATOM     83  C   UNL A   1      45.772  26.955  37.371  1.00  0.00     0.060 A 
BRANCH  83  84
ATOM     84  S   UNL A   1      46.991  26.050  38.350  1.00  0.00     0.124 S 
ATOM     85  O   UNL A   1      46.994  24.752  37.683  1.00  0.00    -0.237 OA
ATOM     86  O   UNL A   1      48.193  26.857  38.170  1.00  0.00    -0.237 OA
ATOM     87  O   UNL A   1      46.425  26.063  39.695  1.00  0.00    -0.744 OA
ENDBRANCH  83  84
ENDBRANCH  62  76
BRANCH  63  88
ATOM     88  C   UNL A   1      36.672  33.180  30.867  1.00  0.00     0.058 A 
ATOM     89  C   UNL A   1      36.898  34.051  29.790  1.00  0.00     0.135 A 
ATOM     90  C   UNL A   1      35.343  32.981  31.273  1.00  0.00     0.135 A 
ATOM     91  F   UNL A   1      38.150  34.280  29.363  1.00  0.00    -0.206 F 
ATOM     92  C   UNL A   1      35.854  34.725  29.162  1.00  0.00     0.059 A 
ATOM     93  C   UNL A   1      34.279  33.618  30.641  1.00  0.00     0.059 A 
ATOM     94  F   UNL A   1      35.067  32.145  32.285  1.00  0.00    -0.206 F 
ATOM     95  C   UNL A   1      34.547  34.502  29.597  1.00  0.00     0.060 A 
BRANCH  95  96
ATOM     96  S   UNL A   1      33.195  35.363  28.764  1.00  0.00     0.124 S 
ATOM     97  O   UNL A   1      33.918  36.361  27.986  1.00  0.00    -0.237 OA
ATOM     98  O   UNL A   1      32.570  34.286  28.002  1.00  0.00    -0.237 OA
ATOM     99  O   UNL A   1      32.396  35.881  29.872  1.00  0.00    -0.744 OA
ENDBRANCH  95  96
ENDBRANCH  63  88
BRANCH  75 100
ATOM    100  C   UNL A   1      39.778  34.210  37.028  1.00  0.00     0.058 A 
ATOM    101  C   UNL A   1      38.999  33.964  38.170  1.00  0.00     0.135 A 
ATOM    102  C   UNL A   1      40.402  35.465  36.921  1.00  0.00     0.135 A 
ATOM    103  F   UNL A   1      38.379  32.783  38.323  1.00  0.00    -0.206 F 
ATOM    104  C   UNL A   1      38.806  34.939  39.143  1.00  0.00     0.059 A 
ATOM    105  C   UNL A   1      40.253  36.442  37.899  1.00  0.00     0.059 A 
ATOM    106  F   UNL A   1      41.172  35.749  35.859  1.00  0.00    -0.206 F 
ATOM    107  C   UNL A   1      39.435  36.177  38.996  1.00  0.00     0.060 A 
BRANCH 107 108
ATOM    108  S   UNL A   1      39.175  37.436  40.264  1.00  0.00     0.124 S 
ATOM    109  O   UNL A   1      38.691  36.630  41.381  1.00  0.00    -0.237 OA
ATOM    110  O   UNL A   1      40.512  38.000  40.422  1.00  0.00    -0.237 OA
ATOM    111  O   UNL A   1      38.191  38.328  39.660  1.00  0.00    -0.744 OA
ENDBRANCH 107 108
ENDBRANCH  75 100
ENDBRANCH  49  50
ENDBRANCH  41  44
ENDBRANCH  39  40
ENDBRANCH   1  39
TORSDOF 15
ENDMDL
MODEL 3
REMARK VINA RESULT:     -10.0      3.590      6.527
REMARK SMILES CC1(C)CC[C@@]2(C(=O)NCCCCNC(=O)c3ccc(-c4c5nc(c(-c6c(F)cc(S(=O)(=O)[O-])cc6F)c6ccc([nH]6)c(-c6c(F)cc(S(=O)(=O)[O-])cc6F)c6nc(c(-c7c(F)cc(S(=O)(=O)[O-])cc7F)c7ccc4[nH]7)C=C6)C=C5)cc3)CC[C@@]3(C)C(=CC[C@H]4[C@@]5(C)CC[C@H](O)C(C)(C)[C@@H]5CC[C@]43C)[C@@H]2C1
REMARK SMILES IDX 12 1 11 2 10 3 9 4 7 5 8 6 6 8 1 9 2 10 3 11 4 12 106 13
REMARK SMILES IDX 5 14 105 15 87 16 83 17 85 18 88 19 84 20 86 21 103 22 89 23
REMARK SMILES IDX 90 24 102 25 104 26 91 27 101 28 92 29 93 30 100 31 94 32
REMARK SMILES IDX 97 33 95 34 98 35 99 36 96 37 13 39 14 40 15 41 16 43 17 44
REMARK SMILES IDX 18 45 82 46 19 47 81 48 20 49 21 50 22 51 75 52 23 53 80 54
REMARK SMILES IDX 74 55 76 56 24 57 79 58 73 59 72 60 25 62 59 63 38 64 58 65
REMARK SMILES IDX 39 66 42 67 57 68 77 69 40 70 41 71 56 73 78 74 43 75 26 76
REMARK SMILES IDX 27 77 36 78 28 79 29 80 35 81 37 82 30 83 31 84 32 85 33 86
REMARK SMILES IDX 34 87 60 88 61 89 70 90 62 91 63 92 69 93 71 94 64 95 65 96
REMARK SMILES IDX 66 97 67 98 68 99 44 100 45 101 54 102 46 103 47 104 53 105
REMARK SMILES IDX 55 106 48 107 49 108 50 109 51 110 52 111
REMARK H PARENT 9 7 96 38 14 42 76 61 42 72
REMARK Flexibility Score: inf
ROOT
ATOM      1  C   UNL A   1      37.028  34.613  31.798  1.00  0.00     0.023 C 
ENDROOT
BRANCH   1   2
ATOM      2  C   UNL A   1      38.045  34.607  32.959  1.00  0.00     0.023 C 
BRANCH   2   3
ATOM      3  C   UNL A   1      39.537  34.342  32.717  1.00  0.00     0.116 C 
BRANCH   3   4
ATOM      4  N   UNL A   1      40.455  34.259  33.835  1.00  0.00    -0.356 N 
ATOM      5  C   UNL A   1      40.268  34.800  35.091  1.00  0.00     0.226 C 
ATOM      6  O   UNL A   1      39.620  35.835  35.255  1.00  0.00    -0.274 OA
ATOM      7  H   UNL A   1      41.295  33.768  33.684  1.00  0.00     0.163 HD
BRANCH   5   8
ATOM      8  C   UNL A   1      40.821  33.969  36.327  1.00  0.00     0.056 C 
ATOM      9  C   UNL A   1      37.991  30.939  36.821  1.00  0.00     0.011 C 
ATOM     10  C   UNL A   1      38.518  32.026  35.869  1.00  0.00    -0.035 C 
ATOM     11  C   UNL A   1      37.579  31.943  34.622  1.00  0.00     0.011 C 
ATOM     12  C   UNL A   1      38.321  33.404  36.540  1.00  0.00     0.007 C 
ATOM     13  C   UNL A   1      40.005  31.684  35.472  1.00  0.00     0.015 C 
ATOM     14  C   UNL A   1      39.566  33.934  37.266  1.00  0.00     0.018 C 
ATOM     15  C   UNL A   1      41.226  32.492  36.092  1.00  0.00     0.031 C 
ATOM     16  C   UNL A   1      42.575  32.469  35.302  1.00  0.00    -0.064 C 
ATOM     17  C   UNL A   1      42.003  34.661  37.088  1.00  0.00     0.018 C 
ATOM     18  C   UNL A   1      43.871  33.250  35.759  1.00  0.00    -0.006 C 
ATOM     19  C   UNL A   1      42.553  31.946  34.065  1.00  0.00    -0.027 C 
ATOM     20  C   UNL A   1      43.470  34.537  36.544  1.00  0.00     0.013 C 
ATOM     21  C   UNL A   1      44.592  32.374  36.836  1.00  0.00     0.017 C 
ATOM     22  C   UNL A   1      44.924  33.399  34.417  1.00  0.00    -0.020 C 
ATOM     23  C   UNL A   1      43.060  32.749  32.901  1.00  0.00     0.032 C 
ATOM     24  C   UNL A   1      44.067  33.863  33.202  1.00  0.00     0.006 C 
ATOM     25  C   UNL A   1      46.240  34.277  34.358  1.00  0.00     0.008 C 
ATOM     26  C   UNL A   1      45.505  31.937  34.106  1.00  0.00     0.012 C 
ATOM     27  C   UNL A   1      43.744  35.488  33.064  1.00  0.00    -0.025 C 
ATOM     28  C   UNL A   1      46.265  35.428  33.283  1.00  0.00     0.005 C 
ATOM     29  C   UNL A   1      43.372  35.681  31.580  1.00  0.00     0.012 C 
ATOM     30  C   UNL A   1      42.596  36.155  33.864  1.00  0.00     0.010 C 
ATOM     31  C   UNL A   1      45.017  36.261  33.508  1.00  0.00     0.003 C 
ATOM     32  C   UNL A   1      42.711  37.610  34.426  1.00  0.00     0.033 C 
ATOM     33  C   UNL A   1      45.009  37.825  33.331  1.00  0.00    -0.006 C 
ATOM     34  C   UNL A   1      44.099  38.275  34.510  1.00  0.00     0.120 C 
ATOM     35  C   UNL A   1      44.448  38.424  32.023  1.00  0.00     0.014 C 
ATOM     36  C   UNL A   1      46.423  38.416  33.471  1.00  0.00     0.014 C 
BRANCH  34  37
ATOM     37  O   UNL A   1      43.980  39.693  34.604  1.00  0.00    -0.393 OA
ATOM     38  H   UNL A   1      44.859  40.097  34.542  1.00  0.00     0.210 HD
ENDBRANCH  34  37
ENDBRANCH   5   8
ENDBRANCH   3   4
ENDBRANCH   2   3
ENDBRANCH   1   2
BRANCH   1  39
ATOM     39  C   UNL A   1      37.002  33.438  30.829  1.00  0.00     0.116 C 
BRANCH  39  40
ATOM     40  N   UNL A   1      36.321  32.281  31.364  1.00  0.00    -0.352 N 
ATOM     41  C   UNL A   1      36.676  30.959  31.302  1.00  0.00     0.251 C 
ATOM     42  H   UNL A   1      35.482  32.471  31.842  1.00  0.00     0.163 HD
ATOM     43  O   UNL A   1      35.864  30.104  31.672  1.00  0.00    -0.269 OA
BRANCH  41  44
ATOM     44  C   UNL A   1      37.990  30.538  30.766  1.00  0.00     0.039 A 
ATOM     45  C   UNL A   1      38.109  30.339  29.389  1.00  0.00     0.014 A 
ATOM     46  C   UNL A   1      39.091  30.299  31.597  1.00  0.00     0.014 A 
ATOM     47  C   UNL A   1      39.333  29.942  28.844  1.00  0.00     0.010 A 
ATOM     48  C   UNL A   1      40.335  29.988  31.040  1.00  0.00     0.010 A 
ATOM     49  C   UNL A   1      40.468  29.787  29.658  1.00  0.00    -0.014 A 
BRANCH  49  50
ATOM     50  C   UNL A   1      41.770  29.385  29.056  1.00  0.00     0.031 A 
ATOM     51  C   UNL A   1      42.891  30.385  28.914  1.00  0.00     0.074 A 
ATOM     52  C   UNL A   1      41.948  28.115  28.639  1.00  0.00     0.049 A 
ATOM     53  N   UNL A   1      44.109  30.202  28.470  1.00  0.00    -0.248 NA
ATOM     54  C   UNL A   1      42.604  31.778  29.297  1.00  0.00     0.031 C 
ATOM     55  C   UNL A   1      40.922  27.069  28.655  1.00  0.00     0.029 A 
ATOM     56  N   UNL A   1      43.054  27.480  28.127  1.00  0.00    -0.354 N 
ATOM     57  C   UNL A   1      44.722  31.450  28.508  1.00  0.00     0.074 A 
ATOM     58  C   UNL A   1      43.730  32.394  28.966  1.00  0.00     0.031 C 
ATOM     59  C   UNL A   1      41.455  25.918  28.211  1.00  0.00     0.029 A 
ATOM     60  C   UNL A   1      42.849  26.147  27.849  1.00  0.00     0.049 A 
ATOM     61  H   UNL A   1      43.913  27.935  27.974  1.00  0.00     0.167 HD
ATOM     62  C   UNL A   1      46.005  31.775  28.215  1.00  0.00     0.037 A 
ATOM     63  C   UNL A   1      43.689  25.213  27.358  1.00  0.00     0.037 A 
ATOM     64  C   UNL A   1      47.002  30.823  27.798  1.00  0.00     0.049 A 
ATOM     65  C   UNL A   1      45.119  25.594  27.078  1.00  0.00     0.074 A 
ATOM     66  C   UNL A   1      48.349  31.038  27.559  1.00  0.00     0.029 A 
ATOM     67  N   UNL A   1      46.763  29.479  27.552  1.00  0.00    -0.354 N 
ATOM     68  N   UNL A   1      45.705  26.760  27.217  1.00  0.00    -0.248 NA
ATOM     69  C   UNL A   1      46.008  24.530  26.591  1.00  0.00     0.031 C 
ATOM     70  C   UNL A   1      48.910  29.838  27.112  1.00  0.00     0.029 A 
ATOM     71  C   UNL A   1      47.929  28.860  27.134  1.00  0.00     0.049 A 
ATOM     72  H   UNL A   1      45.892  29.032  27.658  1.00  0.00     0.167 HD
ATOM     73  C   UNL A   1      47.034  26.564  26.856  1.00  0.00     0.074 A 
ATOM     74  C   UNL A   1      47.171  25.162  26.521  1.00  0.00     0.031 C 
ATOM     75  C   UNL A   1      48.050  27.463  26.803  1.00  0.00     0.037 A 
BRANCH  62  76
ATOM     76  C   UNL A   1      46.416  33.219  28.335  1.00  0.00     0.058 A 
ATOM     77  C   UNL A   1      46.342  34.105  27.249  1.00  0.00     0.135 A 
ATOM     78  C   UNL A   1      46.825  33.739  29.575  1.00  0.00     0.135 A 
ATOM     79  F   UNL A   1      45.974  33.661  26.037  1.00  0.00    -0.206 F 
ATOM     80  C   UNL A   1      46.674  35.451  27.383  1.00  0.00     0.059 A 
ATOM     81  C   UNL A   1      47.133  35.087  29.738  1.00  0.00     0.059 A 
ATOM     82  F   UNL A   1      46.918  32.938  30.647  1.00  0.00    -0.206 F 
ATOM     83  C   UNL A   1      47.062  35.934  28.634  1.00  0.00     0.060 A 
BRANCH  83  84
ATOM     84  S   UNL A   1      47.452  37.689  28.796  1.00  0.00     0.124 S 
ATOM     85  O   UNL A   1      48.540  37.657  29.768  1.00  0.00    -0.237 OA
ATOM     86  O   UNL A   1      47.829  38.050  27.434  1.00  0.00    -0.237 OA
ATOM     87  O   UNL A   1      46.202  38.273  29.273  1.00  0.00    -0.744 OA
ENDBRANCH  83  84
ENDBRANCH  62  76
BRANCH  63  88
ATOM     88  C   UNL A   1      43.207  23.826  27.106  1.00  0.00     0.058 A 
ATOM     89  C   UNL A   1      43.148  22.871  28.133  1.00  0.00     0.135 A 
ATOM     90  C   UNL A   1      42.810  23.422  25.821  1.00  0.00     0.135 A 
ATOM     91  F   UNL A   1      43.518  23.202  29.379  1.00  0.00    -0.206 F 
ATOM     92  C   UNL A   1      42.748  21.559  27.891  1.00  0.00     0.059 A 
ATOM     93  C   UNL A   1      42.376  22.126  25.560  1.00  0.00     0.059 A 
ATOM     94  F   UNL A   1      42.828  24.299  24.805  1.00  0.00    -0.206 F 
ATOM     95  C   UNL A   1      42.364  21.197  26.599  1.00  0.00     0.060 A 
BRANCH  95  96
ATOM     96  S   UNL A   1      41.825  19.500  26.296  1.00  0.00     0.124 S 
ATOM     97  O   UNL A   1      42.220  18.841  27.535  1.00  0.00    -0.237 OA
ATOM     98  O   UNL A   1      40.389  19.667  26.089  1.00  0.00    -0.237 OA
ATOM     99  O   UNL A   1      42.581  19.116  25.107  1.00  0.00    -0.744 OA
ENDBRANCH  95  96
ENDBRANCH  63  88
BRANCH  75 100
ATOM    100  C   UNL A   1      49.404  26.948  26.398  1.00  0.00     0.058 A 
ATOM    101  C   UNL A   1      49.816  26.920  25.055  1.00  0.00     0.135 A 
ATOM    102  C   UNL A   1      50.313  26.496  27.369  1.00  0.00     0.135 A 
ATOM    103  F   UNL A   1      48.988  27.339  24.086  1.00  0.00    -0.206 F 
ATOM    104  C   UNL A   1      51.060  26.419  24.687  1.00  0.00     0.059 A 
ATOM    105  C   UNL A   1      51.576  26.024  27.028  1.00  0.00     0.059 A 
ATOM    106  F   UNL A   1      49.979  26.515  28.669  1.00  0.00    -0.206 F 
ATOM    107  C   UNL A   1      51.932  25.970  25.681  1.00  0.00     0.060 A 
BRANCH 107 108
ATOM    108  S   UNL A   1      53.543  25.319  25.190  1.00  0.00     0.124 S 
ATOM    109  O   UNL A   1      53.341  23.883  25.357  1.00  0.00    -0.237 OA
ATOM    110  O   UNL A   1      53.661  25.785  23.812  1.00  0.00    -0.237 OA
ATOM    111  O   UNL A   1      54.464  25.939  26.137  1.00  0.00    -0.744 OA
ENDBRANCH 107 108
ENDBRANCH  75 100
ENDBRANCH  49  50
ENDBRANCH  41  44
ENDBRANCH  39  40
ENDBRANCH   1  39
TORSDOF 15
ENDMDL
