MODEL 1
REMARK VINA RESULT:     -13.2      0.000      0.000
REMARK SMILES O=C(NCCCCNC(=O)[C@H]1CC=CC[C@@H]1C(=O)N[C@@H]1CCCN(c2ccccc2F)C1=O)c1ccc(-c2c3nc(c(-c4c(F)cc(S(=O)(=O)[O-])cc4F)c4ccc([nH]4)c(-c4c(F)cc(S(=O)(=O)[O-])cc4F)c4nc(c(-c5c(F)cc(S(=O)(=O)[O-])cc5F)c5ccc2[nH]5)C=C4)C=C3)cc1
REMARK SMILES IDX 5 1 4 2 3 3 1 4 2 5 34 7 35 8 99 9 36 10 98 11 37 12 38 13
REMARK SMILES IDX 39 14 92 15 40 16 97 17 91 18 93 19 41 20 96 21 90 22 89 23
REMARK SMILES IDX 42 25 76 26 55 27 75 28 56 29 59 30 74 31 94 32 57 33 58 34
REMARK SMILES IDX 73 36 95 37 60 38 43 39 44 40 53 41 45 42 46 43 52 44 54 45
REMARK SMILES IDX 47 46 48 47 49 48 50 49 51 50 77 51 78 52 87 53 79 54 80 55
REMARK SMILES IDX 86 56 88 57 81 58 82 59 83 60 84 61 85 62 61 63 62 64 71 65
REMARK SMILES IDX 63 66 64 67 70 68 72 69 65 70 66 71 67 72 68 73 69 74 6 75
REMARK SMILES IDX 7 76 8 77 9 78 10 80 11 81 12 82 16 83 13 84 15 85 14 86
REMARK SMILES IDX 17 87 18 88 19 89 20 91 21 92 32 93 22 94 24 95 33 96 23 97
REMARK SMILES IDX 25 98 26 99 30 100 27 101 29 102 31 103 28 104
REMARK H PARENT 3 6 93 24 59 35 8 79 19 90
REMARK Flexibility Score: inf
ROOT
ATOM      1  C   UNL A   1      33.647  30.303  27.072  1.00  0.00     0.023 C 
ENDROOT
BRANCH   1   2
ATOM      2  C   UNL A   1      34.907  29.784  27.735  1.00  0.00     0.116 C 
BRANCH   2   3
ATOM      3  N   UNL A   1      35.152  30.351  29.061  1.00  0.00    -0.352 N 
ATOM      4  O   UNL A   1      36.226  30.817  30.984  1.00  0.00    -0.269 OA
ATOM      5  C   UNL A   1      36.286  30.364  29.849  1.00  0.00     0.251 C 
ATOM      6  H   UNL A   1      34.373  30.801  29.461  1.00  0.00     0.163 HD
BRANCH   5   7
ATOM      7  C   UNL A   1      37.552  29.785  29.340  1.00  0.00     0.039 A 
ATOM      8  C   UNL A   1      38.394  29.081  30.190  1.00  0.00     0.014 A 
ATOM      9  C   UNL A   1      37.929  29.991  28.009  1.00  0.00     0.014 A 
ATOM     10  C   UNL A   1      39.708  28.856  29.816  1.00  0.00     0.010 A 
ATOM     11  C   UNL A   1      39.201  29.593  27.577  1.00  0.00     0.010 A 
ATOM     12  C   UNL A   1      40.127  29.078  28.496  1.00  0.00    -0.014 A 
BRANCH  12  13
ATOM     13  C   UNL A   1      41.524  28.718  28.125  1.00  0.00     0.031 A 
ATOM     14  C   UNL A   1      42.653  29.705  28.262  1.00  0.00     0.074 A 
ATOM     15  C   UNL A   1      41.778  27.449  27.743  1.00  0.00     0.049 A 
ATOM     16  N   UNL A   1      43.921  29.541  27.980  1.00  0.00    -0.248 NA
ATOM     17  C   UNL A   1      42.327  31.047  28.769  1.00  0.00     0.031 C 
ATOM     18  C   UNL A   1      40.764  26.400  27.585  1.00  0.00     0.029 A 
ATOM     19  N   UNL A   1      42.957  26.804  27.472  1.00  0.00    -0.354 N 
ATOM     20  C   UNL A   1      44.532  30.764  28.230  1.00  0.00     0.074 A 
ATOM     21  C   UNL A   1      43.497  31.667  28.683  1.00  0.00     0.031 C 
ATOM     22  C   UNL A   1      41.369  25.228  27.358  1.00  0.00     0.029 A 
ATOM     23  C   UNL A   1      42.802  25.458  27.231  1.00  0.00     0.049 A 
ATOM     24  H   UNL A   1      43.829  27.259  27.452  1.00  0.00     0.167 HD
ATOM     25  C   UNL A   1      45.838  31.098  28.092  1.00  0.00     0.037 A 
ATOM     26  C   UNL A   1      43.704  24.510  26.913  1.00  0.00     0.037 A 
ATOM     27  C   UNL A   1      46.866  30.177  27.679  1.00  0.00     0.049 A 
ATOM     28  C   UNL A   1      45.137  24.907  26.757  1.00  0.00     0.074 A 
ATOM     29  C   UNL A   1      48.219  30.415  27.512  1.00  0.00     0.029 A 
ATOM     30  N   UNL A   1      46.657  28.837  27.380  1.00  0.00    -0.354 N 
ATOM     31  N   UNL A   1      45.686  26.083  26.949  1.00  0.00    -0.248 NA
ATOM     32  C   UNL A   1      46.071  23.865  26.314  1.00  0.00     0.031 C 
ATOM     33  C   UNL A   1      48.823  29.229  27.081  1.00  0.00     0.029 A 
ATOM     34  C   UNL A   1      47.854  28.240  27.019  1.00  0.00     0.049 A 
ATOM     35  H   UNL A   1      45.787  28.379  27.420  1.00  0.00     0.167 HD
ATOM     36  C   UNL A   1      47.030  25.926  26.642  1.00  0.00     0.074 A 
ATOM     37  C   UNL A   1      47.216  24.535  26.277  1.00  0.00     0.031 C 
ATOM     38  C   UNL A   1      48.016  26.855  26.654  1.00  0.00     0.037 A 
BRANCH  25  39
ATOM     39  C   UNL A   1      46.237  32.524  28.364  1.00  0.00     0.058 A 
ATOM     40  C   UNL A   1      46.617  32.919  29.658  1.00  0.00     0.135 A 
ATOM     41  C   UNL A   1      46.190  33.512  27.367  1.00  0.00     0.135 A 
ATOM     42  F   UNL A   1      46.684  32.015  30.647  1.00  0.00    -0.206 F 
ATOM     43  C   UNL A   1      46.927  34.242  29.956  1.00  0.00     0.059 A 
ATOM     44  C   UNL A   1      46.518  34.839  27.639  1.00  0.00     0.059 A 
ATOM     45  F   UNL A   1      45.855  33.185  26.109  1.00  0.00    -0.206 F 
ATOM     46  C   UNL A   1      46.874  35.196  28.940  1.00  0.00     0.060 A 
BRANCH  46  47
ATOM     47  S   UNL A   1      47.331  36.900  29.328  1.00  0.00     0.124 S 
ATOM     48  O   UNL A   1      48.008  37.316  28.104  1.00  0.00    -0.237 OA
ATOM     49  O   UNL A   1      46.031  37.518  29.578  1.00  0.00    -0.237 OA
ATOM     50  O   UNL A   1      48.182  36.760  30.505  1.00  0.00    -0.744 OA
ENDBRANCH  46  47
ENDBRANCH  25  39
BRANCH  26  51
ATOM     51  C   UNL A   1      43.243  23.113  26.702  1.00  0.00     0.058 A 
ATOM     52  C   UNL A   1      42.946  22.278  27.792  1.00  0.00     0.135 A 
ATOM     53  C   UNL A   1      43.192  22.557  25.417  1.00  0.00     0.135 A 
ATOM     54  F   UNL A   1      42.994  22.761  29.044  1.00  0.00    -0.206 F 
ATOM     55  C   UNL A   1      42.667  20.928  27.620  1.00  0.00     0.059 A 
ATOM     56  C   UNL A   1      42.885  21.213  25.217  1.00  0.00     0.059 A 
ATOM     57  F   UNL A   1      43.458  23.319  24.345  1.00  0.00    -0.206 F 
ATOM     58  C   UNL A   1      42.653  20.402  26.328  1.00  0.00     0.060 A 
BRANCH  58  59
ATOM     59  S   UNL A   1      42.342  18.635  26.129  1.00  0.00     0.124 S 
ATOM     60  O   UNL A   1      42.653  18.135  27.463  1.00  0.00    -0.237 OA
ATOM     61  O   UNL A   1      40.933  18.610  25.751  1.00  0.00    -0.237 OA
ATOM     62  O   UNL A   1      43.278  18.246  25.078  1.00  0.00    -0.744 OA
ENDBRANCH  58  59
ENDBRANCH  26  51
BRANCH  38  63
ATOM     63  C   UNL A   1      49.391  26.398  26.264  1.00  0.00     0.058 A 
ATOM     64  C   UNL A   1      50.213  25.743  27.194  1.00  0.00     0.135 A 
ATOM     65  C   UNL A   1      49.917  26.673  24.992  1.00  0.00     0.135 A 
ATOM     66  F   UNL A   1      49.752  25.460  28.422  1.00  0.00    -0.206 F 
ATOM     67  C   UNL A   1      51.520  25.392  26.882  1.00  0.00     0.059 A 
ATOM     68  C   UNL A   1      51.217  26.311  24.652  1.00  0.00     0.059 A 
ATOM     69  F   UNL A   1      49.162  27.283  24.067  1.00  0.00    -0.206 F 
ATOM     70  C   UNL A   1      52.016  25.687  25.611  1.00  0.00     0.060 A 
BRANCH  70  71
ATOM     71  S   UNL A   1      53.715  25.222  25.222  1.00  0.00     0.124 S 
ATOM     72  O   UNL A   1      54.458  25.898  26.279  1.00  0.00    -0.237 OA
ATOM     73  O   UNL A   1      53.666  23.766  25.311  1.00  0.00    -0.237 OA
ATOM     74  O   UNL A   1      53.911  25.753  23.876  1.00  0.00    -0.744 OA
ENDBRANCH  70  71
ENDBRANCH  38  63
ENDBRANCH  12  13
ENDBRANCH   5   7
ENDBRANCH   2   3
ENDBRANCH   1   2
BRANCH   1  75
ATOM     75  C   UNL A   1      32.447  29.399  27.251  1.00  0.00     0.023 C 
BRANCH  75  76
ATOM     76  C   UNL A   1      32.707  27.896  27.241  1.00  0.00     0.116 C 
BRANCH  76  77
ATOM     77  N   UNL A   1      31.471  27.165  27.054  1.00  0.00    -0.356 N 
ATOM     78  C   UNL A   1      31.206  26.045  26.320  1.00  0.00     0.224 C 
ATOM     79  H   UNL A   1      30.696  27.536  27.536  1.00  0.00     0.163 HD
ATOM     80  O   UNL A   1      30.038  25.650  26.326  1.00  0.00    -0.275 OA
BRANCH  78  81
ATOM     81  C   UNL A   1      32.323  25.323  25.543  1.00  0.00     0.095 C 
ATOM     82  C   UNL A   1      33.136  24.422  26.501  1.00  0.00     0.041 C 
ATOM     83  C   UNL A   1      31.769  24.522  24.337  1.00  0.00     0.095 C 
ATOM     84  C   UNL A   1      32.568  23.047  26.694  1.00  0.00    -0.030 C 
ATOM     85  C   UNL A   1      30.991  23.284  24.780  1.00  0.00     0.041 C 
ATOM     86  C   UNL A   1      31.588  22.546  25.934  1.00  0.00    -0.030 C 
BRANCH  83  87
ATOM     87  C   UNL A   1      32.835  24.229  23.278  1.00  0.00     0.224 C 
ATOM     88  O   UNL A   1      33.313  23.097  23.157  1.00  0.00    -0.275 OA
ATOM     89  N   UNL A   1      33.364  25.191  22.470  1.00  0.00    -0.344 N 
ATOM     90  H   UNL A   1      34.069  24.824  21.890  1.00  0.00     0.164 HD
BRANCH  89  91
ATOM     91  C   UNL A   1      33.165  26.638  22.230  1.00  0.00     0.172 C 
ATOM     92  C   UNL A   1      34.028  27.568  23.062  1.00  0.00     0.037 C 
ATOM     93  C   UNL A   1      31.680  27.023  22.038  1.00  0.00     0.249 C 
ATOM     94  C   UNL A   1      33.435  28.953  23.194  1.00  0.00     0.025 C 
ATOM     95  N   UNL A   1      31.159  28.036  22.855  1.00  0.00    -0.308 N 
ATOM     96  O   UNL A   1      31.039  26.451  21.151  1.00  0.00    -0.272 OA
ATOM     97  C   UNL A   1      32.026  28.816  23.742  1.00  0.00     0.126 C 
BRANCH  95  98
ATOM     98  C   UNL A   1      29.735  28.234  22.949  1.00  0.00     0.080 A 
ATOM     99  C   UNL A   1      28.911  27.269  23.548  1.00  0.00     0.029 A 
ATOM    100  C   UNL A   1      29.105  29.379  22.423  1.00  0.00     0.146 A 
ATOM    101  C   UNL A   1      27.525  27.453  23.637  1.00  0.00     0.002 A 
ATOM    102  C   UNL A   1      27.727  29.567  22.515  1.00  0.00     0.041 A 
ATOM    103  F   UNL A   1      29.790  30.287  21.713  1.00  0.00    -0.205 F 
ATOM    104  C   UNL A   1      26.933  28.605  23.126  1.00  0.00     0.003 A 
ENDBRANCH  95  98
ENDBRANCH  89  91
ENDBRANCH  83  87
ENDBRANCH  78  81
ENDBRANCH  76  77
ENDBRANCH  75  76
ENDBRANCH   1  75
TORSDOF 17
ENDMDL
MODEL 2
REMARK VINA RESULT:     -13.0      6.633     12.003
REMARK SMILES O=C(NCCCCNC(=O)[C@H]1CC=CC[C@@H]1C(=O)N[C@@H]1CCCN(c2ccccc2F)C1=O)c1ccc(-c2c3nc(c(-c4c(F)cc(S(=O)(=O)[O-])cc4F)c4ccc([nH]4)c(-c4c(F)cc(S(=O)(=O)[O-])cc4F)c4nc(c(-c5c(F)cc(S(=O)(=O)[O-])cc5F)c5ccc2[nH]5)C=C4)C=C3)cc1
REMARK SMILES IDX 5 1 4 2 3 3 1 4 2 5 34 7 35 8 99 9 36 10 98 11 37 12 38 13
REMARK SMILES IDX 39 14 92 15 40 16 97 17 91 18 93 19 41 20 96 21 90 22 89 23
REMARK SMILES IDX 42 25 76 26 55 27 75 28 56 29 59 30 74 31 94 32 57 33 58 34
REMARK SMILES IDX 73 36 95 37 60 38 43 39 44 40 53 41 45 42 46 43 52 44 54 45
REMARK SMILES IDX 47 46 48 47 49 48 50 49 51 50 77 51 78 52 87 53 79 54 80 55
REMARK SMILES IDX 86 56 88 57 81 58 82 59 83 60 84 61 85 62 61 63 62 64 71 65
REMARK SMILES IDX 63 66 64 67 70 68 72 69 65 70 66 71 67 72 68 73 69 74 6 75
REMARK SMILES IDX 7 76 8 77 9 78 10 80 11 81 12 82 16 83 13 84 15 85 14 86
REMARK SMILES IDX 17 87 18 88 19 89 20 91 21 92 32 93 22 94 24 95 33 96 23 97
REMARK SMILES IDX 25 98 26 99 30 100 27 101 29 102 31 103 28 104
REMARK H PARENT 3 6 93 24 59 35 8 79 19 90
REMARK Flexibility Score: inf
ROOT
ATOM      1  C   UNL A   1      38.058  22.349  26.051  1.00  0.00     0.023 C 
ENDROOT
BRANCH   1   2
ATOM      2  C   UNL A   1      38.660  23.684  26.443  1.00  0.00     0.116 C 
BRANCH   2   3
ATOM      3  N   UNL A   1      40.076  23.815  26.102  1.00  0.00    -0.352 N 
ATOM      4  O   UNL A   1      42.141  24.705  26.002  1.00  0.00    -0.269 OA
ATOM      5  C   UNL A   1      41.027  24.733  26.504  1.00  0.00     0.251 C 
ATOM      6  H   UNL A   1      40.409  23.131  25.478  1.00  0.00     0.163 HD
BRANCH   5   7
ATOM      7  C   UNL A   1      40.679  25.776  27.498  1.00  0.00     0.039 A 
ATOM      8  C   UNL A   1      41.356  26.988  27.511  1.00  0.00     0.014 A 
ATOM      9  C   UNL A   1      39.702  25.522  28.466  1.00  0.00     0.014 A 
ATOM     10  C   UNL A   1      41.284  27.798  28.631  1.00  0.00     0.010 A 
ATOM     11  C   UNL A   1      39.497  26.438  29.506  1.00  0.00     0.010 A 
ATOM     12  C   UNL A   1      40.334  27.556  29.633  1.00  0.00    -0.014 A 
BRANCH  12  13
ATOM     13  C   UNL A   1      40.231  28.522  30.762  1.00  0.00     0.031 A 
ATOM     14  C   UNL A   1      41.224  28.516  31.895  1.00  0.00     0.074 A 
ATOM     15  C   UNL A   1      39.274  29.471  30.708  1.00  0.00     0.049 A 
ATOM     16  N   UNL A   1      41.268  29.291  32.948  1.00  0.00    -0.248 NA
ATOM     17  C   UNL A   1      42.299  27.511  31.852  1.00  0.00     0.031 C 
ATOM     18  C   UNL A   1      38.261  29.585  29.652  1.00  0.00     0.029 A 
ATOM     19  N   UNL A   1      39.022  30.550  31.516  1.00  0.00    -0.354 N 
ATOM     20  C   UNL A   1      42.340  28.843  33.712  1.00  0.00     0.074 A 
ATOM     21  C   UNL A   1      42.920  27.723  33.006  1.00  0.00     0.031 C 
ATOM     22  C   UNL A   1      37.577  30.724  29.814  1.00  0.00     0.029 A 
ATOM     23  C   UNL A   1      38.014  31.362  31.048  1.00  0.00     0.049 A 
ATOM     24  H   UNL A   1      39.515  30.727  32.349  1.00  0.00     0.167 HD
ATOM     25  C   UNL A   1      42.793  29.325  34.894  1.00  0.00     0.037 A 
ATOM     26  C   UNL A   1      37.474  32.482  31.563  1.00  0.00     0.037 A 
ATOM     27  C   UNL A   1      42.229  30.469  35.567  1.00  0.00     0.049 A 
ATOM     28  C   UNL A   1      37.985  32.988  32.874  1.00  0.00     0.074 A 
ATOM     29  C   UNL A   1      42.618  31.040  36.766  1.00  0.00     0.029 A 
ATOM     30  N   UNL A   1      41.166  31.224  35.092  1.00  0.00    -0.354 N 
ATOM     31  N   UNL A   1      38.967  32.518  33.605  1.00  0.00    -0.248 NA
ATOM     32  C   UNL A   1      37.302  34.153  33.449  1.00  0.00     0.031 C 
ATOM     33  C   UNL A   1      41.769  32.119  37.033  1.00  0.00     0.029 A 
ATOM     34  C   UNL A   1      40.877  32.247  35.980  1.00  0.00     0.049 A 
ATOM     35  H   UNL A   1      40.687  31.058  34.248  1.00  0.00     0.167 HD
ATOM     36  C   UNL A   1      39.017  33.325  34.733  1.00  0.00     0.074 A 
ATOM     37  C   UNL A   1      37.984  34.329  34.574  1.00  0.00     0.031 C 
ATOM     38  C   UNL A   1      39.840  33.234  35.805  1.00  0.00     0.037 A 
BRANCH  25  39
ATOM     39  C   UNL A   1      43.939  28.611  35.558  1.00  0.00     0.058 A 
ATOM     40  C   UNL A   1      43.692  27.601  36.503  1.00  0.00     0.135 A 
ATOM     41  C   UNL A   1      45.276  28.958  35.308  1.00  0.00     0.135 A 
ATOM     42  F   UNL A   1      42.433  27.226  36.777  1.00  0.00    -0.206 F 
ATOM     43  C   UNL A   1      44.729  26.968  37.183  1.00  0.00     0.059 A 
ATOM     44  C   UNL A   1      46.330  28.322  35.961  1.00  0.00     0.059 A 
ATOM     45  F   UNL A   1      45.569  29.900  34.398  1.00  0.00    -0.206 F 
ATOM     46  C   UNL A   1      46.045  27.336  36.905  1.00  0.00     0.060 A 
BRANCH  46  47
ATOM     47  S   UNL A   1      47.383  26.469  37.755  1.00  0.00     0.124 S 
ATOM     48  O   UNL A   1      47.852  27.484  38.692  1.00  0.00    -0.237 OA
ATOM     49  O   UNL A   1      46.685  25.330  38.346  1.00  0.00    -0.237 OA
ATOM     50  O   UNL A   1      48.305  26.132  36.675  1.00  0.00    -0.744 OA
ENDBRANCH  46  47
ENDBRANCH  25  39
BRANCH  26  51
ATOM     51  C   UNL A   1      36.374  33.159  30.829  1.00  0.00     0.058 A 
ATOM     52  C   UNL A   1      36.644  34.006  29.741  1.00  0.00     0.135 A 
ATOM     53  C   UNL A   1      35.046  33.056  31.265  1.00  0.00     0.135 A 
ATOM     54  F   UNL A   1      37.903  34.148  29.295  1.00  0.00    -0.206 F 
ATOM     55  C   UNL A   1      35.647  34.767  29.145  1.00  0.00     0.059 A 
ATOM     56  C   UNL A   1      34.023  33.788  30.664  1.00  0.00     0.059 A 
ATOM     57  F   UNL A   1      34.737  32.252  32.294  1.00  0.00    -0.206 F 
ATOM     58  C   UNL A   1      34.341  34.661  29.625  1.00  0.00     0.060 A 
BRANCH  58  59
ATOM     59  S   UNL A   1      33.069  35.699  28.873  1.00  0.00     0.124 S 
ATOM     60  O   UNL A   1      33.880  36.688  28.172  1.00  0.00    -0.237 OA
ATOM     61  O   UNL A   1      32.354  34.748  28.029  1.00  0.00    -0.237 OA
ATOM     62  O   UNL A   1      32.322  36.199  30.023  1.00  0.00    -0.744 OA
ENDBRANCH  58  59
ENDBRANCH  26  51
BRANCH  38  63
ATOM     63  C   UNL A   1      39.662  34.251  36.893  1.00  0.00     0.058 A 
ATOM     64  C   UNL A   1      40.328  35.484  36.831  1.00  0.00     0.135 A 
ATOM     65  C   UNL A   1      38.887  33.973  38.030  1.00  0.00     0.135 A 
ATOM     66  F   UNL A   1      41.080  35.793  35.762  1.00  0.00    -0.206 F 
ATOM     67  C   UNL A   1      40.248  36.403  37.869  1.00  0.00     0.059 A 
ATOM     68  C   UNL A   1      38.776  34.888  39.073  1.00  0.00     0.059 A 
ATOM     69  F   UNL A   1      38.220  32.813  38.126  1.00  0.00    -0.206 F 
ATOM     70  C   UNL A   1      39.475  36.093  38.990  1.00  0.00     0.060 A 
BRANCH  70  71
ATOM     71  S   UNL A   1      39.380  37.298  40.329  1.00  0.00     0.124 S 
ATOM     72  O   UNL A   1      40.777  37.691  40.476  1.00  0.00    -0.237 OA
ATOM     73  O   UNL A   1      38.491  38.312  39.770  1.00  0.00    -0.237 OA
ATOM     74  O   UNL A   1      38.822  36.529  41.437  1.00  0.00    -0.744 OA
ENDBRANCH  70  71
ENDBRANCH  38  63
ENDBRANCH  12  13
ENDBRANCH   5   7
ENDBRANCH   2   3
ENDBRANCH   1   2
BRANCH   1  75
ATOM     75  C   UNL A   1      37.281  22.387  24.754  1.00  0.00     0.023 C 
BRANCH  75  76
ATOM     76  C   UNL A   1      36.401  23.608  24.512  1.00  0.00     0.116 C 
BRANCH  76  77
ATOM     77  N   UNL A   1      35.539  23.398  23.367  1.00  0.00    -0.356 N 
ATOM     78  C   UNL A   1      34.279  23.857  23.110  1.00  0.00     0.224 C 
ATOM     79  H   UNL A   1      35.926  22.834  22.658  1.00  0.00     0.163 HD
ATOM     80  O   UNL A   1      33.771  23.493  22.047  1.00  0.00    -0.275 OA
BRANCH  78  81
ATOM     81  C   UNL A   1      33.555  24.784  24.103  1.00  0.00     0.095 C 
ATOM     82  C   UNL A   1      33.967  26.253  23.852  1.00  0.00     0.041 C 
ATOM     83  C   UNL A   1      32.016  24.606  24.050  1.00  0.00     0.095 C 
ATOM     84  C   UNL A   1      33.153  26.958  22.807  1.00  0.00    -0.030 C 
ATOM     85  C   UNL A   1      31.418  25.171  22.763  1.00  0.00     0.041 C 
ATOM     86  C   UNL A   1      32.019  26.460  22.303  1.00  0.00    -0.030 C 
BRANCH  83  87
ATOM     87  C   UNL A   1      31.316  25.099  25.318  1.00  0.00     0.224 C 
ATOM     88  O   UNL A   1      30.707  26.174  25.329  1.00  0.00    -0.275 OA
ATOM     89  N   UNL A   1      31.380  24.436  26.508  1.00  0.00    -0.344 N 
ATOM     90  H   UNL A   1      30.911  24.929  27.219  1.00  0.00     0.164 HD
BRANCH  89  91
ATOM     91  C   UNL A   1      31.962  23.174  27.018  1.00  0.00     0.172 C 
ATOM     92  C   UNL A   1      33.358  23.284  27.603  1.00  0.00     0.037 C 
ATOM     93  C   UNL A   1      31.660  21.957  26.115  1.00  0.00     0.249 C 
ATOM     94  C   UNL A   1      34.100  21.966  27.594  1.00  0.00     0.025 C 
ATOM     95  N   UNL A   1      32.746  21.190  25.671  1.00  0.00    -0.308 N 
ATOM     96  O   UNL A   1      30.479  21.695  25.864  1.00  0.00    -0.272 OA
ATOM     97  C   UNL A   1      34.101  21.430  26.174  1.00  0.00     0.126 C 
BRANCH  95  98
ATOM     98  C   UNL A   1      32.577  20.244  24.598  1.00  0.00     0.080 A 
ATOM     99  C   UNL A   1      32.310  20.676  23.290  1.00  0.00     0.029 A 
ATOM    100  C   UNL A   1      32.641  18.853  24.813  1.00  0.00     0.146 A 
ATOM    101  C   UNL A   1      32.138  19.760  22.244  1.00  0.00     0.002 A 
ATOM    102  C   UNL A   1      32.477  17.939  23.773  1.00  0.00     0.041 A 
ATOM    103  F   UNL A   1      32.755  18.343  26.049  1.00  0.00    -0.205 F 
ATOM    104  C   UNL A   1      32.228  18.392  22.484  1.00  0.00     0.003 A 
ENDBRANCH  95  98
ENDBRANCH  89  91
ENDBRANCH  83  87
ENDBRANCH  78  81
ENDBRANCH  76  77
ENDBRANCH  75  76
ENDBRANCH   1  75
TORSDOF 17
ENDMDL
MODEL 3
REMARK VINA RESULT:     -12.9      0.469      7.985
REMARK SMILES O=C(NCCCCNC(=O)[C@H]1CC=CC[C@@H]1C(=O)N[C@@H]1CCCN(c2ccccc2F)C1=O)c1ccc(-c2c3nc(c(-c4c(F)cc(S(=O)(=O)[O-])cc4F)c4ccc([nH]4)c(-c4c(F)cc(S(=O)(=O)[O-])cc4F)c4nc(c(-c5c(F)cc(S(=O)(=O)[O-])cc5F)c5ccc2[nH]5)C=C4)C=C3)cc1
REMARK SMILES IDX 5 1 4 2 3 3 1 4 2 5 34 7 35 8 99 9 36 10 98 11 37 12 38 13
REMARK SMILES IDX 39 14 92 15 40 16 97 17 91 18 93 19 41 20 96 21 90 22 89 23
REMARK SMILES IDX 42 25 76 26 55 27 75 28 56 29 59 30 74 31 94 32 57 33 58 34
REMARK SMILES IDX 73 36 95 37 60 38 43 39 44 40 53 41 45 42 46 43 52 44 54 45
REMARK SMILES IDX 47 46 48 47 49 48 50 49 51 50 77 51 78 52 87 53 79 54 80 55
REMARK SMILES IDX 86 56 88 57 81 58 82 59 83 60 84 61 85 62 61 63 62 64 71 65
REMARK SMILES IDX 63 66 64 67 70 68 72 69 65 70 66 71 67 72 68 73 69 74 6 75
REMARK SMILES IDX 7 76 8 77 9 78 10 80 11 81 12 82 16 83 13 84 15 85 14 86
REMARK SMILES IDX 17 87 18 88 19 89 20 91 21 92 32 93 22 94 24 95 33 96 23 97
REMARK SMILES IDX 25 98 26 99 30 100 27 101 29 102 31 103 28 104
REMARK H PARENT 3 6 93 24 59 35 8 79 19 90
REMARK Flexibility Score: inf
ROOT
ATOM      1  C   UNL A   1      33.759  30.272  26.993  1.00  0.00     0.023 C 
ENDROOT
BRANCH   1   2
ATOM      2  C   UNL A   1      35.029  29.830  27.691  1.00  0.00     0.116 C 
BRANCH   2   3
ATOM      3  N   UNL A   1      35.181  30.375  29.040  1.00  0.00    -0.352 N 
ATOM      4  O   UNL A   1      36.116  30.804  31.042  1.00  0.00    -0.269 OA
ATOM      5  C   UNL A   1      36.255  30.368  29.908  1.00  0.00     0.251 C 
ATOM      6  H   UNL A   1      34.378  30.824  29.390  1.00  0.00     0.163 HD
BRANCH   5   7
ATOM      7  C   UNL A   1      37.550  29.787  29.483  1.00  0.00     0.039 A 
ATOM      8  C   UNL A   1      38.365  29.139  30.402  1.00  0.00     0.014 A 
ATOM      9  C   UNL A   1      37.984  29.936  28.162  1.00  0.00     0.014 A 
ATOM     10  C   UNL A   1      39.697  28.919  30.097  1.00  0.00     0.010 A 
ATOM     11  C   UNL A   1      39.279  29.539  27.805  1.00  0.00     0.010 A 
ATOM     12  C   UNL A   1      40.171  29.085  28.787  1.00  0.00    -0.014 A 
BRANCH  12  13
ATOM     13  C   UNL A   1      41.588  28.731  28.495  1.00  0.00     0.031 A 
ATOM     14  C   UNL A   1      41.974  27.354  28.023  1.00  0.00     0.074 A 
ATOM     15  C   UNL A   1      42.521  29.703  28.578  1.00  0.00     0.049 A 
ATOM     16  N   UNL A   1      43.163  26.893  27.729  1.00  0.00    -0.248 NA
ATOM     17  C   UNL A   1      40.898  26.361  27.868  1.00  0.00     0.031 C 
ATOM     18  C   UNL A   1      42.263  31.080  29.013  1.00  0.00     0.029 A 
ATOM     19  N   UNL A   1      43.852  29.710  28.251  1.00  0.00    -0.354 N 
ATOM     20  C   UNL A   1      42.987  25.554  27.400  1.00  0.00     0.074 A 
ATOM     21  C   UNL A   1      41.576  25.270  27.534  1.00  0.00     0.031 C 
ATOM     22  C   UNL A   1      43.362  31.820  28.821  1.00  0.00     0.029 A 
ATOM     23  C   UNL A   1      44.438  30.950  28.366  1.00  0.00     0.049 A 
ATOM     24  H   UNL A   1      44.341  28.907  27.962  1.00  0.00     0.167 HD
ATOM     25  C   UNL A   1      43.922  24.649  27.021  1.00  0.00     0.037 A 
ATOM     26  C   UNL A   1      45.707  31.347  28.161  1.00  0.00     0.037 A 
ATOM     27  C   UNL A   1      45.319  24.957  26.852  1.00  0.00     0.049 A 
ATOM     28  C   UNL A   1      46.722  30.326  27.753  1.00  0.00     0.074 A 
ATOM     29  C   UNL A   1      46.347  24.113  26.468  1.00  0.00     0.029 A 
ATOM     30  N   UNL A   1      45.884  26.211  27.043  1.00  0.00    -0.354 N 
ATOM     31  N   UNL A   1      46.543  29.053  27.496  1.00  0.00    -0.248 NA
ATOM     32  C   UNL A   1      48.112  30.781  27.636  1.00  0.00     0.031 C 
ATOM     33  C   UNL A   1      47.537  24.847  26.459  1.00  0.00     0.029 A 
ATOM     34  C   UNL A   1      47.247  26.159  26.797  1.00  0.00     0.049 A 
ATOM     35  H   UNL A   1      45.390  27.018  27.312  1.00  0.00     0.167 HD
ATOM     36  C   UNL A   1      47.800  28.549  27.194  1.00  0.00     0.074 A 
ATOM     37  C   UNL A   1      48.726  29.661  27.274  1.00  0.00     0.031 C 
ATOM     38  C   UNL A   1      48.152  27.278  26.887  1.00  0.00     0.037 A 
BRANCH  25  39
ATOM     39  C   UNL A   1      43.478  23.230  26.785  1.00  0.00     0.058 A 
ATOM     40  C   UNL A   1      43.161  22.398  27.871  1.00  0.00     0.135 A 
ATOM     41  C   UNL A   1      43.422  22.674  25.498  1.00  0.00     0.135 A 
ATOM     42  F   UNL A   1      43.193  22.879  29.124  1.00  0.00    -0.206 F 
ATOM     43  C   UNL A   1      42.812  21.063  27.691  1.00  0.00     0.059 A 
ATOM     44  C   UNL A   1      43.054  21.345  25.292  1.00  0.00     0.059 A 
ATOM     45  F   UNL A   1      43.694  23.431  24.423  1.00  0.00    -0.206 F 
ATOM     46  C   UNL A   1      42.762  20.544  26.397  1.00  0.00     0.060 A 
BRANCH  46  47
ATOM     47  S   UNL A   1      42.256  18.825  26.172  1.00  0.00     0.124 S 
ATOM     48  O   UNL A   1      42.476  18.270  27.503  1.00  0.00    -0.237 OA
ATOM     49  O   UNL A   1      40.861  18.966  25.762  1.00  0.00    -0.237 OA
ATOM     50  O   UNL A   1      43.158  18.343  25.130  1.00  0.00    -0.744 OA
ENDBRANCH  46  47
ENDBRANCH  25  39
BRANCH  26  51
ATOM     51  C   UNL A   1      46.063  32.774  28.371  1.00  0.00     0.058 A 
ATOM     52  C   UNL A   1      46.025  33.693  27.308  1.00  0.00     0.135 A 
ATOM     53  C   UNL A   1      46.546  33.223  29.607  1.00  0.00     0.135 A 
ATOM     54  F   UNL A   1      45.583  33.307  26.100  1.00  0.00    -0.206 F 
ATOM     55  C   UNL A   1      46.502  34.990  27.449  1.00  0.00     0.059 A 
ATOM     56  C   UNL A   1      47.003  34.528  29.781  1.00  0.00     0.059 A 
ATOM     57  F   UNL A   1      46.591  32.385  30.654  1.00  0.00    -0.206 F 
ATOM     58  C   UNL A   1      47.003  35.393  28.687  1.00  0.00     0.060 A 
BRANCH  58  59
ATOM     59  S   UNL A   1      47.669  37.064  28.835  1.00  0.00     0.124 S 
ATOM     60  O   UNL A   1      49.082  36.838  28.554  1.00  0.00    -0.237 OA
ATOM     61  O   UNL A   1      46.922  37.786  27.810  1.00  0.00    -0.237 OA
ATOM     62  O   UNL A   1      47.353  37.430  30.213  1.00  0.00    -0.744 OA
ENDBRANCH  58  59
ENDBRANCH  26  51
BRANCH  38  63
ATOM     63  C   UNL A   1      49.603  27.018  26.609  1.00  0.00     0.058 A 
ATOM     64  C   UNL A   1      50.100  27.089  25.299  1.00  0.00     0.135 A 
ATOM     65  C   UNL A   1      50.483  26.629  27.631  1.00  0.00     0.135 A 
ATOM     66  F   UNL A   1      49.295  27.457  24.289  1.00  0.00    -0.206 F 
ATOM     67  C   UNL A   1      51.419  26.766  25.007  1.00  0.00     0.059 A 
ATOM     68  C   UNL A   1      51.814  26.321  27.364  1.00  0.00     0.059 A 
ATOM     69  F   UNL A   1      50.055  26.562  28.901  1.00  0.00    -0.206 F 
ATOM     70  C   UNL A   1      52.266  26.375  26.046  1.00  0.00     0.060 A 
BRANCH  70  71
ATOM     71  S   UNL A   1      53.977  25.960  25.650  1.00  0.00     0.124 S 
ATOM     72  O   UNL A   1      53.834  25.317  24.349  1.00  0.00    -0.237 OA
ATOM     73  O   UNL A   1      54.620  27.271  25.644  1.00  0.00    -0.237 OA
ATOM     74  O   UNL A   1      54.374  25.081  26.746  1.00  0.00    -0.744 OA
ENDBRANCH  70  71
ENDBRANCH  38  63
ENDBRANCH  12  13
ENDBRANCH   5   7
ENDBRANCH   2   3
ENDBRANCH   1   2
BRANCH   1  75
ATOM     75  C   UNL A   1      32.571  29.376  27.263  1.00  0.00     0.023 C 
BRANCH  75  76
ATOM     76  C   UNL A   1      32.802  27.873  27.164  1.00  0.00     0.116 C 
BRANCH  76  77
ATOM     77  N   UNL A   1      31.545  27.171  27.015  1.00  0.00    -0.356 N 
ATOM     78  C   UNL A   1      31.242  26.030  26.327  1.00  0.00     0.224 C 
ATOM     79  H   UNL A   1      30.784  27.581  27.488  1.00  0.00     0.163 HD
ATOM     80  O   UNL A   1      30.064  25.670  26.357  1.00  0.00    -0.275 OA
BRANCH  78  81
ATOM     81  C   UNL A   1      32.331  25.248  25.570  1.00  0.00     0.095 C 
ATOM     82  C   UNL A   1      33.058  24.285  26.536  1.00  0.00     0.041 C 
ATOM     83  C   UNL A   1      31.761  24.500  24.338  1.00  0.00     0.095 C 
ATOM     84  C   UNL A   1      32.398  22.947  26.694  1.00  0.00    -0.030 C 
ATOM     85  C   UNL A   1      30.893  23.309  24.743  1.00  0.00     0.041 C 
ATOM     86  C   UNL A   1      31.410  22.519  25.901  1.00  0.00    -0.030 C 
BRANCH  83  87
ATOM     87  C   UNL A   1      32.834  24.152  23.304  1.00  0.00     0.224 C 
ATOM     88  O   UNL A   1      33.280  23.004  23.216  1.00  0.00    -0.275 OA
ATOM     89  N   UNL A   1      33.404  25.080  22.484  1.00  0.00    -0.344 N 
ATOM     90  H   UNL A   1      34.107  24.679  21.923  1.00  0.00     0.164 HD
BRANCH  89  91
ATOM     91  C   UNL A   1      33.251  26.526  22.208  1.00  0.00     0.172 C 
ATOM     92  C   UNL A   1      34.147  27.447  23.015  1.00  0.00     0.037 C 
ATOM     93  C   UNL A   1      31.780  26.954  22.009  1.00  0.00     0.249 C 
ATOM     94  C   UNL A   1      33.599  28.854  23.114  1.00  0.00     0.025 C 
ATOM     95  N   UNL A   1      31.294  28.003  22.802  1.00  0.00    -0.308 N 
ATOM     96  O   UNL A   1      31.118  26.382  21.137  1.00  0.00    -0.272 OA
ATOM     97  C   UNL A   1      32.187  28.777  23.668  1.00  0.00     0.126 C 
BRANCH  95  98
ATOM     98  C   UNL A   1      29.878  28.250  22.893  1.00  0.00     0.080 A 
ATOM     99  C   UNL A   1      29.027  27.338  23.538  1.00  0.00     0.029 A 
ATOM    100  C   UNL A   1      29.280  29.389  22.319  1.00  0.00     0.146 A 
ATOM    101  C   UNL A   1      27.648  27.570  23.624  1.00  0.00     0.002 A 
ATOM    102  C   UNL A   1      27.909  29.625  22.409  1.00  0.00     0.041 A 
ATOM    103  F   UNL A   1      29.989  30.244  21.567  1.00  0.00    -0.205 F 
ATOM    104  C   UNL A   1      27.089  28.716  23.065  1.00  0.00     0.003 A 
ENDBRANCH  95  98
ENDBRANCH  89  91
ENDBRANCH  83  87
ENDBRANCH  78  81
ENDBRANCH  76  77
ENDBRANCH  75  76
ENDBRANCH   1  75
TORSDOF 17
ENDMDL
