MODEL 1
REMARK VINA RESULT:     -12.4      0.000      0.000
REMARK SMILES O=C(C[C@H]1C(=O)NCC[N@H+]1[C@H]1CCO[C@@]2(CCSC2)C1)NCCCCNC(=O)c1ccc(-c2c3nc(c(-c4c(F)cc(S(=O)(=O)[O-])cc4F)c4ccc([nH]4)c(-c4c(F)cc(S(=O)(=O)[O-])cc4F)c4nc(c(-c5c(F)cc(S(=O)(=O)[O-])cc5F)c5ccc2[nH]5)C=C4)C=C3)cc1
REMARK SMILES IDX 24 1 23 2 22 3 21 4 1 5 2 6 3 8 4 9 5 10 10 11 6 12 7 13
REMARK SMILES IDX 9 14 8 16 11 18 12 19 20 20 13 21 15 22 14 23 16 24 19 25
REMARK SMILES IDX 17 26 18 27 25 28 26 29 27 30 28 32 29 33 30 34 94 35 31 36
REMARK SMILES IDX 93 37 32 38 33 39 34 40 87 41 35 42 92 43 86 44 88 45 36 46
REMARK SMILES IDX 91 47 85 48 84 49 37 51 71 52 50 53 70 54 51 55 54 56 69 57
REMARK SMILES IDX 89 58 52 59 53 60 68 62 90 63 55 64 38 65 39 66 48 67 40 68
REMARK SMILES IDX 41 69 47 70 49 71 42 72 43 73 44 74 45 75 46 76 72 77 73 78
REMARK SMILES IDX 82 79 74 80 75 81 81 82 83 83 76 84 77 85 78 86 79 87 80 88
REMARK SMILES IDX 56 89 57 90 66 91 58 92 59 93 65 94 67 95 60 96 61 97 62 98
REMARK SMILES IDX 63 99 64 100
REMARK H PARENT 21 7 10 15 7 17 26 31 88 50 54 61
REMARK Flexibility Score: inf
ROOT
ATOM      1  C   UNL A   1      34.545  29.656  27.325  1.00  0.00     0.023 C 
ENDROOT
BRANCH   1   2
ATOM      2  C   UNL A   1      33.164  30.064  26.798  1.00  0.00     0.023 C 
BRANCH   2   3
ATOM      3  C   UNL A   1      32.032  29.062  27.028  1.00  0.00     0.116 C 
BRANCH   3   4
ATOM      4  N   UNL A   1      31.465  28.549  25.797  1.00  0.00    -0.356 N 
ATOM      5  O   UNL A   1      31.197  26.398  26.516  1.00  0.00    -0.275 OA
ATOM      6  C   UNL A   1      30.984  27.269  25.677  1.00  0.00     0.226 C 
ATOM      7  H   UNL A   1      31.423  29.143  25.013  1.00  0.00     0.163 HD
BRANCH   6   8
ATOM      8  C   UNL A   1      30.189  26.990  24.411  1.00  0.00     0.175 C 
BRANCH   8   9
ATOM      9  C   UNL A   1      31.017  26.957  23.108  1.00  0.00     0.283 C 
ATOM     10  C   UNL A   1      30.861  28.360  22.470  1.00  0.00     0.279 C 
ATOM     11  N   UNL A   1      32.409  26.428  23.085  1.00  0.00    -0.320 N 
ATOM     12  O   UNL A   1      29.768  28.787  22.096  1.00  0.00    -0.268 OA
ATOM     13  N   UNL A   1      31.945  29.184  22.426  1.00  0.00    -0.345 N 
ATOM     14  C   UNL A   1      33.500  27.397  23.193  1.00  0.00     0.284 C 
ATOM     15  H   UNL A   1      32.341  26.193  22.095  1.00  0.00     0.349 HD
ATOM     16  C   UNL A   1      33.290  28.681  22.388  1.00  0.00     0.177 C 
ATOM     17  H   UNL A   1      31.802  30.159  22.421  1.00  0.00     0.163 HD
BRANCH  11  18
ATOM     18  C   UNL A   1      32.731  25.076  23.589  1.00  0.00     0.189 C 
ATOM     19  C   UNL A   1      31.760  23.967  23.153  1.00  0.00     0.093 C 
ATOM     20  C   UNL A   1      34.204  24.673  23.378  1.00  0.00     0.101 C 
ATOM     21  C   UNL A   1      32.215  22.569  23.533  1.00  0.00     0.167 C 
ATOM     22  C   UNL A   1      34.491  23.233  23.862  1.00  0.00     0.084 C 
ATOM     23  O   UNL A   1      33.577  22.356  23.181  1.00  0.00    -0.374 OA
ATOM     24  C   UNL A   1      35.905  22.777  23.463  1.00  0.00     0.047 C 
ATOM     25  C   UNL A   1      34.428  23.023  25.390  1.00  0.00     0.105 C 
ATOM     26  C   UNL A   1      36.906  23.351  24.447  1.00  0.00     0.072 C 
ATOM     27  S   UNL A   1      36.092  23.286  26.054  1.00  0.00    -0.159 SA
ENDBRANCH  11  18
ENDBRANCH   8   9
ENDBRANCH   6   8
ENDBRANCH   3   4
ENDBRANCH   2   3
ENDBRANCH   1   2
BRANCH   1  28
ATOM     28  C   UNL A   1      35.378  30.765  27.966  1.00  0.00     0.116 C 
BRANCH  28  29
ATOM     29  N   UNL A   1      35.327  30.744  29.416  1.00  0.00    -0.352 N 
ATOM     30  C   UNL A   1      36.289  30.398  30.337  1.00  0.00     0.251 C 
ATOM     31  H   UNL A   1      34.466  31.021  29.803  1.00  0.00     0.163 HD
ATOM     32  O   UNL A   1      35.973  30.308  31.521  1.00  0.00    -0.269 OA
BRANCH  30  33
ATOM     33  C   UNL A   1      37.684  30.109  29.925  1.00  0.00     0.039 A 
ATOM     34  C   UNL A   1      38.644  29.899  30.921  1.00  0.00     0.014 A 
ATOM     35  C   UNL A   1      38.071  30.084  28.582  1.00  0.00     0.014 A 
ATOM     36  C   UNL A   1      39.966  29.598  30.573  1.00  0.00     0.010 A 
ATOM     37  C   UNL A   1      39.374  29.718  28.234  1.00  0.00     0.010 A 
ATOM     38  C   UNL A   1      40.336  29.466  29.225  1.00  0.00    -0.014 A 
BRANCH  38  39
ATOM     39  C   UNL A   1      41.714  29.050  28.842  1.00  0.00     0.031 A 
ATOM     40  C   UNL A   1      42.834  30.057  28.790  1.00  0.00     0.074 A 
ATOM     41  C   UNL A   1      41.949  27.772  28.482  1.00  0.00     0.049 A 
ATOM     42  N   UNL A   1      44.076  29.892  28.407  1.00  0.00    -0.248 NA
ATOM     43  C   UNL A   1      42.511  31.432  29.198  1.00  0.00     0.031 C 
ATOM     44  C   UNL A   1      40.946  26.705  28.450  1.00  0.00     0.029 A 
ATOM     45  N   UNL A   1      43.101  27.152  28.061  1.00  0.00    -0.354 N 
ATOM     46  C   UNL A   1      44.679  31.140  28.522  1.00  0.00     0.074 A 
ATOM     47  C   UNL A   1      43.652  32.063  28.957  1.00  0.00     0.031 C 
ATOM     48  C   UNL A   1      41.528  25.564  28.048  1.00  0.00     0.029 A 
ATOM     49  C   UNL A   1      42.934  25.822  27.753  1.00  0.00     0.049 A 
ATOM     50  H   UNL A   1      43.966  27.617  27.987  1.00  0.00     0.167 HD
ATOM     51  C   UNL A   1      45.974  31.482  28.307  1.00  0.00     0.037 A 
ATOM     52  C   UNL A   1      43.806  24.913  27.273  1.00  0.00     0.037 A 
ATOM     53  C   UNL A   1      46.998  30.558  27.889  1.00  0.00     0.049 A 
ATOM     54  C   UNL A   1      45.234  25.319  27.027  1.00  0.00     0.074 A 
ATOM     55  C   UNL A   1      48.346  30.802  27.689  1.00  0.00     0.029 A 
ATOM     56  N   UNL A   1      46.791  29.216  27.604  1.00  0.00    -0.354 N 
ATOM     57  N   UNL A   1      45.797  26.492  27.194  1.00  0.00    -0.248 NA
ATOM     58  C   UNL A   1      46.148  24.279  26.534  1.00  0.00     0.031 C 
ATOM     59  C   UNL A   1      48.945  29.621  27.238  1.00  0.00     0.029 A 
ATOM     60  C   UNL A   1      47.981  28.626  27.210  1.00  0.00     0.049 A 
ATOM     61  H   UNL A   1      45.925  28.752  27.672  1.00  0.00     0.167 HD
ATOM     62  C   UNL A   1      47.136  26.323  26.853  1.00  0.00     0.074 A 
ATOM     63  C   UNL A   1      47.300  24.932  26.484  1.00  0.00     0.031 C 
ATOM     64  C   UNL A   1      48.137  27.238  26.850  1.00  0.00     0.037 A 
BRANCH  51  65
ATOM     65  C   UNL A   1      46.361  32.921  28.523  1.00  0.00     0.058 A 
ATOM     66  C   UNL A   1      46.302  33.864  27.483  1.00  0.00     0.135 A 
ATOM     67  C   UNL A   1      46.754  33.374  29.792  1.00  0.00     0.135 A 
ATOM     68  F   UNL A   1      45.945  33.486  26.245  1.00  0.00    -0.206 F 
ATOM     69  C   UNL A   1      46.651  35.196  27.687  1.00  0.00     0.059 A 
ATOM     70  C   UNL A   1      47.078  34.708  30.027  1.00  0.00     0.059 A 
ATOM     71  F   UNL A   1      46.826  32.518  30.824  1.00  0.00    -0.206 F 
ATOM     72  C   UNL A   1      47.039  35.607  28.962  1.00  0.00     0.060 A 
BRANCH  72  73
ATOM     73  S   UNL A   1      47.491  37.338  29.207  1.00  0.00     0.124 S 
ATOM     74  O   UNL A   1      48.047  37.680  27.901  1.00  0.00    -0.237 OA
ATOM     75  O   UNL A   1      46.207  37.953  29.530  1.00  0.00    -0.237 OA
ATOM     76  O   UNL A   1      48.453  37.288  30.303  1.00  0.00    -0.744 OA
ENDBRANCH  72  73
ENDBRANCH  51  65
BRANCH  52  77
ATOM     77  C   UNL A   1      43.353  23.522  27.003  1.00  0.00     0.058 A 
ATOM     78  C   UNL A   1      43.125  23.075  25.692  1.00  0.00     0.135 A 
ATOM     79  C   UNL A   1      43.150  22.606  28.048  1.00  0.00     0.135 A 
ATOM     80  F   UNL A   1      43.297  23.914  24.659  1.00  0.00    -0.206 F 
ATOM     81  C   UNL A   1      42.697  21.778  25.427  1.00  0.00     0.059 A 
ATOM     82  C   UNL A   1      42.750  21.296  27.806  1.00  0.00     0.059 A 
ATOM     83  F   UNL A   1      43.372  22.977  29.318  1.00  0.00    -0.206 F 
ATOM     84  C   UNL A   1      42.516  20.895  26.492  1.00  0.00     0.060 A 
BRANCH  84  85
ATOM     85  S   UNL A   1      42.012  19.198  26.134  1.00  0.00     0.124 S 
ATOM     86  O   UNL A   1      40.589  19.364  25.861  1.00  0.00    -0.237 OA
ATOM     87  O   UNL A   1      42.850  18.867  24.986  1.00  0.00    -0.237 OA
ATOM     88  O   UNL A   1      42.341  18.485  27.366  1.00  0.00    -0.744 OA
ENDBRANCH  84  85
ENDBRANCH  52  77
BRANCH  64  89
ATOM     89  C   UNL A   1      49.513  26.762  26.468  1.00  0.00     0.058 A 
ATOM     90  C   UNL A   1      50.384  26.183  27.404  1.00  0.00     0.135 A 
ATOM     91  C   UNL A   1      49.946  26.842  25.134  1.00  0.00     0.135 A 
ATOM     92  F   UNL A   1      50.024  26.089  28.694  1.00  0.00    -0.206 F 
ATOM     93  C   UNL A   1      51.644  25.721  27.037  1.00  0.00     0.059 A 
ATOM     94  C   UNL A   1      51.189  26.359  24.738  1.00  0.00     0.059 A 
ATOM     95  F   UNL A   1      49.150  27.378  24.195  1.00  0.00    -0.206 F 
ATOM     96  C   UNL A   1      52.037  25.811  25.699  1.00  0.00     0.060 A 
BRANCH  96  97
ATOM     97  S   UNL A   1      53.660  25.175  25.229  1.00  0.00     0.124 S 
ATOM     98  O   UNL A   1      53.442  23.734  25.296  1.00  0.00    -0.237 OA
ATOM     99  O   UNL A   1      53.836  25.728  23.890  1.00  0.00    -0.237 OA
ATOM    100  O   UNL A   1      54.549  25.723  26.249  1.00  0.00    -0.744 OA
ENDBRANCH  96  97
ENDBRANCH  64  89
ENDBRANCH  38  39
ENDBRANCH  30  33
ENDBRANCH  28  29
ENDBRANCH   1  28
TORSDOF 16
ENDMDL
MODEL 2
REMARK VINA RESULT:     -12.3      6.479     11.926
REMARK SMILES O=C(C[C@H]1C(=O)NCC[N@H+]1[C@H]1CCO[C@@]2(CCSC2)C1)NCCCCNC(=O)c1ccc(-c2c3nc(c(-c4c(F)cc(S(=O)(=O)[O-])cc4F)c4ccc([nH]4)c(-c4c(F)cc(S(=O)(=O)[O-])cc4F)c4nc(c(-c5c(F)cc(S(=O)(=O)[O-])cc5F)c5ccc2[nH]5)C=C4)C=C3)cc1
REMARK SMILES IDX 24 1 23 2 22 3 21 4 1 5 2 6 3 8 4 9 5 10 10 11 6 12 7 13
REMARK SMILES IDX 9 14 8 16 11 18 12 19 20 20 13 21 15 22 14 23 16 24 19 25
REMARK SMILES IDX 17 26 18 27 25 28 26 29 27 30 28 32 29 33 30 34 94 35 31 36
REMARK SMILES IDX 93 37 32 38 33 39 34 40 87 41 35 42 92 43 86 44 88 45 36 46
REMARK SMILES IDX 91 47 85 48 84 49 37 51 71 52 50 53 70 54 51 55 54 56 69 57
REMARK SMILES IDX 89 58 52 59 53 60 68 62 90 63 55 64 38 65 39 66 48 67 40 68
REMARK SMILES IDX 41 69 47 70 49 71 42 72 43 73 44 74 45 75 46 76 72 77 73 78
REMARK SMILES IDX 82 79 74 80 75 81 81 82 83 83 76 84 77 85 78 86 79 87 80 88
REMARK SMILES IDX 56 89 57 90 66 91 58 92 59 93 65 94 67 95 60 96 61 97 62 98
REMARK SMILES IDX 63 99 64 100
REMARK H PARENT 21 7 10 15 7 17 26 31 88 50 54 61
REMARK Flexibility Score: inf
ROOT
ATOM      1  C   UNL A   1      40.054  22.160  27.036  1.00  0.00     0.023 C 
ENDROOT
BRANCH   1   2
ATOM      2  C   UNL A   1      39.013  22.860  26.155  1.00  0.00     0.023 C 
BRANCH   2   3
ATOM      3  C   UNL A   1      37.791  22.029  25.764  1.00  0.00     0.116 C 
BRANCH   3   4
ATOM      4  N   UNL A   1      36.574  22.459  26.422  1.00  0.00    -0.356 N 
ATOM      5  O   UNL A   1      35.898  23.905  24.789  1.00  0.00    -0.275 OA
ATOM      6  C   UNL A   1      35.658  23.289  25.823  1.00  0.00     0.226 C 
ATOM      7  H   UNL A   1      36.396  22.145  27.338  1.00  0.00     0.163 HD
BRANCH   6   8
ATOM      8  C   UNL A   1      34.328  23.418  26.548  1.00  0.00     0.175 C 
BRANCH   8   9
ATOM      9  C   UNL A   1      33.081  23.430  25.638  1.00  0.00     0.283 C 
ATOM     10  C   UNL A   1      32.281  22.153  25.997  1.00  0.00     0.279 C 
ATOM     11  N   UNL A   1      32.242  24.652  25.484  1.00  0.00    -0.320 N 
ATOM     12  O   UNL A   1      32.743  21.025  25.822  1.00  0.00    -0.268 OA
ATOM     13  N   UNL A   1      31.079  22.287  26.626  1.00  0.00    -0.345 N 
ATOM     14  C   UNL A   1      31.047  24.758  26.321  1.00  0.00     0.284 C 
ATOM     15  H   UNL A   1      31.915  24.354  24.566  1.00  0.00     0.349 HD
ATOM     16  C   UNL A   1      30.259  23.455  26.470  1.00  0.00     0.177 C 
ATOM     17  H   UNL A   1      30.763  21.558  27.207  1.00  0.00     0.163 HD
BRANCH  11  18
ATOM     18  C   UNL A   1      32.830  25.946  25.078  1.00  0.00     0.189 C 
ATOM     19  C   UNL A   1      33.198  26.058  23.589  1.00  0.00     0.093 C 
ATOM     20  C   UNL A   1      32.030  27.168  25.571  1.00  0.00     0.101 C 
ATOM     21  C   UNL A   1      33.627  27.453  23.167  1.00  0.00     0.167 C 
ATOM     22  C   UNL A   1      32.638  28.502  25.078  1.00  0.00     0.084 C 
ATOM     23  O   UNL A   1      32.717  28.438  23.643  1.00  0.00    -0.374 OA
ATOM     24  C   UNL A   1      31.722  29.693  25.407  1.00  0.00     0.047 C 
ATOM     25  C   UNL A   1      34.004  28.875  25.693  1.00  0.00     0.105 C 
ATOM     26  C   UNL A   1      31.927  30.089  26.857  1.00  0.00     0.072 C 
ATOM     27  S   UNL A   1      33.690  29.879  27.168  1.00  0.00    -0.159 SA
ENDBRANCH  11  18
ENDBRANCH   8   9
ENDBRANCH   6   8
ENDBRANCH   3   4
ENDBRANCH   2   3
ENDBRANCH   1   2
BRANCH   1  28
ATOM     28  C   UNL A   1      41.345  22.933  27.302  1.00  0.00     0.116 C 
BRANCH  28  29
ATOM     29  N   UNL A   1      41.726  23.794  26.197  1.00  0.00    -0.352 N 
ATOM     30  C   UNL A   1      41.802  25.165  26.120  1.00  0.00     0.251 C 
ATOM     31  H   UNL A   1      41.968  23.319  25.370  1.00  0.00     0.163 HD
ATOM     32  O   UNL A   1      42.003  25.689  25.028  1.00  0.00    -0.269 OA
BRANCH  30  33
ATOM     33  C   UNL A   1      41.621  26.017  27.321  1.00  0.00     0.039 A 
ATOM     34  C   UNL A   1      42.637  26.917  27.660  1.00  0.00     0.014 A 
ATOM     35  C   UNL A   1      40.493  25.915  28.140  1.00  0.00     0.014 A 
ATOM     36  C   UNL A   1      42.493  27.756  28.771  1.00  0.00     0.010 A 
ATOM     37  C   UNL A   1      40.319  26.799  29.208  1.00  0.00     0.010 A 
ATOM     38  C   UNL A   1      41.315  27.733  29.534  1.00  0.00    -0.014 A 
BRANCH  38  39
ATOM     39  C   UNL A   1      41.107  28.688  30.659  1.00  0.00     0.031 A 
ATOM     40  C   UNL A   1      41.936  28.591  31.913  1.00  0.00     0.074 A 
ATOM     41  C   UNL A   1      40.127  29.611  30.576  1.00  0.00     0.049 A 
ATOM     42  N   UNL A   1      41.845  29.285  33.019  1.00  0.00    -0.248 NA
ATOM     43  C   UNL A   1      42.989  27.565  31.935  1.00  0.00     0.031 C 
ATOM     44  C   UNL A   1      39.225  29.787  29.436  1.00  0.00     0.029 A 
ATOM     45  N   UNL A   1      39.714  30.567  31.472  1.00  0.00    -0.354 N 
ATOM     46  C   UNL A   1      42.821  28.778  33.870  1.00  0.00     0.074 A 
ATOM     47  C   UNL A   1      43.455  27.680  33.171  1.00  0.00     0.031 C 
ATOM     48  C   UNL A   1      38.379  30.797  29.694  1.00  0.00     0.029 A 
ATOM     49  C   UNL A   1      38.646  31.315  31.032  1.00  0.00     0.049 A 
ATOM     50  H   UNL A   1      40.143  30.705  32.348  1.00  0.00     0.167 HD
ATOM     51  C   UNL A   1      43.172  29.200  35.110  1.00  0.00     0.037 A 
ATOM     52  C   UNL A   1      37.948  32.296  31.638  1.00  0.00     0.037 A 
ATOM     53  C   UNL A   1      42.550  30.304  35.797  1.00  0.00     0.049 A 
ATOM     54  C   UNL A   1      38.346  32.738  33.020  1.00  0.00     0.074 A 
ATOM     55  C   UNL A   1      42.867  30.834  37.036  1.00  0.00     0.029 A 
ATOM     56  N   UNL A   1      41.483  31.045  35.309  1.00  0.00    -0.354 N 
ATOM     57  N   UNL A   1      39.308  32.281  33.787  1.00  0.00    -0.248 NA
ATOM     58  C   UNL A   1      37.570  33.833  33.620  1.00  0.00     0.031 C 
ATOM     59  C   UNL A   1      41.963  31.864  37.318  1.00  0.00     0.029 A 
ATOM     60  C   UNL A   1      41.117  32.013  36.232  1.00  0.00     0.049 A 
ATOM     61  H   UNL A   1      41.050  30.904  34.437  1.00  0.00     0.167 HD
ATOM     62  C   UNL A   1      39.269  33.051  34.946  1.00  0.00     0.074 A 
ATOM     63  C   UNL A   1      38.199  34.010  34.773  1.00  0.00     0.031 C 
ATOM     64  C   UNL A   1      40.053  32.969  36.049  1.00  0.00     0.037 A 
BRANCH  51  65
ATOM     65  C   UNL A   1      44.287  28.468  35.808  1.00  0.00     0.058 A 
ATOM     66  C   UNL A   1      44.034  27.380  36.659  1.00  0.00     0.135 A 
ATOM     67  C   UNL A   1      45.627  28.829  35.591  1.00  0.00     0.135 A 
ATOM     68  F   UNL A   1      42.772  26.997  36.913  1.00  0.00    -0.206 F 
ATOM     69  C   UNL A   1      45.067  26.697  37.295  1.00  0.00     0.059 A 
ATOM     70  C   UNL A   1      46.678  28.141  36.192  1.00  0.00     0.059 A 
ATOM     71  F   UNL A   1      45.928  29.859  34.785  1.00  0.00    -0.206 F 
ATOM     72  C   UNL A   1      46.385  27.087  37.056  1.00  0.00     0.060 A 
BRANCH  72  73
ATOM     73  S   UNL A   1      47.712  26.192  37.893  1.00  0.00     0.124 S 
ATOM     74  O   UNL A   1      48.796  26.307  36.921  1.00  0.00    -0.237 OA
ATOM     75  O   UNL A   1      47.879  26.959  39.123  1.00  0.00    -0.237 OA
ATOM     76  O   UNL A   1      47.164  24.851  38.063  1.00  0.00    -0.744 OA
ENDBRANCH  72  73
ENDBRANCH  51  65
BRANCH  52  77
ATOM     77  C   UNL A   1      36.803  32.935  30.935  1.00  0.00     0.058 A 
ATOM     78  C   UNL A   1      35.479  32.574  31.226  1.00  0.00     0.135 A 
ATOM     79  C   UNL A   1      37.010  33.929  29.964  1.00  0.00     0.135 A 
ATOM     80  F   UNL A   1      35.230  31.624  32.140  1.00  0.00    -0.206 F 
ATOM     81  C   UNL A   1      34.401  33.162  30.572  1.00  0.00     0.059 A 
ATOM     82  C   UNL A   1      35.947  34.552  29.317  1.00  0.00     0.059 A 
ATOM     83  F   UNL A   1      38.256  34.325  29.662  1.00  0.00    -0.206 F 
ATOM     84  C   UNL A   1      34.647  34.153  29.621  1.00  0.00     0.060 A 
BRANCH  84  85
ATOM     85  S   UNL A   1      33.239  34.948  28.816  1.00  0.00     0.124 S 
ATOM     86  O   UNL A   1      32.367  35.222  29.952  1.00  0.00    -0.237 OA
ATOM     87  O   UNL A   1      33.861  36.111  28.191  1.00  0.00    -0.237 OA
ATOM     88  O   UNL A   1      32.765  33.927  27.886  1.00  0.00    -0.744 OA
ENDBRANCH  84  85
ENDBRANCH  52  77
BRANCH  64  89
ATOM     89  C   UNL A   1      39.810  33.967  37.150  1.00  0.00     0.058 A 
ATOM     90  C   UNL A   1      38.927  33.701  38.210  1.00  0.00     0.135 A 
ATOM     91  C   UNL A   1      40.508  35.185  37.171  1.00  0.00     0.135 A 
ATOM     92  F   UNL A   1      38.229  32.555  38.236  1.00  0.00    -0.206 F 
ATOM     93  C   UNL A   1      38.729  34.617  39.238  1.00  0.00     0.059 A 
ATOM     94  C   UNL A   1      40.349  36.103  38.204  1.00  0.00     0.059 A 
ATOM     95  F   UNL A   1      41.371  35.487  36.188  1.00  0.00    -0.206 F 
ATOM     96  C   UNL A   1      39.447  35.815  39.228  1.00  0.00     0.060 A 
BRANCH  96  97
ATOM     97  S   UNL A   1      39.207  36.979  40.587  1.00  0.00     0.124 S 
ATOM     98  O   UNL A   1      38.247  37.914  40.008  1.00  0.00    -0.237 OA
ATOM     99  O   UNL A   1      38.692  36.119  41.648  1.00  0.00    -0.237 OA
ATOM    100  O   UNL A   1      40.545  37.515  40.818  1.00  0.00    -0.744 OA
ENDBRANCH  96  97
ENDBRANCH  64  89
ENDBRANCH  38  39
ENDBRANCH  30  33
ENDBRANCH  28  29
ENDBRANCH   1  28
TORSDOF 16
ENDMDL
MODEL 3
REMARK VINA RESULT:     -12.2      1.160      1.802
REMARK SMILES O=C(C[C@H]1C(=O)NCC[N@H+]1[C@H]1CCO[C@@]2(CCSC2)C1)NCCCCNC(=O)c1ccc(-c2c3nc(c(-c4c(F)cc(S(=O)(=O)[O-])cc4F)c4ccc([nH]4)c(-c4c(F)cc(S(=O)(=O)[O-])cc4F)c4nc(c(-c5c(F)cc(S(=O)(=O)[O-])cc5F)c5ccc2[nH]5)C=C4)C=C3)cc1
REMARK SMILES IDX 24 1 23 2 22 3 21 4 1 5 2 6 3 8 4 9 5 10 10 11 6 12 7 13
REMARK SMILES IDX 9 14 8 16 11 18 12 19 20 20 13 21 15 22 14 23 16 24 19 25
REMARK SMILES IDX 17 26 18 27 25 28 26 29 27 30 28 32 29 33 30 34 94 35 31 36
REMARK SMILES IDX 93 37 32 38 33 39 34 40 87 41 35 42 92 43 86 44 88 45 36 46
REMARK SMILES IDX 91 47 85 48 84 49 37 51 71 52 50 53 70 54 51 55 54 56 69 57
REMARK SMILES IDX 89 58 52 59 53 60 68 62 90 63 55 64 38 65 39 66 48 67 40 68
REMARK SMILES IDX 41 69 47 70 49 71 42 72 43 73 44 74 45 75 46 76 72 77 73 78
REMARK SMILES IDX 82 79 74 80 75 81 81 82 83 83 76 84 77 85 78 86 79 87 80 88
REMARK SMILES IDX 56 89 57 90 66 91 58 92 59 93 65 94 67 95 60 96 61 97 62 98
REMARK SMILES IDX 63 99 64 100
REMARK H PARENT 21 7 10 15 7 17 26 31 88 50 54 61
REMARK Flexibility Score: inf
ROOT
ATOM      1  C   UNL A   1      35.790  33.102  28.078  1.00  0.00     0.023 C 
ENDROOT
BRANCH   1   2
ATOM      2  C   UNL A   1      34.518  32.249  28.138  1.00  0.00     0.023 C 
BRANCH   2   3
ATOM      3  C   UNL A   1      34.642  30.815  27.623  1.00  0.00     0.116 C 
BRANCH   3   4
ATOM      4  N   UNL A   1      33.377  30.247  27.202  1.00  0.00    -0.356 N 
ATOM      5  O   UNL A   1      34.169  28.150  26.767  1.00  0.00    -0.275 OA
ATOM      6  C   UNL A   1      33.220  28.915  26.910  1.00  0.00     0.226 C 
ATOM      7  H   UNL A   1      32.597  30.843  27.119  1.00  0.00     0.163 HD
BRANCH   6   8
ATOM      8  C   UNL A   1      31.781  28.452  26.747  1.00  0.00     0.175 C 
BRANCH   8   9
ATOM      9  C   UNL A   1      31.401  27.969  25.331  1.00  0.00     0.283 C 
ATOM     10  C   UNL A   1      31.434  29.228  24.430  1.00  0.00     0.279 C 
ATOM     11  N   UNL A   1      32.037  26.767  24.723  1.00  0.00    -0.320 N 
ATOM     12  O   UNL A   1      30.675  30.180  24.613  1.00  0.00    -0.268 OA
ATOM     13  N   UNL A   1      32.407  29.329  23.480  1.00  0.00    -0.345 N 
ATOM     14  C   UNL A   1      33.173  26.985  23.828  1.00  0.00     0.284 C 
ATOM     15  H   UNL A   1      31.232  26.603  24.118  1.00  0.00     0.349 HD
ATOM     16  C   UNL A   1      33.013  28.174  22.879  1.00  0.00     0.177 C 
ATOM     17  H   UNL A   1      32.704  30.224  23.197  1.00  0.00     0.163 HD
BRANCH  11  18
ATOM     18  C   UNL A   1      32.036  25.459  25.414  1.00  0.00     0.189 C 
ATOM     19  C   UNL A   1      30.674  25.014  25.970  1.00  0.00     0.093 C 
ATOM     20  C   UNL A   1      32.730  24.339  24.614  1.00  0.00     0.101 C 
ATOM     21  C   UNL A   1      30.666  23.595  26.510  1.00  0.00     0.167 C 
ATOM     22  C   UNL A   1      32.659  22.975  25.338  1.00  0.00     0.084 C 
ATOM     23  O   UNL A   1      31.272  22.691  25.593  1.00  0.00    -0.374 OA
ATOM     24  C   UNL A   1      33.174  21.835  24.441  1.00  0.00     0.047 C 
ATOM     25  C   UNL A   1      33.495  22.865  26.631  1.00  0.00     0.105 C 
ATOM     26  C   UNL A   1      34.690  21.822  24.481  1.00  0.00     0.072 C 
ATOM     27  S   UNL A   1      35.131  22.233  26.180  1.00  0.00    -0.159 SA
ENDBRANCH  11  18
ENDBRANCH   8   9
ENDBRANCH   6   8
ENDBRANCH   3   4
ENDBRANCH   2   3
ENDBRANCH   1   2
BRANCH   1  28
ATOM     28  C   UNL A   1      36.605  33.192  29.367  1.00  0.00     0.116 C 
BRANCH  28  29
ATOM     29  N   UNL A   1      36.099  32.327  30.418  1.00  0.00    -0.352 N 
ATOM     30  C   UNL A   1      36.585  31.136  30.903  1.00  0.00     0.251 C 
ATOM     31  H   UNL A   1      35.275  32.645  30.852  1.00  0.00     0.163 HD
ATOM     32  O   UNL A   1      35.903  30.496  31.699  1.00  0.00    -0.269 OA
BRANCH  30  33
ATOM     33  C   UNL A   1      37.898  30.601  30.465  1.00  0.00     0.039 A 
ATOM     34  C   UNL A   1      38.118  30.412  29.097  1.00  0.00     0.014 A 
ATOM     35  C   UNL A   1      38.894  30.244  31.378  1.00  0.00     0.014 A 
ATOM     36  C   UNL A   1      39.352  29.934  28.642  1.00  0.00     0.010 A 
ATOM     37  C   UNL A   1      40.148  29.831  30.921  1.00  0.00     0.010 A 
ATOM     38  C   UNL A   1      40.394  29.675  29.547  1.00  0.00    -0.014 A 
BRANCH  38  39
ATOM     39  C   UNL A   1      41.744  29.260  29.070  1.00  0.00     0.031 A 
ATOM     40  C   UNL A   1      42.861  30.264  28.957  1.00  0.00     0.074 A 
ATOM     41  C   UNL A   1      41.950  27.985  28.681  1.00  0.00     0.049 A 
ATOM     42  N   UNL A   1      44.074  30.101  28.492  1.00  0.00    -0.248 NA
ATOM     43  C   UNL A   1      42.569  31.636  29.401  1.00  0.00     0.031 C 
ATOM     44  C   UNL A   1      40.944  26.921  28.702  1.00  0.00     0.029 A 
ATOM     45  N   UNL A   1      43.070  27.368  28.179  1.00  0.00    -0.354 N 
ATOM     46  C   UNL A   1      44.688  31.346  28.581  1.00  0.00     0.074 A 
ATOM     47  C   UNL A   1      43.694  32.266  29.093  1.00  0.00     0.031 C 
ATOM     48  C   UNL A   1      41.495  25.784  28.251  1.00  0.00     0.029 A 
ATOM     49  C   UNL A   1      42.879  26.042  27.867  1.00  0.00     0.049 A 
ATOM     50  H   UNL A   1      43.930  27.832  28.054  1.00  0.00     0.167 HD
ATOM     51  C   UNL A   1      45.966  31.687  28.286  1.00  0.00     0.037 A 
ATOM     52  C   UNL A   1      43.715  25.136  27.322  1.00  0.00     0.037 A 
ATOM     53  C   UNL A   1      46.958  30.766  27.792  1.00  0.00     0.049 A 
ATOM     54  C   UNL A   1      45.125  25.541  26.987  1.00  0.00     0.074 A 
ATOM     55  C   UNL A   1      48.291  31.009  27.507  1.00  0.00     0.029 A 
ATOM     56  N   UNL A   1      46.729  29.428  27.506  1.00  0.00    -0.354 N 
ATOM     57  N   UNL A   1      45.702  26.711  27.130  1.00  0.00    -0.248 NA
ATOM     58  C   UNL A   1      46.002  24.505  26.424  1.00  0.00     0.031 C 
ATOM     59  C   UNL A   1      48.855  29.831  27.005  1.00  0.00     0.029 A 
ATOM     60  C   UNL A   1      47.889  28.839  27.028  1.00  0.00     0.049 A 
ATOM     61  H   UNL A   1      45.868  28.965  27.625  1.00  0.00     0.167 HD
ATOM     62  C   UNL A   1      47.015  26.542  26.701  1.00  0.00     0.074 A 
ATOM     63  C   UNL A   1      47.150  25.156  26.306  1.00  0.00     0.031 C 
ATOM     64  C   UNL A   1      48.017  27.455  26.643  1.00  0.00     0.037 A 
BRANCH  51  65
ATOM     65  C   UNL A   1      46.372  33.123  28.493  1.00  0.00     0.058 A 
ATOM     66  C   UNL A   1      46.906  33.569  29.713  1.00  0.00     0.135 A 
ATOM     67  C   UNL A   1      46.266  34.055  27.447  1.00  0.00     0.135 A 
ATOM     68  F   UNL A   1      47.019  32.725  30.752  1.00  0.00    -0.206 F 
ATOM     69  C   UNL A   1      47.289  34.894  29.899  1.00  0.00     0.059 A 
ATOM     70  C   UNL A   1      46.672  35.378  27.601  1.00  0.00     0.059 A 
ATOM     71  F   UNL A   1      45.766  33.684  26.258  1.00  0.00    -0.206 F 
ATOM     72  C   UNL A   1      47.167  35.791  28.838  1.00  0.00     0.060 A 
BRANCH  72  73
ATOM     73  S   UNL A   1      47.667  37.506  29.098  1.00  0.00     0.124 S 
ATOM     74  O   UNL A   1      46.582  38.227  28.438  1.00  0.00    -0.237 OA
ATOM     75  O   UNL A   1      47.699  37.604  30.554  1.00  0.00    -0.237 OA
ATOM     76  O   UNL A   1      48.965  37.587  28.438  1.00  0.00    -0.744 OA
ENDBRANCH  72  73
ENDBRANCH  51  65
BRANCH  52  77
ATOM     77  C   UNL A   1      43.241  23.749  27.065  1.00  0.00     0.058 A 
ATOM     78  C   UNL A   1      42.899  23.327  25.771  1.00  0.00     0.135 A 
ATOM     79  C   UNL A   1      43.132  22.814  28.107  1.00  0.00     0.135 A 
ATOM     80  F   UNL A   1      42.979  24.185  24.744  1.00  0.00    -0.206 F 
ATOM     81  C   UNL A   1      42.451  22.034  25.520  1.00  0.00     0.059 A 
ATOM     82  C   UNL A   1      42.712  21.507  27.876  1.00  0.00     0.059 A 
ATOM     83  F   UNL A   1      43.464  23.161  29.359  1.00  0.00    -0.206 F 
ATOM     84  C   UNL A   1      42.364  21.131  26.580  1.00  0.00     0.060 A 
BRANCH  84  85
ATOM     85  S   UNL A   1      41.832  19.440  26.236  1.00  0.00     0.124 S 
ATOM     86  O   UNL A   1      40.389  19.605  26.109  1.00  0.00    -0.237 OA
ATOM     87  O   UNL A   1      42.553  19.138  25.002  1.00  0.00    -0.237 OA
ATOM     88  O   UNL A   1      42.283  18.700  27.412  1.00  0.00    -0.744 OA
ENDBRANCH  84  85
ENDBRANCH  52  77
BRANCH  64  89
ATOM     89  C   UNL A   1      49.364  26.981  26.166  1.00  0.00     0.058 A 
ATOM     90  C   UNL A   1      50.243  26.281  27.007  1.00  0.00     0.135 A 
ATOM     91  C   UNL A   1      49.757  27.186  24.834  1.00  0.00     0.135 A 
ATOM     92  F   UNL A   1      49.920  26.063  28.292  1.00  0.00    -0.206 F 
ATOM     93  C   UNL A   1      51.475  25.821  26.551  1.00  0.00     0.059 A 
ATOM     94  C   UNL A   1      50.970  26.710  24.347  1.00  0.00     0.059 A 
ATOM     95  F   UNL A   1      48.951  27.841  23.984  1.00  0.00    -0.206 F 
ATOM     96  C   UNL A   1      51.828  26.039  25.217  1.00  0.00     0.060 A 
BRANCH  96  97
ATOM     97  S   UNL A   1      53.414  25.407  24.628  1.00  0.00     0.124 S 
ATOM     98  O   UNL A   1      53.225  25.439  23.182  1.00  0.00    -0.237 OA
ATOM     99  O   UNL A   1      54.358  26.383  25.165  1.00  0.00    -0.237 OA
ATOM    100  O   UNL A   1      53.493  24.076  25.222  1.00  0.00    -0.744 OA
ENDBRANCH  96  97
ENDBRANCH  64  89
ENDBRANCH  38  39
ENDBRANCH  30  33
ENDBRANCH  28  29
ENDBRANCH   1  28
TORSDOF 16
ENDMDL
