MODEL 1
REMARK VINA RESULT:     -13.3      0.000      0.000
REMARK SMILES O=C(NCCCCNC(=O)c1ccc(-c2c3nc(c(-c4c(F)cc(S(=O)(=O)[O-])cc4F)c4ccc([nH]4)c(-c4c(F)cc(S(=O)(=O)[O-])cc4F)c4nc(c(-c5c(F)cc(S(=O)(=O)[O-])cc5F)c5ccc2[nH]5)C=C4)C=C3)cc1)C1=Cc2cc(S(F)(F)(F)(F)F)ccc2O[C@@H]1C(F)(F)F
REMARK SMILES IDX 6 1 5 2 4 3 3 4 1 5 2 6 77 8 78 9 92 10 79 11 91 12 80 13
REMARK SMILES IDX 90 14 81 15 89 16 88 17 93 18 94 19 95 20 96 21 82 22 83 23
REMARK SMILES IDX 84 24 85 25 86 26 87 27 7 28 8 29 9 30 10 32 11 33 12 34
REMARK SMILES IDX 76 35 13 36 75 37 14 38 15 39 16 40 69 41 17 42 74 43 68 44
REMARK SMILES IDX 70 45 18 46 73 47 67 48 66 49 19 51 53 52 32 53 52 54 33 55
REMARK SMILES IDX 36 56 51 57 71 58 34 59 35 60 50 62 72 63 37 64 20 65 21 66
REMARK SMILES IDX 30 67 22 68 23 69 29 70 31 71 24 72 25 73 26 74 27 75 28 76
REMARK SMILES IDX 54 77 55 78 64 79 56 80 57 81 63 82 65 83 58 84 59 85 60 86
REMARK SMILES IDX 61 87 62 88 38 89 39 90 48 91 40 92 41 93 47 94 49 95 42 96
REMARK SMILES IDX 43 97 44 98 45 99 46 100
REMARK H PARENT 3 7 8 31 70 50 36 61
REMARK Flexibility Score: inf
ROOT
ATOM      1  C   UNL A   1      34.556  30.709  27.739  1.00  0.00     0.023 C 
ENDROOT
BRANCH   1   2
ATOM      2  C   UNL A   1      35.129  29.354  27.359  1.00  0.00     0.023 C 
BRANCH   2   3
ATOM      3  C   UNL A   1      34.155  28.631  26.441  1.00  0.00     0.116 C 
BRANCH   3   4
ATOM      4  N   UNL A   1      33.019  28.131  27.228  1.00  0.00    -0.352 N 
ATOM      5  O   UNL A   1      30.816  27.243  27.230  1.00  0.00    -0.270 OA
ATOM      6  C   UNL A   1      31.798  27.675  26.549  1.00  0.00     0.251 C 
ATOM      7  H   UNL A   1      33.077  28.101  28.211  1.00  0.00     0.163 HD
BRANCH   6   8
ATOM      8  C   UNL A   1      31.709  27.721  25.032  1.00  0.00     0.067 C 
ATOM      9  C   UNL A   1      32.330  26.768  24.286  1.00  0.00     0.025 C 
ATOM     10  C   UNL A   1      30.929  28.832  24.350  1.00  0.00     0.314 C 
ATOM     11  C   UNL A   1      33.111  25.658  24.969  1.00  0.00     0.019 A 
ATOM     12  O   UNL A   1      31.486  25.504  26.695  1.00  0.00    -0.475 OA
ATOM     13  C   UNL A   1      34.310  25.289  24.381  1.00  0.00     0.036 A 
ATOM     14  C   UNL A   1      32.630  25.005  26.020  1.00  0.00     0.128 A 
ATOM     15  C   UNL A   1      34.791  24.026  24.802  1.00  0.00     0.107 A 
ATOM     16  C   UNL A   1      33.230  23.850  26.461  1.00  0.00     0.048 A 
ATOM     17  C   UNL A   1      34.386  23.395  25.888  1.00  0.00     0.028 A 
BRANCH  10  18
ATOM     18  C   UNL A   1      29.807  28.227  23.521  1.00  0.00     0.429 C 
ATOM     19  F   UNL A   1      28.813  29.104  23.413  1.00  0.00    -0.167 F 
ATOM     20  F   UNL A   1      30.265  27.925  22.309  1.00  0.00    -0.167 F 
ATOM     21  F   UNL A   1      29.362  27.123  24.115  1.00  0.00    -0.167 F 
ENDBRANCH  10  18
BRANCH  15  22
ATOM     22  S   UNL A   1      36.048  23.221  23.778  1.00  0.00     0.310 S 
ATOM     23  F   UNL A   1      35.817  21.825  24.495  1.00  0.00    -0.094 F 
ATOM     24  F   UNL A   1      37.114  23.539  24.894  1.00  0.00    -0.094 F 
ATOM     25  F   UNL A   1      37.129  22.523  22.905  1.00  0.00    -0.094 F 
ATOM     26  F   UNL A   1      34.940  22.787  22.738  1.00  0.00    -0.094 F 
ATOM     27  F   UNL A   1      34.920  23.825  24.706  1.00  0.00    -0.094 F 
ENDBRANCH  15  22
ENDBRANCH   6   8
ENDBRANCH   3   4
ENDBRANCH   2   3
ENDBRANCH   1   2
BRANCH   1  28
ATOM     28  C   UNL A   1      35.563  31.462  28.594  1.00  0.00     0.116 C 
BRANCH  28  29
ATOM     29  N   UNL A   1      35.281  31.215  30.015  1.00  0.00    -0.352 N 
ATOM     30  C   UNL A   1      36.330  30.667  30.888  1.00  0.00     0.251 C 
ATOM     31  H   UNL A   1      34.390  31.417  30.383  1.00  0.00     0.163 HD
ATOM     32  O   UNL A   1      36.087  30.453  32.117  1.00  0.00    -0.269 OA
BRANCH  30  33
ATOM     33  C   UNL A   1      37.705  30.357  30.320  1.00  0.00     0.039 A 
ATOM     34  C   UNL A   1      38.019  30.575  28.989  1.00  0.00     0.014 A 
ATOM     35  C   UNL A   1      38.570  29.778  31.146  1.00  0.00     0.014 A 
ATOM     36  C   UNL A   1      39.171  29.880  28.550  1.00  0.00     0.010 A 
ATOM     37  C   UNL A   1      39.741  29.240  30.668  1.00  0.00     0.010 A 
ATOM     38  C   UNL A   1      40.086  29.367  29.351  1.00  0.00    -0.014 A 
BRANCH  38  39
ATOM     39  C   UNL A   1      41.452  28.939  28.838  1.00  0.00     0.031 A 
ATOM     40  C   UNL A   1      42.422  29.943  28.843  1.00  0.00     0.074 A 
ATOM     41  C   UNL A   1      41.697  27.628  28.464  1.00  0.00     0.049 A 
ATOM     42  N   UNL A   1      43.714  29.827  28.537  1.00  0.00    -0.248 NA
ATOM     43  C   UNL A   1      42.156  31.343  29.206  1.00  0.00     0.031 C 
ATOM     44  C   UNL A   1      40.726  26.608  28.464  1.00  0.00     0.029 A 
ATOM     45  N   UNL A   1      42.885  27.080  28.035  1.00  0.00    -0.354 N 
ATOM     46  C   UNL A   1      44.329  31.004  28.678  1.00  0.00     0.074 A 
ATOM     47  C   UNL A   1      43.334  31.997  29.104  1.00  0.00     0.031 C 
ATOM     48  C   UNL A   1      41.317  25.464  28.031  1.00  0.00     0.029 A 
ATOM     49  C   UNL A   1      42.668  25.749  27.753  1.00  0.00     0.049 A 
ATOM     50  H   UNL A   1      43.741  27.556  27.946  1.00  0.00     0.167 HD
ATOM     51  C   UNL A   1      45.680  31.287  28.470  1.00  0.00     0.037 A 
ATOM     52  C   UNL A   1      43.582  24.822  27.278  1.00  0.00     0.037 A 
ATOM     53  C   UNL A   1      46.603  30.348  28.035  1.00  0.00     0.049 A 
ATOM     54  C   UNL A   1      44.920  25.119  27.014  1.00  0.00     0.074 A 
ATOM     55  C   UNL A   1      47.970  30.615  27.828  1.00  0.00     0.029 A 
ATOM     56  N   UNL A   1      46.380  29.024  27.730  1.00  0.00    -0.354 N 
ATOM     57  N   UNL A   1      45.543  26.286  27.192  1.00  0.00    -0.248 NA
ATOM     58  C   UNL A   1      45.890  24.154  26.479  1.00  0.00     0.031 C 
ATOM     59  C   UNL A   1      48.562  29.470  27.394  1.00  0.00     0.029 A 
ATOM     60  C   UNL A   1      47.573  28.470  27.322  1.00  0.00     0.049 A 
ATOM     61  H   UNL A   1      45.517  28.555  27.792  1.00  0.00     0.167 HD
ATOM     62  C   UNL A   1      46.828  26.179  26.846  1.00  0.00     0.074 A 
ATOM     63  C   UNL A   1      47.067  24.807  26.375  1.00  0.00     0.031 C 
ATOM     64  C   UNL A   1      47.810  27.169  26.908  1.00  0.00     0.037 A 
BRANCH  51  65
ATOM     65  C   UNL A   1      46.165  32.702  28.733  1.00  0.00     0.058 A 
ATOM     66  C   UNL A   1      46.637  32.961  30.009  1.00  0.00     0.135 A 
ATOM     67  C   UNL A   1      46.256  33.610  27.768  1.00  0.00     0.135 A 
ATOM     68  F   UNL A   1      46.801  32.013  30.928  1.00  0.00    -0.206 F 
ATOM     69  C   UNL A   1      46.932  34.325  30.246  1.00  0.00     0.059 A 
ATOM     70  C   UNL A   1      46.680  34.887  28.046  1.00  0.00     0.059 A 
ATOM     71  F   UNL A   1      45.932  33.281  26.521  1.00  0.00    -0.206 F 
ATOM     72  C   UNL A   1      47.106  35.229  29.299  1.00  0.00     0.060 A 
BRANCH  72  73
ATOM     73  S   UNL A   1      47.867  36.834  29.643  1.00  0.00     0.124 S 
ATOM     74  O   UNL A   1      48.754  37.242  28.464  1.00  0.00    -0.237 OA
ATOM     75  O   UNL A   1      46.773  37.885  29.844  1.00  0.00    -0.237 OA
ATOM     76  O   UNL A   1      48.818  36.722  31.060  1.00  0.00    -0.744 OA
ENDBRANCH  72  73
ENDBRANCH  51  65
BRANCH  52  77
ATOM     77  C   UNL A   1      43.100  23.402  27.031  1.00  0.00     0.058 A 
ATOM     78  C   UNL A   1      42.991  22.519  28.093  1.00  0.00     0.135 A 
ATOM     79  C   UNL A   1      42.926  22.997  25.778  1.00  0.00     0.135 A 
ATOM     80  F   UNL A   1      42.905  22.916  29.359  1.00  0.00    -0.206 F 
ATOM     81  C   UNL A   1      42.980  21.158  27.708  1.00  0.00     0.059 A 
ATOM     82  C   UNL A   1      42.786  21.661  25.488  1.00  0.00     0.059 A 
ATOM     83  F   UNL A   1      42.888  23.892  24.795  1.00  0.00    -0.206 F 
ATOM     84  C   UNL A   1      42.729  20.727  26.485  1.00  0.00     0.060 A 
BRANCH  84  85
ATOM     85  S   UNL A   1      42.333  18.994  26.147  1.00  0.00     0.124 S 
ATOM     86  O   UNL A   1      42.512  18.171  27.426  1.00  0.00    -0.237 OA
ATOM     87  O   UNL A   1      40.883  18.886  25.670  1.00  0.00    -0.237 OA
ATOM     88  O   UNL A   1      43.378  18.396  24.933  1.00  0.00    -0.744 OA
ENDBRANCH  84  85
ENDBRANCH  52  77
BRANCH  64  89
ATOM     89  C   UNL A   1      49.224  26.797  26.494  1.00  0.00     0.058 A 
ATOM     90  C   UNL A   1      49.694  27.034  25.213  1.00  0.00     0.135 A 
ATOM     91  C   UNL A   1      49.970  26.172  27.396  1.00  0.00     0.135 A 
ATOM     92  F   UNL A   1      49.098  27.866  24.363  1.00  0.00    -0.206 F 
ATOM     93  C   UNL A   1      50.866  26.310  24.888  1.00  0.00     0.059 A 
ATOM     94  C   UNL A   1      51.170  25.604  27.040  1.00  0.00     0.059 A 
ATOM     95  F   UNL A   1      49.552  26.092  28.656  1.00  0.00    -0.206 F 
ATOM     96  C   UNL A   1      51.668  25.748  25.775  1.00  0.00     0.060 A 
BRANCH  96  97
ATOM     97  S   UNL A   1      53.336  25.198  25.337  1.00  0.00     0.124 S 
ATOM     98  O   UNL A   1      54.351  25.835  26.288  1.00  0.00    -0.237 OA
ATOM     99  O   UNL A   1      53.417  23.674  25.451  1.00  0.00    -0.237 OA
ATOM    100  O   UNL A   1      53.687  25.668  23.730  1.00  0.00    -0.744 OA
ENDBRANCH  96  97
ENDBRANCH  64  89
ENDBRANCH  38  39
ENDBRANCH  30  33
ENDBRANCH  28  29
ENDBRANCH   1  28
TORSDOF 16
ENDMDL
MODEL 2
REMARK VINA RESULT:     -13.3      6.351     11.487
REMARK SMILES O=C(NCCCCNC(=O)c1ccc(-c2c3nc(c(-c4c(F)cc(S(=O)(=O)[O-])cc4F)c4ccc([nH]4)c(-c4c(F)cc(S(=O)(=O)[O-])cc4F)c4nc(c(-c5c(F)cc(S(=O)(=O)[O-])cc5F)c5ccc2[nH]5)C=C4)C=C3)cc1)C1=Cc2cc(S(F)(F)(F)(F)F)ccc2O[C@@H]1C(F)(F)F
REMARK SMILES IDX 6 1 5 2 4 3 3 4 1 5 2 6 77 8 78 9 92 10 79 11 91 12 80 13
REMARK SMILES IDX 90 14 81 15 89 16 88 17 93 18 94 19 95 20 96 21 82 22 83 23
REMARK SMILES IDX 84 24 85 25 86 26 87 27 7 28 8 29 9 30 10 32 11 33 12 34
REMARK SMILES IDX 76 35 13 36 75 37 14 38 15 39 16 40 69 41 17 42 74 43 68 44
REMARK SMILES IDX 70 45 18 46 73 47 67 48 66 49 19 51 53 52 32 53 52 54 33 55
REMARK SMILES IDX 36 56 51 57 71 58 34 59 35 60 50 62 72 63 37 64 20 65 21 66
REMARK SMILES IDX 30 67 22 68 23 69 29 70 31 71 24 72 25 73 26 74 27 75 28 76
REMARK SMILES IDX 54 77 55 78 64 79 56 80 57 81 63 82 65 83 58 84 59 85 60 86
REMARK SMILES IDX 61 87 62 88 38 89 39 90 48 91 40 92 41 93 47 94 49 95 42 96
REMARK SMILES IDX 43 97 44 98 45 99 46 100
REMARK H PARENT 3 7 8 31 70 50 36 61
REMARK Flexibility Score: inf
ROOT
ATOM      1  C   UNL A   1      39.140  22.897  26.527  1.00  0.00     0.023 C 
ENDROOT
BRANCH   1   2
ATOM      2  C   UNL A   1      38.206  24.095  26.496  1.00  0.00     0.023 C 
BRANCH   2   3
ATOM      3  C   UNL A   1      36.829  23.652  26.023  1.00  0.00     0.116 C 
BRANCH   3   4
ATOM      4  N   UNL A   1      36.799  23.630  24.554  1.00  0.00    -0.352 N 
ATOM      5  O   UNL A   1      35.650  22.974  22.580  1.00  0.00    -0.270 OA
ATOM      6  C   UNL A   1      35.676  22.993  23.851  1.00  0.00     0.251 C 
ATOM      7  H   UNL A   1      37.533  24.041  24.040  1.00  0.00     0.163 HD
BRANCH   6   8
ATOM      8  C   UNL A   1      34.545  22.359  24.644  1.00  0.00     0.067 C 
ATOM      9  C   UNL A   1      33.578  23.142  25.194  1.00  0.00     0.025 C 
ATOM     10  C   UNL A   1      34.495  20.851  24.823  1.00  0.00     0.314 C 
ATOM     11  C   UNL A   1      33.629  24.651  25.015  1.00  0.00     0.019 A 
ATOM     12  O   UNL A   1      34.386  24.412  22.776  1.00  0.00    -0.475 OA
ATOM     13  C   UNL A   1      33.290  25.419  26.117  1.00  0.00     0.036 A 
ATOM     14  C   UNL A   1      33.889  25.209  23.839  1.00  0.00     0.128 A 
ATOM     15  C   UNL A   1      32.971  26.762  25.804  1.00  0.00     0.107 A 
ATOM     16  C   UNL A   1      33.683  26.554  23.643  1.00  0.00     0.048 A 
ATOM     17  C   UNL A   1      33.292  27.363  24.673  1.00  0.00     0.028 A 
BRANCH  10  18
ATOM     18  C   UNL A   1      33.204  20.312  24.227  1.00  0.00     0.429 C 
ATOM     19  F   UNL A   1      32.849  21.062  23.188  1.00  0.00    -0.167 F 
ATOM     20  F   UNL A   1      33.391  19.058  23.826  1.00  0.00    -0.167 F 
ATOM     21  F   UNL A   1      32.244  20.345  25.147  1.00  0.00    -0.167 F 
ENDBRANCH  10  18
BRANCH  15  22
ATOM     22  S   UNL A   1      32.059  27.719  27.039  1.00  0.00     0.310 S 
ATOM     23  F   UNL A   1      31.674  28.831  25.974  1.00  0.00    -0.094 F 
ATOM     24  F   UNL A   1      33.371  28.544  27.322  1.00  0.00    -0.094 F 
ATOM     25  F   UNL A   1      31.276  28.550  28.096  1.00  0.00    -0.094 F 
ATOM     26  F   UNL A   1      30.721  26.980  26.641  1.00  0.00    -0.094 F 
ATOM     27  F   UNL A   1      32.812  26.947  25.883  1.00  0.00    -0.094 F 
ENDBRANCH  15  22
ENDBRANCH   6   8
ENDBRANCH   3   4
ENDBRANCH   2   3
ENDBRANCH   1   2
BRANCH   1  28
ATOM     28  C   UNL A   1      40.485  23.318  27.097  1.00  0.00     0.116 C 
BRANCH  28  29
ATOM     29  N   UNL A   1      41.345  23.811  26.012  1.00  0.00    -0.352 N 
ATOM     30  C   UNL A   1      42.034  25.103  26.150  1.00  0.00     0.251 C 
ATOM     31  H   UNL A   1      41.459  23.276  25.193  1.00  0.00     0.163 HD
ATOM     32  O   UNL A   1      42.777  25.530  25.212  1.00  0.00    -0.269 OA
BRANCH  30  33
ATOM     33  C   UNL A   1      41.857  25.927  27.415  1.00  0.00     0.039 A 
ATOM     34  C   UNL A   1      40.875  25.642  28.349  1.00  0.00     0.014 A 
ATOM     35  C   UNL A   1      42.636  26.996  27.538  1.00  0.00     0.014 A 
ATOM     36  C   UNL A   1      40.599  26.710  29.234  1.00  0.00     0.010 A 
ATOM     37  C   UNL A   1      42.389  27.932  28.513  1.00  0.00     0.010 A 
ATOM     38  C   UNL A   1      41.396  27.743  29.433  1.00  0.00    -0.014 A 
BRANCH  38  39
ATOM     39  C   UNL A   1      41.220  28.673  30.623  1.00  0.00     0.031 A 
ATOM     40  C   UNL A   1      40.193  29.609  30.490  1.00  0.00     0.074 A 
ATOM     41  C   UNL A   1      41.994  28.531  31.762  1.00  0.00     0.049 A 
ATOM     42  N   UNL A   1      39.761  30.478  31.404  1.00  0.00    -0.248 NA
ATOM     43  C   UNL A   1      39.393  29.785  29.269  1.00  0.00     0.031 C 
ATOM     44  C   UNL A   1      43.027  27.584  31.908  1.00  0.00     0.029 A 
ATOM     45  N   UNL A   1      41.917  29.254  32.932  1.00  0.00    -0.354 N 
ATOM     46  C   UNL A   1      38.747  31.197  30.914  1.00  0.00     0.074 A 
ATOM     47  C   UNL A   1      38.500  30.766  29.532  1.00  0.00     0.031 C 
ATOM     48  C   UNL A   1      43.571  27.741  33.143  1.00  0.00     0.029 A 
ATOM     49  C   UNL A   1      42.889  28.787  33.791  1.00  0.00     0.049 A 
ATOM     50  H   UNL A   1      41.278  29.978  33.122  1.00  0.00     0.167 HD
ATOM     51  C   UNL A   1      38.018  32.192  31.567  1.00  0.00     0.037 A 
ATOM     52  C   UNL A   1      43.179  29.239  35.069  1.00  0.00     0.037 A 
ATOM     53  C   UNL A   1      38.282  32.613  32.862  1.00  0.00     0.049 A 
ATOM     54  C   UNL A   1      42.488  30.275  35.700  1.00  0.00     0.074 A 
ATOM     55  C   UNL A   1      37.552  33.610  33.537  1.00  0.00     0.029 A 
ATOM     56  N   UNL A   1      39.269  32.164  33.710  1.00  0.00    -0.354 N 
ATOM     57  N   UNL A   1      41.450  30.965  35.225  1.00  0.00    -0.248 NA
ATOM     58  C   UNL A   1      42.808  30.783  37.041  1.00  0.00     0.031 C 
ATOM     59  C   UNL A   1      38.097  33.767  34.773  1.00  0.00     0.029 A 
ATOM     60  C   UNL A   1      39.178  32.871  34.889  1.00  0.00     0.049 A 
ATOM     61  H   UNL A   1      39.927  31.460  33.509  1.00  0.00     0.167 HD
ATOM     62  C   UNL A   1      41.044  31.864  36.125  1.00  0.00     0.074 A 
ATOM     63  C   UNL A   1      41.918  31.764  37.303  1.00  0.00     0.031 C 
ATOM     64  C   UNL A   1      39.980  32.758  36.013  1.00  0.00     0.037 A 
BRANCH  51  65
ATOM     65  C   UNL A   1      36.873  32.850  30.818  1.00  0.00     0.058 A 
ATOM     66  C   UNL A   1      35.599  32.401  31.126  1.00  0.00     0.135 A 
ATOM     67  C   UNL A   1      37.060  33.886  30.008  1.00  0.00     0.135 A 
ATOM     68  F   UNL A   1      35.352  31.546  32.114  1.00  0.00    -0.206 F 
ATOM     69  C   UNL A   1      34.586  32.934  30.295  1.00  0.00     0.059 A 
ATOM     70  C   UNL A   1      36.003  34.445  29.331  1.00  0.00     0.059 A 
ATOM     71  F   UNL A   1      38.282  34.387  29.850  1.00  0.00    -0.206 F 
ATOM     72  C   UNL A   1      34.724  34.011  29.542  1.00  0.00     0.060 A 
BRANCH  72  73
ATOM     73  S   UNL A   1      33.297  34.865  28.829  1.00  0.00     0.124 S 
ATOM     74  O   UNL A   1      32.299  35.206  29.937  1.00  0.00    -0.237 OA
ATOM     75  O   UNL A   1      33.762  36.154  28.147  1.00  0.00    -0.237 OA
ATOM     76  O   UNL A   1      32.544  33.850  27.676  1.00  0.00    -0.744 OA
ENDBRANCH  72  73
ENDBRANCH  51  65
BRANCH  52  77
ATOM     77  C   UNL A   1      44.314  28.568  35.824  1.00  0.00     0.058 A 
ATOM     78  C   UNL A   1      44.041  27.512  36.678  1.00  0.00     0.135 A 
ATOM     79  C   UNL A   1      45.529  29.102  35.755  1.00  0.00     0.135 A 
ATOM     80  F   UNL A   1      42.928  26.788  36.603  1.00  0.00    -0.206 F 
ATOM     81  C   UNL A   1      45.053  27.274  37.638  1.00  0.00     0.059 A 
ATOM     82  C   UNL A   1      46.511  28.723  36.639  1.00  0.00     0.059 A 
ATOM     83  F   UNL A   1      45.798  30.010  34.821  1.00  0.00    -0.206 F 
ATOM     84  C   UNL A   1      46.291  27.727  37.550  1.00  0.00     0.060 A 
BRANCH  84  85
ATOM     85  S   UNL A   1      47.624  27.064  38.578  1.00  0.00     0.124 S 
ATOM     86  O   UNL A   1      48.803  26.661  37.689  1.00  0.00    -0.237 OA
ATOM     87  O   UNL A   1      48.079  28.132  39.575  1.00  0.00    -0.237 OA
ATOM     88  O   UNL A   1      47.059  25.694  39.431  1.00  0.00    -0.744 OA
ENDBRANCH  84  85
ENDBRANCH  52  77
BRANCH  64  89
ATOM     89  C   UNL A   1      39.682  33.665  37.196  1.00  0.00     0.058 A 
ATOM     90  C   UNL A   1      40.317  34.886  37.356  1.00  0.00     0.135 A 
ATOM     91  C   UNL A   1      38.835  33.205  38.109  1.00  0.00     0.135 A 
ATOM     92  F   UNL A   1      40.967  35.500  36.371  1.00  0.00    -0.206 F 
ATOM     93  C   UNL A   1      40.212  35.421  38.662  1.00  0.00     0.059 A 
ATOM     94  C   UNL A   1      38.681  33.854  39.311  1.00  0.00     0.059 A 
ATOM     95  F   UNL A   1      38.130  32.106  37.858  1.00  0.00    -0.206 F 
ATOM     96  C   UNL A   1      39.324  35.035  39.560  1.00  0.00     0.060 A 
BRANCH  96  97
ATOM     97  S   UNL A   1      38.977  36.016  41.041  1.00  0.00     0.124 S 
ATOM     98  O   UNL A   1      37.744  35.453  41.750  1.00  0.00    -0.237 OA
ATOM     99  O   UNL A   1      40.180  35.957  41.985  1.00  0.00    -0.237 OA
ATOM    100  O   UNL A   1      38.684  37.640  40.592  1.00  0.00    -0.744 OA
ENDBRANCH  96  97
ENDBRANCH  64  89
ENDBRANCH  38  39
ENDBRANCH  30  33
ENDBRANCH  28  29
ENDBRANCH   1  28
TORSDOF 16
ENDMDL
MODEL 3
REMARK VINA RESULT:     -13.1      6.206     11.599
REMARK SMILES O=C(NCCCCNC(=O)c1ccc(-c2c3nc(c(-c4c(F)cc(S(=O)(=O)[O-])cc4F)c4ccc([nH]4)c(-c4c(F)cc(S(=O)(=O)[O-])cc4F)c4nc(c(-c5c(F)cc(S(=O)(=O)[O-])cc5F)c5ccc2[nH]5)C=C4)C=C3)cc1)C1=Cc2cc(S(F)(F)(F)(F)F)ccc2O[C@@H]1C(F)(F)F
REMARK SMILES IDX 6 1 5 2 4 3 3 4 1 5 2 6 77 8 78 9 92 10 79 11 91 12 80 13
REMARK SMILES IDX 90 14 81 15 89 16 88 17 93 18 94 19 95 20 96 21 82 22 83 23
REMARK SMILES IDX 84 24 85 25 86 26 87 27 7 28 8 29 9 30 10 32 11 33 12 34
REMARK SMILES IDX 76 35 13 36 75 37 14 38 15 39 16 40 69 41 17 42 74 43 68 44
REMARK SMILES IDX 70 45 18 46 73 47 67 48 66 49 19 51 53 52 32 53 52 54 33 55
REMARK SMILES IDX 36 56 51 57 71 58 34 59 35 60 50 62 72 63 37 64 20 65 21 66
REMARK SMILES IDX 30 67 22 68 23 69 29 70 31 71 24 72 25 73 26 74 27 75 28 76
REMARK SMILES IDX 54 77 55 78 64 79 56 80 57 81 63 82 65 83 58 84 59 85 60 86
REMARK SMILES IDX 61 87 62 88 38 89 39 90 48 91 40 92 41 93 47 94 49 95 42 96
REMARK SMILES IDX 43 97 44 98 45 99 46 100
REMARK H PARENT 3 7 8 31 70 50 36 61
REMARK Flexibility Score: inf
ROOT
ATOM      1  C   UNL A   1      39.043  22.763  26.490  1.00  0.00     0.023 C 
ENDROOT
BRANCH   1   2
ATOM      2  C   UNL A   1      38.212  24.036  26.493  1.00  0.00     0.023 C 
BRANCH   2   3
ATOM      3  C   UNL A   1      36.800  23.720  26.025  1.00  0.00     0.116 C 
BRANCH   3   4
ATOM      4  N   UNL A   1      36.772  23.663  24.556  1.00  0.00    -0.352 N 
ATOM      5  O   UNL A   1      35.639  22.940  22.597  1.00  0.00    -0.270 OA
ATOM      6  C   UNL A   1      35.663  22.989  23.867  1.00  0.00     0.251 C 
ATOM      7  H   UNL A   1      37.498  24.077  24.034  1.00  0.00     0.163 HD
BRANCH   6   8
ATOM      8  C   UNL A   1      34.543  22.351  24.673  1.00  0.00     0.067 C 
ATOM      9  C   UNL A   1      33.568  23.128  25.217  1.00  0.00     0.025 C 
ATOM     10  C   UNL A   1      34.514  20.845  24.873  1.00  0.00     0.314 C 
ATOM     11  C   UNL A   1      33.598  24.635  25.017  1.00  0.00     0.019 A 
ATOM     12  O   UNL A   1      34.350  24.376  22.778  1.00  0.00    -0.475 OA
ATOM     13  C   UNL A   1      33.254  25.413  26.110  1.00  0.00     0.036 A 
ATOM     14  C   UNL A   1      33.847  25.181  23.833  1.00  0.00     0.128 A 
ATOM     15  C   UNL A   1      32.916  26.748  25.781  1.00  0.00     0.107 A 
ATOM     16  C   UNL A   1      33.622  26.520  23.620  1.00  0.00     0.048 A 
ATOM     17  C   UNL A   1      33.225  27.338  24.641  1.00  0.00     0.028 A 
BRANCH  10  18
ATOM     18  C   UNL A   1      33.228  20.281  24.290  1.00  0.00     0.429 C 
ATOM     19  F   UNL A   1      32.266  20.333  25.206  1.00  0.00    -0.167 F 
ATOM     20  F   UNL A   1      32.870  21.000  23.230  1.00  0.00    -0.167 F 
ATOM     21  F   UNL A   1      33.424  19.017  23.923  1.00  0.00    -0.167 F 
ENDBRANCH  10  18
BRANCH  15  22
ATOM     22  S   UNL A   1      31.997  27.710  27.007  1.00  0.00     0.310 S 
ATOM     23  F   UNL A   1      31.686  28.857  25.955  1.00  0.00    -0.094 F 
ATOM     24  F   UNL A   1      33.326  28.481  27.352  1.00  0.00    -0.094 F 
ATOM     25  F   UNL A   1      31.208  28.544  28.056  1.00  0.00    -0.094 F 
ATOM     26  F   UNL A   1      30.648  27.026  26.549  1.00  0.00    -0.094 F 
ATOM     27  F   UNL A   1      32.761  26.937  25.859  1.00  0.00    -0.094 F 
ENDBRANCH  15  22
ENDBRANCH   6   8
ENDBRANCH   3   4
ENDBRANCH   2   3
ENDBRANCH   1   2
BRANCH   1  28
ATOM     28  C   UNL A   1      40.399  23.042  27.118  1.00  0.00     0.116 C 
BRANCH  28  29
ATOM     29  N   UNL A   1      41.341  23.477  26.078  1.00  0.00    -0.352 N 
ATOM     30  C   UNL A   1      42.042  24.763  26.212  1.00  0.00     0.251 C 
ATOM     31  H   UNL A   1      41.504  22.907  25.292  1.00  0.00     0.163 HD
ATOM     32  O   UNL A   1      42.857  25.140  25.313  1.00  0.00    -0.269 OA
BRANCH  30  33
ATOM     33  C   UNL A   1      41.791  25.641  27.427  1.00  0.00     0.039 A 
ATOM     34  C   UNL A   1      40.793  25.361  28.345  1.00  0.00     0.014 A 
ATOM     35  C   UNL A   1      42.521  26.748  27.518  1.00  0.00     0.014 A 
ATOM     36  C   UNL A   1      40.444  26.461  29.165  1.00  0.00     0.010 A 
ATOM     37  C   UNL A   1      42.204  27.721  28.435  1.00  0.00     0.010 A 
ATOM     38  C   UNL A   1      41.191  27.536  29.335  1.00  0.00    -0.014 A 
BRANCH  38  39
ATOM     39  C   UNL A   1      40.939  28.516  30.469  1.00  0.00     0.031 A 
ATOM     40  C   UNL A   1      41.811  28.396  31.552  1.00  0.00     0.074 A 
ATOM     41  C   UNL A   1      39.954  29.484  30.372  1.00  0.00     0.049 A 
ATOM     42  N   UNL A   1      41.878  29.176  32.632  1.00  0.00    -0.248 NA
ATOM     43  C   UNL A   1      42.834  27.348  31.674  1.00  0.00     0.031 C 
ATOM     44  C   UNL A   1      39.076  29.617  29.278  1.00  0.00     0.029 A 
ATOM     45  N   UNL A   1      39.644  30.470  31.283  1.00  0.00    -0.354 N 
ATOM     46  C   UNL A   1      42.854  28.758  33.443  1.00  0.00     0.074 A 
ATOM     47  C   UNL A   1      43.478  27.572  32.841  1.00  0.00     0.031 C 
ATOM     48  C   UNL A   1      38.242  30.660  29.531  1.00  0.00     0.029 A 
ATOM     49  C   UNL A   1      38.585  31.197  30.787  1.00  0.00     0.049 A 
ATOM     50  H   UNL A   1      40.101  30.626  32.140  1.00  0.00     0.167 HD
ATOM     51  C   UNL A   1      43.247  29.319  34.658  1.00  0.00     0.037 A 
ATOM     52  C   UNL A   1      37.939  32.270  31.382  1.00  0.00     0.037 A 
ATOM     53  C   UNL A   1      42.629  30.419  35.233  1.00  0.00     0.049 A 
ATOM     54  C   UNL A   1      38.296  32.795  32.625  1.00  0.00     0.074 A 
ATOM     55  C   UNL A   1      43.018  31.002  36.453  1.00  0.00     0.029 A 
ATOM     56  N   UNL A   1      41.554  31.130  34.748  1.00  0.00    -0.354 N 
ATOM     57  N   UNL A   1      39.295  32.401  33.416  1.00  0.00    -0.248 NA
ATOM     58  C   UNL A   1      37.598  33.910  33.280  1.00  0.00     0.031 C 
ATOM     59  C   UNL A   1      42.183  32.046  36.706  1.00  0.00     0.029 A 
ATOM     60  C   UNL A   1      41.258  32.130  35.648  1.00  0.00     0.049 A 
ATOM     61  H   UNL A   1      41.078  30.955  33.903  1.00  0.00     0.167 HD
ATOM     62  C   UNL A   1      39.336  33.156  34.516  1.00  0.00     0.074 A 
ATOM     63  C   UNL A   1      38.240  34.133  34.447  1.00  0.00     0.031 C 
ATOM     64  C   UNL A   1      40.245  33.073  35.572  1.00  0.00     0.037 A 
BRANCH  51  65
ATOM     65  C   UNL A   1      44.418  28.690  35.393  1.00  0.00     0.058 A 
ATOM     66  C   UNL A   1      44.104  27.714  36.325  1.00  0.00     0.135 A 
ATOM     67  C   UNL A   1      45.679  28.959  35.077  1.00  0.00     0.135 A 
ATOM     68  F   UNL A   1      42.873  27.236  36.487  1.00  0.00    -0.206 F 
ATOM     69  C   UNL A   1      45.211  27.271  37.087  1.00  0.00     0.059 A 
ATOM     70  C   UNL A   1      46.714  28.386  35.776  1.00  0.00     0.059 A 
ATOM     71  F   UNL A   1      45.944  29.791  34.075  1.00  0.00    -0.206 F 
ATOM     72  C   UNL A   1      46.474  27.457  36.751  1.00  0.00     0.060 A 
BRANCH  72  73
ATOM     73  S   UNL A   1      47.816  26.532  37.538  1.00  0.00     0.124 S 
ATOM     74  O   UNL A   1      48.561  25.713  36.482  1.00  0.00    -0.237 OA
ATOM     75  O   UNL A   1      48.788  27.511  38.202  1.00  0.00    -0.237 OA
ATOM     76  O   UNL A   1      47.167  25.482  38.721  1.00  0.00    -0.744 OA
ENDBRANCH  72  73
ENDBRANCH  51  65
BRANCH  52  77
ATOM     77  C   UNL A   1      36.779  32.909  30.638  1.00  0.00     0.058 A 
ATOM     78  C   UNL A   1      37.030  33.843  29.645  1.00  0.00     0.135 A 
ATOM     79  C   UNL A   1      35.542  32.661  31.053  1.00  0.00     0.135 A 
ATOM     80  F   UNL A   1      38.202  33.944  29.025  1.00  0.00    -0.206 F 
ATOM     81  C   UNL A   1      35.926  34.679  29.352  1.00  0.00     0.059 A 
ATOM     82  C   UNL A   1      34.490  33.433  30.620  1.00  0.00     0.059 A 
ATOM     83  F   UNL A   1      35.318  31.657  31.896  1.00  0.00    -0.206 F 
ATOM     84  C   UNL A   1      34.676  34.413  29.684  1.00  0.00     0.060 A 
BRANCH  84  85
ATOM     85  S   UNL A   1      33.284  35.297  28.940  1.00  0.00     0.124 S 
ATOM     86  O   UNL A   1      32.488  34.340  28.048  1.00  0.00    -0.237 OA
ATOM     87  O   UNL A   1      32.374  35.838  30.045  1.00  0.00    -0.237 OA
ATOM     88  O   UNL A   1      33.872  36.598  27.999  1.00  0.00    -0.744 OA
ENDBRANCH  84  85
ENDBRANCH  52  77
BRANCH  64  89
ATOM     89  C   UNL A   1      40.115  34.075  36.706  1.00  0.00     0.058 A 
ATOM     90  C   UNL A   1      39.281  33.847  37.788  1.00  0.00     0.135 A 
ATOM     91  C   UNL A   1      40.787  35.214  36.583  1.00  0.00     0.135 A 
ATOM     92  F   UNL A   1      38.792  32.648  38.087  1.00  0.00    -0.206 F 
ATOM     93  C   UNL A   1      38.995  35.008  38.547  1.00  0.00     0.059 A 
ATOM     94  C   UNL A   1      40.555  36.260  37.443  1.00  0.00     0.059 A 
ATOM     95  F   UNL A   1      41.692  35.344  35.617  1.00  0.00    -0.206 F 
ATOM     96  C   UNL A   1      39.698  36.125  38.500  1.00  0.00     0.060 A 
BRANCH  96  97
ATOM     97  S   UNL A   1      39.535  37.407  39.767  1.00  0.00     0.124 S 
ATOM     98  O   UNL A   1      38.242  38.192  39.536  1.00  0.00    -0.237 OA
ATOM     99  O   UNL A   1      39.494  36.755  41.151  1.00  0.00    -0.237 OA
ATOM    100  O   UNL A   1      40.872  38.470  39.677  1.00  0.00    -0.744 OA
ENDBRANCH  96  97
ENDBRANCH  64  89
ENDBRANCH  38  39
ENDBRANCH  30  33
ENDBRANCH  28  29
ENDBRANCH   1  28
TORSDOF 16
ENDMDL
