MODEL 1
REMARK VINA RESULT:      -8.9      0.000      0.000
REMARK SMILES COC(=O)/C=C(/CC(C)C)C(=O)NCCCCNC(=O)c1ccc(-c2c3nc(c(-c4c(F)cc(S(=O)(=O)[O-])cc4F)c4ccc([nH]4)c(-c4c(F)cc(S(=O)(=O)[O-])cc4F)c4nc(c(-c5c(F)cc(S(=O)(=O)[O-])cc5F)c5ccc2[nH]5)C=C4)C=C3)cc1
REMARK SMILES IDX 16 1 15 2 14 3 13 4 11 5 12 6 6 8 5 9 3 10 4 11 2 12 1 13
REMARK SMILES IDX 7 14 8 15 9 16 10 17 17 18 18 19 19 20 20 22 21 23 22 24
REMARK SMILES IDX 86 25 23 26 85 27 24 28 25 29 26 30 79 31 27 32 84 33 78 34
REMARK SMILES IDX 80 35 28 36 83 37 77 38 76 39 29 41 63 42 42 43 62 44 43 45
REMARK SMILES IDX 46 46 61 47 81 48 44 49 45 50 60 52 82 53 47 54 30 55 31 56
REMARK SMILES IDX 40 57 32 58 33 59 39 60 41 61 34 62 35 63 36 64 37 65 38 66
REMARK SMILES IDX 64 67 65 68 74 69 66 70 67 71 73 72 75 73 68 74 69 75 70 76
REMARK SMILES IDX 71 77 72 78 48 79 49 80 58 81 50 82 51 83 57 84 59 85 52 86
REMARK SMILES IDX 53 87 54 88 55 89 56 90
REMARK H PARENT 13 7 18 21 80 40 46 51
REMARK Flexibility Score: inf
ROOT
ATOM      1  C   UNL A   1      34.581  32.674  30.105  1.00  0.00     0.023 C 
ENDROOT
BRANCH   1   2
ATOM      2  C   UNL A   1      34.427  34.144  30.446  1.00  0.00     0.023 C 
BRANCH   2   3
ATOM      3  C   UNL A   1      34.547  34.484  31.933  1.00  0.00     0.116 C 
BRANCH   3   4
ATOM      4  N   UNL A   1      35.859  35.034  32.218  1.00  0.00    -0.352 N 
ATOM      5  C   UNL A   1      36.997  34.452  32.682  1.00  0.00     0.247 C 
ATOM      6  O   UNL A   1      37.597  35.070  33.563  1.00  0.00    -0.270 OA
ATOM      7  H   UNL A   1      35.940  36.000  32.045  1.00  0.00     0.163 HD
BRANCH   5   8
ATOM      8  C   UNL A   1      37.532  33.152  32.165  1.00  0.00     0.024 C 
ATOM      9  C   UNL A   1      38.066  33.107  30.924  1.00  0.00     0.102 C 
BRANCH   9  10
ATOM     10  C   UNL A   1      38.243  34.139  29.881  1.00  0.00     0.330 C 
ATOM     11  O   UNL A   1      37.481  34.193  28.923  1.00  0.00    -0.247 OA
BRANCH  10  12
ATOM     12  O   UNL A   1      39.208  35.033  30.176  1.00  0.00    -0.466 OA
ATOM     13  C   UNL A   1      40.324  35.008  29.283  1.00  0.00     0.282 C 
ENDBRANCH  10  12
ENDBRANCH   9  10
BRANCH   8  14
ATOM     14  C   UNL A   1      37.533  31.864  32.954  1.00  0.00     0.044 C 
BRANCH  14  15
ATOM     15  C   UNL A   1      38.910  31.206  33.223  1.00  0.00    -0.013 C 
ATOM     16  C   UNL A   1      39.660  31.650  34.475  1.00  0.00     0.008 C 
ATOM     17  C   UNL A   1      38.747  29.681  33.264  1.00  0.00     0.008 C 
ENDBRANCH  14  15
ENDBRANCH   8  14
ENDBRANCH   5   8
ENDBRANCH   3   4
ENDBRANCH   2   3
ENDBRANCH   1   2
BRANCH   1  18
ATOM     18  C   UNL A   1      34.680  32.380  28.621  1.00  0.00     0.116 C 
BRANCH  18  19
ATOM     19  N   UNL A   1      34.046  31.129  28.217  1.00  0.00    -0.352 N 
ATOM     20  C   UNL A   1      34.627  29.896  28.035  1.00  0.00     0.251 C 
ATOM     21  H   UNL A   1      33.076  31.174  28.052  1.00  0.00     0.163 HD
ATOM     22  O   UNL A   1      33.970  28.954  27.602  1.00  0.00    -0.269 OA
BRANCH  20  23
ATOM     23  C   UNL A   1      36.063  29.745  28.335  1.00  0.00     0.039 A 
ATOM     24  C   UNL A   1      36.458  29.293  29.595  1.00  0.00     0.014 A 
ATOM     25  C   UNL A   1      37.007  29.955  27.328  1.00  0.00     0.014 A 
ATOM     26  C   UNL A   1      37.800  28.988  29.818  1.00  0.00     0.010 A 
ATOM     27  C   UNL A   1      38.307  29.517  27.509  1.00  0.00     0.010 A 
ATOM     28  C   UNL A   1      38.730  29.062  28.765  1.00  0.00    -0.014 A 
BRANCH  28  29
ATOM     29  C   UNL A   1      40.162  28.734  28.967  1.00  0.00     0.031 A 
ATOM     30  C   UNL A   1      41.076  29.769  29.574  1.00  0.00     0.074 A 
ATOM     31  C   UNL A   1      40.648  27.547  28.556  1.00  0.00     0.049 A 
ATOM     32  N   UNL A   1      42.364  29.710  29.789  1.00  0.00    -0.248 NA
ATOM     33  C   UNL A   1      40.471  31.061  29.946  1.00  0.00     0.031 C 
ATOM     34  C   UNL A   1      39.879  26.500  27.878  1.00  0.00     0.029 A 
ATOM     35  N   UNL A   1      41.910  27.018  28.651  1.00  0.00    -0.354 N 
ATOM     36  C   UNL A   1      42.718  30.959  30.290  1.00  0.00     0.074 A 
ATOM     37  C   UNL A   1      41.533  31.781  30.264  1.00  0.00     0.031 C 
ATOM     38  C   UNL A   1      40.673  25.438  27.661  1.00  0.00     0.029 A 
ATOM     39  C   UNL A   1      42.012  25.739  28.156  1.00  0.00     0.049 A 
ATOM     40  H   UNL A   1      42.671  27.508  29.037  1.00  0.00     0.167 HD
ATOM     41  C   UNL A   1      43.913  31.371  30.774  1.00  0.00     0.037 A 
ATOM     42  C   UNL A   1      43.067  24.902  28.120  1.00  0.00     0.037 A 
ATOM     43  C   UNL A   1      45.071  30.523  30.851  1.00  0.00     0.049 A 
ATOM     44  C   UNL A   1      44.371  25.359  28.720  1.00  0.00     0.074 A 
ATOM     45  C   UNL A   1      46.316  30.808  31.381  1.00  0.00     0.029 A 
ATOM     46  N   UNL A   1      45.119  29.214  30.394  1.00  0.00    -0.354 N 
ATOM     47  N   UNL A   1      44.673  26.521  29.252  1.00  0.00    -0.248 NA
ATOM     48  C   UNL A   1      45.470  24.385  28.735  1.00  0.00     0.031 C 
ATOM     49  C   UNL A   1      47.127  29.681  31.215  1.00  0.00     0.029 A 
ATOM     50  C   UNL A   1      46.373  28.678  30.627  1.00  0.00     0.049 A 
ATOM     51  H   UNL A   1      44.370  28.736  29.967  1.00  0.00     0.167 HD
ATOM     52  C   UNL A   1      45.984  26.405  29.698  1.00  0.00     0.074 A 
ATOM     53  C   UNL A   1      46.412  25.057  29.383  1.00  0.00     0.031 C 
ATOM     54  C   UNL A   1      46.767  27.327  30.315  1.00  0.00     0.037 A 
BRANCH  41  55
ATOM     55  C   UNL A   1      44.010  32.786  31.278  1.00  0.00     0.058 A 
ATOM     56  C   UNL A   1      43.833  33.100  32.636  1.00  0.00     0.135 A 
ATOM     57  C   UNL A   1      44.284  33.842  30.395  1.00  0.00     0.135 A 
ATOM     58  F   UNL A   1      43.546  32.133  33.523  1.00  0.00    -0.206 F 
ATOM     59  C   UNL A   1      43.887  34.411  33.095  1.00  0.00     0.059 A 
ATOM     60  C   UNL A   1      44.376  35.159  30.838  1.00  0.00     0.059 A 
ATOM     61  F   UNL A   1      44.457  33.602  29.086  1.00  0.00    -0.206 F 
ATOM     62  C   UNL A   1      44.160  35.435  32.187  1.00  0.00     0.060 A 
BRANCH  62  63
ATOM     63  S   UNL A   1      44.230  37.131  32.800  1.00  0.00     0.124 S 
ATOM     64  O   UNL A   1      43.032  37.189  33.632  1.00  0.00    -0.237 OA
ATOM     65  O   UNL A   1      45.501  37.152  33.516  1.00  0.00    -0.237 OA
ATOM     66  O   UNL A   1      44.187  37.934  31.581  1.00  0.00    -0.744 OA
ENDBRANCH  62  63
ENDBRANCH  41  55
BRANCH  42  67
ATOM     67  C   UNL A   1      42.918  23.534  27.555  1.00  0.00     0.058 A 
ATOM     68  C   UNL A   1      42.327  22.504  28.303  1.00  0.00     0.135 A 
ATOM     69  C   UNL A   1      43.351  23.229  26.255  1.00  0.00     0.135 A 
ATOM     70  F   UNL A   1      41.898  22.744  29.551  1.00  0.00    -0.206 F 
ATOM     71  C   UNL A   1      42.192  21.216  27.795  1.00  0.00     0.059 A 
ATOM     72  C   UNL A   1      43.203  21.954  25.715  1.00  0.00     0.059 A 
ATOM     73  F   UNL A   1      43.903  24.182  25.489  1.00  0.00    -0.206 F 
ATOM     74  C   UNL A   1      42.634  20.951  26.498  1.00  0.00     0.060 A 
BRANCH  74  75
ATOM     75  S   UNL A   1      42.416  19.285  25.833  1.00  0.00     0.124 S 
ATOM     76  O   UNL A   1      40.964  19.200  25.727  1.00  0.00    -0.237 OA
ATOM     77  O   UNL A   1      43.145  19.361  24.570  1.00  0.00    -0.237 OA
ATOM     78  O   UNL A   1      43.028  18.436  26.850  1.00  0.00    -0.744 OA
ENDBRANCH  74  75
ENDBRANCH  42  67
BRANCH  54  79
ATOM     79  C   UNL A   1      48.140  26.889  30.737  1.00  0.00     0.058 A 
ATOM     80  C   UNL A   1      48.379  26.296  31.987  1.00  0.00     0.135 A 
ATOM     81  C   UNL A   1      49.228  27.036  29.861  1.00  0.00     0.135 A 
ATOM     82  F   UNL A   1      47.373  26.132  32.860  1.00  0.00    -0.206 F 
ATOM     83  C   UNL A   1      49.656  25.904  32.370  1.00  0.00     0.059 A 
ATOM     84  C   UNL A   1      50.507  26.622  30.211  1.00  0.00     0.059 A 
ATOM     85  F   UNL A   1      49.050  27.580  28.646  1.00  0.00    -0.206 F 
ATOM     86  C   UNL A   1      50.715  26.076  31.476  1.00  0.00     0.060 A 
BRANCH  86  87
ATOM     87  S   UNL A   1      52.369  25.562  31.983  1.00  0.00     0.124 S 
ATOM     88  O   UNL A   1      52.577  26.382  33.172  1.00  0.00    -0.237 OA
ATOM     89  O   UNL A   1      52.195  24.132  32.221  1.00  0.00    -0.237 OA
ATOM     90  O   UNL A   1      53.198  25.903  30.831  1.00  0.00    -0.744 OA
ENDBRANCH  86  87
ENDBRANCH  54  79
ENDBRANCH  28  29
ENDBRANCH  20  23
ENDBRANCH  18  19
ENDBRANCH   1  18
TORSDOF 18
ENDMDL
MODEL 2
REMARK VINA RESULT:      -8.5      3.247     11.062
REMARK SMILES COC(=O)/C=C(/CC(C)C)C(=O)NCCCCNC(=O)c1ccc(-c2c3nc(c(-c4c(F)cc(S(=O)(=O)[O-])cc4F)c4ccc([nH]4)c(-c4c(F)cc(S(=O)(=O)[O-])cc4F)c4nc(c(-c5c(F)cc(S(=O)(=O)[O-])cc5F)c5ccc2[nH]5)C=C4)C=C3)cc1
REMARK SMILES IDX 16 1 15 2 14 3 13 4 11 5 12 6 6 8 5 9 3 10 4 11 2 12 1 13
REMARK SMILES IDX 7 14 8 15 9 16 10 17 17 18 18 19 19 20 20 22 21 23 22 24
REMARK SMILES IDX 86 25 23 26 85 27 24 28 25 29 26 30 79 31 27 32 84 33 78 34
REMARK SMILES IDX 80 35 28 36 83 37 77 38 76 39 29 41 63 42 42 43 62 44 43 45
REMARK SMILES IDX 46 46 61 47 81 48 44 49 45 50 60 52 82 53 47 54 30 55 31 56
REMARK SMILES IDX 40 57 32 58 33 59 39 60 41 61 34 62 35 63 36 64 37 65 38 66
REMARK SMILES IDX 64 67 65 68 74 69 66 70 67 71 73 72 75 73 68 74 69 75 70 76
REMARK SMILES IDX 71 77 72 78 48 79 49 80 58 81 50 82 51 83 57 84 59 85 52 86
REMARK SMILES IDX 53 87 54 88 55 89 56 90
REMARK H PARENT 13 7 18 21 80 40 46 51
REMARK Flexibility Score: inf
ROOT
ATOM      1  C   UNL A   1      41.724  22.539  27.919  1.00  0.00     0.023 C 
ENDROOT
BRANCH   1   2
ATOM      2  C   UNL A   1      42.842  23.348  28.550  1.00  0.00     0.023 C 
BRANCH   2   3
ATOM      3  C   UNL A   1      44.201  22.648  28.605  1.00  0.00     0.116 C 
BRANCH   3   4
ATOM      4  N   UNL A   1      45.244  23.535  28.127  1.00  0.00    -0.352 N 
ATOM      5  C   UNL A   1      45.823  23.665  26.904  1.00  0.00     0.247 C 
ATOM      6  O   UNL A   1      47.051  23.773  26.898  1.00  0.00    -0.270 OA
ATOM      7  H   UNL A   1      45.594  24.154  28.808  1.00  0.00     0.163 HD
BRANCH   5   8
ATOM      8  C   UNL A   1      45.051  23.699  25.620  1.00  0.00     0.024 C 
ATOM      9  C   UNL A   1      44.520  24.871  25.203  1.00  0.00     0.102 C 
BRANCH   9  10
ATOM     10  C   UNL A   1      44.529  26.228  25.787  1.00  0.00     0.330 C 
ATOM     11  O   UNL A   1      44.119  26.420  26.925  1.00  0.00    -0.247 OA
BRANCH  10  12
ATOM     12  O   UNL A   1      45.132  27.142  24.999  1.00  0.00    -0.466 OA
ATOM     13  C   UNL A   1      46.506  26.865  24.724  1.00  0.00     0.282 C 
ENDBRANCH  10  12
ENDBRANCH   9  10
BRANCH   8  14
ATOM     14  C   UNL A   1      44.832  22.497  24.732  1.00  0.00     0.044 C 
BRANCH  14  15
ATOM     15  C   UNL A   1      45.165  21.109  25.333  1.00  0.00    -0.013 C 
ATOM     16  C   UNL A   1      44.065  20.053  25.295  1.00  0.00     0.008 C 
ATOM     17  C   UNL A   1      46.413  20.542  24.645  1.00  0.00     0.008 C 
ENDBRANCH  14  15
ENDBRANCH   8  14
ENDBRANCH   5   8
ENDBRANCH   3   4
ENDBRANCH   2   3
ENDBRANCH   1   2
BRANCH   1  18
ATOM     18  C   UNL A   1      41.598  22.706  26.418  1.00  0.00     0.116 C 
BRANCH  18  19
ATOM     19  N   UNL A   1      40.236  22.555  25.913  1.00  0.00    -0.352 N 
ATOM     20  C   UNL A   1      39.149  23.369  26.131  1.00  0.00     0.251 C 
ATOM     21  H   UNL A   1      40.075  21.768  25.343  1.00  0.00     0.163 HD
ATOM     22  O   UNL A   1      38.040  23.056  25.708  1.00  0.00    -0.269 OA
BRANCH  20  23
ATOM     23  C   UNL A   1      39.341  24.602  26.917  1.00  0.00     0.039 A 
ATOM     24  C   UNL A   1      38.882  24.657  28.233  1.00  0.00     0.014 A 
ATOM     25  C   UNL A   1      40.069  25.663  26.374  1.00  0.00     0.014 A 
ATOM     26  C   UNL A   1      39.217  25.755  29.025  1.00  0.00     0.010 A 
ATOM     27  C   UNL A   1      40.517  26.677  27.202  1.00  0.00     0.010 A 
ATOM     28  C   UNL A   1      40.068  26.756  28.527  1.00  0.00    -0.014 A 
BRANCH  28  29
ATOM     29  C   UNL A   1      40.452  27.931  29.347  1.00  0.00     0.031 A 
ATOM     30  C   UNL A   1      41.790  27.939  30.042  1.00  0.00     0.074 A 
ATOM     31  C   UNL A   1      39.587  28.950  29.514  1.00  0.00     0.049 A 
ATOM     32  N   UNL A   1      42.300  28.836  30.845  1.00  0.00    -0.248 NA
ATOM     33  C   UNL A   1      42.653  26.759  29.847  1.00  0.00     0.031 C 
ATOM     34  C   UNL A   1      38.230  29.016  28.962  1.00  0.00     0.029 A 
ATOM     35  N   UNL A   1      39.720  30.131  30.198  1.00  0.00    -0.354 N 
ATOM     36  C   UNL A   1      43.518  28.314  31.266  1.00  0.00     0.074 A 
ATOM     37  C   UNL A   1      43.633  26.989  30.705  1.00  0.00     0.031 C 
ATOM     38  C   UNL A   1      37.677  30.195  29.289  1.00  0.00     0.029 A 
ATOM     39  C   UNL A   1      38.624  30.955  30.099  1.00  0.00     0.049 A 
ATOM     40  H   UNL A   1      40.525  30.367  30.713  1.00  0.00     0.167 HD
ATOM     41  C   UNL A   1      44.480  28.901  32.015  1.00  0.00     0.037 A 
ATOM     42  C   UNL A   1      38.416  32.190  30.594  1.00  0.00     0.037 A 
ATOM     43  C   UNL A   1      44.381  30.244  32.519  1.00  0.00     0.049 A 
ATOM     44  C   UNL A   1      39.523  32.851  31.373  1.00  0.00     0.074 A 
ATOM     45  C   UNL A   1      45.317  30.970  33.232  1.00  0.00     0.029 A 
ATOM     46  N   UNL A   1      43.279  31.070  32.346  1.00  0.00    -0.354 N 
ATOM     47  N   UNL A   1      40.699  32.370  31.706  1.00  0.00    -0.248 NA
ATOM     48  C   UNL A   1      39.286  34.228  31.823  1.00  0.00     0.031 C 
ATOM     49  C   UNL A   1      44.767  32.223  33.520  1.00  0.00     0.029 A 
ATOM     50  C   UNL A   1      43.510  32.296  32.942  1.00  0.00     0.049 A 
ATOM     51  H   UNL A   1      42.454  30.819  31.869  1.00  0.00     0.167 HD
ATOM     52  C   UNL A   1      41.355  33.398  32.374  1.00  0.00     0.074 A 
ATOM     53  C   UNL A   1      40.449  34.529  32.386  1.00  0.00     0.031 C 
ATOM     54  C   UNL A   1      42.595  33.410  32.926  1.00  0.00     0.037 A 
BRANCH  41  55
ATOM     55  C   UNL A   1      45.722  28.103  32.305  1.00  0.00     0.058 A 
ATOM     56  C   UNL A   1      46.830  28.122  31.440  1.00  0.00     0.135 A 
ATOM     57  C   UNL A   1      45.810  27.312  33.460  1.00  0.00     0.135 A 
ATOM     58  F   UNL A   1      46.794  28.843  30.308  1.00  0.00    -0.206 F 
ATOM     59  C   UNL A   1      47.964  27.356  31.690  1.00  0.00     0.059 A 
ATOM     60  C   UNL A   1      46.949  26.564  33.748  1.00  0.00     0.059 A 
ATOM     61  F   UNL A   1      44.781  27.252  34.320  1.00  0.00    -0.206 F 
ATOM     62  C   UNL A   1      48.013  26.579  32.849  1.00  0.00     0.060 A 
BRANCH  62  63
ATOM     63  S   UNL A   1      49.493  25.594  33.160  1.00  0.00     0.124 S 
ATOM     64  O   UNL A   1      49.936  25.298  31.801  1.00  0.00    -0.237 OA
ATOM     65  O   UNL A   1      50.332  26.521  33.912  1.00  0.00    -0.237 OA
ATOM     66  O   UNL A   1      48.988  24.454  33.918  1.00  0.00    -0.744 OA
ENDBRANCH  62  63
ENDBRANCH  41  55
BRANCH  42  67
ATOM     67  C   UNL A   1      37.139  32.903  30.318  1.00  0.00     0.058 A 
ATOM     68  C   UNL A   1      36.971  33.655  29.145  1.00  0.00     0.135 A 
ATOM     69  C   UNL A   1      36.059  32.839  31.212  1.00  0.00     0.135 A 
ATOM     70  F   UNL A   1      37.975  33.748  28.260  1.00  0.00    -0.206 F 
ATOM     71  C   UNL A   1      35.789  34.338  28.877  1.00  0.00     0.059 A 
ATOM     72  C   UNL A   1      34.856  33.493  30.953  1.00  0.00     0.059 A 
ATOM     73  F   UNL A   1      36.158  32.116  32.337  1.00  0.00    -0.206 F 
ATOM     74  C   UNL A   1      34.736  34.251  29.789  1.00  0.00     0.060 A 
BRANCH  74  75
ATOM     75  S   UNL A   1      33.191  35.108  29.412  1.00  0.00     0.124 S 
ATOM     76  O   UNL A   1      32.611  34.234  28.399  1.00  0.00    -0.237 OA
ATOM     77  O   UNL A   1      32.521  35.116  30.708  1.00  0.00    -0.237 OA
ATOM     78  O   UNL A   1      33.640  36.414  28.939  1.00  0.00    -0.744 OA
ENDBRANCH  74  75
ENDBRANCH  42  67
BRANCH  54  79
ATOM     79  C   UNL A   1      43.061  34.701  33.536  1.00  0.00     0.058 A 
ATOM     80  C   UNL A   1      42.906  34.974  34.904  1.00  0.00     0.135 A 
ATOM     81  C   UNL A   1      43.702  35.665  32.741  1.00  0.00     0.135 A 
ATOM     82  F   UNL A   1      42.301  34.085  35.707  1.00  0.00    -0.206 F 
ATOM     83  C   UNL A   1      43.333  36.177  35.455  1.00  0.00     0.059 A 
ATOM     84  C   UNL A   1      44.164  36.861  33.277  1.00  0.00     0.059 A 
ATOM     85  F   UNL A   1      43.891  35.445  31.430  1.00  0.00    -0.206 F 
ATOM     86  C   UNL A   1      43.957  37.117  34.632  1.00  0.00     0.060 A 
BRANCH  86  87
ATOM     87  S   UNL A   1      44.508  38.674  35.357  1.00  0.00     0.124 S 
ATOM     88  O   UNL A   1      45.943  38.625  35.098  1.00  0.00    -0.237 OA
ATOM     89  O   UNL A   1      43.758  39.662  34.586  1.00  0.00    -0.237 OA
ATOM     90  O   UNL A   1      44.116  38.553  36.758  1.00  0.00    -0.744 OA
ENDBRANCH  86  87
ENDBRANCH  54  79
ENDBRANCH  28  29
ENDBRANCH  20  23
ENDBRANCH  18  19
ENDBRANCH   1  18
TORSDOF 18
ENDMDL
MODEL 3
REMARK VINA RESULT:      -8.5      3.917     10.587
REMARK SMILES COC(=O)/C=C(/CC(C)C)C(=O)NCCCCNC(=O)c1ccc(-c2c3nc(c(-c4c(F)cc(S(=O)(=O)[O-])cc4F)c4ccc([nH]4)c(-c4c(F)cc(S(=O)(=O)[O-])cc4F)c4nc(c(-c5c(F)cc(S(=O)(=O)[O-])cc5F)c5ccc2[nH]5)C=C4)C=C3)cc1
REMARK SMILES IDX 16 1 15 2 14 3 13 4 11 5 12 6 6 8 5 9 3 10 4 11 2 12 1 13
REMARK SMILES IDX 7 14 8 15 9 16 10 17 17 18 18 19 19 20 20 22 21 23 22 24
REMARK SMILES IDX 86 25 23 26 85 27 24 28 25 29 26 30 79 31 27 32 84 33 78 34
REMARK SMILES IDX 80 35 28 36 83 37 77 38 76 39 29 41 63 42 42 43 62 44 43 45
REMARK SMILES IDX 46 46 61 47 81 48 44 49 45 50 60 52 82 53 47 54 30 55 31 56
REMARK SMILES IDX 40 57 32 58 33 59 39 60 41 61 34 62 35 63 36 64 37 65 38 66
REMARK SMILES IDX 64 67 65 68 74 69 66 70 67 71 73 72 75 73 68 74 69 75 70 76
REMARK SMILES IDX 71 77 72 78 48 79 49 80 58 81 50 82 51 83 57 84 59 85 52 86
REMARK SMILES IDX 53 87 54 88 55 89 56 90
REMARK H PARENT 13 7 18 21 80 40 46 51
REMARK Flexibility Score: inf
ROOT
ATOM      1  C   UNL A   1      35.908  23.779  24.675  1.00  0.00     0.023 C 
ENDROOT
BRANCH   1   2
ATOM      2  C   UNL A   1      34.837  22.768  24.309  1.00  0.00     0.023 C 
BRANCH   2   3
ATOM      3  C   UNL A   1      33.943  23.164  23.134  1.00  0.00     0.116 C 
BRANCH   3   4
ATOM      4  N   UNL A   1      32.678  23.685  23.618  1.00  0.00    -0.352 N 
ATOM      5  C   UNL A   1      32.392  24.706  24.469  1.00  0.00     0.247 C 
ATOM      6  O   UNL A   1      31.532  24.473  25.320  1.00  0.00    -0.270 OA
ATOM      7  H   UNL A   1      31.886  23.216  23.268  1.00  0.00     0.163 HD
BRANCH   5   8
ATOM      8  C   UNL A   1      33.046  26.052  24.398  1.00  0.00     0.024 C 
ATOM      9  C   UNL A   1      32.985  26.752  23.243  1.00  0.00     0.102 C 
BRANCH   9  10
ATOM     10  C   UNL A   1      32.373  26.453  21.931  1.00  0.00     0.330 C 
ATOM     11  O   UNL A   1      31.250  26.858  21.661  1.00  0.00    -0.247 OA
BRANCH  10  12
ATOM     12  O   UNL A   1      33.215  25.830  21.081  1.00  0.00    -0.466 OA
ATOM     13  C   UNL A   1      32.625  25.468  19.830  1.00  0.00     0.282 C 
ENDBRANCH  10  12
ENDBRANCH   9  10
BRANCH   8  14
ATOM     14  C   UNL A   1      33.770  26.704  25.552  1.00  0.00     0.044 C 
BRANCH  14  15
ATOM     15  C   UNL A   1      33.096  27.942  26.194  1.00  0.00    -0.013 C 
ATOM     16  C   UNL A   1      31.848  27.695  27.036  1.00  0.00     0.008 C 
ATOM     17  C   UNL A   1      34.123  28.695  27.050  1.00  0.00     0.008 C 
ENDBRANCH  14  15
ENDBRANCH   8  14
ENDBRANCH   5   8
ENDBRANCH   3   4
ENDBRANCH   2   3
ENDBRANCH   1   2
BRANCH   1  18
ATOM     18  C   UNL A   1      36.537  23.562  26.038  1.00  0.00     0.116 C 
BRANCH  18  19
ATOM     19  N   UNL A   1      37.613  22.577  26.049  1.00  0.00    -0.352 N 
ATOM     20  C   UNL A   1      38.935  22.759  26.382  1.00  0.00     0.251 C 
ATOM     21  H   UNL A   1      37.361  21.663  25.782  1.00  0.00     0.163 HD
ATOM     22  O   UNL A   1      39.743  21.844  26.253  1.00  0.00    -0.269 OA
BRANCH  20  23
ATOM     23  C   UNL A   1      39.363  24.087  26.860  1.00  0.00     0.039 A 
ATOM     24  C   UNL A   1      39.338  24.367  28.226  1.00  0.00     0.014 A 
ATOM     25  C   UNL A   1      39.884  25.014  25.954  1.00  0.00     0.014 A 
ATOM     26  C   UNL A   1      39.903  25.556  28.687  1.00  0.00     0.010 A 
ATOM     27  C   UNL A   1      40.569  26.120  26.427  1.00  0.00     0.010 A 
ATOM     28  C   UNL A   1      40.556  26.425  27.795  1.00  0.00    -0.014 A 
BRANCH  28  29
ATOM     29  C   UNL A   1      41.176  27.691  28.255  1.00  0.00     0.031 A 
ATOM     30  C   UNL A   1      42.672  27.857  28.157  1.00  0.00     0.074 A 
ATOM     31  C   UNL A   1      40.414  28.655  28.807  1.00  0.00     0.049 A 
ATOM     32  N   UNL A   1      43.420  28.855  28.547  1.00  0.00    -0.248 NA
ATOM     33  C   UNL A   1      43.434  26.731  27.588  1.00  0.00     0.031 C 
ATOM     34  C   UNL A   1      38.968  28.574  29.033  1.00  0.00     0.029 A 
ATOM     35  N   UNL A   1      40.751  29.898  29.279  1.00  0.00    -0.354 N 
ATOM     36  C   UNL A   1      44.731  28.462  28.297  1.00  0.00     0.074 A 
ATOM     37  C   UNL A   1      44.683  27.106  27.806  1.00  0.00     0.031 C 
ATOM     38  C   UNL A   1      38.536  29.734  29.556  1.00  0.00     0.029 A 
ATOM     39  C   UNL A   1      39.676  30.628  29.730  1.00  0.00     0.049 A 
ATOM     40  H   UNL A   1      41.675  30.236  29.294  1.00  0.00     0.167 HD
ATOM     41  C   UNL A   1      45.870  29.181  28.418  1.00  0.00     0.037 A 
ATOM     42  C   UNL A   1      39.619  31.883  30.216  1.00  0.00     0.037 A 
ATOM     43  C   UNL A   1      45.899  30.552  28.851  1.00  0.00     0.049 A 
ATOM     44  C   UNL A   1      40.891  32.688  30.285  1.00  0.00     0.074 A 
ATOM     45  C   UNL A   1      46.984  31.403  28.950  1.00  0.00     0.029 A 
ATOM     46  N   UNL A   1      44.782  31.276  29.242  1.00  0.00    -0.354 N 
ATOM     47  N   UNL A   1      42.116  32.324  29.981  1.00  0.00    -0.248 NA
ATOM     48  C   UNL A   1      40.771  34.078  30.742  1.00  0.00     0.031 C 
ATOM     49  C   UNL A   1      46.528  32.633  29.434  1.00  0.00     0.029 A 
ATOM     50  C   UNL A   1      45.152  32.564  29.587  1.00  0.00     0.049 A 
ATOM     51  H   UNL A   1      43.862  30.926  29.270  1.00  0.00     0.167 HD
ATOM     52  C   UNL A   1      42.906  33.452  30.175  1.00  0.00     0.074 A 
ATOM     53  C   UNL A   1      42.018  34.510  30.611  1.00  0.00     0.031 C 
ATOM     54  C   UNL A   1      44.244  33.602  30.005  1.00  0.00     0.037 A 
BRANCH  41  55
ATOM     55  C   UNL A   1      47.164  28.504  28.054  1.00  0.00     0.058 A 
ATOM     56  C   UNL A   1      47.653  28.507  26.736  1.00  0.00     0.135 A 
ATOM     57  C   UNL A   1      47.926  27.845  29.030  1.00  0.00     0.135 A 
ATOM     58  F   UNL A   1      46.955  29.103  25.756  1.00  0.00    -0.206 F 
ATOM     59  C   UNL A   1      48.830  27.851  26.393  1.00  0.00     0.059 A 
ATOM     60  C   UNL A   1      49.125  27.210  28.716  1.00  0.00     0.059 A 
ATOM     61  F   UNL A   1      47.506  27.805  30.304  1.00  0.00    -0.206 F 
ATOM     62  C   UNL A   1      49.560  27.204  27.392  1.00  0.00     0.060 A 
BRANCH  62  63
ATOM     63  S   UNL A   1      51.087  26.360  26.931  1.00  0.00     0.124 S 
ATOM     64  O   UNL A   1      51.248  26.789  25.544  1.00  0.00    -0.237 OA
ATOM     65  O   UNL A   1      52.047  26.912  27.880  1.00  0.00    -0.237 OA
ATOM     66  O   UNL A   1      50.764  24.949  27.117  1.00  0.00    -0.744 OA
ENDBRANCH  62  63
ENDBRANCH  41  55
BRANCH  42  67
ATOM     67  C   UNL A   1      38.313  32.474  30.613  1.00  0.00     0.058 A 
ATOM     68  C   UNL A   1      37.828  32.339  31.923  1.00  0.00     0.135 A 
ATOM     69  C   UNL A   1      37.529  33.195  29.699  1.00  0.00     0.135 A 
ATOM     70  F   UNL A   1      38.540  31.657  32.834  1.00  0.00    -0.206 F 
ATOM     71  C   UNL A   1      36.602  32.874  32.308  1.00  0.00     0.059 A 
ATOM     72  C   UNL A   1      36.312  33.763  30.068  1.00  0.00     0.059 A 
ATOM     73  F   UNL A   1      37.957  33.374  28.440  1.00  0.00    -0.206 F 
ATOM     74  C   UNL A   1      35.851  33.585  31.372  1.00  0.00     0.060 A 
BRANCH  74  75
ATOM     75  S   UNL A   1      34.281  34.311  31.893  1.00  0.00     0.124 S 
ATOM     76  O   UNL A   1      33.751  33.269  32.763  1.00  0.00    -0.237 OA
ATOM     77  O   UNL A   1      34.715  35.537  32.555  1.00  0.00    -0.237 OA
ATOM     78  O   UNL A   1      33.569  34.508  30.633  1.00  0.00    -0.744 OA
ENDBRANCH  74  75
ENDBRANCH  42  67
BRANCH  54  79
ATOM     79  C   UNL A   1      44.815  34.972  30.239  1.00  0.00     0.058 A 
ATOM     80  C   UNL A   1      44.900  35.926  29.213  1.00  0.00     0.135 A 
ATOM     81  C   UNL A   1      45.253  35.344  31.521  1.00  0.00     0.135 A 
ATOM     82  F   UNL A   1      44.495  35.620  27.970  1.00  0.00    -0.206 F 
ATOM     83  C   UNL A   1      45.440  37.186  29.439  1.00  0.00     0.059 A 
ATOM     84  C   UNL A   1      45.766  36.610  31.776  1.00  0.00     0.059 A 
ATOM     85  F   UNL A   1      45.175  34.475  32.541  1.00  0.00    -0.206 F 
ATOM     86  C   UNL A   1      45.875  37.518  30.724  1.00  0.00     0.060 A 
BRANCH  86  87
ATOM     87  S   UNL A   1      46.573  39.157  31.007  1.00  0.00     0.124 S 
ATOM     88  O   UNL A   1      45.413  40.012  30.775  1.00  0.00    -0.237 OA
ATOM     89  O   UNL A   1      47.029  39.069  32.392  1.00  0.00    -0.237 OA
ATOM     90  O   UNL A   1      47.634  39.251  30.009  1.00  0.00    -0.744 OA
ENDBRANCH  86  87
ENDBRANCH  54  79
ENDBRANCH  28  29
ENDBRANCH  20  23
ENDBRANCH  18  19
ENDBRANCH   1  18
TORSDOF 18
ENDMDL
