MODEL 1
REMARK VINA RESULT:     -12.3      0.000      0.000
REMARK SMILES CCCc1c(C(=O)NCCCCNC(=O)c2ccc(-c3c4nc(c(-c5c(F)cc(S(=O)(=O)[O-])cc5F)c5ccc([nH]5)c(-c5c(F)cc(S(=O)(=O)[O-])cc5F)c5nc(c(-c6c(F)cc(S(=O)(=O)[O-])cc6F)c6ccc3[nH]6)C=C5)C=C4)cc2)nnn1-c1cccc(C(F)(F)F)c1
REMARK SMILES IDX 11 1 10 2 9 3 8 4 6 5 7 6 5 8 4 9 84 10 82 11 83 12 3 13
REMARK SMILES IDX 2 14 1 15 85 16 86 17 94 18 87 19 89 20 88 21 90 22 91 23
REMARK SMILES IDX 92 24 93 25 12 26 13 27 14 28 15 30 16 31 17 32 81 33 18 34
REMARK SMILES IDX 80 35 19 36 20 37 21 38 74 39 22 40 79 41 73 42 75 43 23 44
REMARK SMILES IDX 78 45 72 46 71 47 24 49 58 50 37 51 57 52 38 53 41 54 56 55
REMARK SMILES IDX 76 56 39 57 40 58 55 60 77 61 42 62 25 63 26 64 35 65 27 66
REMARK SMILES IDX 28 67 34 68 36 69 29 70 30 71 31 72 32 73 33 74 59 75 60 76
REMARK SMILES IDX 69 77 61 78 62 79 68 80 70 81 63 82 64 83 65 84 66 85 67 86
REMARK SMILES IDX 43 87 44 88 53 89 45 90 46 91 52 92 54 93 47 94 48 95 49 96
REMARK SMILES IDX 50 97 51 98
REMARK H PARENT 8 7 13 29 75 48 41 59
REMARK Flexibility Score: inf
ROOT
ATOM      1  C   UNL A   1      37.017  22.428  24.363  1.00  0.00     0.023 C 
ENDROOT
BRANCH   1   2
ATOM      2  C   UNL A   1      35.611  22.927  24.035  1.00  0.00     0.023 C 
BRANCH   2   3
ATOM      3  C   UNL A   1      34.476  22.391  24.894  1.00  0.00     0.116 C 
BRANCH   3   4
ATOM      4  N   UNL A   1      33.156  22.363  24.354  1.00  0.00    -0.351 N 
ATOM      5  C   UNL A   1      32.259  23.404  24.216  1.00  0.00     0.273 C 
ATOM      6  O   UNL A   1      31.284  23.148  23.503  1.00  0.00    -0.267 OA
ATOM      7  H   UNL A   1      32.842  21.485  24.039  1.00  0.00     0.163 HD
BRANCH   5   8
ATOM      8  C   UNL A   1      32.336  24.696  24.936  1.00  0.00     0.174 A 
ATOM      9  C   UNL A   1      32.847  25.996  24.733  1.00  0.00     0.078 A 
ATOM     10  N   UNL A   1      32.544  26.642  25.945  1.00  0.00    -0.217 N 
ATOM     11  N   UNL A   1      31.796  24.649  26.213  1.00  0.00    -0.124 NA
ATOM     12  N   UNL A   1      32.035  25.780  26.836  1.00  0.00    -0.061 NA
BRANCH   9  13
ATOM     13  C   UNL A   1      33.698  26.710  23.705  1.00  0.00     0.059 C 
BRANCH  13  14
ATOM     14  C   UNL A   1      33.070  27.768  22.798  1.00  0.00     0.003 C 
ATOM     15  C   UNL A   1      31.581  27.662  22.553  1.00  0.00     0.004 C 
ENDBRANCH  13  14
ENDBRANCH   9  13
BRANCH  10  16
ATOM     16  C   UNL A   1      32.843  27.965  26.359  1.00  0.00     0.067 A 
ATOM     17  C   UNL A   1      31.831  28.931  26.323  1.00  0.00     0.028 A 
ATOM     18  C   UNL A   1      34.114  28.294  26.844  1.00  0.00     0.041 A 
ATOM     19  C   UNL A   1      32.066  30.195  26.863  1.00  0.00     0.003 A 
ATOM     20  C   UNL A   1      34.354  29.561  27.393  1.00  0.00     0.058 A 
ATOM     21  C   UNL A   1      33.314  30.503  27.407  1.00  0.00     0.013 A 
BRANCH  20  22
ATOM     22  C   UNL A   1      35.702  29.907  27.977  1.00  0.00     0.416 C 
ATOM     23  F   UNL A   1      36.632  28.940  27.752  1.00  0.00    -0.166 F 
ATOM     24  F   UNL A   1      36.215  31.053  27.447  1.00  0.00    -0.166 F 
ATOM     25  F   UNL A   1      35.675  30.101  29.325  1.00  0.00    -0.166 F 
ENDBRANCH  20  22
ENDBRANCH  10  16
ENDBRANCH   5   8
ENDBRANCH   3   4
ENDBRANCH   2   3
ENDBRANCH   1   2
BRANCH   1  26
ATOM     26  C   UNL A   1      37.635  22.997  25.637  1.00  0.00     0.116 C 
BRANCH  26  27
ATOM     27  N   UNL A   1      38.529  22.083  26.351  1.00  0.00    -0.352 N 
ATOM     28  C   UNL A   1      39.758  22.415  26.920  1.00  0.00     0.251 C 
ATOM     29  H   UNL A   1      38.236  21.148  26.438  1.00  0.00     0.163 HD
ATOM     30  O   UNL A   1      40.599  21.572  27.161  1.00  0.00    -0.269 OA
BRANCH  28  31
ATOM     31  C   UNL A   1      39.988  23.838  27.243  1.00  0.00     0.039 A 
ATOM     32  C   UNL A   1      38.985  24.806  27.150  1.00  0.00     0.014 A 
ATOM     33  C   UNL A   1      41.248  24.156  27.741  1.00  0.00     0.014 A 
ATOM     34  C   UNL A   1      39.245  26.083  27.650  1.00  0.00     0.010 A 
ATOM     35  C   UNL A   1      41.433  25.343  28.395  1.00  0.00     0.010 A 
ATOM     36  C   UNL A   1      40.468  26.335  28.293  1.00  0.00    -0.014 A 
BRANCH  36  37
ATOM     37  C   UNL A   1      40.739  27.602  28.962  1.00  0.00     0.031 A 
ATOM     38  C   UNL A   1      41.821  28.415  28.344  1.00  0.00     0.074 A 
ATOM     39  C   UNL A   1      39.924  28.106  29.916  1.00  0.00     0.049 A 
ATOM     40  N   UNL A   1      43.003  28.631  28.814  1.00  0.00    -0.248 NA
ATOM     41  C   UNL A   1      41.634  28.914  26.971  1.00  0.00     0.031 C 
ATOM     42  C   UNL A   1      38.646  27.577  30.411  1.00  0.00     0.029 A 
ATOM     43  N   UNL A   1      40.027  29.282  30.587  1.00  0.00    -0.354 N 
ATOM     44  C   UNL A   1      43.621  29.502  27.921  1.00  0.00     0.074 A 
ATOM     45  C   UNL A   1      42.826  29.466  26.722  1.00  0.00     0.031 C 
ATOM     46  C   UNL A   1      37.993  28.534  31.107  1.00  0.00     0.029 A 
ATOM     47  C   UNL A   1      38.874  29.675  31.260  1.00  0.00     0.049 A 
ATOM     48  H   UNL A   1      40.854  29.816  30.597  1.00  0.00     0.167 HD
ATOM     49  C   UNL A   1      44.595  30.363  28.337  1.00  0.00     0.037 A 
ATOM     50  C   UNL A   1      38.662  30.866  31.880  1.00  0.00     0.037 A 
ATOM     51  C   UNL A   1      45.067  30.006  29.654  1.00  0.00     0.049 A 
ATOM     52  C   UNL A   1      40.006  31.439  32.165  1.00  0.00     0.074 A 
ATOM     53  C   UNL A   1      45.633  28.870  30.202  1.00  0.00     0.029 A 
ATOM     54  N   UNL A   1      44.599  30.738  30.720  1.00  0.00    -0.354 N 
ATOM     55  N   UNL A   1      40.858  30.893  32.993  1.00  0.00    -0.248 NA
ATOM     56  C   UNL A   1      40.593  32.307  31.154  1.00  0.00     0.031 C 
ATOM     57  C   UNL A   1      45.016  28.738  31.481  1.00  0.00     0.029 A 
ATOM     58  C   UNL A   1      44.189  29.845  31.678  1.00  0.00     0.049 A 
ATOM     59  H   UNL A   1      44.564  31.721  30.784  1.00  0.00     0.167 HD
ATOM     60  C   UNL A   1      42.088  30.990  32.358  1.00  0.00     0.074 A 
ATOM     61  C   UNL A   1      41.872  31.931  31.258  1.00  0.00     0.031 C 
ATOM     62  C   UNL A   1      43.087  30.084  32.586  1.00  0.00     0.037 A 
BRANCH  49  63
ATOM     63  C   UNL A   1      44.865  31.726  27.740  1.00  0.00     0.058 A 
ATOM     64  C   UNL A   1      46.080  31.946  27.057  1.00  0.00     0.135 A 
ATOM     65  C   UNL A   1      44.124  32.888  28.049  1.00  0.00     0.135 A 
ATOM     66  F   UNL A   1      46.867  30.915  26.710  1.00  0.00    -0.206 F 
ATOM     67  C   UNL A   1      46.562  33.226  26.778  1.00  0.00     0.059 A 
ATOM     68  C   UNL A   1      44.561  34.170  27.732  1.00  0.00     0.059 A 
ATOM     69  F   UNL A   1      42.990  32.849  28.757  1.00  0.00    -0.206 F 
ATOM     70  C   UNL A   1      45.799  34.332  27.136  1.00  0.00     0.060 A 
BRANCH  70  71
ATOM     71  S   UNL A   1      46.464  35.984  26.870  1.00  0.00     0.124 S 
ATOM     72  O   UNL A   1      47.244  36.183  28.086  1.00  0.00    -0.237 OA
ATOM     73  O   UNL A   1      47.230  35.805  25.640  1.00  0.00    -0.237 OA
ATOM     74  O   UNL A   1      45.268  36.810  26.742  1.00  0.00    -0.744 OA
ENDBRANCH  70  71
ENDBRANCH  49  63
BRANCH  50  75
ATOM     75  C   UNL A   1      37.410  31.675  31.882  1.00  0.00     0.058 A 
ATOM     76  C   UNL A   1      36.700  31.929  33.071  1.00  0.00     0.135 A 
ATOM     77  C   UNL A   1      37.033  32.448  30.764  1.00  0.00     0.135 A 
ATOM     78  F   UNL A   1      37.001  31.256  34.192  1.00  0.00    -0.206 F 
ATOM     79  C   UNL A   1      35.715  32.924  33.158  1.00  0.00     0.059 A 
ATOM     80  C   UNL A   1      36.051  33.439  30.825  1.00  0.00     0.059 A 
ATOM     81  F   UNL A   1      37.674  32.330  29.592  1.00  0.00    -0.206 F 
ATOM     82  C   UNL A   1      35.413  33.689  32.033  1.00  0.00     0.060 A 
BRANCH  82  83
ATOM     83  S   UNL A   1      34.278  35.093  32.180  1.00  0.00     0.124 S 
ATOM     84  O   UNL A   1      34.066  35.458  30.784  1.00  0.00    -0.237 OA
ATOM     85  O   UNL A   1      33.136  34.496  32.864  1.00  0.00    -0.237 OA
ATOM     86  O   UNL A   1      35.035  36.060  32.970  1.00  0.00    -0.744 OA
ENDBRANCH  82  83
ENDBRANCH  50  75
BRANCH  62  87
ATOM     87  C   UNL A   1      42.942  29.114  33.735  1.00  0.00     0.058 A 
ATOM     88  C   UNL A   1      43.257  29.404  35.076  1.00  0.00     0.135 A 
ATOM     89  C   UNL A   1      42.287  27.898  33.488  1.00  0.00     0.135 A 
ATOM     90  F   UNL A   1      43.787  30.584  35.421  1.00  0.00    -0.206 F 
ATOM     91  C   UNL A   1      42.971  28.511  36.113  1.00  0.00     0.059 A 
ATOM     92  C   UNL A   1      41.963  27.008  34.508  1.00  0.00     0.059 A 
ATOM     93  F   UNL A   1      41.898  27.586  32.240  1.00  0.00    -0.206 F 
ATOM     94  C   UNL A   1      42.320  27.315  35.818  1.00  0.00     0.060 A 
BRANCH  94  95
ATOM     95  S   UNL A   1      41.889  26.189  37.164  1.00  0.00     0.124 S 
ATOM     96  O   UNL A   1      41.909  24.891  36.496  1.00  0.00    -0.237 OA
ATOM     97  O   UNL A   1      42.959  26.422  38.129  1.00  0.00    -0.237 OA
ATOM     98  O   UNL A   1      40.569  26.652  37.587  1.00  0.00    -0.744 OA
ENDBRANCH  94  95
ENDBRANCH  62  87
ENDBRANCH  36  37
ENDBRANCH  28  31
ENDBRANCH  26  27
ENDBRANCH   1  26
TORSDOF 18
ENDMDL
MODEL 2
REMARK VINA RESULT:     -12.2      3.405      9.637
REMARK SMILES CCCc1c(C(=O)NCCCCNC(=O)c2ccc(-c3c4nc(c(-c5c(F)cc(S(=O)(=O)[O-])cc5F)c5ccc([nH]5)c(-c5c(F)cc(S(=O)(=O)[O-])cc5F)c5nc(c(-c6c(F)cc(S(=O)(=O)[O-])cc6F)c6ccc3[nH]6)C=C5)C=C4)cc2)nnn1-c1cccc(C(F)(F)F)c1
REMARK SMILES IDX 11 1 10 2 9 3 8 4 6 5 7 6 5 8 4 9 84 10 82 11 83 12 3 13
REMARK SMILES IDX 2 14 1 15 85 16 86 17 94 18 87 19 89 20 88 21 90 22 91 23
REMARK SMILES IDX 92 24 93 25 12 26 13 27 14 28 15 30 16 31 17 32 81 33 18 34
REMARK SMILES IDX 80 35 19 36 20 37 21 38 74 39 22 40 79 41 73 42 75 43 23 44
REMARK SMILES IDX 78 45 72 46 71 47 24 49 58 50 37 51 57 52 38 53 41 54 56 55
REMARK SMILES IDX 76 56 39 57 40 58 55 60 77 61 42 62 25 63 26 64 35 65 27 66
REMARK SMILES IDX 28 67 34 68 36 69 29 70 30 71 31 72 32 73 33 74 59 75 60 76
REMARK SMILES IDX 69 77 61 78 62 79 68 80 70 81 63 82 64 83 65 84 66 85 67 86
REMARK SMILES IDX 43 87 44 88 53 89 45 90 46 91 52 92 54 93 47 94 48 95 49 96
REMARK SMILES IDX 50 97 51 98
REMARK H PARENT 8 7 13 29 75 48 41 59
REMARK Flexibility Score: inf
ROOT
ATOM      1  C   UNL A   1      32.193  29.598  27.145  1.00  0.00     0.023 C 
ENDROOT
BRANCH   1   2
ATOM      2  C   UNL A   1      31.764  30.103  25.769  1.00  0.00     0.023 C 
BRANCH   2   3
ATOM      3  C   UNL A   1      32.390  29.420  24.563  1.00  0.00     0.116 C 
BRANCH   3   4
ATOM      4  N   UNL A   1      31.630  29.309  23.361  1.00  0.00    -0.351 N 
ATOM      5  C   UNL A   1      31.354  28.179  22.618  1.00  0.00     0.273 C 
ATOM      6  O   UNL A   1      30.480  28.331  21.759  1.00  0.00    -0.267 OA
ATOM      7  H   UNL A   1      31.254  30.150  23.014  1.00  0.00     0.163 HD
BRANCH   5   8
ATOM      8  C   UNL A   1      32.094  26.899  22.707  1.00  0.00     0.174 A 
ATOM      9  C   UNL A   1      32.236  25.814  23.599  1.00  0.00     0.078 A 
ATOM     10  N   UNL A   1      33.187  25.003  22.954  1.00  0.00    -0.217 N 
ATOM     11  N   UNL A   1      32.949  26.679  21.637  1.00  0.00    -0.124 NA
ATOM     12  N   UNL A   1      33.673  25.607  21.860  1.00  0.00    -0.061 NA
BRANCH   9  13
ATOM     13  C   UNL A   1      31.787  25.457  25.000  1.00  0.00     0.059 C 
BRANCH  13  14
ATOM     14  C   UNL A   1      32.750  25.623  26.174  1.00  0.00     0.003 C 
ATOM     15  C   UNL A   1      33.888  26.603  25.992  1.00  0.00     0.004 C 
ENDBRANCH  13  14
ENDBRANCH   9  13
BRANCH  10  16
ATOM     16  C   UNL A   1      33.768  23.783  23.382  1.00  0.00     0.067 A 
ATOM     17  C   UNL A   1      35.097  23.783  23.823  1.00  0.00     0.028 A 
ATOM     18  C   UNL A   1      33.017  22.602  23.411  1.00  0.00     0.041 A 
ATOM     19  C   UNL A   1      35.637  22.627  24.383  1.00  0.00     0.003 A 
ATOM     20  C   UNL A   1      33.553  21.437  23.979  1.00  0.00     0.058 A 
ATOM     21  C   UNL A   1      34.866  21.467  24.474  1.00  0.00     0.013 A 
BRANCH  20  22
ATOM     22  C   UNL A   1      32.730  20.176  24.075  1.00  0.00     0.416 C 
ATOM     23  F   UNL A   1      31.791  20.239  25.056  1.00  0.00    -0.166 F 
ATOM     24  F   UNL A   1      32.052  19.914  22.922  1.00  0.00    -0.166 F 
ATOM     25  F   UNL A   1      33.472  19.063  24.330  1.00  0.00    -0.166 F 
ENDBRANCH  20  22
ENDBRANCH  10  16
ENDBRANCH   5   8
ENDBRANCH   3   4
ENDBRANCH   2   3
ENDBRANCH   1   2
BRANCH   1  26
ATOM     26  C   UNL A   1      33.609  29.976  27.571  1.00  0.00     0.116 C 
BRANCH  26  27
ATOM     27  N   UNL A   1      34.021  31.334  27.207  1.00  0.00    -0.352 N 
ATOM     28  C   UNL A   1      35.178  31.983  27.635  1.00  0.00     0.251 C 
ATOM     29  H   UNL A   1      33.426  31.835  26.604  1.00  0.00     0.163 HD
ATOM     30  O   UNL A   1      35.280  33.193  27.608  1.00  0.00    -0.269 OA
BRANCH  28  31
ATOM     31  C   UNL A   1      36.293  31.133  28.102  1.00  0.00     0.039 A 
ATOM     32  C   UNL A   1      36.506  29.837  27.626  1.00  0.00     0.014 A 
ATOM     33  C   UNL A   1      37.189  31.730  28.984  1.00  0.00     0.014 A 
ATOM     34  C   UNL A   1      37.685  29.182  27.984  1.00  0.00     0.010 A 
ATOM     35  C   UNL A   1      38.419  31.163  29.179  1.00  0.00     0.010 A 
ATOM     36  C   UNL A   1      38.648  29.865  28.746  1.00  0.00    -0.014 A 
BRANCH  36  37
ATOM     37  C   UNL A   1      39.957  29.288  29.028  1.00  0.00     0.031 A 
ATOM     38  C   UNL A   1      40.256  29.098  30.473  1.00  0.00     0.074 A 
ATOM     39  C   UNL A   1      40.736  28.752  28.062  1.00  0.00     0.049 A 
ATOM     40  N   UNL A   1      41.091  29.769  31.194  1.00  0.00    -0.248 NA
ATOM     41  C   UNL A   1      39.421  28.169  31.253  1.00  0.00     0.031 C 
ATOM     42  C   UNL A   1      40.443  28.575  26.633  1.00  0.00     0.029 A 
ATOM     43  N   UNL A   1      41.945  28.146  28.184  1.00  0.00    -0.354 N 
ATOM     44  C   UNL A   1      41.073  29.180  32.455  1.00  0.00     0.074 A 
ATOM     45  C   UNL A   1      39.891  28.359  32.489  1.00  0.00     0.031 C 
ATOM     46  C   UNL A   1      41.325  27.708  26.089  1.00  0.00     0.029 A 
ATOM     47  C   UNL A   1      42.345  27.408  27.074  1.00  0.00     0.049 A 
ATOM     48  H   UNL A   1      42.498  28.225  28.995  1.00  0.00     0.167 HD
ATOM     49  C   UNL A   1      42.166  29.228  33.271  1.00  0.00     0.037 A 
ATOM     50  C   UNL A   1      43.430  26.594  26.988  1.00  0.00     0.037 A 
ATOM     51  C   UNL A   1      43.123  30.197  32.789  1.00  0.00     0.049 A 
ATOM     52  C   UNL A   1      44.370  27.030  28.058  1.00  0.00     0.074 A 
ATOM     53  C   UNL A   1      43.076  31.554  32.527  1.00  0.00     0.029 A 
ATOM     54  N   UNL A   1      44.219  29.726  32.105  1.00  0.00    -0.354 N 
ATOM     55  N   UNL A   1      44.955  28.199  28.066  1.00  0.00    -0.248 NA
ATOM     56  C   UNL A   1      44.250  26.387  29.358  1.00  0.00     0.031 C 
ATOM     57  C   UNL A   1      43.806  31.715  31.313  1.00  0.00     0.029 A 
ATOM     58  C   UNL A   1      44.336  30.472  30.959  1.00  0.00     0.049 A 
ATOM     59  H   UNL A   1      44.811  28.990  32.385  1.00  0.00     0.167 HD
ATOM     60  C   UNL A   1      44.883  28.627  29.384  1.00  0.00     0.074 A 
ATOM     61  C   UNL A   1      44.498  27.437  30.147  1.00  0.00     0.031 C 
ATOM     62  C   UNL A   1      44.846  29.955  29.707  1.00  0.00     0.037 A 
BRANCH  49  63
ATOM     63  C   UNL A   1      42.551  28.167  34.275  1.00  0.00     0.058 A 
ATOM     64  C   UNL A   1      42.439  28.455  35.652  1.00  0.00     0.135 A 
ATOM     65  C   UNL A   1      43.281  27.001  33.958  1.00  0.00     0.135 A 
ATOM     66  F   UNL A   1      41.765  29.537  36.074  1.00  0.00    -0.206 F 
ATOM     67  C   UNL A   1      43.076  27.691  36.632  1.00  0.00     0.059 A 
ATOM     68  C   UNL A   1      43.879  26.196  34.922  1.00  0.00     0.059 A 
ATOM     69  F   UNL A   1      43.537  26.636  32.696  1.00  0.00    -0.206 F 
ATOM     70  C   UNL A   1      43.807  26.571  36.252  1.00  0.00     0.060 A 
BRANCH  70  71
ATOM     71  S   UNL A   1      44.713  25.644  37.502  1.00  0.00     0.124 S 
ATOM     72  O   UNL A   1      44.443  24.269  37.097  1.00  0.00    -0.237 OA
ATOM     73  O   UNL A   1      46.078  26.116  37.297  1.00  0.00    -0.237 OA
ATOM     74  O   UNL A   1      44.090  26.070  38.752  1.00  0.00    -0.744 OA
ENDBRANCH  70  71
ENDBRANCH  49  63
BRANCH  50  75
ATOM     75  C   UNL A   1      43.516  25.268  26.313  1.00  0.00     0.058 A 
ATOM     76  C   UNL A   1      44.437  25.028  25.276  1.00  0.00     0.135 A 
ATOM     77  C   UNL A   1      42.890  24.125  26.856  1.00  0.00     0.135 A 
ATOM     78  F   UNL A   1      45.095  26.051  24.710  1.00  0.00    -0.206 F 
ATOM     79  C   UNL A   1      44.756  23.733  24.841  1.00  0.00     0.059 A 
ATOM     80  C   UNL A   1      43.187  22.828  26.435  1.00  0.00     0.059 A 
ATOM     81  F   UNL A   1      42.035  24.227  27.883  1.00  0.00    -0.206 F 
ATOM     82  C   UNL A   1      44.141  22.637  25.443  1.00  0.00     0.060 A 
BRANCH  82  83
ATOM     83  S   UNL A   1      44.677  20.960  25.017  1.00  0.00     0.124 S 
ATOM     84  O   UNL A   1      43.686  20.142  25.707  1.00  0.00    -0.237 OA
ATOM     85  O   UNL A   1      44.596  20.971  23.561  1.00  0.00    -0.237 OA
ATOM     86  O   UNL A   1      46.031  20.890  25.561  1.00  0.00    -0.744 OA
ENDBRANCH  82  83
ENDBRANCH  50  75
BRANCH  62  87
ATOM     87  C   UNL A   1      45.145  30.974  28.632  1.00  0.00     0.058 A 
ATOM     88  C   UNL A   1      44.210  31.451  27.695  1.00  0.00     0.135 A 
ATOM     89  C   UNL A   1      46.388  31.624  28.673  1.00  0.00     0.135 A 
ATOM     90  F   UNL A   1      42.964  30.963  27.653  1.00  0.00    -0.206 F 
ATOM     91  C   UNL A   1      44.511  32.495  26.815  1.00  0.00     0.059 A 
ATOM     92  C   UNL A   1      46.698  32.688  27.829  1.00  0.00     0.059 A 
ATOM     93  F   UNL A   1      47.305  31.265  29.588  1.00  0.00    -0.206 F 
ATOM     94  C   UNL A   1      45.759  33.109  26.892  1.00  0.00     0.060 A 
BRANCH  94  95
ATOM     95  S   UNL A   1      46.127  34.503  25.803  1.00  0.00     0.124 S 
ATOM     96  O   UNL A   1      47.542  34.299  25.511  1.00  0.00    -0.237 OA
ATOM     97  O   UNL A   1      45.212  34.284  24.686  1.00  0.00    -0.237 OA
ATOM     98  O   UNL A   1      45.822  35.670  26.626  1.00  0.00    -0.744 OA
ENDBRANCH  94  95
ENDBRANCH  62  87
ENDBRANCH  36  37
ENDBRANCH  28  31
ENDBRANCH  26  27
ENDBRANCH   1  26
TORSDOF 18
ENDMDL
MODEL 3
REMARK VINA RESULT:     -12.0      3.727      5.725
REMARK SMILES CCCc1c(C(=O)NCCCCNC(=O)c2ccc(-c3c4nc(c(-c5c(F)cc(S(=O)(=O)[O-])cc5F)c5ccc([nH]5)c(-c5c(F)cc(S(=O)(=O)[O-])cc5F)c5nc(c(-c6c(F)cc(S(=O)(=O)[O-])cc6F)c6ccc3[nH]6)C=C5)C=C4)cc2)nnn1-c1cccc(C(F)(F)F)c1
REMARK SMILES IDX 11 1 10 2 9 3 8 4 6 5 7 6 5 8 4 9 84 10 82 11 83 12 3 13
REMARK SMILES IDX 2 14 1 15 85 16 86 17 94 18 87 19 89 20 88 21 90 22 91 23
REMARK SMILES IDX 92 24 93 25 12 26 13 27 14 28 15 30 16 31 17 32 81 33 18 34
REMARK SMILES IDX 80 35 19 36 20 37 21 38 74 39 22 40 79 41 73 42 75 43 23 44
REMARK SMILES IDX 78 45 72 46 71 47 24 49 58 50 37 51 57 52 38 53 41 54 56 55
REMARK SMILES IDX 76 56 39 57 40 58 55 60 77 61 42 62 25 63 26 64 35 65 27 66
REMARK SMILES IDX 28 67 34 68 36 69 29 70 30 71 31 72 32 73 33 74 59 75 60 76
REMARK SMILES IDX 69 77 61 78 62 79 68 80 70 81 63 82 64 83 65 84 66 85 67 86
REMARK SMILES IDX 43 87 44 88 53 89 45 90 46 91 52 92 54 93 47 94 48 95 49 96
REMARK SMILES IDX 50 97 51 98
REMARK H PARENT 8 7 13 29 75 48 41 59
REMARK Flexibility Score: inf
ROOT
ATOM      1  C   UNL A   1      42.270  20.649  27.598  1.00  0.00     0.023 C 
ENDROOT
BRANCH   1   2
ATOM      2  C   UNL A   1      41.259  21.752  27.902  1.00  0.00     0.023 C 
BRANCH   2   3
ATOM      3  C   UNL A   1      40.044  21.837  26.991  1.00  0.00     0.116 C 
BRANCH   3   4
ATOM      4  N   UNL A   1      39.401  23.098  26.814  1.00  0.00    -0.351 N 
ATOM      5  C   UNL A   1      38.089  23.354  26.466  1.00  0.00     0.273 C 
ATOM      6  O   UNL A   1      37.740  24.529  26.615  1.00  0.00    -0.267 OA
ATOM      7  H   UNL A   1      39.966  23.890  26.959  1.00  0.00     0.163 HD
BRANCH   5   8
ATOM      8  C   UNL A   1      37.167  22.378  25.840  1.00  0.00     0.174 A 
ATOM      9  C   UNL A   1      35.836  21.932  25.985  1.00  0.00     0.078 A 
ATOM     10  N   UNL A   1      35.738  20.922  25.010  1.00  0.00    -0.217 N 
ATOM     11  N   UNL A   1      37.758  21.623  24.838  1.00  0.00    -0.124 NA
ATOM     12  N   UNL A   1      36.928  20.687  24.440  1.00  0.00    -0.061 NA
BRANCH   9  13
ATOM     13  C   UNL A   1      34.688  22.144  26.949  1.00  0.00     0.059 C 
BRANCH  13  14
ATOM     14  C   UNL A   1      33.762  23.347  26.778  1.00  0.00     0.003 C 
ATOM     15  C   UNL A   1      32.324  23.171  27.213  1.00  0.00     0.004 C 
ENDBRANCH  13  14
ENDBRANCH   9  13
BRANCH  10  16
ATOM     16  C   UNL A   1      34.645  20.074  24.699  1.00  0.00     0.067 A 
ATOM     17  C   UNL A   1      33.400  20.649  24.419  1.00  0.00     0.028 A 
ATOM     18  C   UNL A   1      34.814  18.687  24.623  1.00  0.00     0.041 A 
ATOM     19  C   UNL A   1      32.355  19.844  23.969  1.00  0.00     0.003 A 
ATOM     20  C   UNL A   1      33.768  17.873  24.165  1.00  0.00     0.058 A 
ATOM     21  C   UNL A   1      32.542  18.468  23.829  1.00  0.00     0.013 A 
BRANCH  20  22
ATOM     22  C   UNL A   1      33.958  16.383  24.017  1.00  0.00     0.416 C 
ATOM     23  F   UNL A   1      34.968  15.906  24.793  1.00  0.00    -0.166 F 
ATOM     24  F   UNL A   1      32.845  15.684  24.376  1.00  0.00    -0.166 F 
ATOM     25  F   UNL A   1      34.245  15.997  22.742  1.00  0.00    -0.166 F 
ENDBRANCH  20  22
ENDBRANCH  10  16
ENDBRANCH   5   8
ENDBRANCH   3   4
ENDBRANCH   2   3
ENDBRANCH   1   2
BRANCH   1  26
ATOM     26  C   UNL A   1      42.276  20.141  26.160  1.00  0.00     0.116 C 
BRANCH  26  27
ATOM     27  N   UNL A   1      43.595  19.773  25.640  1.00  0.00    -0.352 N 
ATOM     28  C   UNL A   1      44.533  20.646  25.089  1.00  0.00     0.251 C 
ATOM     29  H   UNL A   1      43.843  18.822  25.684  1.00  0.00     0.163 HD
ATOM     30  O   UNL A   1      45.420  20.251  24.358  1.00  0.00    -0.269 OA
BRANCH  28  31
ATOM     31  C   UNL A   1      44.419  22.073  25.451  1.00  0.00     0.039 A 
ATOM     32  C   UNL A   1      43.471  22.925  24.878  1.00  0.00     0.014 A 
ATOM     33  C   UNL A   1      45.254  22.513  26.474  1.00  0.00     0.014 A 
ATOM     34  C   UNL A   1      43.317  24.205  25.414  1.00  0.00     0.010 A 
ATOM     35  C   UNL A   1      44.973  23.690  27.112  1.00  0.00     0.010 A 
ATOM     36  C   UNL A   1      44.060  24.570  26.549  1.00  0.00    -0.014 A 
BRANCH  36  37
ATOM     37  C   UNL A   1      43.839  25.835  27.239  1.00  0.00     0.031 A 
ATOM     38  C   UNL A   1      44.800  26.915  26.888  1.00  0.00     0.074 A 
ATOM     39  C   UNL A   1      42.720  26.083  27.956  1.00  0.00     0.049 A 
ATOM     40  N   UNL A   1      45.743  27.394  27.628  1.00  0.00    -0.248 NA
ATOM     41  C   UNL A   1      44.831  27.410  25.501  1.00  0.00     0.031 C 
ATOM     42  C   UNL A   1      41.533  25.235  28.136  1.00  0.00     0.029 A 
ATOM     43  N   UNL A   1      42.362  27.218  28.609  1.00  0.00    -0.354 N 
ATOM     44  C   UNL A   1      46.321  28.428  26.895  1.00  0.00     0.074 A 
ATOM     45  C   UNL A   1      45.872  28.248  25.539  1.00  0.00     0.031 C 
ATOM     46  C   UNL A   1      40.515  25.972  28.632  1.00  0.00     0.029 A 
ATOM     47  C   UNL A   1      41.021  27.287  28.974  1.00  0.00     0.049 A 
ATOM     48  H   UNL A   1      43.003  27.938  28.810  1.00  0.00     0.167 HD
ATOM     49  C   UNL A   1      46.920  29.483  27.518  1.00  0.00     0.037 A 
ATOM     50  C   UNL A   1      40.377  28.361  29.500  1.00  0.00     0.037 A 
ATOM     51  C   UNL A   1      47.136  29.197  28.918  1.00  0.00     0.049 A 
ATOM     52  C   UNL A   1      41.427  29.235  30.093  1.00  0.00     0.074 A 
ATOM     53  C   UNL A   1      47.817  28.213  29.609  1.00  0.00     0.029 A 
ATOM     54  N   UNL A   1      46.258  29.746  29.823  1.00  0.00    -0.354 N 
ATOM     55  N   UNL A   1      42.163  28.880  31.113  1.00  0.00    -0.248 NA
ATOM     56  C   UNL A   1      42.005  30.262  29.239  1.00  0.00     0.031 C 
ATOM     57  C   UNL A   1      46.964  27.879  30.701  1.00  0.00     0.029 A 
ATOM     58  C   UNL A   1      45.865  28.740  30.670  1.00  0.00     0.049 A 
ATOM     59  H   UNL A   1      45.966  30.686  29.859  1.00  0.00     0.167 HD
ATOM     60  C   UNL A   1      43.446  29.303  30.796  1.00  0.00     0.074 A 
ATOM     61  C   UNL A   1      43.273  30.209  29.658  1.00  0.00     0.031 C 
ATOM     62  C   UNL A   1      44.553  28.662  31.278  1.00  0.00     0.037 A 
BRANCH  49  63
ATOM     63  C   UNL A   1      46.978  30.894  26.980  1.00  0.00     0.058 A 
ATOM     64  C   UNL A   1      48.206  31.590  27.013  1.00  0.00     0.135 A 
ATOM     65  C   UNL A   1      45.842  31.683  26.698  1.00  0.00     0.135 A 
ATOM     66  F   UNL A   1      49.354  30.943  27.270  1.00  0.00    -0.206 F 
ATOM     67  C   UNL A   1      48.286  32.975  26.864  1.00  0.00     0.059 A 
ATOM     68  C   UNL A   1      45.907  33.058  26.493  1.00  0.00     0.059 A 
ATOM     69  F   UNL A   1      44.601  31.183  26.704  1.00  0.00    -0.206 F 
ATOM     70  C   UNL A   1      47.125  33.701  26.620  1.00  0.00     0.060 A 
BRANCH  70  71
ATOM     71  S   UNL A   1      47.212  35.498  26.528  1.00  0.00     0.124 S 
ATOM     72  O   UNL A   1      48.030  35.689  25.336  1.00  0.00    -0.237 OA
ATOM     73  O   UNL A   1      45.804  35.860  26.404  1.00  0.00    -0.237 OA
ATOM     74  O   UNL A   1      47.839  35.868  27.793  1.00  0.00    -0.744 OA
ENDBRANCH  70  71
ENDBRANCH  49  63
BRANCH  50  75
ATOM     75  C   UNL A   1      39.000  28.837  29.182  1.00  0.00     0.058 A 
ATOM     76  C   UNL A   1      38.048  29.067  30.193  1.00  0.00     0.135 A 
ATOM     77  C   UNL A   1      38.674  29.342  27.905  1.00  0.00     0.135 A 
ATOM     78  F   UNL A   1      38.279  28.639  31.444  1.00  0.00    -0.206 F 
ATOM     79  C   UNL A   1      36.873  29.797  29.965  1.00  0.00     0.059 A 
ATOM     80  C   UNL A   1      37.507  30.066  27.653  1.00  0.00     0.059 A 
ATOM     81  F   UNL A   1      39.527  29.229  26.877  1.00  0.00    -0.206 F 
ATOM     82  C   UNL A   1      36.622  30.312  28.695  1.00  0.00     0.060 A 
BRANCH  82  83
ATOM     83  S   UNL A   1      35.202  31.406  28.434  1.00  0.00     0.124 S 
ATOM     84  O   UNL A   1      34.243  30.509  27.799  1.00  0.00    -0.237 OA
ATOM     85  O   UNL A   1      34.882  31.825  29.793  1.00  0.00    -0.237 OA
ATOM     86  O   UNL A   1      35.738  32.456  27.572  1.00  0.00    -0.744 OA
ENDBRANCH  82  83
ENDBRANCH  50  75
BRANCH  62  87
ATOM     87  C   UNL A   1      44.382  27.638  32.375  1.00  0.00     0.058 A 
ATOM     88  C   UNL A   1      44.208  27.943  33.738  1.00  0.00     0.135 A 
ATOM     89  C   UNL A   1      44.209  26.297  32.000  1.00  0.00     0.135 A 
ATOM     90  F   UNL A   1      44.249  29.208  34.174  1.00  0.00    -0.206 F 
ATOM     91  C   UNL A   1      43.916  26.957  34.685  1.00  0.00     0.059 A 
ATOM     92  C   UNL A   1      43.886  25.303  32.921  1.00  0.00     0.059 A 
ATOM     93  F   UNL A   1      44.296  25.945  30.705  1.00  0.00    -0.206 F 
ATOM     94  C   UNL A   1      43.755  25.638  34.265  1.00  0.00     0.060 A 
BRANCH  94  95
ATOM     95  S   UNL A   1      43.312  24.373  35.476  1.00  0.00     0.124 S 
ATOM     96  O   UNL A   1      44.319  23.346  35.229  1.00  0.00    -0.237 OA
ATOM     97  O   UNL A   1      43.435  25.088  36.743  1.00  0.00    -0.237 OA
ATOM     98  O   UNL A   1      41.947  24.009  35.106  1.00  0.00    -0.744 OA
ENDBRANCH  94  95
ENDBRANCH  62  87
ENDBRANCH  36  37
ENDBRANCH  28  31
ENDBRANCH  26  27
ENDBRANCH   1  26
TORSDOF 18
ENDMDL
