MODEL 1
REMARK VINA RESULT:     -11.7      0.000      0.000
REMARK SMILES O=C(C[C@H](NC(=O)[C@]12C[C@H]3C[C@H](C[C@H](C3)C1)C2)c1cccc([N+](=O)[O-])c1)NCCCCNC(=O)c1ccc(-c2c3nc(c(-c4c(F)cc(S(=O)(=O)[O-])cc4F)c4ccc([nH]4)c(-c4c(F)cc(S(=O)(=O)[O-])cc4F)c4nc(c(-c5c(F)cc(S(=O)(=O)[O-])cc5F)c5ccc2[nH]5)C=C4)C=C3)cc1
REMARK SMILES IDX 29 1 28 2 27 3 1 4 2 5 3 7 4 8 18 9 19 10 26 11 20 12 22 13
REMARK SMILES IDX 21 14 23 15 24 16 25 17 5 18 6 19 7 21 8 22 9 23 16 24 17 25
REMARK SMILES IDX 10 26 14 27 12 28 11 29 15 30 13 31 30 32 31 33 32 34 33 35
REMARK SMILES IDX 34 37 35 38 36 39 100 40 37 41 99 42 38 43 39 44 40 45 93 46
REMARK SMILES IDX 41 47 98 48 92 49 94 50 42 51 97 52 91 53 90 54 43 56 77 57
REMARK SMILES IDX 56 58 76 59 57 60 60 61 75 62 95 63 58 64 59 65 74 67 96 68
REMARK SMILES IDX 61 69 44 70 45 71 54 72 46 73 47 74 53 75 55 76 48 77 49 78
REMARK SMILES IDX 50 79 51 80 52 81 78 82 79 83 88 84 80 85 81 86 87 87 89 88
REMARK SMILES IDX 82 89 83 90 84 91 85 92 86 93 62 94 63 95 72 96 64 97 65 98
REMARK SMILES IDX 71 99 73 100 66 101 67 102 68 103 69 104 70 105
REMARK H PARENT 27 6 5 20 32 36 94 55 60 66
REMARK Flexibility Score: inf
ROOT
ATOM      1  C   UNL A   1      32.760  28.533  24.725  1.00  0.00     0.023 C 
ENDROOT
BRANCH   1   2
ATOM      2  C   UNL A   1      31.441  28.494  25.491  1.00  0.00     0.116 C 
BRANCH   2   3
ATOM      3  N   UNL A   1      30.657  27.328  25.155  1.00  0.00    -0.356 N 
ATOM      4  O   UNL A   1      31.382  26.089  26.939  1.00  0.00    -0.275 OA
ATOM      5  C   UNL A   1      30.755  26.168  25.891  1.00  0.00     0.222 C 
ATOM      6  H   UNL A   1      30.041  27.364  24.387  1.00  0.00     0.163 HD
BRANCH   5   7
ATOM      7  C   UNL A   1      30.023  25.023  25.251  1.00  0.00     0.129 C 
BRANCH   7   8
ATOM      8  C   UNL A   1      30.747  23.678  25.314  1.00  0.00     0.122 C 
BRANCH   8   9
ATOM      9  C   UNL A   1      31.445  23.407  23.977  1.00  0.00    -0.018 A 
ATOM     10  C   UNL A   1      31.640  22.117  23.463  1.00  0.00     0.006 A 
ATOM     11  C   UNL A   1      31.958  24.498  23.242  1.00  0.00     0.091 A 
ATOM     12  C   UNL A   1      32.325  21.916  22.258  1.00  0.00     0.007 A 
ATOM     13  C   UNL A   1      32.651  24.292  22.039  1.00  0.00     0.269 A 
ATOM     14  C   UNL A   1      32.836  23.000  21.543  1.00  0.00     0.085 A 
BRANCH  13  15
ATOM     15  N   UNL A   1      33.193  25.442  21.304  1.00  0.00     0.062 N 
ATOM     16  O   UNL A   1      32.920  25.536  20.100  1.00  0.00    -0.258 OA
ATOM     17  O   UNL A   1      33.890  26.248  21.937  1.00  0.00    -0.258 OA
ENDBRANCH  13  15
ENDBRANCH   8   9
BRANCH   8  18
ATOM     18  N   UNL A   1      31.536  23.225  26.480  1.00  0.00    -0.348 N 
ATOM     19  C   UNL A   1      32.749  22.853  26.935  1.00  0.00     0.226 C 
ATOM     20  H   UNL A   1      30.917  23.174  27.243  1.00  0.00     0.164 HD
ATOM     21  O   UNL A   1      32.722  22.469  28.117  1.00  0.00    -0.274 OA
BRANCH  19  22
ATOM     22  C   UNL A   1      34.114  22.907  26.220  1.00  0.00     0.050 C 
ATOM     23  C   UNL A   1      35.263  22.678  27.237  1.00  0.00     0.020 C 
ATOM     24  C   UNL A   1      34.358  24.181  25.410  1.00  0.00     0.020 C 
ATOM     25  C   UNL A   1      34.201  21.704  25.219  1.00  0.00     0.020 C 
ATOM     26  C   UNL A   1      36.634  22.679  26.534  1.00  0.00    -0.010 C 
ATOM     27  C   UNL A   1      35.723  24.161  24.711  1.00  0.00    -0.010 C 
ATOM     28  C   UNL A   1      35.564  21.669  24.497  1.00  0.00    -0.010 C 
ATOM     29  C   UNL A   1      36.693  21.520  25.529  1.00  0.00     0.007 C 
ATOM     30  C   UNL A   1      36.817  24.009  25.782  1.00  0.00     0.007 C 
ATOM     31  C   UNL A   1      35.767  22.983  23.732  1.00  0.00     0.007 C 
ENDBRANCH  19  22
ENDBRANCH   8  18
ENDBRANCH   7   8
ENDBRANCH   5   7
ENDBRANCH   2   3
ENDBRANCH   1   2
BRANCH   1  32
ATOM     32  C   UNL A   1      34.019  28.518  25.595  1.00  0.00     0.023 C 
BRANCH  32  33
ATOM     33  C   UNL A   1      33.768  28.529  27.095  1.00  0.00     0.116 C 
BRANCH  33  34
ATOM     34  N   UNL A   1      33.591  29.865  27.641  1.00  0.00    -0.352 N 
ATOM     35  C   UNL A   1      34.534  30.615  28.305  1.00  0.00     0.251 C 
ATOM     36  H   UNL A   1      32.703  30.275  27.524  1.00  0.00     0.163 HD
ATOM     37  O   UNL A   1      34.252  31.701  28.795  1.00  0.00    -0.269 OA
BRANCH  35  38
ATOM     38  C   UNL A   1      35.886  30.043  28.448  1.00  0.00     0.039 A 
ATOM     39  C   UNL A   1      36.766  30.120  27.367  1.00  0.00     0.014 A 
ATOM     40  C   UNL A   1      36.307  29.552  29.687  1.00  0.00     0.014 A 
ATOM     41  C   UNL A   1      38.097  29.748  27.547  1.00  0.00     0.010 A 
ATOM     42  C   UNL A   1      37.650  29.246  29.879  1.00  0.00     0.010 A 
ATOM     43  C   UNL A   1      38.557  29.338  28.811  1.00  0.00    -0.014 A 
BRANCH  43  44
ATOM     44  C   UNL A   1      39.983  28.990  29.026  1.00  0.00     0.031 A 
ATOM     45  C   UNL A   1      40.927  30.022  29.579  1.00  0.00     0.074 A 
ATOM     46  C   UNL A   1      40.434  27.768  28.682  1.00  0.00     0.049 A 
ATOM     47  N   UNL A   1      42.211  29.929  29.805  1.00  0.00    -0.248 NA
ATOM     48  C   UNL A   1      40.356  31.343  29.891  1.00  0.00     0.031 C 
ATOM     49  C   UNL A   1      39.625  26.703  28.086  1.00  0.00     0.029 A 
ATOM     50  N   UNL A   1      41.687  27.216  28.779  1.00  0.00    -0.354 N 
ATOM     51  C   UNL A   1      42.602  31.175  30.277  1.00  0.00     0.074 A 
ATOM     52  C   UNL A   1      41.433  32.027  30.245  1.00  0.00     0.031 C 
ATOM     53  C   UNL A   1      40.396  25.621  27.891  1.00  0.00     0.029 A 
ATOM     54  C   UNL A   1      41.759  25.922  28.320  1.00  0.00     0.049 A 
ATOM     55  H   UNL A   1      42.462  27.702  29.144  1.00  0.00     0.167 HD
ATOM     56  C   UNL A   1      43.818  31.568  30.724  1.00  0.00     0.037 A 
ATOM     57  C   UNL A   1      42.805  25.076  28.252  1.00  0.00     0.037 A 
ATOM     58  C   UNL A   1      44.970  30.707  30.775  1.00  0.00     0.049 A 
ATOM     59  C   UNL A   1      44.145  25.528  28.767  1.00  0.00     0.074 A 
ATOM     60  C   UNL A   1      46.235  30.991  31.259  1.00  0.00     0.029 A 
ATOM     61  N   UNL A   1      44.998  29.394  30.328  1.00  0.00    -0.354 N 
ATOM     62  N   UNL A   1      44.483  26.692  29.273  1.00  0.00    -0.248 NA
ATOM     63  C   UNL A   1      45.243  24.554  28.714  1.00  0.00     0.031 C 
ATOM     64  C   UNL A   1      47.037  29.860  31.070  1.00  0.00     0.029 A 
ATOM     65  C   UNL A   1      46.260  28.857  30.510  1.00  0.00     0.049 A 
ATOM     66  H   UNL A   1      44.231  28.915  29.937  1.00  0.00     0.167 HD
ATOM     67  C   UNL A   1      45.825  26.581  29.619  1.00  0.00     0.074 A 
ATOM     68  C   UNL A   1      46.232  25.233  29.278  1.00  0.00     0.031 C 
ATOM     69  C   UNL A   1      46.645  27.510  30.170  1.00  0.00     0.037 A 
BRANCH  56  70
ATOM     70  C   UNL A   1      43.954  32.987  31.202  1.00  0.00     0.058 A 
ATOM     71  C   UNL A   1      43.701  33.338  32.539  1.00  0.00     0.135 A 
ATOM     72  C   UNL A   1      44.356  34.005  30.323  1.00  0.00     0.135 A 
ATOM     73  F   UNL A   1      43.297  32.407  33.417  1.00  0.00    -0.206 F 
ATOM     74  C   UNL A   1      43.805  34.653  32.978  1.00  0.00     0.059 A 
ATOM     75  C   UNL A   1      44.495  35.322  30.748  1.00  0.00     0.059 A 
ATOM     76  F   UNL A   1      44.610  33.725  29.035  1.00  0.00    -0.206 F 
ATOM     77  C   UNL A   1      44.200  35.640  32.073  1.00  0.00     0.060 A 
BRANCH  77  78
ATOM     78  S   UNL A   1      44.327  37.343  32.658  1.00  0.00     0.124 S 
ATOM     79  O   UNL A   1      43.357  37.349  33.748  1.00  0.00    -0.237 OA
ATOM     80  O   UNL A   1      45.728  37.434  33.056  1.00  0.00    -0.237 OA
ATOM     81  O   UNL A   1      43.959  38.132  31.487  1.00  0.00    -0.744 OA
ENDBRANCH  77  78
ENDBRANCH  56  70
BRANCH  57  82
ATOM     82  C   UNL A   1      42.619  23.708  27.700  1.00  0.00     0.058 A 
ATOM     83  C   UNL A   1      42.677  23.471  26.319  1.00  0.00     0.135 A 
ATOM     84  C   UNL A   1      42.397  22.608  28.543  1.00  0.00     0.135 A 
ATOM     85  F   UNL A   1      42.881  24.491  25.472  1.00  0.00    -0.206 F 
ATOM     86  C   UNL A   1      42.511  22.194  25.790  1.00  0.00     0.059 A 
ATOM     87  C   UNL A   1      42.252  21.318  28.040  1.00  0.00     0.059 A 
ATOM     88  F   UNL A   1      42.351  22.778  29.873  1.00  0.00    -0.206 F 
ATOM     89  C   UNL A   1      42.302  21.123  26.660  1.00  0.00     0.060 A 
BRANCH  89  90
ATOM     90  S   UNL A   1      42.148  19.461  25.969  1.00  0.00     0.124 S 
ATOM     91  O   UNL A   1      42.963  19.566  24.766  1.00  0.00    -0.237 OA
ATOM     92  O   UNL A   1      42.692  18.632  27.041  1.00  0.00    -0.237 OA
ATOM     93  O   UNL A   1      40.711  19.323  25.751  1.00  0.00    -0.744 OA
ENDBRANCH  89  90
ENDBRANCH  57  82
BRANCH  69  94
ATOM     94  C   UNL A   1      48.059  27.095  30.465  1.00  0.00     0.058 A 
ATOM     95  C   UNL A   1      49.105  27.352  29.566  1.00  0.00     0.135 A 
ATOM     96  C   UNL A   1      48.378  26.487  31.690  1.00  0.00     0.135 A 
ATOM     97  F   UNL A   1      48.851  27.925  28.379  1.00  0.00    -0.206 F 
ATOM     98  C   UNL A   1      50.417  26.999  29.861  1.00  0.00     0.059 A 
ATOM     99  C   UNL A   1      49.688  26.150  32.017  1.00  0.00     0.059 A 
ATOM    100  F   UNL A   1      47.416  26.230  32.589  1.00  0.00    -0.206 F 
ATOM    101  C   UNL A   1      50.700  26.400  31.091  1.00  0.00     0.060 A 
BRANCH 101 102
ATOM    102  S   UNL A   1      52.412  25.980  31.478  1.00  0.00     0.124 S 
ATOM    103  O   UNL A   1      53.045  26.090  30.167  1.00  0.00    -0.237 OA
ATOM    104  O   UNL A   1      52.776  27.010  32.446  1.00  0.00    -0.237 OA
ATOM    105  O   UNL A   1      52.317  24.626  32.017  1.00  0.00    -0.744 OA
ENDBRANCH 101 102
ENDBRANCH  69  94
ENDBRANCH  43  44
ENDBRANCH  35  38
ENDBRANCH  33  34
ENDBRANCH  32  33
ENDBRANCH   1  32
TORSDOF 19
ENDMDL
MODEL 2
REMARK VINA RESULT:     -11.7      4.794     10.205
REMARK SMILES O=C(C[C@H](NC(=O)[C@]12C[C@H]3C[C@H](C[C@H](C3)C1)C2)c1cccc([N+](=O)[O-])c1)NCCCCNC(=O)c1ccc(-c2c3nc(c(-c4c(F)cc(S(=O)(=O)[O-])cc4F)c4ccc([nH]4)c(-c4c(F)cc(S(=O)(=O)[O-])cc4F)c4nc(c(-c5c(F)cc(S(=O)(=O)[O-])cc5F)c5ccc2[nH]5)C=C4)C=C3)cc1
REMARK SMILES IDX 29 1 28 2 27 3 1 4 2 5 3 7 4 8 18 9 19 10 26 11 20 12 22 13
REMARK SMILES IDX 21 14 23 15 24 16 25 17 5 18 6 19 7 21 8 22 9 23 16 24 17 25
REMARK SMILES IDX 10 26 14 27 12 28 11 29 15 30 13 31 30 32 31 33 32 34 33 35
REMARK SMILES IDX 34 37 35 38 36 39 100 40 37 41 99 42 38 43 39 44 40 45 93 46
REMARK SMILES IDX 41 47 98 48 92 49 94 50 42 51 97 52 91 53 90 54 43 56 77 57
REMARK SMILES IDX 56 58 76 59 57 60 60 61 75 62 95 63 58 64 59 65 74 67 96 68
REMARK SMILES IDX 61 69 44 70 45 71 54 72 46 73 47 74 53 75 55 76 48 77 49 78
REMARK SMILES IDX 50 79 51 80 52 81 78 82 79 83 88 84 80 85 81 86 87 87 89 88
REMARK SMILES IDX 82 89 83 90 84 91 85 92 86 93 62 94 63 95 72 96 64 97 65 98
REMARK SMILES IDX 71 99 73 100 66 101 67 102 68 103 69 104 70 105
REMARK H PARENT 27 6 5 20 32 36 94 55 60 66
REMARK Flexibility Score: inf
ROOT
ATOM      1  C   UNL A   1      39.929  21.468  26.537  1.00  0.00     0.023 C 
ENDROOT
BRANCH   1   2
ATOM      2  C   UNL A   1      38.801  21.976  25.644  1.00  0.00     0.116 C 
BRANCH   2   3
ATOM      3  N   UNL A   1      37.506  21.536  26.109  1.00  0.00    -0.356 N 
ATOM      4  O   UNL A   1      36.359  22.388  24.319  1.00  0.00    -0.275 OA
ATOM      5  C   UNL A   1      36.356  21.853  25.421  1.00  0.00     0.222 C 
ATOM      6  H   UNL A   1      37.445  20.999  26.933  1.00  0.00     0.163 HD
BRANCH   5   7
ATOM      7  C   UNL A   1      35.115  21.484  26.182  1.00  0.00     0.129 C 
BRANCH   7   8
ATOM      8  C   UNL A   1      33.802  21.906  25.521  1.00  0.00     0.122 C 
BRANCH   8   9
ATOM      9  C   UNL A   1      33.311  20.789  24.594  1.00  0.00    -0.018 A 
ATOM     10  C   UNL A   1      32.566  21.032  23.431  1.00  0.00     0.006 A 
ATOM     11  C   UNL A   1      33.580  19.447  24.940  1.00  0.00     0.091 A 
ATOM     12  C   UNL A   1      32.099  19.975  22.639  1.00  0.00     0.007 A 
ATOM     13  C   UNL A   1      33.104  18.391  24.148  1.00  0.00     0.269 A 
ATOM     14  C   UNL A   1      32.362  18.652  22.995  1.00  0.00     0.085 A 
BRANCH  13  15
ATOM     15  N   UNL A   1      33.380  17.003  24.542  1.00  0.00     0.062 N 
ATOM     16  O   UNL A   1      33.249  16.707  25.738  1.00  0.00    -0.258 OA
ATOM     17  O   UNL A   1      33.725  16.214  23.652  1.00  0.00    -0.258 OA
ENDBRANCH  13  15
ENDBRANCH   8   9
BRANCH   8  18
ATOM     18  N   UNL A   1      32.703  22.585  26.240  1.00  0.00    -0.348 N 
ATOM     19  C   UNL A   1      32.054  23.746  26.455  1.00  0.00     0.226 C 
ATOM     20  H   UNL A   1      32.260  21.903  26.795  1.00  0.00     0.164 HD
ATOM     21  O   UNL A   1      31.179  23.653  27.333  1.00  0.00    -0.274 OA
BRANCH  19  22
ATOM     22  C   UNL A   1      32.213  25.096  25.728  1.00  0.00     0.050 C 
ATOM     23  C   UNL A   1      31.649  25.000  24.285  1.00  0.00     0.020 C 
ATOM     24  C   UNL A   1      33.639  25.648  25.712  1.00  0.00     0.020 C 
ATOM     25  C   UNL A   1      31.318  26.161  26.450  1.00  0.00     0.020 C 
ATOM     26  C   UNL A   1      31.753  26.354  23.557  1.00  0.00    -0.010 C 
ATOM     27  C   UNL A   1      33.722  26.999  24.992  1.00  0.00    -0.010 C 
ATOM     28  C   UNL A   1      31.392  27.532  25.747  1.00  0.00    -0.010 C 
ATOM     29  C   UNL A   1      30.903  27.397  24.296  1.00  0.00     0.007 C 
ATOM     30  C   UNL A   1      33.221  26.813  23.549  1.00  0.00     0.007 C 
ATOM     31  C   UNL A   1      32.848  28.017  25.733  1.00  0.00     0.007 C 
ENDBRANCH  19  22
ENDBRANCH   8  18
ENDBRANCH   7   8
ENDBRANCH   5   7
ENDBRANCH   2   3
ENDBRANCH   1   2
BRANCH   1  32
ATOM     32  C   UNL A   1      40.385  22.441  27.627  1.00  0.00     0.023 C 
BRANCH  32  33
ATOM     33  C   UNL A   1      41.719  23.124  27.367  1.00  0.00     0.116 C 
BRANCH  33  34
ATOM     34  N   UNL A   1      41.729  23.930  26.158  1.00  0.00    -0.352 N 
ATOM     35  C   UNL A   1      41.599  25.298  26.079  1.00  0.00     0.251 C 
ATOM     36  H   UNL A   1      41.838  23.448  25.306  1.00  0.00     0.163 HD
ATOM     37  O   UNL A   1      41.540  25.870  24.998  1.00  0.00    -0.269 OA
BRANCH  35  38
ATOM     38  C   UNL A   1      41.485  26.048  27.344  1.00  0.00     0.039 A 
ATOM     39  C   UNL A   1      42.524  26.904  27.714  1.00  0.00     0.014 A 
ATOM     40  C   UNL A   1      40.301  25.992  28.083  1.00  0.00     0.014 A 
ATOM     41  C   UNL A   1      42.351  27.750  28.808  1.00  0.00     0.010 A 
ATOM     42  C   UNL A   1      40.107  26.884  29.132  1.00  0.00     0.010 A 
ATOM     43  C   UNL A   1      41.132  27.770  29.506  1.00  0.00    -0.014 A 
BRANCH  43  44
ATOM     44  C   UNL A   1      40.918  28.703  30.639  1.00  0.00     0.031 A 
ATOM     45  C   UNL A   1      41.752  28.569  31.882  1.00  0.00     0.074 A 
ATOM     46  C   UNL A   1      39.949  29.636  30.566  1.00  0.00     0.049 A 
ATOM     47  N   UNL A   1      41.697  29.258  32.991  1.00  0.00    -0.248 NA
ATOM     48  C   UNL A   1      42.763  27.498  31.890  1.00  0.00     0.031 C 
ATOM     49  C   UNL A   1      39.039  29.826  29.434  1.00  0.00     0.029 A 
ATOM     50  N   UNL A   1      39.560  30.596  31.466  1.00  0.00    -0.354 N 
ATOM     51  C   UNL A   1      42.655  28.703  33.829  1.00  0.00     0.074 A 
ATOM     52  C   UNL A   1      43.235  27.579  33.125  1.00  0.00     0.031 C 
ATOM     53  C   UNL A   1      38.215  30.852  29.699  1.00  0.00     0.029 A 
ATOM     54  C   UNL A   1      38.516  31.376  31.028  1.00  0.00     0.049 A 
ATOM     55  H   UNL A   1      39.990  30.716  32.344  1.00  0.00     0.167 HD
ATOM     56  C   UNL A   1      43.041  29.108  35.062  1.00  0.00     0.037 A 
ATOM     57  C   UNL A   1      37.874  32.395  31.631  1.00  0.00     0.037 A 
ATOM     58  C   UNL A   1      42.476  30.241  35.746  1.00  0.00     0.049 A 
ATOM     59  C   UNL A   1      38.327  32.839  32.996  1.00  0.00     0.074 A 
ATOM     60  C   UNL A   1      42.830  30.767  36.976  1.00  0.00     0.029 A 
ATOM     61  N   UNL A   1      41.440  31.024  35.259  1.00  0.00    -0.354 N 
ATOM     62  N   UNL A   1      39.282  32.342  33.748  1.00  0.00    -0.248 NA
ATOM     63  C   UNL A   1      37.626  33.984  33.592  1.00  0.00     0.031 C 
ATOM     64  C   UNL A   1      41.983  31.847  37.248  1.00  0.00     0.029 A 
ATOM     65  C   UNL A   1      41.131  32.021  36.168  1.00  0.00     0.049 A 
ATOM     66  H   UNL A   1      40.989  30.889  34.394  1.00  0.00     0.167 HD
ATOM     67  C   UNL A   1      39.311  33.129  34.894  1.00  0.00     0.074 A 
ATOM     68  C   UNL A   1      38.288  34.142  34.729  1.00  0.00     0.031 C 
ATOM     69  C   UNL A   1      40.112  33.024  35.983  1.00  0.00     0.037 A 
BRANCH  56  70
ATOM     70  C   UNL A   1      44.130  28.324  35.739  1.00  0.00     0.058 A 
ATOM     71  C   UNL A   1      45.487  28.624  35.532  1.00  0.00     0.135 A 
ATOM     72  C   UNL A   1      43.819  27.273  36.616  1.00  0.00     0.135 A 
ATOM     73  F   UNL A   1      45.841  29.607  34.690  1.00  0.00    -0.206 F 
ATOM     74  C   UNL A   1      46.497  27.886  36.140  1.00  0.00     0.059 A 
ATOM     75  C   UNL A   1      44.813  26.540  37.258  1.00  0.00     0.059 A 
ATOM     76  F   UNL A   1      42.539  26.943  36.850  1.00  0.00    -0.206 F 
ATOM     77  C   UNL A   1      46.149  26.843  37.000  1.00  0.00     0.060 A 
BRANCH  77  78
ATOM     78  S   UNL A   1      47.471  25.892  37.779  1.00  0.00     0.124 S 
ATOM     79  O   UNL A   1      46.838  25.484  39.029  1.00  0.00    -0.237 OA
ATOM     80  O   UNL A   1      47.703  24.826  36.809  1.00  0.00    -0.237 OA
ATOM     81  O   UNL A   1      48.554  26.861  37.911  1.00  0.00    -0.744 OA
ENDBRANCH  77  78
ENDBRANCH  56  70
BRANCH  57  82
ATOM     82  C   UNL A   1      36.755  33.082  30.934  1.00  0.00     0.058 A 
ATOM     83  C   UNL A   1      36.995  33.954  29.862  1.00  0.00     0.135 A 
ATOM     84  C   UNL A   1      35.420  32.867  31.314  1.00  0.00     0.135 A 
ATOM     85  F   UNL A   1      38.254  34.197  29.466  1.00  0.00    -0.206 F 
ATOM     86  C   UNL A   1      35.956  34.598  29.197  1.00  0.00     0.059 A 
ATOM     87  C   UNL A   1      34.362  33.481  30.649  1.00  0.00     0.059 A 
ATOM     88  F   UNL A   1      35.135  32.028  32.321  1.00  0.00    -0.206 F 
ATOM     89  C   UNL A   1      34.641  34.351  29.597  1.00  0.00     0.060 A 
BRANCH  89  90
ATOM     90  S   UNL A   1      33.295  35.144  28.690  1.00  0.00     0.124 S 
ATOM     91  O   UNL A   1      32.783  34.035  27.896  1.00  0.00    -0.237 OA
ATOM     92  O   UNL A   1      32.432  35.611  29.770  1.00  0.00    -0.237 OA
ATOM     93  O   UNL A   1      33.973  36.199  27.941  1.00  0.00    -0.744 OA
ENDBRANCH  89  90
ENDBRANCH  57  82
BRANCH  69  94
ATOM     94  C   UNL A   1      39.936  34.045  37.072  1.00  0.00     0.058 A 
ATOM     95  C   UNL A   1      40.552  35.304  37.009  1.00  0.00     0.135 A 
ATOM     96  C   UNL A   1      39.091  33.780  38.163  1.00  0.00     0.135 A 
ATOM     97  F   UNL A   1      41.374  35.603  35.990  1.00  0.00    -0.206 F 
ATOM     98  C   UNL A   1      40.355  36.258  38.001  1.00  0.00     0.059 A 
ATOM     99  C   UNL A   1      38.859  34.729  39.152  1.00  0.00     0.059 A 
ATOM    100  F   UNL A   1      38.469  32.595  38.264  1.00  0.00    -0.206 F 
ATOM    101  C   UNL A   1      39.505  35.963  39.068  1.00  0.00     0.060 A 
BRANCH 101 102
ATOM    102  S   UNL A   1      39.228  37.223  40.330  1.00  0.00     0.124 S 
ATOM    103  O   UNL A   1      38.468  36.477  41.328  1.00  0.00    -0.237 OA
ATOM    104  O   UNL A   1      40.589  37.589  40.711  1.00  0.00    -0.237 OA
ATOM    105  O   UNL A   1      38.483  38.258  39.619  1.00  0.00    -0.744 OA
ENDBRANCH 101 102
ENDBRANCH  69  94
ENDBRANCH  43  44
ENDBRANCH  35  38
ENDBRANCH  33  34
ENDBRANCH  32  33
ENDBRANCH   1  32
TORSDOF 19
ENDMDL
MODEL 3
REMARK VINA RESULT:     -11.6      3.120      4.626
REMARK SMILES O=C(C[C@H](NC(=O)[C@]12C[C@H]3C[C@H](C[C@H](C3)C1)C2)c1cccc([N+](=O)[O-])c1)NCCCCNC(=O)c1ccc(-c2c3nc(c(-c4c(F)cc(S(=O)(=O)[O-])cc4F)c4ccc([nH]4)c(-c4c(F)cc(S(=O)(=O)[O-])cc4F)c4nc(c(-c5c(F)cc(S(=O)(=O)[O-])cc5F)c5ccc2[nH]5)C=C4)C=C3)cc1
REMARK SMILES IDX 29 1 28 2 27 3 1 4 2 5 3 7 4 8 18 9 19 10 26 11 20 12 22 13
REMARK SMILES IDX 21 14 23 15 24 16 25 17 5 18 6 19 7 21 8 22 9 23 16 24 17 25
REMARK SMILES IDX 10 26 14 27 12 28 11 29 15 30 13 31 30 32 31 33 32 34 33 35
REMARK SMILES IDX 34 37 35 38 36 39 100 40 37 41 99 42 38 43 39 44 40 45 93 46
REMARK SMILES IDX 41 47 98 48 92 49 94 50 42 51 97 52 91 53 90 54 43 56 77 57
REMARK SMILES IDX 56 58 76 59 57 60 60 61 75 62 95 63 58 64 59 65 74 67 96 68
REMARK SMILES IDX 61 69 44 70 45 71 54 72 46 73 47 74 53 75 55 76 48 77 49 78
REMARK SMILES IDX 50 79 51 80 52 81 78 82 79 83 88 84 80 85 81 86 87 87 89 88
REMARK SMILES IDX 82 89 83 90 84 91 85 92 86 93 62 94 63 95 72 96 64 97 65 98
REMARK SMILES IDX 71 99 73 100 66 101 67 102 68 103 69 104 70 105
REMARK H PARENT 27 6 5 20 32 36 94 55 60 66
REMARK Flexibility Score: inf
ROOT
ATOM      1  C   UNL A   1      34.532  32.600  28.340  1.00  0.00     0.023 C 
ENDROOT
BRANCH   1   2
ATOM      2  C   UNL A   1      34.371  31.258  27.632  1.00  0.00     0.116 C 
BRANCH   2   3
ATOM      3  N   UNL A   1      33.064  31.118  27.032  1.00  0.00    -0.356 N 
ATOM      4  O   UNL A   1      33.543  29.138  25.987  1.00  0.00    -0.275 OA
ATOM      5  C   UNL A   1      32.780  30.076  26.178  1.00  0.00     0.222 C 
ATOM      6  H   UNL A   1      32.364  31.780  27.239  1.00  0.00     0.163 HD
BRANCH   5   7
ATOM      7  C   UNL A   1      31.446  30.236  25.507  1.00  0.00     0.129 C 
BRANCH   7   8
ATOM      8  C   UNL A   1      31.170  29.246  24.374  1.00  0.00     0.122 C 
BRANCH   8   9
ATOM      9  C   UNL A   1      29.925  29.687  23.598  1.00  0.00    -0.018 A 
ATOM     10  C   UNL A   1      28.985  28.783  23.083  1.00  0.00     0.006 A 
ATOM     11  C   UNL A   1      29.727  31.062  23.349  1.00  0.00     0.091 A 
ATOM     12  C   UNL A   1      27.884  29.230  22.340  1.00  0.00     0.007 A 
ATOM     13  C   UNL A   1      28.628  31.506  22.598  1.00  0.00     0.269 A 
ATOM     14  C   UNL A   1      27.703  30.591  22.091  1.00  0.00     0.085 A 
BRANCH  13  15
ATOM     15  N   UNL A   1      28.457  32.941  22.334  1.00  0.00     0.062 N 
ATOM     16  O   UNL A   1      29.053  33.737  23.072  1.00  0.00    -0.258 OA
ATOM     17  O   UNL A   1      27.726  33.265  21.388  1.00  0.00    -0.258 OA
ENDBRANCH  13  15
ENDBRANCH   8   9
BRANCH   8  18
ATOM     18  N   UNL A   1      32.225  28.684  23.502  1.00  0.00    -0.348 N 
ATOM     19  C   UNL A   1      32.922  27.584  23.156  1.00  0.00     0.226 C 
ATOM     20  H   UNL A   1      32.556  29.421  22.941  1.00  0.00     0.164 HD
ATOM     21  O   UNL A   1      33.820  27.825  22.330  1.00  0.00    -0.274 OA
BRANCH  19  22
ATOM     22  C   UNL A   1      32.707  26.120  23.589  1.00  0.00     0.050 C 
ATOM     23  C   UNL A   1      32.624  26.023  25.135  1.00  0.00     0.020 C 
ATOM     24  C   UNL A   1      33.742  25.136  23.043  1.00  0.00     0.020 C 
ATOM     25  C   UNL A   1      31.307  25.646  23.069  1.00  0.00     0.020 C 
ATOM     26  C   UNL A   1      32.360  24.574  25.587  1.00  0.00    -0.010 C 
ATOM     27  C   UNL A   1      33.459  23.699  23.495  1.00  0.00    -0.010 C 
ATOM     28  C   UNL A   1      31.003  24.198  23.505  1.00  0.00    -0.010 C 
ATOM     29  C   UNL A   1      31.003  24.109  25.040  1.00  0.00     0.007 C 
ATOM     30  C   UNL A   1      33.467  23.661  25.033  1.00  0.00     0.007 C 
ATOM     31  C   UNL A   1      32.091  23.265  22.958  1.00  0.00     0.007 C 
ENDBRANCH  19  22
ENDBRANCH   8  18
ENDBRANCH   7   8
ENDBRANCH   5   7
ENDBRANCH   2   3
ENDBRANCH   1   2
BRANCH   1  32
ATOM     32  C   UNL A   1      35.939  33.200  28.286  1.00  0.00     0.023 C 
BRANCH  32  33
ATOM     33  C   UNL A   1      36.875  32.751  29.399  1.00  0.00     0.116 C 
BRANCH  33  34
ATOM     34  N   UNL A   1      36.199  32.038  30.470  1.00  0.00    -0.352 N 
ATOM     35  C   UNL A   1      36.579  30.840  31.029  1.00  0.00     0.251 C 
ATOM     36  H   UNL A   1      35.384  32.455  30.832  1.00  0.00     0.163 HD
ATOM     37  O   UNL A   1      35.889  30.286  31.875  1.00  0.00    -0.269 OA
BRANCH  35  38
ATOM     38  C   UNL A   1      37.825  30.220  30.539  1.00  0.00     0.039 A 
ATOM     39  C   UNL A   1      38.002  30.065  29.163  1.00  0.00     0.014 A 
ATOM     40  C   UNL A   1      38.852  29.916  31.437  1.00  0.00     0.014 A 
ATOM     41  C   UNL A   1      39.242  29.649  28.681  1.00  0.00     0.010 A 
ATOM     42  C   UNL A   1      40.106  29.567  30.947  1.00  0.00     0.010 A 
ATOM     43  C   UNL A   1      40.312  29.427  29.565  1.00  0.00    -0.014 A 
BRANCH  43  44
ATOM     44  C   UNL A   1      41.650  29.036  29.058  1.00  0.00     0.031 A 
ATOM     45  C   UNL A   1      42.743  30.063  28.968  1.00  0.00     0.074 A 
ATOM     46  C   UNL A   1      41.865  27.773  28.639  1.00  0.00     0.049 A 
ATOM     47  N   UNL A   1      43.964  29.932  28.521  1.00  0.00    -0.248 NA
ATOM     48  C   UNL A   1      42.409  31.427  29.412  1.00  0.00     0.031 C 
ATOM     49  C   UNL A   1      40.865  26.703  28.626  1.00  0.00     0.029 A 
ATOM     50  N   UNL A   1      42.993  27.177  28.135  1.00  0.00    -0.354 N 
ATOM     51  C   UNL A   1      44.541  31.192  28.622  1.00  0.00     0.074 A 
ATOM     52  C   UNL A   1      43.517  32.088  29.114  1.00  0.00     0.031 C 
ATOM     53  C   UNL A   1      41.431  25.577  28.160  1.00  0.00     0.029 A 
ATOM     54  C   UNL A   1      42.823  25.851  27.814  1.00  0.00     0.049 A 
ATOM     55  H   UNL A   1      43.847  27.654  28.015  1.00  0.00     0.167 HD
ATOM     56  C   UNL A   1      45.815  31.564  28.358  1.00  0.00     0.037 A 
ATOM     57  C   UNL A   1      43.690  24.958  27.298  1.00  0.00     0.037 A 
ATOM     58  C   UNL A   1      46.834  30.661  27.892  1.00  0.00     0.049 A 
ATOM     59  C   UNL A   1      45.106  25.389  27.024  1.00  0.00     0.074 A 
ATOM     60  C   UNL A   1      48.169  30.925  27.643  1.00  0.00     0.029 A 
ATOM     61  N   UNL A   1      46.631  29.319  27.605  1.00  0.00    -0.354 N 
ATOM     62  N   UNL A   1      45.653  26.571  27.189  1.00  0.00    -0.248 NA
ATOM     63  C   UNL A   1      46.025  24.368  26.506  1.00  0.00     0.031 C 
ATOM     64  C   UNL A   1      48.765  29.750  27.171  1.00  0.00     0.029 A 
ATOM     65  C   UNL A   1      47.812  28.743  27.169  1.00  0.00     0.049 A 
ATOM     66  H   UNL A   1      45.773  28.846  27.698  1.00  0.00     0.167 HD
ATOM     67  C   UNL A   1      46.985  26.429  26.817  1.00  0.00     0.074 A 
ATOM     68  C   UNL A   1      47.164  25.044  26.432  1.00  0.00     0.031 C 
ATOM     69  C   UNL A   1      47.971  27.360  26.796  1.00  0.00     0.037 A 
BRANCH  56  70
ATOM     70  C   UNL A   1      46.175  33.007  28.579  1.00  0.00     0.058 A 
ATOM     71  C   UNL A   1      46.641  33.464  29.823  1.00  0.00     0.135 A 
ATOM     72  C   UNL A   1      46.068  33.941  27.537  1.00  0.00     0.135 A 
ATOM     73  F   UNL A   1      46.745  32.618  30.859  1.00  0.00    -0.206 F 
ATOM     74  C   UNL A   1      46.953  34.803  30.036  1.00  0.00     0.059 A 
ATOM     75  C   UNL A   1      46.403  35.280  27.719  1.00  0.00     0.059 A 
ATOM     76  F   UNL A   1      45.627  33.559  26.328  1.00  0.00    -0.206 F 
ATOM     77  C   UNL A   1      46.828  35.704  28.978  1.00  0.00     0.060 A 
BRANCH  77  78
ATOM     78  S   UNL A   1      47.233  37.438  29.271  1.00  0.00     0.124 S 
ATOM     79  O   UNL A   1      46.839  38.047  28.004  1.00  0.00    -0.237 OA
ATOM     80  O   UNL A   1      46.393  37.766  30.419  1.00  0.00    -0.237 OA
ATOM     81  O   UNL A   1      48.668  37.412  29.536  1.00  0.00    -0.744 OA
ENDBRANCH  77  78
ENDBRANCH  56  70
BRANCH  57  82
ATOM     82  C   UNL A   1      43.250  23.563  27.035  1.00  0.00     0.058 A 
ATOM     83  C   UNL A   1      43.014  23.113  25.727  1.00  0.00     0.135 A 
ATOM     84  C   UNL A   1      43.075  22.645  28.083  1.00  0.00     0.135 A 
ATOM     85  F   UNL A   1      43.162  23.954  24.692  1.00  0.00    -0.206 F 
ATOM     86  C   UNL A   1      42.608  21.807  25.467  1.00  0.00     0.059 A 
ATOM     87  C   UNL A   1      42.693  21.328  27.845  1.00  0.00     0.059 A 
ATOM     88  F   UNL A   1      43.306  23.020  29.350  1.00  0.00    -0.206 F 
ATOM     89  C   UNL A   1      42.453  20.921  26.534  1.00  0.00     0.060 A 
BRANCH  89  90
ATOM     90  S   UNL A   1      41.985  19.212  26.182  1.00  0.00     0.124 S 
ATOM     91  O   UNL A   1      42.264  18.563  27.456  1.00  0.00    -0.237 OA
ATOM     92  O   UNL A   1      40.575  19.348  25.828  1.00  0.00    -0.237 OA
ATOM     93  O   UNL A   1      42.866  18.845  25.078  1.00  0.00    -0.744 OA
ENDBRANCH  89  90
ENDBRANCH  57  82
BRANCH  69  94
ATOM     94  C   UNL A   1      49.340  26.908  26.370  1.00  0.00     0.058 A 
ATOM     95  C   UNL A   1      50.240  26.328  27.276  1.00  0.00     0.135 A 
ATOM     96  C   UNL A   1      49.730  27.003  25.024  1.00  0.00     0.135 A 
ATOM     97  F   UNL A   1      49.916  26.220  28.574  1.00  0.00    -0.206 F 
ATOM     98  C   UNL A   1      51.490  25.877  26.868  1.00  0.00     0.059 A 
ATOM     99  C   UNL A   1      50.965  26.535  24.588  1.00  0.00     0.059 A 
ATOM    100  F   UNL A   1      48.901  27.540  24.115  1.00  0.00    -0.206 F 
ATOM    101  C   UNL A   1      51.844  25.983  25.521  1.00  0.00     0.060 A 
BRANCH 101 102
ATOM    102  S   UNL A   1      53.455  25.360  24.996  1.00  0.00     0.124 S 
ATOM    103  O   UNL A   1      54.358  26.140  25.836  1.00  0.00    -0.237 OA
ATOM    104  O   UNL A   1      53.360  23.939  25.314  1.00  0.00    -0.237 OA
ATOM    105  O   UNL A   1      53.494  25.677  23.571  1.00  0.00    -0.744 OA
ENDBRANCH 101 102
ENDBRANCH  69  94
ENDBRANCH  43  44
ENDBRANCH  35  38
ENDBRANCH  33  34
ENDBRANCH  32  33
ENDBRANCH   1  32
TORSDOF 19
ENDMDL
