MODEL 1
REMARK VINA RESULT:     -11.1      0.000      0.000
REMARK SMILES CCNC(=O)N1[C@@H](C(=O)NCCCCNC(=O)c2ccc(-c3c4nc(c(-c5c(F)cc(S(=O)(=O)[O-])cc5F)c5ccc([nH]5)c(-c5c(F)cc(S(=O)(=O)[O-])cc5F)c5nc(c(-c6c(F)cc(S(=O)(=O)[O-])cc6F)c6ccc3[nH]6)C=C5)C=C4)cc2)CC[C@@H]2CCCC[C@H]21
REMARK SMILES IDX 13 1 12 2 11 3 10 4 8 5 9 6 7 8 6 9 91 10 84 11 86 12 90 13
REMARK SMILES IDX 85 14 87 15 89 16 88 17 4 18 3 19 5 21 2 22 1 23 14 24 15 25
REMARK SMILES IDX 16 26 17 28 18 29 19 30 83 31 20 32 82 33 21 34 22 35 23 36
REMARK SMILES IDX 76 37 24 38 81 39 75 40 77 41 25 42 80 43 74 44 73 45 26 47
REMARK SMILES IDX 60 48 39 49 59 50 40 51 43 52 58 53 78 54 41 55 42 56 57 58
REMARK SMILES IDX 79 59 44 60 27 61 28 62 37 63 29 64 30 65 36 66 38 67 31 68
REMARK SMILES IDX 32 69 33 70 34 71 35 72 61 73 62 74 71 75 63 76 64 77 70 78
REMARK SMILES IDX 72 79 65 80 66 81 67 82 68 83 69 84 45 85 46 86 55 87 47 88
REMARK SMILES IDX 48 89 54 90 56 91 49 92 50 93 51 94 52 95 53 96
REMARK H PARENT 10 7 3 20 15 27 77 46 43 57
REMARK Flexibility Score: inf
ROOT
ATOM      1  C   UNL A   1      33.546  28.346  25.667  1.00  0.00     0.023 C 
ENDROOT
BRANCH   1   2
ATOM      2  C   UNL A   1      32.120  28.372  25.114  1.00  0.00     0.023 C 
BRANCH   2   3
ATOM      3  C   UNL A   1      31.882  27.420  23.944  1.00  0.00     0.116 C 
BRANCH   3   4
ATOM      4  N   UNL A   1      31.073  26.288  24.359  1.00  0.00    -0.354 N 
ATOM      5  C   UNL A   1      31.456  25.077  24.849  1.00  0.00     0.242 C 
ATOM      6  O   UNL A   1      30.591  24.201  24.954  1.00  0.00    -0.273 OA
ATOM      7  H   UNL A   1      30.101  26.416  24.272  1.00  0.00     0.163 HD
BRANCH   5   8
ATOM      8  C   UNL A   1      32.940  24.738  25.128  1.00  0.00     0.176 C 
ATOM      9  N   UNL A   1      33.682  24.042  24.046  1.00  0.00    -0.310 N 
ATOM     10  C   UNL A   1      34.989  23.446  24.428  1.00  0.00     0.091 C 
ATOM     11  C   UNL A   1      32.921  23.941  26.453  1.00  0.00     0.036 C 
ATOM     12  C   UNL A   1      34.854  22.549  25.678  1.00  0.00     0.012 C 
ATOM     13  C   UNL A   1      35.763  22.706  23.316  1.00  0.00     0.025 C 
ATOM     14  C   UNL A   1      34.268  23.359  26.836  1.00  0.00     0.008 C 
ATOM     15  C   UNL A   1      36.195  21.941  26.121  1.00  0.00     0.006 C 
ATOM     16  C   UNL A   1      37.107  22.171  23.801  1.00  0.00     0.002 C 
ATOM     17  C   UNL A   1      36.920  21.235  24.984  1.00  0.00     0.000 C 
BRANCH   9  18
ATOM     18  C   UNL A   1      33.337  24.133  22.719  1.00  0.00     0.318 C 
ATOM     19  N   UNL A   1      32.626  23.172  22.099  1.00  0.00    -0.338 N 
ATOM     20  H   UNL A   1      32.732  23.181  21.120  1.00  0.00     0.165 HD
ATOM     21  O   UNL A   1      33.694  25.077  22.013  1.00  0.00    -0.249 OA
BRANCH  19  22
ATOM     22  C   UNL A   1      31.736  22.128  22.571  1.00  0.00     0.114 C 
ATOM     23  C   UNL A   1      32.526  20.989  23.192  1.00  0.00     0.027 C 
ENDBRANCH  19  22
ENDBRANCH   9  18
ENDBRANCH   5   8
ENDBRANCH   3   4
ENDBRANCH   2   3
ENDBRANCH   1   2
BRANCH   1  24
ATOM     24  C   UNL A   1      33.648  28.498  27.181  1.00  0.00     0.116 C 
BRANCH  24  25
ATOM     25  N   UNL A   1      33.526  29.882  27.613  1.00  0.00    -0.352 N 
ATOM     26  C   UNL A   1      34.453  30.662  28.260  1.00  0.00     0.251 C 
ATOM     27  H   UNL A   1      32.664  30.317  27.416  1.00  0.00     0.163 HD
ATOM     28  O   UNL A   1      34.139  31.763  28.703  1.00  0.00    -0.269 OA
BRANCH  26  29
ATOM     29  C   UNL A   1      35.825  30.146  28.442  1.00  0.00     0.039 A 
ATOM     30  C   UNL A   1      36.706  30.167  27.360  1.00  0.00     0.014 A 
ATOM     31  C   UNL A   1      36.243  29.679  29.691  1.00  0.00     0.014 A 
ATOM     32  C   UNL A   1      38.034  29.780  27.548  1.00  0.00     0.010 A 
ATOM     33  C   UNL A   1      37.582  29.361  29.893  1.00  0.00     0.010 A 
ATOM     34  C   UNL A   1      38.490  29.409  28.824  1.00  0.00    -0.014 A 
BRANCH  34  35
ATOM     35  C   UNL A   1      39.915  29.068  29.063  1.00  0.00     0.031 A 
ATOM     36  C   UNL A   1      40.856  30.107  29.607  1.00  0.00     0.074 A 
ATOM     37  C   UNL A   1      40.375  27.847  28.722  1.00  0.00     0.049 A 
ATOM     38  N   UNL A   1      42.145  30.028  29.810  1.00  0.00    -0.248 NA
ATOM     39  C   UNL A   1      40.275  31.418  29.940  1.00  0.00     0.031 C 
ATOM     40  C   UNL A   1      39.570  26.773  28.136  1.00  0.00     0.029 A 
ATOM     41  N   UNL A   1      41.633  27.308  28.808  1.00  0.00    -0.354 N 
ATOM     42  C   UNL A   1      42.532  31.278  30.278  1.00  0.00     0.074 A 
ATOM     43  C   UNL A   1      41.351  32.113  30.280  1.00  0.00     0.031 C 
ATOM     44  C   UNL A   1      40.349  25.699  27.933  1.00  0.00     0.029 A 
ATOM     45  C   UNL A   1      41.715  26.017  28.341  1.00  0.00     0.049 A 
ATOM     46  H   UNL A   1      42.406  27.799  29.169  1.00  0.00     0.167 HD
ATOM     47  C   UNL A   1      43.757  31.687  30.689  1.00  0.00     0.037 A 
ATOM     48  C   UNL A   1      42.771  25.186  28.246  1.00  0.00     0.037 A 
ATOM     49  C   UNL A   1      44.921  30.841  30.712  1.00  0.00     0.049 A 
ATOM     50  C   UNL A   1      44.118  25.659  28.719  1.00  0.00     0.074 A 
ATOM     51  C   UNL A   1      46.193  31.140  31.169  1.00  0.00     0.029 A 
ATOM     52  N   UNL A   1      44.956  29.529  30.260  1.00  0.00    -0.354 N 
ATOM     53  N   UNL A   1      44.454  26.824  29.219  1.00  0.00    -0.248 NA
ATOM     54  C   UNL A   1      45.230  24.702  28.625  1.00  0.00     0.031 C 
ATOM     55  C   UNL A   1      47.006  30.022  30.958  1.00  0.00     0.029 A 
ATOM     56  C   UNL A   1      46.233  29.011  30.411  1.00  0.00     0.049 A 
ATOM     57  H   UNL A   1      44.189  29.039  29.886  1.00  0.00     0.167 HD
ATOM     58  C   UNL A   1      45.807  26.733  29.521  1.00  0.00     0.074 A 
ATOM     59  C   UNL A   1      46.227  25.395  29.159  1.00  0.00     0.031 C 
ATOM     60  C   UNL A   1      46.630  27.672  30.052  1.00  0.00     0.037 A 
BRANCH  47  61
ATOM     61  C   UNL A   1      43.895  33.109  31.155  1.00  0.00     0.058 A 
ATOM     62  C   UNL A   1      44.228  34.146  30.267  1.00  0.00     0.135 A 
ATOM     63  C   UNL A   1      43.664  33.447  32.498  1.00  0.00     0.135 A 
ATOM     64  F   UNL A   1      44.475  33.876  28.975  1.00  0.00    -0.206 F 
ATOM     65  C   UNL A   1      44.358  35.461  30.701  1.00  0.00     0.059 A 
ATOM     66  C   UNL A   1      43.760  34.761  32.948  1.00  0.00     0.059 A 
ATOM     67  F   UNL A   1      43.343  32.497  33.389  1.00  0.00    -0.206 F 
ATOM     68  C   UNL A   1      44.124  35.759  32.043  1.00  0.00     0.060 A 
BRANCH  68  69
ATOM     69  S   UNL A   1      44.293  37.471  32.589  1.00  0.00     0.124 S 
ATOM     70  O   UNL A   1      43.960  38.200  31.369  1.00  0.00    -0.237 OA
ATOM     71  O   UNL A   1      43.312  37.556  33.665  1.00  0.00    -0.237 OA
ATOM     72  O   UNL A   1      45.689  37.557  33.009  1.00  0.00    -0.744 OA
ENDBRANCH  68  69
ENDBRANCH  47  61
BRANCH  48  73
ATOM     73  C   UNL A   1      42.590  23.815  27.701  1.00  0.00     0.058 A 
ATOM     74  C   UNL A   1      42.465  22.712  28.557  1.00  0.00     0.135 A 
ATOM     75  C   UNL A   1      42.524  23.581  26.318  1.00  0.00     0.135 A 
ATOM     76  F   UNL A   1      42.527  22.884  29.886  1.00  0.00    -0.206 F 
ATOM     77  C   UNL A   1      42.295  21.422  28.064  1.00  0.00     0.059 A 
ATOM     78  C   UNL A   1      42.331  22.303  25.802  1.00  0.00     0.059 A 
ATOM     79  F   UNL A   1      42.621  24.605  25.457  1.00  0.00    -0.206 F 
ATOM     80  C   UNL A   1      42.227  21.228  26.684  1.00  0.00     0.060 A 
BRANCH  80  81
ATOM     81  S   UNL A   1      41.957  19.556  26.055  1.00  0.00     0.124 S 
ATOM     82  O   UNL A   1      42.355  18.745  27.200  1.00  0.00    -0.237 OA
ATOM     83  O   UNL A   1      40.531  19.571  25.748  1.00  0.00    -0.237 OA
ATOM     84  O   UNL A   1      42.839  19.489  24.894  1.00  0.00    -0.744 OA
ENDBRANCH  80  81
ENDBRANCH  48  73
BRANCH  60  85
ATOM     85  C   UNL A   1      48.058  27.278  30.306  1.00  0.00     0.058 A 
ATOM     86  C   UNL A   1      49.063  27.502  29.353  1.00  0.00     0.135 A 
ATOM     87  C   UNL A   1      48.432  26.722  31.540  1.00  0.00     0.135 A 
ATOM     88  F   UNL A   1      48.756  28.024  28.156  1.00  0.00    -0.206 F 
ATOM     89  C   UNL A   1      50.390  27.168  29.609  1.00  0.00     0.059 A 
ATOM     90  C   UNL A   1      49.756  26.406  31.826  1.00  0.00     0.059 A 
ATOM     91  F   UNL A   1      47.509  26.498  32.488  1.00  0.00    -0.206 F 
ATOM     92  C   UNL A   1      50.727  26.623  30.849  1.00  0.00     0.060 A 
BRANCH  92  93
ATOM     93  S   UNL A   1      52.457  26.232  31.182  1.00  0.00     0.124 S 
ATOM     94  O   UNL A   1      52.343  24.938  31.848  1.00  0.00    -0.237 OA
ATOM     95  O   UNL A   1      53.037  26.208  29.843  1.00  0.00    -0.237 OA
ATOM     96  O   UNL A   1      52.898  27.337  32.030  1.00  0.00    -0.744 OA
ENDBRANCH  92  93
ENDBRANCH  60  85
ENDBRANCH  34  35
ENDBRANCH  26  29
ENDBRANCH  24  25
ENDBRANCH   1  24
TORSDOF 16
ENDMDL
MODEL 2
REMARK VINA RESULT:     -11.1      2.981      9.466
REMARK SMILES CCNC(=O)N1[C@@H](C(=O)NCCCCNC(=O)c2ccc(-c3c4nc(c(-c5c(F)cc(S(=O)(=O)[O-])cc5F)c5ccc([nH]5)c(-c5c(F)cc(S(=O)(=O)[O-])cc5F)c5nc(c(-c6c(F)cc(S(=O)(=O)[O-])cc6F)c6ccc3[nH]6)C=C5)C=C4)cc2)CC[C@@H]2CCCC[C@H]21
REMARK SMILES IDX 13 1 12 2 11 3 10 4 8 5 9 6 7 8 6 9 91 10 84 11 86 12 90 13
REMARK SMILES IDX 85 14 87 15 89 16 88 17 4 18 3 19 5 21 2 22 1 23 14 24 15 25
REMARK SMILES IDX 16 26 17 28 18 29 19 30 83 31 20 32 82 33 21 34 22 35 23 36
REMARK SMILES IDX 76 37 24 38 81 39 75 40 77 41 25 42 80 43 74 44 73 45 26 47
REMARK SMILES IDX 60 48 39 49 59 50 40 51 43 52 58 53 78 54 41 55 42 56 57 58
REMARK SMILES IDX 79 59 44 60 27 61 28 62 37 63 29 64 30 65 36 66 38 67 31 68
REMARK SMILES IDX 32 69 33 70 34 71 35 72 61 73 62 74 71 75 63 76 64 77 70 78
REMARK SMILES IDX 72 79 65 80 66 81 67 82 68 83 69 84 45 85 46 86 55 87 47 88
REMARK SMILES IDX 48 89 54 90 56 91 49 92 50 93 51 94 52 95 53 96
REMARK H PARENT 10 7 3 20 15 27 77 46 43 57
REMARK Flexibility Score: inf
ROOT
ATOM      1  C   UNL A   1      35.553  23.231  24.789  1.00  0.00     0.023 C 
ENDROOT
BRANCH   1   2
ATOM      2  C   UNL A   1      34.990  23.481  23.388  1.00  0.00     0.023 C 
BRANCH   2   3
ATOM      3  C   UNL A   1      34.144  24.746  23.267  1.00  0.00     0.116 C 
BRANCH   3   4
ATOM      4  N   UNL A   1      33.795  25.259  24.580  1.00  0.00    -0.354 N 
ATOM      5  C   UNL A   1      32.741  26.032  24.960  1.00  0.00     0.242 C 
ATOM      6  O   UNL A   1      32.758  26.502  26.103  1.00  0.00    -0.273 OA
ATOM      7  H   UNL A   1      34.414  25.010  25.304  1.00  0.00     0.163 HD
BRANCH   5   8
ATOM      8  C   UNL A   1      31.626  26.445  23.969  1.00  0.00     0.176 C 
ATOM      9  N   UNL A   1      31.689  27.827  23.431  1.00  0.00    -0.310 N 
ATOM     10  C   UNL A   1      30.466  28.315  22.741  1.00  0.00     0.091 C 
ATOM     11  C   UNL A   1      30.304  26.148  24.714  1.00  0.00     0.036 C 
ATOM     12  C   UNL A   1      29.208  28.113  23.613  1.00  0.00     0.012 C 
ATOM     13  C   UNL A   1      30.512  29.757  22.189  1.00  0.00     0.025 C 
ATOM     14  C   UNL A   1      29.068  26.636  23.984  1.00  0.00     0.008 C 
ATOM     15  C   UNL A   1      27.919  28.578  22.915  1.00  0.00     0.006 C 
ATOM     16  C   UNL A   1      29.227  30.144  21.463  1.00  0.00     0.002 C 
ATOM     17  C   UNL A   1      28.025  30.000  22.382  1.00  0.00     0.000 C 
BRANCH   9  18
ATOM     18  C   UNL A   1      32.856  28.546  23.339  1.00  0.00     0.318 C 
ATOM     19  N   UNL A   1      33.188  29.485  24.245  1.00  0.00    -0.338 N 
ATOM     20  H   UNL A   1      33.840  30.140  23.906  1.00  0.00     0.165 HD
ATOM     21  O   UNL A   1      33.643  28.403  22.402  1.00  0.00    -0.249 OA
BRANCH  19  22
ATOM     22  C   UNL A   1      32.788  29.734  25.617  1.00  0.00     0.114 C 
ATOM     23  C   UNL A   1      31.441  30.434  25.666  1.00  0.00     0.027 C 
ENDBRANCH  19  22
ENDBRANCH   9  18
ENDBRANCH   5   8
ENDBRANCH   3   4
ENDBRANCH   2   3
ENDBRANCH   1   2
BRANCH   1  24
ATOM     24  C   UNL A   1      36.936  23.824  25.037  1.00  0.00     0.116 C 
BRANCH  24  25
ATOM     25  N   UNL A   1      37.935  22.808  25.334  1.00  0.00    -0.352 N 
ATOM     26  C   UNL A   1      39.103  22.938  26.044  1.00  0.00     0.251 C 
ATOM     27  H   UNL A   1      37.748  21.909  24.979  1.00  0.00     0.163 HD
ATOM     28  O   UNL A   1      39.920  22.022  26.068  1.00  0.00    -0.269 OA
BRANCH  26  29
ATOM     29  C   UNL A   1      39.376  24.204  26.753  1.00  0.00     0.039 A 
ATOM     30  C   UNL A   1      38.879  24.379  28.045  1.00  0.00     0.014 A 
ATOM     31  C   UNL A   1      40.156  25.196  26.151  1.00  0.00     0.014 A 
ATOM     32  C   UNL A   1      39.219  25.527  28.763  1.00  0.00     0.010 A 
ATOM     33  C   UNL A   1      40.550  26.305  26.892  1.00  0.00     0.010 A 
ATOM     34  C   UNL A   1      40.087  26.481  28.204  1.00  0.00    -0.014 A 
BRANCH  34  35
ATOM     35  C   UNL A   1      40.524  27.670  28.978  1.00  0.00     0.031 A 
ATOM     36  C   UNL A   1      41.851  27.662  29.684  1.00  0.00     0.074 A 
ATOM     37  C   UNL A   1      39.694  28.725  29.103  1.00  0.00     0.049 A 
ATOM     38  N   UNL A   1      42.374  28.567  30.469  1.00  0.00    -0.248 NA
ATOM     39  C   UNL A   1      42.690  26.465  29.506  1.00  0.00     0.031 C 
ATOM     40  C   UNL A   1      38.359  28.828  28.509  1.00  0.00     0.029 A 
ATOM     41  N   UNL A   1      39.846  29.908  29.781  1.00  0.00    -0.354 N 
ATOM     42  C   UNL A   1      43.591  28.045  30.892  1.00  0.00     0.074 A 
ATOM     43  C   UNL A   1      43.706  26.723  30.316  1.00  0.00     0.031 C 
ATOM     44  C   UNL A   1      37.823  30.015  28.833  1.00  0.00     0.029 A 
ATOM     45  C   UNL A   1      38.758  30.744  29.685  1.00  0.00     0.049 A 
ATOM     46  H   UNL A   1      40.656  30.137  30.290  1.00  0.00     0.167 HD
ATOM     47  C   UNL A   1      44.537  28.624  31.669  1.00  0.00     0.037 A 
ATOM     48  C   UNL A   1      38.537  31.958  30.226  1.00  0.00     0.037 A 
ATOM     49  C   UNL A   1      44.428  29.952  32.213  1.00  0.00     0.049 A 
ATOM     50  C   UNL A   1      39.607  32.585  31.078  1.00  0.00     0.074 A 
ATOM     51  C   UNL A   1      45.358  30.654  32.961  1.00  0.00     0.029 A 
ATOM     52  N   UNL A   1      43.324  30.780  32.067  1.00  0.00    -0.354 N 
ATOM     53  N   UNL A   1      40.779  32.103  31.415  1.00  0.00    -0.248 NA
ATOM     54  C   UNL A   1      39.328  33.924  31.616  1.00  0.00     0.031 C 
ATOM     55  C   UNL A   1      44.800  31.892  33.300  1.00  0.00     0.029 A 
ATOM     56  C   UNL A   1      43.542  31.979  32.726  1.00  0.00     0.049 A 
ATOM     57  H   UNL A   1      42.506  30.549  31.570  1.00  0.00     0.167 HD
ATOM     58  C   UNL A   1      41.389  33.088  32.183  1.00  0.00     0.074 A 
ATOM     59  C   UNL A   1      40.460  34.198  32.252  1.00  0.00     0.031 C 
ATOM     60  C   UNL A   1      42.608  33.077  32.777  1.00  0.00     0.037 A 
BRANCH  47  61
ATOM     61  C   UNL A   1      45.774  27.826  31.970  1.00  0.00     0.058 A 
ATOM     62  C   UNL A   1      45.823  26.918  33.041  1.00  0.00     0.135 A 
ATOM     63  C   UNL A   1      46.916  27.945  31.163  1.00  0.00     0.135 A 
ATOM     64  F   UNL A   1      44.764  26.775  33.855  1.00  0.00    -0.206 F 
ATOM     65  C   UNL A   1      46.969  26.181  33.320  1.00  0.00     0.059 A 
ATOM     66  C   UNL A   1      48.065  27.197  31.406  1.00  0.00     0.059 A 
ATOM     67  F   UNL A   1      46.926  28.798  30.127  1.00  0.00    -0.206 F 
ATOM     68  C   UNL A   1      48.086  26.329  32.497  1.00  0.00     0.060 A 
BRANCH  68  69
ATOM     69  S   UNL A   1      49.565  25.364  32.870  1.00  0.00     0.124 S 
ATOM     70  O   UNL A   1      49.029  24.344  33.767  1.00  0.00    -0.237 OA
ATOM     71  O   UNL A   1      49.974  24.894  31.551  1.00  0.00    -0.237 OA
ATOM     72  O   UNL A   1      50.459  26.337  33.491  1.00  0.00    -0.744 OA
ENDBRANCH  68  69
ENDBRANCH  47  61
BRANCH  48  73
ATOM     73  C   UNL A   1      37.259  32.668  29.959  1.00  0.00     0.058 A 
ATOM     74  C   UNL A   1      36.102  32.368  30.694  1.00  0.00     0.135 A 
ATOM     75  C   UNL A   1      37.169  33.668  28.979  1.00  0.00     0.135 A 
ATOM     76  F   UNL A   1      36.136  31.415  31.639  1.00  0.00    -0.206 F 
ATOM     77  C   UNL A   1      34.898  33.023  30.457  1.00  0.00     0.059 A 
ATOM     78  C   UNL A   1      35.982  34.354  28.740  1.00  0.00     0.059 A 
ATOM     79  F   UNL A   1      38.251  34.004  28.260  1.00  0.00    -0.206 F 
ATOM     80  C   UNL A   1      34.848  34.016  29.479  1.00  0.00     0.060 A 
BRANCH  80  81
ATOM     81  S   UNL A   1      33.292  34.895  29.213  1.00  0.00     0.124 S 
ATOM     82  O   UNL A   1      33.764  36.183  28.721  1.00  0.00    -0.237 OA
ATOM     83  O   UNL A   1      32.622  34.044  28.236  1.00  0.00    -0.237 OA
ATOM     84  O   UNL A   1      32.685  34.909  30.541  1.00  0.00    -0.744 OA
ENDBRANCH  80  81
ENDBRANCH  48  73
BRANCH  60  85
ATOM     85  C   UNL A   1      43.025  34.311  33.526  1.00  0.00     0.058 A 
ATOM     86  C   UNL A   1      42.770  34.461  34.897  1.00  0.00     0.135 A 
ATOM     87  C   UNL A   1      43.737  35.330  32.873  1.00  0.00     0.135 A 
ATOM     88  F   UNL A   1      42.087  33.519  35.566  1.00  0.00    -0.206 F 
ATOM     89  C   UNL A   1      43.191  35.590  35.593  1.00  0.00     0.059 A 
ATOM     90  C   UNL A   1      44.190  36.455  33.555  1.00  0.00     0.059 A 
ATOM     91  F   UNL A   1      44.015  35.230  31.564  1.00  0.00    -0.206 F 
ATOM     92  C   UNL A   1      43.903  36.581  34.913  1.00  0.00     0.060 A 
BRANCH  92  93
ATOM     93  S   UNL A   1      44.478  38.022  35.836  1.00  0.00     0.124 S 
ATOM     94  O   UNL A   1      43.909  39.116  35.056  1.00  0.00    -0.237 OA
ATOM     95  O   UNL A   1      43.887  37.808  37.153  1.00  0.00    -0.237 OA
ATOM     96  O   UNL A   1      45.933  37.902  35.782  1.00  0.00    -0.744 OA
ENDBRANCH  92  93
ENDBRANCH  60  85
ENDBRANCH  34  35
ENDBRANCH  26  29
ENDBRANCH  24  25
ENDBRANCH   1  24
TORSDOF 16
ENDMDL
MODEL 3
REMARK VINA RESULT:     -10.9      2.728      9.202
REMARK SMILES CCNC(=O)N1[C@@H](C(=O)NCCCCNC(=O)c2ccc(-c3c4nc(c(-c5c(F)cc(S(=O)(=O)[O-])cc5F)c5ccc([nH]5)c(-c5c(F)cc(S(=O)(=O)[O-])cc5F)c5nc(c(-c6c(F)cc(S(=O)(=O)[O-])cc6F)c6ccc3[nH]6)C=C5)C=C4)cc2)CC[C@@H]2CCCC[C@H]21
REMARK SMILES IDX 13 1 12 2 11 3 10 4 8 5 9 6 7 8 6 9 91 10 84 11 86 12 90 13
REMARK SMILES IDX 85 14 87 15 89 16 88 17 4 18 3 19 5 21 2 22 1 23 14 24 15 25
REMARK SMILES IDX 16 26 17 28 18 29 19 30 83 31 20 32 82 33 21 34 22 35 23 36
REMARK SMILES IDX 76 37 24 38 81 39 75 40 77 41 25 42 80 43 74 44 73 45 26 47
REMARK SMILES IDX 60 48 39 49 59 50 40 51 43 52 58 53 78 54 41 55 42 56 57 58
REMARK SMILES IDX 79 59 44 60 27 61 28 62 37 63 29 64 30 65 36 66 38 67 31 68
REMARK SMILES IDX 32 69 33 70 34 71 35 72 61 73 62 74 71 75 63 76 64 77 70 78
REMARK SMILES IDX 72 79 65 80 66 81 67 82 68 83 69 84 45 85 46 86 55 87 47 88
REMARK SMILES IDX 48 89 54 90 56 91 49 92 50 93 51 94 52 95 53 96
REMARK H PARENT 10 7 3 20 15 27 77 46 43 57
REMARK Flexibility Score: inf
ROOT
ATOM      1  C   UNL A   1      35.567  23.163  24.659  1.00  0.00     0.023 C 
ENDROOT
BRANCH   1   2
ATOM      2  C   UNL A   1      35.085  23.300  23.214  1.00  0.00     0.023 C 
BRANCH   2   3
ATOM      3  C   UNL A   1      33.600  23.003  23.015  1.00  0.00     0.116 C 
BRANCH   3   4
ATOM      4  N   UNL A   1      33.027  23.889  22.019  1.00  0.00    -0.354 N 
ATOM      5  C   UNL A   1      32.770  25.224  22.085  1.00  0.00     0.242 C 
ATOM      6  O   UNL A   1      32.101  25.726  21.175  1.00  0.00    -0.273 OA
ATOM      7  H   UNL A   1      32.788  23.459  21.166  1.00  0.00     0.163 HD
BRANCH   5   8
ATOM      8  C   UNL A   1      33.160  26.074  23.319  1.00  0.00     0.176 C 
ATOM      9  N   UNL A   1      32.128  26.231  24.375  1.00  0.00    -0.310 N 
ATOM     10  C   UNL A   1      32.386  27.287  25.389  1.00  0.00     0.091 C 
ATOM     11  C   UNL A   1      33.634  27.425  22.735  1.00  0.00     0.036 C 
ATOM     12  C   UNL A   1      32.712  28.641  24.722  1.00  0.00     0.012 C 
ATOM     13  C   UNL A   1      31.314  27.471  26.485  1.00  0.00     0.025 C 
ATOM     14  C   UNL A   1      33.912  28.481  23.786  1.00  0.00     0.008 C 
ATOM     15  C   UNL A   1      33.017  29.749  25.743  1.00  0.00     0.006 C 
ATOM     16  C   UNL A   1      31.695  28.547  27.497  1.00  0.00     0.002 C 
ATOM     17  C   UNL A   1      31.934  29.878  26.805  1.00  0.00     0.000 C 
BRANCH   9  18
ATOM     18  C   UNL A   1      31.116  25.324  24.579  1.00  0.00     0.318 C 
ATOM     19  N   UNL A   1      31.289  24.218  25.326  1.00  0.00    -0.338 N 
ATOM     20  H   UNL A   1      30.637  23.507  25.126  1.00  0.00     0.165 HD
ATOM     21  O   UNL A   1      30.008  25.450  24.055  1.00  0.00    -0.249 OA
BRANCH  19  22
ATOM     22  C   UNL A   1      32.234  23.853  26.365  1.00  0.00     0.114 C 
ATOM     23  C   UNL A   1      32.390  22.344  26.444  1.00  0.00     0.027 C 
ENDBRANCH  19  22
ENDBRANCH   9  18
ENDBRANCH   5   8
ENDBRANCH   3   4
ENDBRANCH   2   3
ENDBRANCH   1   2
BRANCH   1  24
ATOM     24  C   UNL A   1      36.954  23.737  24.928  1.00  0.00     0.116 C 
BRANCH  24  25
ATOM     25  N   UNL A   1      37.935  22.706  25.235  1.00  0.00    -0.352 N 
ATOM     26  C   UNL A   1      39.098  22.820  25.958  1.00  0.00     0.251 C 
ATOM     27  H   UNL A   1      37.739  21.810  24.878  1.00  0.00     0.163 HD
ATOM     28  O   UNL A   1      39.902  21.893  25.991  1.00  0.00    -0.269 OA
BRANCH  26  29
ATOM     29  C   UNL A   1      39.381  24.083  26.669  1.00  0.00     0.039 A 
ATOM     30  C   UNL A   1      38.922  24.242  27.977  1.00  0.00     0.014 A 
ATOM     31  C   UNL A   1      40.133  25.087  26.052  1.00  0.00     0.014 A 
ATOM     32  C   UNL A   1      39.274  25.387  28.694  1.00  0.00     0.010 A 
ATOM     33  C   UNL A   1      40.541  26.193  26.791  1.00  0.00     0.010 A 
ATOM     34  C   UNL A   1      40.116  26.354  28.118  1.00  0.00    -0.014 A 
BRANCH  34  35
ATOM     35  C   UNL A   1      40.566  27.540  28.889  1.00  0.00     0.031 A 
ATOM     36  C   UNL A   1      41.904  27.528  29.574  1.00  0.00     0.074 A 
ATOM     37  C   UNL A   1      39.739  28.596  29.029  1.00  0.00     0.049 A 
ATOM     38  N   UNL A   1      42.439  28.431  30.354  1.00  0.00    -0.248 NA
ATOM     39  C   UNL A   1      42.738  26.331  29.380  1.00  0.00     0.031 C 
ATOM     40  C   UNL A   1      38.395  28.702  28.455  1.00  0.00     0.029 A 
ATOM     41  N   UNL A   1      39.902  29.777  29.708  1.00  0.00    -0.354 N 
ATOM     42  C   UNL A   1      43.662  27.906  30.757  1.00  0.00     0.074 A 
ATOM     43  C   UNL A   1      43.767  26.586  30.176  1.00  0.00     0.031 C 
ATOM     44  C   UNL A   1      37.865  29.889  28.791  1.00  0.00     0.029 A 
ATOM     45  C   UNL A   1      38.814  30.614  29.631  1.00  0.00     0.049 A 
ATOM     46  H   UNL A   1      40.720  30.003  30.206  1.00  0.00     0.167 HD
ATOM     47  C   UNL A   1      44.620  28.482  31.522  1.00  0.00     0.037 A 
ATOM     48  C   UNL A   1      38.603  31.826  30.179  1.00  0.00     0.037 A 
ATOM     49  C   UNL A   1      44.521  29.809  32.071  1.00  0.00     0.049 A 
ATOM     50  C   UNL A   1      39.686  32.450  31.016  1.00  0.00     0.074 A 
ATOM     51  C   UNL A   1      45.462  30.508  32.807  1.00  0.00     0.029 A 
ATOM     52  N   UNL A   1      43.416  30.638  31.944  1.00  0.00    -0.354 N 
ATOM     53  N   UNL A   1      40.863  31.966  31.334  1.00  0.00    -0.248 NA
ATOM     54  C   UNL A   1      39.417  33.788  31.562  1.00  0.00     0.031 C 
ATOM     55  C   UNL A   1      44.911  31.745  33.157  1.00  0.00     0.029 A 
ATOM     56  C   UNL A   1      43.644  31.836  32.603  1.00  0.00     0.049 A 
ATOM     57  H   UNL A   1      42.590  30.410  31.459  1.00  0.00     0.167 HD
ATOM     58  C   UNL A   1      41.485  32.948  32.095  1.00  0.00     0.074 A 
ATOM     59  C   UNL A   1      40.558  34.059  32.182  1.00  0.00     0.031 C 
ATOM     60  C   UNL A   1      42.713  32.934  32.671  1.00  0.00     0.037 A 
BRANCH  47  61
ATOM     61  C   UNL A   1      45.861  27.682  31.801  1.00  0.00     0.058 A 
ATOM     62  C   UNL A   1      45.961  26.849  32.929  1.00  0.00     0.135 A 
ATOM     63  C   UNL A   1      46.952  27.722  30.919  1.00  0.00     0.135 A 
ATOM     64  F   UNL A   1      44.953  26.784  33.814  1.00  0.00    -0.206 F 
ATOM     65  C   UNL A   1      47.111  26.110  33.188  1.00  0.00     0.059 A 
ATOM     66  C   UNL A   1      48.102  26.969  31.144  1.00  0.00     0.059 A 
ATOM     67  F   UNL A   1      46.910  28.500  29.827  1.00  0.00    -0.206 F 
ATOM     68  C   UNL A   1      48.177  26.178  32.290  1.00  0.00     0.060 A 
BRANCH  68  69
ATOM     69  S   UNL A   1      49.660  25.212  32.639  1.00  0.00     0.124 S 
ATOM     70  O   UNL A   1      50.507  26.204  33.293  1.00  0.00    -0.237 OA
ATOM     71  O   UNL A   1      49.148  24.150  33.499  1.00  0.00    -0.237 OA
ATOM     72  O   UNL A   1      50.105  24.782  31.317  1.00  0.00    -0.744 OA
ENDBRANCH  68  69
ENDBRANCH  47  61
BRANCH  48  73
ATOM     73  C   UNL A   1      37.321  32.538  29.933  1.00  0.00     0.058 A 
ATOM     74  C   UNL A   1      37.250  33.595  29.014  1.00  0.00     0.135 A 
ATOM     75  C   UNL A   1      36.141  32.170  30.598  1.00  0.00     0.135 A 
ATOM     76  F   UNL A   1      38.353  33.988  28.357  1.00  0.00    -0.206 F 
ATOM     77  C   UNL A   1      36.059  34.272  28.772  1.00  0.00     0.059 A 
ATOM     78  C   UNL A   1      34.933  32.816  30.355  1.00  0.00     0.059 A 
ATOM     79  F   UNL A   1      36.152  31.154  31.474  1.00  0.00    -0.206 F 
ATOM     80  C   UNL A   1      34.905  33.874  29.446  1.00  0.00     0.060 A 
BRANCH  80  81
ATOM     81  S   UNL A   1      33.353  34.727  29.088  1.00  0.00     0.124 S 
ATOM     82  O   UNL A   1      32.753  34.811  30.414  1.00  0.00    -0.237 OA
ATOM     83  O   UNL A   1      33.820  35.986  28.517  1.00  0.00    -0.237 OA
ATOM     84  O   UNL A   1      32.688  33.831  28.148  1.00  0.00    -0.744 OA
ENDBRANCH  80  81
ENDBRANCH  48  73
BRANCH  60  85
ATOM     85  C   UNL A   1      43.142  34.166  33.417  1.00  0.00     0.058 A 
ATOM     86  C   UNL A   1      43.738  35.253  32.762  1.00  0.00     0.135 A 
ATOM     87  C   UNL A   1      42.901  34.279  34.796  1.00  0.00     0.135 A 
ATOM     88  F   UNL A   1      43.997  35.192  31.446  1.00  0.00    -0.206 F 
ATOM     89  C   UNL A   1      44.099  36.406  33.453  1.00  0.00     0.059 A 
ATOM     90  C   UNL A   1      43.229  35.432  35.501  1.00  0.00     0.059 A 
ATOM     91  F   UNL A   1      42.323  33.270  35.467  1.00  0.00    -0.206 F 
ATOM     92  C   UNL A   1      43.838  36.487  34.822  1.00  0.00     0.060 A 
BRANCH  92  93
ATOM     93  S   UNL A   1      44.275  38.003  35.699  1.00  0.00     0.124 S 
ATOM     94  O   UNL A   1      43.736  39.024  34.807  1.00  0.00    -0.237 OA
ATOM     95  O   UNL A   1      43.581  37.842  36.972  1.00  0.00    -0.237 OA
ATOM     96  O   UNL A   1      45.733  37.943  35.775  1.00  0.00    -0.744 OA
ENDBRANCH  92  93
ENDBRANCH  60  85
ENDBRANCH  34  35
ENDBRANCH  26  29
ENDBRANCH  24  25
ENDBRANCH   1  24
TORSDOF 16
ENDMDL
