MODEL 1
REMARK VINA RESULT:     -12.6      0.000      0.000
REMARK SMILES O=C(NCCCCNC(=O)c1ccccc1C[N@H+]1CCCC[C@@H]1CCn1cccn1)c1ccc(-c2c3nc(c(-c4c(F)cc(S(=O)(=O)[O-])cc4F)c4ccc([nH]4)c(-c4c(F)cc(S(=O)(=O)[O-])cc4F)c4nc(c(-c5c(F)cc(S(=O)(=O)[O-])cc5F)c5ccc2[nH]5)C=C4)C=C3)cc1
REMARK SMILES IDX 6 1 5 2 4 3 3 4 1 5 2 6 31 8 32 9 96 10 33 11 95 12 34 13
REMARK SMILES IDX 35 14 36 15 89 16 37 17 94 18 88 19 90 20 38 21 93 22 87 23
REMARK SMILES IDX 86 24 39 26 73 27 52 28 72 29 53 30 56 31 71 32 91 33 54 34
REMARK SMILES IDX 55 35 70 37 92 38 57 39 40 40 41 41 50 42 42 43 43 44 49 45
REMARK SMILES IDX 51 46 44 47 45 48 46 49 47 50 48 51 74 52 75 53 84 54 76 55
REMARK SMILES IDX 77 56 83 57 85 58 78 59 79 60 80 61 81 62 82 63 58 64 59 65
REMARK SMILES IDX 68 66 60 67 61 68 67 69 69 70 62 71 63 72 64 73 65 74 66 75
REMARK SMILES IDX 7 76 8 77 9 78 10 80 11 81 12 82 16 83 13 84 15 85 14 86
REMARK SMILES IDX 17 87 18 88 19 89 23 90 20 92 22 93 21 94 24 95 25 96 26 97
REMARK SMILES IDX 27 98 30 99 28 100 29 101
REMARK H PARENT 3 7 90 25 56 36 8 79 18 91
REMARK Flexibility Score: inf
ROOT
ATOM      1  C   UNL A   1      33.780  28.871  24.481  1.00  0.00     0.023 C 
ENDROOT
BRANCH   1   2
ATOM      2  C   UNL A   1      32.677  29.361  25.417  1.00  0.00     0.023 C 
BRANCH   2   3
ATOM      3  C   UNL A   1      33.012  29.405  26.912  1.00  0.00     0.116 C 
BRANCH   3   4
ATOM      4  N   UNL A   1      33.150  30.719  27.508  1.00  0.00    -0.352 N 
ATOM      5  O   UNL A   1      33.961  32.694  28.092  1.00  0.00    -0.269 OA
ATOM      6  C   UNL A   1      34.218  31.515  27.836  1.00  0.00     0.251 C 
ATOM      7  H   UNL A   1      32.284  31.133  27.727  1.00  0.00     0.163 HD
BRANCH   6   8
ATOM      8  C   UNL A   1      35.619  31.035  27.976  1.00  0.00     0.039 A 
ATOM      9  C   UNL A   1      36.054  29.742  27.697  1.00  0.00     0.014 A 
ATOM     10  C   UNL A   1      36.553  31.959  28.481  1.00  0.00     0.014 A 
ATOM     11  C   UNL A   1      37.334  29.332  28.052  1.00  0.00     0.010 A 
ATOM     12  C   UNL A   1      37.855  31.571  28.787  1.00  0.00     0.010 A 
ATOM     13  C   UNL A   1      38.228  30.240  28.620  1.00  0.00    -0.014 A 
BRANCH  13  14
ATOM     14  C   UNL A   1      39.576  29.754  28.909  1.00  0.00     0.031 A 
ATOM     15  C   UNL A   1      39.971  29.760  30.348  1.00  0.00     0.074 A 
ATOM     16  C   UNL A   1      40.388  29.204  27.985  1.00  0.00     0.049 A 
ATOM     17  N   UNL A   1      40.969  30.356  30.918  1.00  0.00    -0.248 NA
ATOM     18  C   UNL A   1      39.077  29.064  31.286  1.00  0.00     0.031 C 
ATOM     19  C   UNL A   1      40.055  28.830  26.610  1.00  0.00     0.029 A 
ATOM     20  N   UNL A   1      41.666  28.751  28.134  1.00  0.00    -0.354 N 
ATOM     21  C   UNL A   1      40.945  29.954  32.255  1.00  0.00     0.074 A 
ATOM     22  C   UNL A   1      39.691  29.277  32.450  1.00  0.00     0.031 C 
ATOM     23  C   UNL A   1      41.017  28.010  26.132  1.00  0.00     0.029 A 
ATOM     24  C   UNL A   1      42.082  27.905  27.116  1.00  0.00     0.049 A 
ATOM     25  H   UNL A   1      42.239  29.001  28.893  1.00  0.00     0.167 HD
ATOM     26  C   UNL A   1      42.041  30.036  33.060  1.00  0.00     0.037 A 
ATOM     27  C   UNL A   1      43.177  27.107  27.123  1.00  0.00     0.037 A 
ATOM     28  C   UNL A   1      43.016  30.960  32.545  1.00  0.00     0.049 A 
ATOM     29  C   UNL A   1      44.119  27.628  28.145  1.00  0.00     0.074 A 
ATOM     30  C   UNL A   1      43.019  32.306  32.232  1.00  0.00     0.029 A 
ATOM     31  N   UNL A   1      44.169  30.454  31.995  1.00  0.00    -0.354 N 
ATOM     32  N   UNL A   1      44.761  28.760  28.053  1.00  0.00    -0.248 NA
ATOM     33  C   UNL A   1      44.077  27.045  29.478  1.00  0.00     0.031 C 
ATOM     34  C   UNL A   1      43.906  32.432  31.123  1.00  0.00     0.029 A 
ATOM     35  C   UNL A   1      44.403  31.159  30.843  1.00  0.00     0.049 A 
ATOM     36  H   UNL A   1      44.721  29.725  32.359  1.00  0.00     0.167 HD
ATOM     37  C   UNL A   1      44.847  29.230  29.354  1.00  0.00     0.074 A 
ATOM     38  C   UNL A   1      44.516  28.083  30.193  1.00  0.00     0.031 C 
ATOM     39  C   UNL A   1      44.909  30.567  29.626  1.00  0.00     0.037 A 
BRANCH  26  40
ATOM     40  C   UNL A   1      42.388  29.024  34.136  1.00  0.00     0.058 A 
ATOM     41  C   UNL A   1      42.479  27.656  33.796  1.00  0.00     0.135 A 
ATOM     42  C   UNL A   1      42.325  29.299  35.521  1.00  0.00     0.135 A 
ATOM     43  F   UNL A   1      42.565  27.274  32.511  1.00  0.00    -0.206 F 
ATOM     44  C   UNL A   1      42.386  26.639  34.747  1.00  0.00     0.059 A 
ATOM     45  C   UNL A   1      42.288  28.301  36.490  1.00  0.00     0.059 A 
ATOM     46  F   UNL A   1      42.190  30.540  36.001  1.00  0.00    -0.206 F 
ATOM     47  C   UNL A   1      42.257  26.975  36.090  1.00  0.00     0.060 A 
BRANCH  47  48
ATOM     48  S   UNL A   1      41.952  25.681  37.305  1.00  0.00     0.124 S 
ATOM     49  O   UNL A   1      42.951  26.000  38.318  1.00  0.00    -0.237 OA
ATOM     50  O   UNL A   1      40.563  25.930  37.675  1.00  0.00    -0.237 OA
ATOM     51  O   UNL A   1      42.183  24.453  36.550  1.00  0.00    -0.744 OA
ENDBRANCH  47  48
ENDBRANCH  26  40
BRANCH  27  52
ATOM     52  C   UNL A   1      43.311  25.753  26.525  1.00  0.00     0.058 A 
ATOM     53  C   UNL A   1      44.159  25.520  25.428  1.00  0.00     0.135 A 
ATOM     54  C   UNL A   1      42.814  24.607  27.180  1.00  0.00     0.135 A 
ATOM     55  F   UNL A   1      44.702  26.551  24.764  1.00  0.00    -0.206 F 
ATOM     56  C   UNL A   1      44.520  24.229  25.028  1.00  0.00     0.059 A 
ATOM     57  C   UNL A   1      43.145  23.313  26.790  1.00  0.00     0.059 A 
ATOM     58  F   UNL A   1      42.062  24.711  28.286  1.00  0.00    -0.206 F 
ATOM     59  C   UNL A   1      44.019  23.130  25.726  1.00  0.00     0.060 A 
BRANCH  59  60
ATOM     60  S   UNL A   1      44.608  21.471  25.321  1.00  0.00     0.124 S 
ATOM     61  O   UNL A   1      44.548  21.479  23.863  1.00  0.00    -0.237 OA
ATOM     62  O   UNL A   1      45.945  21.466  25.904  1.00  0.00    -0.237 OA
ATOM     63  O   UNL A   1      43.640  20.597  25.979  1.00  0.00    -0.744 OA
ENDBRANCH  59  60
ENDBRANCH  27  52
BRANCH  39  64
ATOM     64  C   UNL A   1      45.246  31.512  28.506  1.00  0.00     0.058 A 
ATOM     65  C   UNL A   1      44.331  31.928  27.524  1.00  0.00     0.135 A 
ATOM     66  C   UNL A   1      46.499  32.146  28.526  1.00  0.00     0.135 A 
ATOM     67  F   UNL A   1      43.078  31.452  27.504  1.00  0.00    -0.206 F 
ATOM     68  C   UNL A   1      44.660  32.901  26.581  1.00  0.00     0.059 A 
ATOM     69  C   UNL A   1      46.838  33.142  27.614  1.00  0.00     0.059 A 
ATOM     70  F   UNL A   1      47.394  31.838  29.480  1.00  0.00    -0.206 F 
ATOM     71  C   UNL A   1      45.915  33.507  26.637  1.00  0.00     0.060 A 
BRANCH  71  72
ATOM     72  S   UNL A   1      46.296  34.844  25.483  1.00  0.00     0.124 S 
ATOM     73  O   UNL A   1      47.718  34.636  25.230  1.00  0.00    -0.237 OA
ATOM     74  O   UNL A   1      45.405  34.561  24.361  1.00  0.00    -0.237 OA
ATOM     75  O   UNL A   1      45.965  36.051  26.236  1.00  0.00    -0.744 OA
ENDBRANCH  71  72
ENDBRANCH  39  64
ENDBRANCH  13  14
ENDBRANCH   6   8
ENDBRANCH   3   4
ENDBRANCH   2   3
ENDBRANCH   1   2
BRANCH   1  76
ATOM     76  C   UNL A   1      33.746  27.392  24.148  1.00  0.00     0.116 C 
BRANCH  76  77
ATOM     77  N   UNL A   1      32.975  27.063  22.957  1.00  0.00    -0.352 N 
ATOM     78  C   UNL A   1      31.896  26.217  22.850  1.00  0.00     0.251 C 
ATOM     79  H   UNL A   1      33.263  27.501  22.124  1.00  0.00     0.163 HD
ATOM     80  O   UNL A   1      31.310  26.070  21.780  1.00  0.00    -0.269 OA
BRANCH  78  81
ATOM     81  C   UNL A   1      31.483  25.423  24.026  1.00  0.00     0.048 A 
ATOM     82  C   UNL A   1      30.749  26.120  25.002  1.00  0.00     0.014 A 
ATOM     83  C   UNL A   1      31.728  24.042  24.147  1.00  0.00     0.019 A 
ATOM     84  C   UNL A   1      30.177  25.437  26.070  1.00  0.00     0.001 A 
ATOM     85  C   UNL A   1      31.063  23.372  25.185  1.00  0.00     0.010 A 
ATOM     86  C   UNL A   1      30.308  24.057  26.142  1.00  0.00     0.001 A 
BRANCH  83  87
ATOM     87  C   UNL A   1      32.620  23.287  23.175  1.00  0.00     0.300 C 
BRANCH  87  88
ATOM     88  N   UNL A   1      33.917  22.776  23.664  1.00  0.00    -0.329 N 
ATOM     89  C   UNL A   1      34.783  23.897  24.069  1.00  0.00     0.262 C 
ATOM     90  C   UNL A   1      33.875  21.688  24.662  1.00  0.00     0.186 C 
ATOM     91  H   UNL A   1      34.329  22.298  22.863  1.00  0.00     0.348 HD
ATOM     92  C   UNL A   1      36.212  23.440  24.346  1.00  0.00     0.062 C 
ATOM     93  C   UNL A   1      35.313  21.193  24.939  1.00  0.00     0.065 C 
ATOM     94  C   UNL A   1      36.231  22.327  25.379  1.00  0.00     0.012 C 
BRANCH  90  95
ATOM     95  C   UNL A   1      32.997  20.483  24.220  1.00  0.00     0.088 C 
BRANCH  95  96
ATOM     96  C   UNL A   1      32.748  19.429  25.307  1.00  0.00     0.150 C 
BRANCH  96  97
ATOM     97  N   UNL A   1      33.065  18.079  24.876  1.00  0.00    -0.273 N 
ATOM     98  C   UNL A   1      33.837  17.714  23.809  1.00  0.00     0.108 A 
ATOM     99  N   UNL A   1      32.626  17.027  25.592  1.00  0.00    -0.182 NA
ATOM    100  C   UNL A   1      33.933  16.343  23.859  1.00  0.00     0.042 A 
ATOM    101  C   UNL A   1      33.154  15.971  24.969  1.00  0.00     0.135 A 
ENDBRANCH  96  97
ENDBRANCH  95  96
ENDBRANCH  90  95
ENDBRANCH  87  88
ENDBRANCH  83  87
ENDBRANCH  78  81
ENDBRANCH  76  77
ENDBRANCH   1  76
TORSDOF 19
ENDMDL
MODEL 2
REMARK VINA RESULT:     -12.5      1.434      2.182
REMARK SMILES O=C(NCCCCNC(=O)c1ccccc1C[N@H+]1CCCC[C@@H]1CCn1cccn1)c1ccc(-c2c3nc(c(-c4c(F)cc(S(=O)(=O)[O-])cc4F)c4ccc([nH]4)c(-c4c(F)cc(S(=O)(=O)[O-])cc4F)c4nc(c(-c5c(F)cc(S(=O)(=O)[O-])cc5F)c5ccc2[nH]5)C=C4)C=C3)cc1
REMARK SMILES IDX 6 1 5 2 4 3 3 4 1 5 2 6 31 8 32 9 96 10 33 11 95 12 34 13
REMARK SMILES IDX 35 14 36 15 89 16 37 17 94 18 88 19 90 20 38 21 93 22 87 23
REMARK SMILES IDX 86 24 39 26 73 27 52 28 72 29 53 30 56 31 71 32 91 33 54 34
REMARK SMILES IDX 55 35 70 37 92 38 57 39 40 40 41 41 50 42 42 43 43 44 49 45
REMARK SMILES IDX 51 46 44 47 45 48 46 49 47 50 48 51 74 52 75 53 84 54 76 55
REMARK SMILES IDX 77 56 83 57 85 58 78 59 79 60 80 61 81 62 82 63 58 64 59 65
REMARK SMILES IDX 68 66 60 67 61 68 67 69 69 70 62 71 63 72 64 73 65 74 66 75
REMARK SMILES IDX 7 76 8 77 9 78 10 80 11 81 12 82 16 83 13 84 15 85 14 86
REMARK SMILES IDX 17 87 18 88 19 89 23 90 20 92 22 93 21 94 24 95 25 96 26 97
REMARK SMILES IDX 27 98 30 99 28 100 29 101
REMARK H PARENT 3 7 90 25 56 36 8 79 18 91
REMARK Flexibility Score: inf
ROOT
ATOM      1  C   UNL A   1      32.103  28.281  27.542  1.00  0.00     0.023 C 
ENDROOT
BRANCH   1   2
ATOM      2  C   UNL A   1      33.580  28.525  27.241  1.00  0.00     0.023 C 
BRANCH   2   3
ATOM      3  C   UNL A   1      33.978  29.957  26.863  1.00  0.00     0.116 C 
BRANCH   3   4
ATOM      4  N   UNL A   1      33.866  30.958  27.905  1.00  0.00    -0.352 N 
ATOM      5  O   UNL A   1      34.356  32.571  29.339  1.00  0.00    -0.269 OA
ATOM      6  C   UNL A   1      34.760  31.566  28.749  1.00  0.00     0.251 C 
ATOM      7  H   UNL A   1      32.942  31.271  28.037  1.00  0.00     0.163 HD
BRANCH   6   8
ATOM      8  C   UNL A   1      36.125  31.054  29.049  1.00  0.00     0.039 A 
ATOM      9  C   UNL A   1      37.244  31.850  29.281  1.00  0.00     0.014 A 
ATOM     10  C   UNL A   1      36.288  29.657  29.042  1.00  0.00     0.014 A 
ATOM     11  C   UNL A   1      38.512  31.285  29.349  1.00  0.00     0.010 A 
ATOM     12  C   UNL A   1      37.550  29.080  29.165  1.00  0.00     0.010 A 
ATOM     13  C   UNL A   1      38.670  29.902  29.266  1.00  0.00    -0.014 A 
BRANCH  13  14
ATOM     14  C   UNL A   1      40.026  29.376  29.408  1.00  0.00     0.031 A 
ATOM     15  C   UNL A   1      40.535  29.273  30.807  1.00  0.00     0.074 A 
ATOM     16  C   UNL A   1      40.749  28.880  28.385  1.00  0.00     0.049 A 
ATOM     17  N   UNL A   1      41.588  29.812  31.333  1.00  0.00    -0.248 NA
ATOM     18  C   UNL A   1      39.705  28.526  31.765  1.00  0.00     0.031 C 
ATOM     19  C   UNL A   1      40.298  28.611  27.019  1.00  0.00     0.029 A 
ATOM     20  N   UNL A   1      42.025  28.398  28.396  1.00  0.00    -0.354 N 
ATOM     21  C   UNL A   1      41.664  29.316  32.636  1.00  0.00     0.074 A 
ATOM     22  C   UNL A   1      40.416  28.646  32.886  1.00  0.00     0.031 C 
ATOM     23  C   UNL A   1      41.201  27.812  26.408  1.00  0.00     0.029 A 
ATOM     24  C   UNL A   1      42.340  27.621  27.292  1.00  0.00     0.049 A 
ATOM     25  H   UNL A   1      42.663  28.584  29.122  1.00  0.00     0.167 HD
ATOM     26  C   UNL A   1      42.823  29.323  33.353  1.00  0.00     0.037 A 
ATOM     27  C   UNL A   1      43.415  26.807  27.153  1.00  0.00     0.037 A 
ATOM     28  C   UNL A   1      43.773  30.266  32.826  1.00  0.00     0.049 A 
ATOM     29  C   UNL A   1      44.447  27.240  28.128  1.00  0.00     0.074 A 
ATOM     30  C   UNL A   1      43.779  31.631  32.609  1.00  0.00     0.029 A 
ATOM     31  N   UNL A   1      44.866  29.784  32.149  1.00  0.00    -0.354 N 
ATOM     32  N   UNL A   1      45.103  28.366  28.063  1.00  0.00    -0.248 NA
ATOM     33  C   UNL A   1      44.500  26.565  29.417  1.00  0.00     0.031 C 
ATOM     34  C   UNL A   1      44.576  31.822  31.442  1.00  0.00     0.029 A 
ATOM     35  C   UNL A   1      45.022  30.564  31.034  1.00  0.00     0.049 A 
ATOM     36  H   UNL A   1      45.430  29.022  32.416  1.00  0.00     0.167 HD
ATOM     37  C   UNL A   1      45.303  28.740  29.383  1.00  0.00     0.074 A 
ATOM     38  C   UNL A   1      45.017  27.542  30.164  1.00  0.00     0.031 C 
ATOM     39  C   UNL A   1      45.415  30.053  29.742  1.00  0.00     0.037 A 
BRANCH  26  40
ATOM     40  C   UNL A   1      43.234  28.231  34.324  1.00  0.00     0.058 A 
ATOM     41  C   UNL A   1      43.568  28.577  35.653  1.00  0.00     0.135 A 
ATOM     42  C   UNL A   1      43.611  26.929  33.926  1.00  0.00     0.135 A 
ATOM     43  F   UNL A   1      43.243  29.781  36.150  1.00  0.00    -0.206 F 
ATOM     44  C   UNL A   1      44.326  27.743  36.475  1.00  0.00     0.059 A 
ATOM     45  C   UNL A   1      44.319  26.061  34.751  1.00  0.00     0.059 A 
ATOM     46  F   UNL A   1      43.406  26.470  32.686  1.00  0.00    -0.206 F 
ATOM     47  C   UNL A   1      44.725  26.499  36.000  1.00  0.00     0.060 A 
BRANCH  47  48
ATOM     48  S   UNL A   1      45.855  25.494  36.978  1.00  0.00     0.124 S 
ATOM     49  O   UNL A   1      44.928  24.574  37.627  1.00  0.00    -0.237 OA
ATOM     50  O   UNL A   1      46.717  24.917  35.953  1.00  0.00    -0.237 OA
ATOM     51  O   UNL A   1      46.498  26.470  37.853  1.00  0.00    -0.744 OA
ENDBRANCH  47  48
ENDBRANCH  26  40
BRANCH  27  52
ATOM     52  C   UNL A   1      43.472  25.498  26.453  1.00  0.00     0.058 A 
ATOM     53  C   UNL A   1      44.349  25.283  25.377  1.00  0.00     0.135 A 
ATOM     54  C   UNL A   1      42.857  24.349  26.992  1.00  0.00     0.135 A 
ATOM     55  F   UNL A   1      45.002  26.315  24.821  1.00  0.00    -0.206 F 
ATOM     56  C   UNL A   1      44.628  24.002  24.888  1.00  0.00     0.059 A 
ATOM     57  C   UNL A   1      43.104  23.067  26.512  1.00  0.00     0.059 A 
ATOM     58  F   UNL A   1      42.063  24.427  28.071  1.00  0.00    -0.206 F 
ATOM     59  C   UNL A   1      44.011  22.896  25.474  1.00  0.00     0.060 A 
BRANCH  59  60
ATOM     60  S   UNL A   1      44.488  21.232  24.959  1.00  0.00     0.124 S 
ATOM     61  O   UNL A   1      45.786  21.077  25.608  1.00  0.00    -0.237 OA
ATOM     62  O   UNL A   1      43.404  20.418  25.498  1.00  0.00    -0.237 OA
ATOM     63  O   UNL A   1      44.528  21.326  23.502  1.00  0.00    -0.744 OA
ENDBRANCH  59  60
ENDBRANCH  27  52
BRANCH  39  64
ATOM     64  C   UNL A   1      45.681  31.070  28.666  1.00  0.00     0.058 A 
ATOM     65  C   UNL A   1      44.683  31.640  27.857  1.00  0.00     0.135 A 
ATOM     66  C   UNL A   1      46.975  31.607  28.565  1.00  0.00     0.135 A 
ATOM     67  F   UNL A   1      43.402  31.260  27.972  1.00  0.00    -0.206 F 
ATOM     68  C   UNL A   1      44.967  32.670  26.960  1.00  0.00     0.059 A 
ATOM     69  C   UNL A   1      47.274  32.656  27.699  1.00  0.00     0.059 A 
ATOM     70  F   UNL A   1      47.958  31.149  29.358  1.00  0.00    -0.206 F 
ATOM     71  C   UNL A   1      46.265  33.175  26.891  1.00  0.00     0.060 A 
BRANCH  71  72
ATOM     72  S   UNL A   1      46.602  34.581  25.808  1.00  0.00     0.124 S 
ATOM     73  O   UNL A   1      45.612  34.401  24.753  1.00  0.00    -0.237 OA
ATOM     74  O   UNL A   1      46.387  35.724  26.692  1.00  0.00    -0.237 OA
ATOM     75  O   UNL A   1      47.991  34.376  25.404  1.00  0.00    -0.744 OA
ENDBRANCH  71  72
ENDBRANCH  39  64
ENDBRANCH  13  14
ENDBRANCH   6   8
ENDBRANCH   3   4
ENDBRANCH   2   3
ENDBRANCH   1   2
BRANCH   1  76
ATOM     76  C   UNL A   1      31.283  27.730  26.391  1.00  0.00     0.116 C 
BRANCH  76  77
ATOM     77  N   UNL A   1      30.765  26.387  26.612  1.00  0.00    -0.352 N 
ATOM     78  C   UNL A   1      30.978  25.258  25.856  1.00  0.00     0.251 C 
ATOM     79  H   UNL A   1      30.189  26.273  27.403  1.00  0.00     0.163 HD
ATOM     80  O   UNL A   1      30.512  24.173  26.192  1.00  0.00    -0.269 OA
BRANCH  78  81
ATOM     81  C   UNL A   1      31.724  25.373  24.585  1.00  0.00     0.048 A 
ATOM     82  C   UNL A   1      31.004  25.911  23.504  1.00  0.00     0.014 A 
ATOM     83  C   UNL A   1      33.088  25.048  24.462  1.00  0.00     0.019 A 
ATOM     84  C   UNL A   1      31.650  26.209  22.309  1.00  0.00     0.001 A 
ATOM     85  C   UNL A   1      33.726  25.444  23.277  1.00  0.00     0.010 A 
ATOM     86  C   UNL A   1      33.020  26.005  22.208  1.00  0.00     0.001 A 
BRANCH  83  87
ATOM     87  C   UNL A   1      33.861  24.355  25.571  1.00  0.00     0.300 C 
BRANCH  87  88
ATOM     88  N   UNL A   1      34.916  23.390  25.195  1.00  0.00    -0.329 N 
ATOM     89  C   UNL A   1      36.144  23.655  25.965  1.00  0.00     0.262 C 
ATOM     90  C   UNL A   1      34.541  21.960  25.180  1.00  0.00     0.186 C 
ATOM     91  H   UNL A   1      35.089  23.562  24.206  1.00  0.00     0.348 HD
ATOM     92  C   UNL A   1      37.329  22.851  25.441  1.00  0.00     0.062 C 
ATOM     93  C   UNL A   1      35.722  21.129  24.628  1.00  0.00     0.065 C 
ATOM     94  C   UNL A   1      37.004  21.368  25.415  1.00  0.00     0.012 C 
BRANCH  90  95
ATOM     95  C   UNL A   1      33.270  21.668  24.333  1.00  0.00     0.088 C 
BRANCH  95  96
ATOM     96  C   UNL A   1      32.249  20.735  24.997  1.00  0.00     0.150 C 
BRANCH  96  97
ATOM     97  N   UNL A   1      32.525  19.329  24.765  1.00  0.00    -0.273 N 
ATOM     98  C   UNL A   1      32.858  18.738  23.579  1.00  0.00     0.108 A 
ATOM     99  N   UNL A   1      32.524  18.467  25.799  1.00  0.00    -0.182 NA
ATOM    100  C   UNL A   1      33.122  17.420  23.869  1.00  0.00     0.042 A 
ATOM    101  C   UNL A   1      32.885  17.305  25.250  1.00  0.00     0.135 A 
ENDBRANCH  96  97
ENDBRANCH  95  96
ENDBRANCH  90  95
ENDBRANCH  87  88
ENDBRANCH  83  87
ENDBRANCH  78  81
ENDBRANCH  76  77
ENDBRANCH   1  76
TORSDOF 19
ENDMDL
MODEL 3
REMARK VINA RESULT:     -12.4      2.966      9.436
REMARK SMILES O=C(NCCCCNC(=O)c1ccccc1C[N@H+]1CCCC[C@@H]1CCn1cccn1)c1ccc(-c2c3nc(c(-c4c(F)cc(S(=O)(=O)[O-])cc4F)c4ccc([nH]4)c(-c4c(F)cc(S(=O)(=O)[O-])cc4F)c4nc(c(-c5c(F)cc(S(=O)(=O)[O-])cc5F)c5ccc2[nH]5)C=C4)C=C3)cc1
REMARK SMILES IDX 6 1 5 2 4 3 3 4 1 5 2 6 31 8 32 9 96 10 33 11 95 12 34 13
REMARK SMILES IDX 35 14 36 15 89 16 37 17 94 18 88 19 90 20 38 21 93 22 87 23
REMARK SMILES IDX 86 24 39 26 73 27 52 28 72 29 53 30 56 31 71 32 91 33 54 34
REMARK SMILES IDX 55 35 70 37 92 38 57 39 40 40 41 41 50 42 42 43 43 44 49 45
REMARK SMILES IDX 51 46 44 47 45 48 46 49 47 50 48 51 74 52 75 53 84 54 76 55
REMARK SMILES IDX 77 56 83 57 85 58 78 59 79 60 80 61 81 62 82 63 58 64 59 65
REMARK SMILES IDX 68 66 60 67 61 68 67 69 69 70 62 71 63 72 64 73 65 74 66 75
REMARK SMILES IDX 7 76 8 77 9 78 10 80 11 81 12 82 16 83 13 84 15 85 14 86
REMARK SMILES IDX 17 87 18 88 19 89 23 90 20 92 22 93 21 94 24 95 25 96 26 97
REMARK SMILES IDX 27 98 30 99 28 100 29 101
REMARK H PARENT 3 7 90 25 56 36 8 79 18 91
REMARK Flexibility Score: inf
ROOT
ATOM      1  C   UNL A   1      35.090  23.576  23.374  1.00  0.00     0.023 C 
ENDROOT
BRANCH   1   2
ATOM      2  C   UNL A   1      36.257  22.660  23.734  1.00  0.00     0.023 C 
BRANCH   2   3
ATOM      3  C   UNL A   1      37.175  23.127  24.869  1.00  0.00     0.116 C 
BRANCH   3   4
ATOM      4  N   UNL A   1      38.164  22.176  25.337  1.00  0.00    -0.352 N 
ATOM      5  O   UNL A   1      39.658  21.138  26.597  1.00  0.00    -0.269 OA
ATOM      6  C   UNL A   1      39.173  22.223  26.265  1.00  0.00     0.251 C 
ATOM      7  H   UNL A   1      38.098  21.303  24.889  1.00  0.00     0.163 HD
BRANCH   6   8
ATOM      8  C   UNL A   1      39.755  23.474  26.822  1.00  0.00     0.039 A 
ATOM      9  C   UNL A   1      40.991  23.567  27.458  1.00  0.00     0.014 A 
ATOM     10  C   UNL A   1      38.958  24.631  26.736  1.00  0.00     0.014 A 
ATOM     11  C   UNL A   1      41.358  24.730  28.124  1.00  0.00     0.010 A 
ATOM     12  C   UNL A   1      39.346  25.818  27.354  1.00  0.00     0.010 A 
ATOM     13  C   UNL A   1      40.525  25.849  28.094  1.00  0.00    -0.014 A 
BRANCH  13  14
ATOM     14  C   UNL A   1      41.006  27.056  28.764  1.00  0.00     0.031 A 
ATOM     15  C   UNL A   1      42.208  27.697  28.155  1.00  0.00     0.074 A 
ATOM     16  C   UNL A   1      40.358  27.657  29.781  1.00  0.00     0.049 A 
ATOM     17  N   UNL A   1      43.358  27.951  28.693  1.00  0.00    -0.248 NA
ATOM     18  C   UNL A   1      42.134  28.027  26.723  1.00  0.00     0.031 C 
ATOM     19  C   UNL A   1      39.021  27.356  30.293  1.00  0.00     0.029 A 
ATOM     20  N   UNL A   1      40.729  28.758  30.495  1.00  0.00    -0.354 N 
ATOM     21  C   UNL A   1      44.088  28.649  27.729  1.00  0.00     0.074 A 
ATOM     22  C   UNL A   1      43.342  28.545  26.504  1.00  0.00     0.031 C 
ATOM     23  C   UNL A   1      38.605  28.383  31.066  1.00  0.00     0.029 A 
ATOM     24  C   UNL A   1      39.688  29.345  31.200  1.00  0.00     0.049 A 
ATOM     25  H   UNL A   1      41.650  29.105  30.509  1.00  0.00     0.167 HD
ATOM     26  C   UNL A   1      45.160  29.429  28.049  1.00  0.00     0.037 A 
ATOM     27  C   UNL A   1      39.688  30.572  31.775  1.00  0.00     0.037 A 
ATOM     28  C   UNL A   1      45.701  29.091  29.339  1.00  0.00     0.049 A 
ATOM     29  C   UNL A   1      41.100  30.988  31.969  1.00  0.00     0.074 A 
ATOM     30  C   UNL A   1      46.231  27.950  29.910  1.00  0.00     0.029 A 
ATOM     31  N   UNL A   1      45.486  29.956  30.384  1.00  0.00    -0.354 N 
ATOM     32  N   UNL A   1      41.928  30.431  32.809  1.00  0.00    -0.248 NA
ATOM     33  C   UNL A   1      41.719  31.816  30.944  1.00  0.00     0.031 C 
ATOM     34  C   UNL A   1      45.860  28.010  31.285  1.00  0.00     0.029 A 
ATOM     35  C   UNL A   1      45.144  29.193  31.469  1.00  0.00     0.049 A 
ATOM     36  H   UNL A   1      45.563  30.937  30.357  1.00  0.00     0.167 HD
ATOM     37  C   UNL A   1      43.166  30.499  32.189  1.00  0.00     0.074 A 
ATOM     38  C   UNL A   1      42.995  31.461  31.106  1.00  0.00     0.031 C 
ATOM     39  C   UNL A   1      44.138  29.571  32.435  1.00  0.00     0.037 A 
BRANCH  26  40
ATOM     40  C   UNL A   1      45.509  30.729  27.350  1.00  0.00     0.058 A 
ATOM     41  C   UNL A   1      46.831  30.938  26.898  1.00  0.00     0.135 A 
ATOM     42  C   UNL A   1      44.694  31.883  27.387  1.00  0.00     0.135 A 
ATOM     43  F   UNL A   1      47.692  29.912  26.801  1.00  0.00    -0.206 F 
ATOM     44  C   UNL A   1      47.338  32.210  26.627  1.00  0.00     0.059 A 
ATOM     45  C   UNL A   1      45.165  33.153  27.067  1.00  0.00     0.059 A 
ATOM     46  F   UNL A   1      43.434  31.858  27.836  1.00  0.00    -0.206 F 
ATOM     47  C   UNL A   1      46.503  33.314  26.748  1.00  0.00     0.060 A 
BRANCH  47  48
ATOM     48  S   UNL A   1      47.190  34.971  26.582  1.00  0.00     0.124 S 
ATOM     49  O   UNL A   1      48.081  34.795  25.440  1.00  0.00    -0.237 OA
ATOM     50  O   UNL A   1      45.996  35.775  26.344  1.00  0.00    -0.237 OA
ATOM     51  O   UNL A   1      47.842  35.192  27.868  1.00  0.00    -0.744 OA
ENDBRANCH  47  48
ENDBRANCH  26  40
BRANCH  27  52
ATOM     52  C   UNL A   1      38.551  31.524  31.871  1.00  0.00     0.058 A 
ATOM     53  C   UNL A   1      38.119  32.260  30.754  1.00  0.00     0.135 A 
ATOM     54  C   UNL A   1      37.697  31.538  32.992  1.00  0.00     0.135 A 
ATOM     55  F   UNL A   1      38.854  32.279  29.632  1.00  0.00    -0.206 F 
ATOM     56  C   UNL A   1      36.896  32.939  30.738  1.00  0.00     0.059 A 
ATOM     57  C   UNL A   1      36.484  32.221  33.007  1.00  0.00     0.059 A 
ATOM     58  F   UNL A   1      37.971  30.807  34.084  1.00  0.00    -0.206 F 
ATOM     59  C   UNL A   1      36.077  32.901  31.867  1.00  0.00     0.060 A 
BRANCH  59  60
ATOM     60  S   UNL A   1      34.428  33.635  31.798  1.00  0.00     0.124 S 
ATOM     61  O   UNL A   1      33.698  32.828  32.769  1.00  0.00    -0.237 OA
ATOM     62  O   UNL A   1      34.688  35.018  32.184  1.00  0.00    -0.237 OA
ATOM     63  O   UNL A   1      34.030  33.444  30.405  1.00  0.00    -0.744 OA
ENDBRANCH  59  60
ENDBRANCH  27  52
BRANCH  39  64
ATOM     64  C   UNL A   1      43.996  28.687  33.643  1.00  0.00     0.058 A 
ATOM     65  C   UNL A   1      44.482  29.014  34.920  1.00  0.00     0.135 A 
ATOM     66  C   UNL A   1      43.192  27.540  33.536  1.00  0.00     0.135 A 
ATOM     67  F   UNL A   1      45.164  30.149  35.128  1.00  0.00    -0.206 F 
ATOM     68  C   UNL A   1      44.214  28.216  36.033  1.00  0.00     0.059 A 
ATOM     69  C   UNL A   1      42.886  26.747  34.638  1.00  0.00     0.059 A 
ATOM     70  F   UNL A   1      42.644  27.211  32.354  1.00  0.00    -0.206 F 
ATOM     71  C   UNL A   1      43.411  27.086  35.883  1.00  0.00     0.060 A 
BRANCH  71  72
ATOM     72  S   UNL A   1      42.977  26.118  37.345  1.00  0.00     0.124 S 
ATOM     73  O   UNL A   1      43.588  24.827  37.051  1.00  0.00    -0.237 OA
ATOM     74  O   UNL A   1      43.595  26.880  38.427  1.00  0.00    -0.237 OA
ATOM     75  O   UNL A   1      41.516  26.134  37.345  1.00  0.00    -0.744 OA
ENDBRANCH  71  72
ENDBRANCH  39  64
ENDBRANCH  13  14
ENDBRANCH   6   8
ENDBRANCH   3   4
ENDBRANCH   2   3
ENDBRANCH   1   2
BRANCH   1  76
ATOM     76  C   UNL A   1      33.914  22.901  22.694  1.00  0.00     0.116 C 
BRANCH  76  77
ATOM     77  N   UNL A   1      32.959  23.821  22.093  1.00  0.00    -0.352 N 
ATOM     78  C   UNL A   1      31.988  24.567  22.720  1.00  0.00     0.251 C 
ATOM     79  H   UNL A   1      33.015  23.922  21.115  1.00  0.00     0.163 HD
ATOM     80  O   UNL A   1      31.278  25.344  22.086  1.00  0.00    -0.269 OA
BRANCH  78  81
ATOM     81  C   UNL A   1      31.754  24.375  24.166  1.00  0.00     0.048 A 
ATOM     82  C   UNL A   1      30.958  23.269  24.512  1.00  0.00     0.014 A 
ATOM     83  C   UNL A   1      32.344  25.186  25.155  1.00  0.00     0.019 A 
ATOM     84  C   UNL A   1      30.805  22.904  25.845  1.00  0.00     0.001 A 
ATOM     85  C   UNL A   1      32.242  24.737  26.481  1.00  0.00     0.010 A 
ATOM     86  C   UNL A   1      31.475  23.621  26.827  1.00  0.00     0.001 A 
BRANCH  83  87
ATOM     87  C   UNL A   1      33.106  26.456  24.815  1.00  0.00     0.300 C 
BRANCH  87  88
ATOM     88  N   UNL A   1      32.767  27.695  25.546  1.00  0.00    -0.329 N 
ATOM     89  C   UNL A   1      33.958  28.218  26.237  1.00  0.00     0.262 C 
ATOM     90  C   UNL A   1      32.031  28.734  24.796  1.00  0.00     0.186 C 
ATOM     91  H   UNL A   1      32.070  27.412  26.234  1.00  0.00     0.348 HD
ATOM     92  C   UNL A   1      33.608  29.349  27.198  1.00  0.00     0.062 C 
ATOM     93  C   UNL A   1      31.644  29.880  25.760  1.00  0.00     0.065 C 
ATOM     94  C   UNL A   1      32.859  30.455  26.477  1.00  0.00     0.012 C 
BRANCH  90  95
ATOM     95  C   UNL A   1      30.748  28.196  24.101  1.00  0.00     0.088 C 
BRANCH  95  96
ATOM     96  C   UNL A   1      30.592  28.598  22.629  1.00  0.00     0.150 C 
BRANCH  96  97
ATOM     97  N   UNL A   1      29.479  29.502  22.399  1.00  0.00    -0.273 N 
ATOM     98  C   UNL A   1      28.429  29.747  23.238  1.00  0.00     0.108 A 
ATOM     99  N   UNL A   1      29.446  30.252  21.281  1.00  0.00    -0.182 NA
ATOM    100  C   UNL A   1      27.689  30.742  22.642  1.00  0.00     0.042 A 
ATOM    101  C   UNL A   1      28.353  31.004  21.431  1.00  0.00     0.135 A 
ENDBRANCH  96  97
ENDBRANCH  95  96
ENDBRANCH  90  95
ENDBRANCH  87  88
ENDBRANCH  83  87
ENDBRANCH  78  81
ENDBRANCH  76  77
ENDBRANCH   1  76
TORSDOF 19
ENDMDL
