MODEL 1
REMARK VINA RESULT:     -11.8      0.000      0.000
REMARK SMILES CCC[NH+]1CCC(NC(=O)NC2(CC(=O)NCCCCNC(=O)c3ccc(-c4c5nc(c(-c6c(F)cc(S(=O)(=O)[O-])cc6F)c6ccc([nH]6)c(-c6c(F)cc(S(=O)(=O)[O-])cc6F)c6nc(c(-c7c(F)cc(S(=O)(=O)[O-])cc7F)c7ccc4[nH]7)C=C6)C=C5)cc3)CCC2)CC1
REMARK SMILES IDX 17 1 16 2 14 3 15 4 13 6 12 7 90 8 92 9 91 10 11 11 8 12
REMARK SMILES IDX 9 13 10 15 7 17 4 18 5 19 94 20 6 22 93 23 3 24 2 25 1 26
REMARK SMILES IDX 18 27 19 28 20 29 21 30 22 31 23 33 24 34 25 35 89 36 26 37
REMARK SMILES IDX 88 38 27 39 28 40 29 41 82 42 30 43 87 44 81 45 83 46 31 47
REMARK SMILES IDX 86 48 80 49 79 50 32 52 66 53 45 54 65 55 46 56 49 57 64 58
REMARK SMILES IDX 84 59 47 60 48 61 63 63 85 64 50 65 33 66 34 67 43 68 35 69
REMARK SMILES IDX 36 70 42 71 44 72 37 73 38 74 39 75 40 76 41 77 67 78 68 79
REMARK SMILES IDX 77 80 69 81 70 82 76 83 78 84 71 85 72 86 73 87 74 88 75 89
REMARK SMILES IDX 51 90 52 91 61 92 53 93 54 94 60 95 62 96 55 97 56 98 57 99
REMARK SMILES IDX 58 100 59 101
REMARK H PARENT 16 5 8 14 11 16 4 21 21 32 83 51 49 62
REMARK Flexibility Score: inf
ROOT
ATOM      1  C   UNL A   1      36.355  21.598  25.366  1.00  0.00     0.116 C 
ENDROOT
BRANCH   1   2
ATOM      2  N   UNL A   1      35.582  21.802  26.574  1.00  0.00    -0.356 N 
ATOM      3  C   UNL A   1      34.417  22.472  26.779  1.00  0.00     0.222 C 
ATOM      4  O   UNL A   1      33.995  22.547  27.936  1.00  0.00    -0.275 OA
ATOM      5  H   UNL A   1      35.965  21.386  27.381  1.00  0.00     0.163 HD
BRANCH   3   6
ATOM      6  C   UNL A   1      33.645  23.140  25.655  1.00  0.00     0.128 C 
BRANCH   6   7
ATOM      7  C   UNL A   1      32.249  22.549  25.311  1.00  0.00     0.051 C 
ATOM      8  C   UNL A   1      32.278  21.093  24.758  1.00  0.00     0.029 C 
ATOM      9  C   UNL A   1      31.871  23.032  23.893  1.00  0.00     0.029 C 
ATOM     10  C   UNL A   1      32.085  21.622  23.334  1.00  0.00     0.005 C 
BRANCH   7  11
ATOM     11  N   UNL A   1      31.344  22.694  26.498  1.00  0.00    -0.332 N 
ATOM     12  N   UNL A   1      29.825  24.546  26.425  1.00  0.00    -0.335 N 
ATOM     13  C   UNL A   1      30.222  23.344  26.858  1.00  0.00     0.315 C 
ATOM     14  H   UNL A   1      28.863  24.727  26.534  1.00  0.00     0.165 HD
ATOM     15  O   UNL A   1      29.506  22.791  27.699  1.00  0.00    -0.249 OA
ATOM     16  H   UNL A   1      31.672  22.142  27.244  1.00  0.00     0.165 HD
BRANCH  12  17
ATOM     17  C   UNL A   1      30.578  25.614  25.827  1.00  0.00     0.095 C 
ATOM     18  N   UNL A   1      31.646  28.149  24.897  1.00  0.00    -0.335 N 
ATOM     19  C   UNL A   1      30.922  27.224  23.999  1.00  0.00     0.264 C 
ATOM     20  C   UNL A   1      32.027  27.590  26.195  1.00  0.00     0.264 C 
ATOM     21  H   UNL A   1      30.991  28.882  25.167  1.00  0.00     0.348 HD
ATOM     22  C   UNL A   1      29.880  26.327  24.679  1.00  0.00     0.086 C 
ATOM     23  C   UNL A   1      30.982  26.681  26.836  1.00  0.00     0.086 C 
BRANCH  18  24
ATOM     24  C   UNL A   1      32.781  28.753  24.159  1.00  0.00     0.261 C 
BRANCH  24  25
ATOM     25  C   UNL A   1      33.886  27.846  23.579  1.00  0.00     0.058 C 
ATOM     26  C   UNL A   1      33.740  27.544  22.088  1.00  0.00     0.010 C 
ENDBRANCH  24  25
ENDBRANCH  18  24
ENDBRANCH  12  17
ENDBRANCH   7  11
ENDBRANCH   6   7
ENDBRANCH   3   6
ENDBRANCH   1   2
BRANCH   1  27
ATOM     27  C   UNL A   1      37.517  22.588  25.251  1.00  0.00     0.023 C 
BRANCH  27  28
ATOM     28  C   UNL A   1      37.490  23.761  26.229  1.00  0.00     0.023 C 
BRANCH  28  29
ATOM     29  C   UNL A   1      38.838  24.088  26.856  1.00  0.00     0.116 C 
BRANCH  29  30
ATOM     30  N   UNL A   1      39.813  24.617  25.911  1.00  0.00    -0.352 N 
ATOM     31  C   UNL A   1      40.702  25.652  26.099  1.00  0.00     0.251 C 
ATOM     32  H   UNL A   1      39.838  24.182  25.028  1.00  0.00     0.163 HD
ATOM     33  O   UNL A   1      41.409  26.034  25.172  1.00  0.00    -0.269 OA
BRANCH  31  34
ATOM     34  C   UNL A   1      40.750  26.329  27.414  1.00  0.00     0.039 A 
ATOM     35  C   UNL A   1      41.760  27.264  27.658  1.00  0.00     0.014 A 
ATOM     36  C   UNL A   1      39.761  26.096  28.372  1.00  0.00     0.014 A 
ATOM     37  C   UNL A   1      41.723  28.030  28.825  1.00  0.00     0.010 A 
ATOM     38  C   UNL A   1      39.681  26.914  29.495  1.00  0.00     0.010 A 
ATOM     39  C   UNL A   1      40.655  27.896  29.728  1.00  0.00    -0.014 A 
BRANCH  39  40
ATOM     40  C   UNL A   1      40.525  28.777  30.919  1.00  0.00     0.031 A 
ATOM     41  C   UNL A   1      39.509  29.886  30.926  1.00  0.00     0.074 A 
ATOM     42  C   UNL A   1      41.376  28.631  31.956  1.00  0.00     0.049 A 
ATOM     43  N   UNL A   1      39.324  30.831  31.811  1.00  0.00    -0.248 NA
ATOM     44  C   UNL A   1      38.601  29.961  29.769  1.00  0.00     0.031 C 
ATOM     45  C   UNL A   1      42.440  27.626  32.048  1.00  0.00     0.029 A 
ATOM     46  N   UNL A   1      41.489  29.337  33.127  1.00  0.00    -0.354 N 
ATOM     47  C   UNL A   1      38.292  31.618  31.314  1.00  0.00     0.074 A 
ATOM     48  C   UNL A   1      37.926  31.073  30.024  1.00  0.00     0.031 C 
ATOM     49  C   UNL A   1      43.080  27.768  33.221  1.00  0.00     0.029 A 
ATOM     50  C   UNL A   1      42.502  28.894  33.947  1.00  0.00     0.049 A 
ATOM     51  H   UNL A   1      40.901  30.091  33.359  1.00  0.00     0.167 HD
ATOM     52  C   UNL A   1      37.682  32.680  31.892  1.00  0.00     0.037 A 
ATOM     53  C   UNL A   1      42.919  29.348  35.144  1.00  0.00     0.037 A 
ATOM     54  C   UNL A   1      38.022  33.199  33.191  1.00  0.00     0.049 A 
ATOM     55  C   UNL A   1      42.219  30.525  35.768  1.00  0.00     0.074 A 
ATOM     56  C   UNL A   1      37.440  34.249  33.878  1.00  0.00     0.029 A 
ATOM     57  N   UNL A   1      39.025  32.695  34.005  1.00  0.00    -0.354 N 
ATOM     58  N   UNL A   1      41.219  31.233  35.298  1.00  0.00    -0.248 NA
ATOM     59  C   UNL A   1      42.700  30.965  37.085  1.00  0.00     0.031 C 
ATOM     60  C   UNL A   1      38.104  34.395  35.099  1.00  0.00     0.029 A 
ATOM     61  C   UNL A   1      39.078  33.414  35.188  1.00  0.00     0.049 A 
ATOM     62  H   UNL A   1      39.613  31.939  33.776  1.00  0.00     0.167 HD
ATOM     63  C   UNL A   1      40.933  32.179  36.276  1.00  0.00     0.074 A 
ATOM     64  C   UNL A   1      41.857  31.949  37.367  1.00  0.00     0.031 C 
ATOM     65  C   UNL A   1      39.990  33.153  36.272  1.00  0.00     0.037 A 
BRANCH  52  66
ATOM     66  C   UNL A   1      36.563  33.338  31.134  1.00  0.00     0.058 A 
ATOM     67  C   UNL A   1      35.226  33.185  31.532  1.00  0.00     0.135 A 
ATOM     68  C   UNL A   1      36.830  34.165  30.032  1.00  0.00     0.135 A 
ATOM     69  F   UNL A   1      34.916  32.390  32.568  1.00  0.00    -0.206 F 
ATOM     70  C   UNL A   1      34.189  33.812  30.851  1.00  0.00     0.059 A 
ATOM     71  C   UNL A   1      35.809  34.823  29.351  1.00  0.00     0.059 A 
ATOM     72  F   UNL A   1      38.091  34.344  29.609  1.00  0.00    -0.206 F 
ATOM     73  C   UNL A   1      34.490  34.630  29.762  1.00  0.00     0.060 A 
BRANCH  73  74
ATOM     74  S   UNL A   1      33.133  35.454  28.902  1.00  0.00     0.124 S 
ATOM     75  O   UNL A   1      33.856  36.423  28.083  1.00  0.00    -0.237 OA
ATOM     76  O   UNL A   1      32.508  34.353  28.177  1.00  0.00    -0.237 OA
ATOM     77  O   UNL A   1      32.338  36.020  29.986  1.00  0.00    -0.744 OA
ENDBRANCH  73  74
ENDBRANCH  52  66
BRANCH  53  78
ATOM     78  C   UNL A   1      44.045  28.681  35.853  1.00  0.00     0.058 A 
ATOM     79  C   UNL A   1      43.813  27.582  36.693  1.00  0.00     0.135 A 
ATOM     80  C   UNL A   1      45.363  29.142  35.730  1.00  0.00     0.135 A 
ATOM     81  F   UNL A   1      42.566  27.107  36.846  1.00  0.00    -0.206 F 
ATOM     82  C   UNL A   1      44.841  26.984  37.413  1.00  0.00     0.059 A 
ATOM     83  C   UNL A   1      46.413  28.546  36.422  1.00  0.00     0.059 A 
ATOM     84  F   UNL A   1      45.640  30.180  34.923  1.00  0.00    -0.206 F 
ATOM     85  C   UNL A   1      46.139  27.480  37.275  1.00  0.00     0.060 A 
BRANCH  85  86
ATOM     86  S   UNL A   1      47.471  26.693  38.207  1.00  0.00     0.124 S 
ATOM     87  O   UNL A   1      46.740  26.107  39.323  1.00  0.00    -0.237 OA
ATOM     88  O   UNL A   1      48.014  25.749  37.235  1.00  0.00    -0.237 OA
ATOM     89  O   UNL A   1      48.348  27.810  38.541  1.00  0.00    -0.744 OA
ENDBRANCH  85  86
ENDBRANCH  53  78
BRANCH  65  90
ATOM     90  C   UNL A   1      39.878  34.012  37.498  1.00  0.00     0.058 A 
ATOM     91  C   UNL A   1      40.572  35.225  37.614  1.00  0.00     0.135 A 
ATOM     92  C   UNL A   1      39.022  33.638  38.547  1.00  0.00     0.135 A 
ATOM     93  F   UNL A   1      41.406  35.621  36.640  1.00  0.00    -0.206 F 
ATOM     94  C   UNL A   1      40.435  36.033  38.738  1.00  0.00     0.059 A 
ATOM     95  C   UNL A   1      38.853  34.442  39.670  1.00  0.00     0.059 A 
ATOM     96  F   UNL A   1      38.329  32.491  38.479  1.00  0.00    -0.206 F 
ATOM     97  C   UNL A   1      39.573  35.633  39.761  1.00  0.00     0.060 A 
BRANCH  97  98
ATOM     98  S   UNL A   1      39.373  36.708  41.196  1.00  0.00     0.124 S 
ATOM     99  O   UNL A   1      38.756  37.888  40.597  1.00  0.00    -0.237 OA
ATOM    100  O   UNL A   1      38.509  35.915  42.066  1.00  0.00    -0.237 OA
ATOM    101  O   UNL A   1      40.738  36.889  41.678  1.00  0.00    -0.744 OA
ENDBRANCH  97  98
ENDBRANCH  65  90
ENDBRANCH  39  40
ENDBRANCH  31  34
ENDBRANCH  29  30
ENDBRANCH  28  29
ENDBRANCH  27  28
ENDBRANCH   1  27
TORSDOF 19
ENDMDL
MODEL 2
REMARK VINA RESULT:     -11.6      1.377      8.330
REMARK SMILES CCC[NH+]1CCC(NC(=O)NC2(CC(=O)NCCCCNC(=O)c3ccc(-c4c5nc(c(-c6c(F)cc(S(=O)(=O)[O-])cc6F)c6ccc([nH]6)c(-c6c(F)cc(S(=O)(=O)[O-])cc6F)c6nc(c(-c7c(F)cc(S(=O)(=O)[O-])cc7F)c7ccc4[nH]7)C=C6)C=C5)cc3)CCC2)CC1
REMARK SMILES IDX 17 1 16 2 14 3 15 4 13 6 12 7 90 8 92 9 91 10 11 11 8 12
REMARK SMILES IDX 9 13 10 15 7 17 4 18 5 19 94 20 6 22 93 23 3 24 2 25 1 26
REMARK SMILES IDX 18 27 19 28 20 29 21 30 22 31 23 33 24 34 25 35 89 36 26 37
REMARK SMILES IDX 88 38 27 39 28 40 29 41 82 42 30 43 87 44 81 45 83 46 31 47
REMARK SMILES IDX 86 48 80 49 79 50 32 52 66 53 45 54 65 55 46 56 49 57 64 58
REMARK SMILES IDX 84 59 47 60 48 61 63 63 85 64 50 65 33 66 34 67 43 68 35 69
REMARK SMILES IDX 36 70 42 71 44 72 37 73 38 74 39 75 40 76 41 77 67 78 68 79
REMARK SMILES IDX 77 80 69 81 70 82 76 83 78 84 71 85 72 86 73 87 74 88 75 89
REMARK SMILES IDX 51 90 52 91 61 92 53 93 54 94 60 95 62 96 55 97 56 98 57 99
REMARK SMILES IDX 58 100 59 101
REMARK H PARENT 16 5 8 14 11 16 4 21 21 32 83 51 49 62
REMARK Flexibility Score: inf
ROOT
ATOM      1  C   UNL A   1      37.879  22.243  25.777  1.00  0.00     0.116 C 
ENDROOT
BRANCH   1   2
ATOM      2  N   UNL A   1      37.034  21.192  25.246  1.00  0.00    -0.356 N 
ATOM      3  C   UNL A   1      35.692  20.998  25.344  1.00  0.00     0.222 C 
ATOM      4  O   UNL A   1      35.222  19.973  24.844  1.00  0.00    -0.275 OA
ATOM      5  H   UNL A   1      37.512  20.504  24.729  1.00  0.00     0.163 HD
BRANCH   3   6
ATOM      6  C   UNL A   1      34.772  21.972  26.060  1.00  0.00     0.128 C 
BRANCH   6   7
ATOM      7  C   UNL A   1      33.966  22.961  25.172  1.00  0.00     0.051 C 
ATOM      8  C   UNL A   1      34.838  23.972  24.370  1.00  0.00     0.029 C 
ATOM      9  C   UNL A   1      33.512  24.134  26.069  1.00  0.00     0.029 C 
ATOM     10  C   UNL A   1      34.513  25.070  25.386  1.00  0.00     0.005 C 
BRANCH   7  11
ATOM     11  N   UNL A   1      33.030  22.187  24.293  1.00  0.00    -0.332 N 
ATOM     12  N   UNL A   1      32.448  23.236  22.218  1.00  0.00    -0.335 N 
ATOM     13  C   UNL A   1      32.593  22.176  23.020  1.00  0.00     0.315 C 
ATOM     14  H   UNL A   1      32.428  23.028  21.256  1.00  0.00     0.165 HD
ATOM     15  O   UNL A   1      32.260  21.079  22.558  1.00  0.00    -0.249 OA
ATOM     16  H   UNL A   1      32.602  21.464  24.806  1.00  0.00     0.165 HD
BRANCH  12  17
ATOM     17  C   UNL A   1      32.317  24.632  22.538  1.00  0.00     0.095 C 
ATOM     18  N   UNL A   1      31.514  27.408  22.816  1.00  0.00    -0.335 N 
ATOM     19  C   UNL A   1      32.642  26.999  21.952  1.00  0.00     0.264 C 
ATOM     20  C   UNL A   1      31.014  26.374  23.723  1.00  0.00     0.264 C 
ATOM     21  H   UNL A   1      30.710  27.564  22.208  1.00  0.00     0.348 HD
ATOM     22  C   UNL A   1      32.547  25.582  21.373  1.00  0.00     0.086 C 
ATOM     23  C   UNL A   1      30.955  24.970  23.128  1.00  0.00     0.086 C 
BRANCH  18  24
ATOM     24  C   UNL A   1      31.864  28.676  23.501  1.00  0.00     0.261 C 
BRANCH  24  25
ATOM     25  C   UNL A   1      31.284  28.974  24.899  1.00  0.00     0.058 C 
ATOM     26  C   UNL A   1      32.057  30.026  25.694  1.00  0.00     0.010 C 
ENDBRANCH  24  25
ENDBRANCH  18  24
ENDBRANCH  12  17
ENDBRANCH   7  11
ENDBRANCH   6   7
ENDBRANCH   3   6
ENDBRANCH   1   2
BRANCH   1  27
ATOM     27  C   UNL A   1      39.355  21.837  25.803  1.00  0.00     0.023 C 
BRANCH  27  28
ATOM     28  C   UNL A   1      40.022  21.841  27.178  1.00  0.00     0.023 C 
BRANCH  28  29
ATOM     29  C   UNL A   1      41.001  22.984  27.399  1.00  0.00     0.116 C 
BRANCH  29  30
ATOM     30  N   UNL A   1      41.207  23.818  26.221  1.00  0.00    -0.352 N 
ATOM     31  C   UNL A   1      41.335  25.188  26.164  1.00  0.00     0.251 C 
ATOM     32  H   UNL A   1      41.259  23.344  25.360  1.00  0.00     0.163 HD
ATOM     33  O   UNL A   1      41.425  25.755  25.080  1.00  0.00    -0.269 OA
BRANCH  31  34
ATOM     34  C   UNL A   1      41.308  25.967  27.423  1.00  0.00     0.039 A 
ATOM     35  C   UNL A   1      42.395  26.788  27.735  1.00  0.00     0.014 A 
ATOM     36  C   UNL A   1      40.185  25.941  28.252  1.00  0.00     0.014 A 
ATOM     37  C   UNL A   1      42.313  27.652  28.830  1.00  0.00     0.010 A 
ATOM     38  C   UNL A   1      40.074  26.858  29.292  1.00  0.00     0.010 A 
ATOM     39  C   UNL A   1      41.132  27.730  29.586  1.00  0.00    -0.014 A 
BRANCH  39  40
ATOM     40  C   UNL A   1      40.973  28.720  30.683  1.00  0.00     0.031 A 
ATOM     41  C   UNL A   1      41.828  28.618  31.917  1.00  0.00     0.074 A 
ATOM     42  C   UNL A   1      40.005  29.656  30.605  1.00  0.00     0.049 A 
ATOM     43  N   UNL A   1      41.760  29.305  33.028  1.00  0.00    -0.248 NA
ATOM     44  C   UNL A   1      42.878  27.586  31.913  1.00  0.00     0.031 C 
ATOM     45  C   UNL A   1      39.075  29.827  29.485  1.00  0.00     0.029 A 
ATOM     46  N   UNL A   1      39.632  30.635  31.493  1.00  0.00    -0.354 N 
ATOM     47  C   UNL A   1      42.745  28.782  33.857  1.00  0.00     0.074 A 
ATOM     48  C   UNL A   1      43.362  27.685  33.143  1.00  0.00     0.031 C 
ATOM     49  C   UNL A   1      38.257  30.860  29.744  1.00  0.00     0.029 A 
ATOM     50  C   UNL A   1      38.575  31.402  31.061  1.00  0.00     0.049 A 
ATOM     51  H   UNL A   1      40.079  30.774  32.358  1.00  0.00     0.167 HD
ATOM     52  C   UNL A   1      43.123  29.197  35.090  1.00  0.00     0.037 A 
ATOM     53  C   UNL A   1      37.932  32.422  31.661  1.00  0.00     0.037 A 
ATOM     54  C   UNL A   1      42.533  30.311  35.784  1.00  0.00     0.049 A 
ATOM     55  C   UNL A   1      38.377  32.868  33.028  1.00  0.00     0.074 A 
ATOM     56  C   UNL A   1      42.870  30.830  37.022  1.00  0.00     0.029 A 
ATOM     57  N   UNL A   1      41.494  31.087  35.294  1.00  0.00    -0.354 N 
ATOM     58  N   UNL A   1      39.338  32.384  33.780  1.00  0.00    -0.248 NA
ATOM     59  C   UNL A   1      37.657  33.999  33.628  1.00  0.00     0.031 C 
ATOM     60  C   UNL A   1      42.021  31.908  37.290  1.00  0.00     0.029 A 
ATOM     61  C   UNL A   1      41.177  32.081  36.204  1.00  0.00     0.049 A 
ATOM     62  H   UNL A   1      41.047  30.951  34.427  1.00  0.00     0.167 HD
ATOM     63  C   UNL A   1      39.354  33.172  34.925  1.00  0.00     0.074 A 
ATOM     64  C   UNL A   1      38.317  34.170  34.764  1.00  0.00     0.031 C 
ATOM     65  C   UNL A   1      40.157  33.079  36.014  1.00  0.00     0.037 A 
BRANCH  52  66
ATOM     66  C   UNL A   1      44.248  28.457  35.759  1.00  0.00     0.058 A 
ATOM     67  C   UNL A   1      45.586  28.834  35.560  1.00  0.00     0.135 A 
ATOM     68  C   UNL A   1      43.989  27.396  36.640  1.00  0.00     0.135 A 
ATOM     69  F   UNL A   1      45.889  29.829  34.711  1.00  0.00    -0.206 F 
ATOM     70  C   UNL A   1      46.629  28.171  36.195  1.00  0.00     0.059 A 
ATOM     71  C   UNL A   1      45.017  26.735  37.307  1.00  0.00     0.059 A 
ATOM     72  F   UNL A   1      42.728  26.996  36.864  1.00  0.00    -0.206 F 
ATOM     73  C   UNL A   1      46.335  27.123  37.068  1.00  0.00     0.060 A 
BRANCH  73  74
ATOM     74  S   UNL A   1      47.701  26.287  37.901  1.00  0.00     0.124 S 
ATOM     75  O   UNL A   1      48.642  26.102  36.799  1.00  0.00    -0.237 OA
ATOM     76  O   UNL A   1      48.095  27.261  38.913  1.00  0.00    -0.237 OA
ATOM     77  O   UNL A   1      47.089  25.066  38.415  1.00  0.00    -0.744 OA
ENDBRANCH  73  74
ENDBRANCH  52  66
BRANCH  53  78
ATOM     78  C   UNL A   1      36.809  33.114  30.974  1.00  0.00     0.058 A 
ATOM     79  C   UNL A   1      35.481  32.892  31.369  1.00  0.00     0.135 A 
ATOM     80  C   UNL A   1      37.034  33.985  29.898  1.00  0.00     0.135 A 
ATOM     81  F   UNL A   1      35.216  32.063  32.391  1.00  0.00    -0.206 F 
ATOM     82  C   UNL A   1      34.413  33.480  30.700  1.00  0.00     0.059 A 
ATOM     83  C   UNL A   1      35.983  34.604  29.228  1.00  0.00     0.059 A 
ATOM     84  F   UNL A   1      38.287  34.245  29.494  1.00  0.00    -0.206 F 
ATOM     85  C   UNL A   1      34.675  34.331  29.625  1.00  0.00     0.060 A 
BRANCH  85  86
ATOM     86  S   UNL A   1      33.284  35.099  28.767  1.00  0.00     0.124 S 
ATOM     87  O   UNL A   1      33.948  36.171  28.036  1.00  0.00    -0.237 OA
ATOM     88  O   UNL A   1      32.771  33.998  27.958  1.00  0.00    -0.237 OA
ATOM     89  O   UNL A   1      32.412  35.522  29.858  1.00  0.00    -0.744 OA
ENDBRANCH  85  86
ENDBRANCH  53  78
BRANCH  65  90
ATOM     90  C   UNL A   1      39.978  34.106  37.094  1.00  0.00     0.058 A 
ATOM     91  C   UNL A   1      40.548  35.384  36.998  1.00  0.00     0.135 A 
ATOM     92  C   UNL A   1      39.180  33.822  38.215  1.00  0.00     0.135 A 
ATOM     93  F   UNL A   1      41.323  35.701  35.949  1.00  0.00    -0.206 F 
ATOM     94  C   UNL A   1      40.348  36.343  37.986  1.00  0.00     0.059 A 
ATOM     95  C   UNL A   1      38.949  34.774  39.203  1.00  0.00     0.059 A 
ATOM     96  F   UNL A   1      38.606  32.617  38.348  1.00  0.00    -0.206 F 
ATOM     97  C   UNL A   1      39.546  36.028  39.085  1.00  0.00     0.060 A 
BRANCH  97  98
ATOM     98  S   UNL A   1      39.260  37.292  40.341  1.00  0.00     0.124 S 
ATOM     99  O   UNL A   1      38.553  38.314  39.575  1.00  0.00    -0.237 OA
ATOM    100  O   UNL A   1      38.461  36.577  41.332  1.00  0.00    -0.237 OA
ATOM    101  O   UNL A   1      40.607  37.651  40.774  1.00  0.00    -0.744 OA
ENDBRANCH  97  98
ENDBRANCH  65  90
ENDBRANCH  39  40
ENDBRANCH  31  34
ENDBRANCH  29  30
ENDBRANCH  28  29
ENDBRANCH  27  28
ENDBRANCH   1  27
TORSDOF 19
ENDMDL
MODEL 3
REMARK VINA RESULT:     -11.5      5.018      9.219
REMARK SMILES CCC[NH+]1CCC(NC(=O)NC2(CC(=O)NCCCCNC(=O)c3ccc(-c4c5nc(c(-c6c(F)cc(S(=O)(=O)[O-])cc6F)c6ccc([nH]6)c(-c6c(F)cc(S(=O)(=O)[O-])cc6F)c6nc(c(-c7c(F)cc(S(=O)(=O)[O-])cc7F)c7ccc4[nH]7)C=C6)C=C5)cc3)CCC2)CC1
REMARK SMILES IDX 17 1 16 2 14 3 15 4 13 6 12 7 90 8 92 9 91 10 11 11 8 12
REMARK SMILES IDX 9 13 10 15 7 17 4 18 5 19 94 20 6 22 93 23 3 24 2 25 1 26
REMARK SMILES IDX 18 27 19 28 20 29 21 30 22 31 23 33 24 34 25 35 89 36 26 37
REMARK SMILES IDX 88 38 27 39 28 40 29 41 82 42 30 43 87 44 81 45 83 46 31 47
REMARK SMILES IDX 86 48 80 49 79 50 32 52 66 53 45 54 65 55 46 56 49 57 64 58
REMARK SMILES IDX 84 59 47 60 48 61 63 63 85 64 50 65 33 66 34 67 43 68 35 69
REMARK SMILES IDX 36 70 42 71 44 72 37 73 38 74 39 75 40 76 41 77 67 78 68 79
REMARK SMILES IDX 77 80 69 81 70 82 76 83 78 84 71 85 72 86 73 87 74 88 75 89
REMARK SMILES IDX 51 90 52 91 61 92 53 93 54 94 60 95 62 96 55 97 56 98 57 99
REMARK SMILES IDX 58 100 59 101
REMARK H PARENT 16 5 8 14 11 16 4 21 21 32 83 51 49 62
REMARK Flexibility Score: inf
ROOT
ATOM      1  C   UNL A   1      35.026  21.427  26.048  1.00  0.00     0.116 C 
ENDROOT
BRANCH   1   2
ATOM      2  N   UNL A   1      33.864  20.562  25.990  1.00  0.00    -0.356 N 
ATOM      3  C   UNL A   1      32.797  20.566  25.147  1.00  0.00     0.222 C 
ATOM      4  O   UNL A   1      31.900  19.746  25.355  1.00  0.00    -0.275 OA
ATOM      5  H   UNL A   1      33.845  19.855  26.674  1.00  0.00     0.163 HD
BRANCH   3   6
ATOM      6  C   UNL A   1      32.664  21.547  23.995  1.00  0.00     0.128 C 
BRANCH   6   7
ATOM      7  C   UNL A   1      32.036  22.931  24.318  1.00  0.00     0.051 C 
ATOM      8  C   UNL A   1      30.918  23.385  23.332  1.00  0.00     0.029 C 
ATOM      9  C   UNL A   1      32.952  24.016  23.708  1.00  0.00     0.029 C 
ATOM     10  C   UNL A   1      31.907  24.319  22.630  1.00  0.00     0.005 C 
BRANCH   7  11
ATOM     11  N   UNL A   1      31.582  22.948  25.747  1.00  0.00    -0.332 N 
ATOM     12  N   UNL A   1      30.072  24.713  26.337  1.00  0.00    -0.335 N 
ATOM     13  C   UNL A   1      30.629  23.510  26.514  1.00  0.00     0.315 C 
ATOM     14  H   UNL A   1      29.199  24.833  26.776  1.00  0.00     0.165 HD
ATOM     15  O   UNL A   1      30.257  22.864  27.499  1.00  0.00    -0.249 OA
ATOM     16  H   UNL A   1      32.159  22.368  26.294  1.00  0.00     0.165 HD
BRANCH  12  17
ATOM     17  C   UNL A   1      30.546  25.858  25.609  1.00  0.00     0.095 C 
ATOM     18  N   UNL A   1      31.091  28.496  24.527  1.00  0.00    -0.335 N 
ATOM     19  C   UNL A   1      30.277  27.502  23.798  1.00  0.00     0.264 C 
ATOM     20  C   UNL A   1      31.825  27.979  25.682  1.00  0.00     0.264 C 
ATOM     21  H   UNL A   1      30.446  29.154  24.964  1.00  0.00     0.348 HD
ATOM     22  C   UNL A   1      29.525  26.494  24.678  1.00  0.00     0.086 C 
ATOM     23  C   UNL A   1      31.063  26.960  26.524  1.00  0.00     0.086 C 
BRANCH  18  24
ATOM     24  C   UNL A   1      31.950  29.223  23.559  1.00  0.00     0.261 C 
BRANCH  24  25
ATOM     25  C   UNL A   1      33.438  28.842  23.422  1.00  0.00     0.058 C 
ATOM     26  C   UNL A   1      33.749  27.915  22.247  1.00  0.00     0.010 C 
ENDBRANCH  24  25
ENDBRANCH  18  24
ENDBRANCH  12  17
ENDBRANCH   7  11
ENDBRANCH   6   7
ENDBRANCH   3   6
ENDBRANCH   1   2
BRANCH   1  27
ATOM     27  C   UNL A   1      35.843  21.382  24.755  1.00  0.00     0.023 C 
BRANCH  27  28
ATOM     28  C   UNL A   1      36.397  22.721  24.270  1.00  0.00     0.023 C 
BRANCH  28  29
ATOM     29  C   UNL A   1      37.410  23.359  25.209  1.00  0.00     0.116 C 
BRANCH  29  30
ATOM     30  N   UNL A   1      38.354  22.412  25.786  1.00  0.00    -0.352 N 
ATOM     31  C   UNL A   1      39.452  22.682  26.573  1.00  0.00     0.251 C 
ATOM     32  H   UNL A   1      38.189  21.462  25.588  1.00  0.00     0.163 HD
ATOM     33  O   UNL A   1      40.202  21.774  26.919  1.00  0.00    -0.269 OA
BRANCH  31  34
ATOM     34  C   UNL A   1      39.743  24.084  26.947  1.00  0.00     0.039 A 
ATOM     35  C   UNL A   1      39.583  24.477  28.278  1.00  0.00     0.014 A 
ATOM     36  C   UNL A   1      40.241  24.984  26.003  1.00  0.00     0.014 A 
ATOM     37  C   UNL A   1      40.009  25.746  28.678  1.00  0.00     0.010 A 
ATOM     38  C   UNL A   1      40.738  26.216  26.418  1.00  0.00     0.010 A 
ATOM     39  C   UNL A   1      40.636  26.606  27.761  1.00  0.00    -0.014 A 
BRANCH  39  40
ATOM     40  C   UNL A   1      41.205  27.913  28.181  1.00  0.00     0.031 A 
ATOM     41  C   UNL A   1      42.690  28.145  28.108  1.00  0.00     0.074 A 
ATOM     42  C   UNL A   1      40.397  28.858  28.705  1.00  0.00     0.049 A 
ATOM     43  N   UNL A   1      43.389  29.163  28.537  1.00  0.00    -0.248 NA
ATOM     44  C   UNL A   1      43.499  27.075  27.500  1.00  0.00     0.031 C 
ATOM     45  C   UNL A   1      38.946  28.736  28.878  1.00  0.00     0.029 A 
ATOM     46  N   UNL A   1      40.683  30.106  29.201  1.00  0.00    -0.354 N 
ATOM     47  C   UNL A   1      44.716  28.854  28.264  1.00  0.00     0.074 A 
ATOM     48  C   UNL A   1      44.731  27.529  27.681  1.00  0.00     0.031 C 
ATOM     49  C   UNL A   1      38.470  29.870  29.419  1.00  0.00     0.029 A 
ATOM     50  C   UNL A   1      39.580  30.784  29.666  1.00  0.00     0.049 A 
ATOM     51  H   UNL A   1      41.592  30.481  29.222  1.00  0.00     0.167 HD
ATOM     52  C   UNL A   1      45.820  29.615  28.453  1.00  0.00     0.037 A 
ATOM     53  C   UNL A   1      39.477  32.000  30.234  1.00  0.00     0.037 A 
ATOM     54  C   UNL A   1      45.800  30.946  28.999  1.00  0.00     0.049 A 
ATOM     55  C   UNL A   1      40.719  32.829  30.426  1.00  0.00     0.074 A 
ATOM     56  C   UNL A   1      46.862  31.811  29.198  1.00  0.00     0.029 A 
ATOM     57  N   UNL A   1      44.659  31.611  29.419  1.00  0.00    -0.354 N 
ATOM     58  N   UNL A   1      41.961  32.533  30.125  1.00  0.00    -0.248 NA
ATOM     59  C   UNL A   1      40.547  34.158  31.029  1.00  0.00     0.031 C 
ATOM     60  C   UNL A   1      46.365  32.992  29.757  1.00  0.00     0.029 A 
ATOM     61  C   UNL A   1      44.990  32.875  29.876  1.00  0.00     0.049 A 
ATOM     62  H   UNL A   1      43.747  31.239  29.396  1.00  0.00     0.167 HD
ATOM     63  C   UNL A   1      42.711  33.650  30.475  1.00  0.00     0.074 A 
ATOM     64  C   UNL A   1      41.785  34.631  30.999  1.00  0.00     0.031 C 
ATOM     65  C   UNL A   1      44.049  33.846  30.372  1.00  0.00     0.037 A 
BRANCH  52  66
ATOM     66  C   UNL A   1      47.145  29.035  28.041  1.00  0.00     0.058 A 
ATOM     67  C   UNL A   1      47.960  28.356  28.960  1.00  0.00     0.135 A 
ATOM     68  C   UNL A   1      47.582  29.115  26.709  1.00  0.00     0.135 A 
ATOM     69  F   UNL A   1      47.597  28.268  30.249  1.00  0.00    -0.206 F 
ATOM     70  C   UNL A   1      49.173  27.796  28.579  1.00  0.00     0.059 A 
ATOM     71  C   UNL A   1      48.781  28.539  26.300  1.00  0.00     0.059 A 
ATOM     72  F   UNL A   1      46.841  29.755  25.791  1.00  0.00    -0.206 F 
ATOM     73  C   UNL A   1      49.575  27.890  27.246  1.00  0.00     0.060 A 
BRANCH  73  74
ATOM     74  S   UNL A   1      51.144  27.138  26.764  1.00  0.00     0.124 S 
ATOM     75  O   UNL A   1      50.882  26.795  25.368  1.00  0.00    -0.237 OA
ATOM     76  O   UNL A   1      52.093  28.224  26.982  1.00  0.00    -0.237 OA
ATOM     77  O   UNL A   1      51.271  26.005  27.674  1.00  0.00    -0.744 OA
ENDBRANCH  73  74
ENDBRANCH  52  66
BRANCH  53  78
ATOM     78  C   UNL A   1      38.150  32.530  30.649  1.00  0.00     0.058 A 
ATOM     79  C   UNL A   1      37.360  33.266  29.753  1.00  0.00     0.135 A 
ATOM     80  C   UNL A   1      37.657  32.337  31.948  1.00  0.00     0.135 A 
ATOM     81  F   UNL A   1      37.791  33.481  28.500  1.00  0.00    -0.206 F 
ATOM     82  C   UNL A   1      36.146  33.823  30.138  1.00  0.00     0.059 A 
ATOM     83  C   UNL A   1      36.434  32.864  32.351  1.00  0.00     0.059 A 
ATOM     84  F   UNL A   1      38.366  31.623  32.836  1.00  0.00    -0.206 F 
ATOM     85  C   UNL A   1      35.694  33.622  31.444  1.00  0.00     0.060 A 
BRANCH  85  86
ATOM     86  S   UNL A   1      34.112  34.340  31.936  1.00  0.00     0.124 S 
ATOM     87  O   UNL A   1      33.583  33.305  32.816  1.00  0.00    -0.237 OA
ATOM     88  O   UNL A   1      34.522  35.580  32.586  1.00  0.00    -0.237 OA
ATOM     89  O   UNL A   1      33.414  34.508  30.665  1.00  0.00    -0.744 OA
ENDBRANCH  85  86
ENDBRANCH  53  78
BRANCH  65  90
ATOM     90  C   UNL A   1      44.585  35.185  30.790  1.00  0.00     0.058 A 
ATOM     91  C   UNL A   1      45.043  35.420  32.095  1.00  0.00     0.135 A 
ATOM     92  C   UNL A   1      44.689  36.229  29.855  1.00  0.00     0.135 A 
ATOM     93  F   UNL A   1      44.958  34.456  33.024  1.00  0.00    -0.206 F 
ATOM     94  C   UNL A   1      45.571  36.653  32.465  1.00  0.00     0.059 A 
ATOM     95  C   UNL A   1      45.235  37.461  30.199  1.00  0.00     0.059 A 
ATOM     96  F   UNL A   1      44.272  36.049  28.592  1.00  0.00    -0.206 F 
ATOM     97  C   UNL A   1      45.664  37.667  31.510  1.00  0.00     0.060 A 
BRANCH  97  98
ATOM     98  S   UNL A   1      46.388  39.249  31.991  1.00  0.00     0.124 S 
ATOM     99  O   UNL A   1      45.565  39.611  33.141  1.00  0.00    -0.237 OA
ATOM    100  O   UNL A   1      47.770  38.884  32.291  1.00  0.00    -0.237 OA
ATOM    101  O   UNL A   1      46.209  40.079  30.804  1.00  0.00    -0.744 OA
ENDBRANCH  97  98
ENDBRANCH  65  90
ENDBRANCH  39  40
ENDBRANCH  31  34
ENDBRANCH  29  30
ENDBRANCH  28  29
ENDBRANCH  27  28
ENDBRANCH   1  27
TORSDOF 19
ENDMDL
