MODEL 1
REMARK VINA RESULT:     -14.3      0.000      0.000
REMARK SMILES Cc1cccc(-c2cc(C[C@]3(C(=O)NCCCCNC(=O)c4ccc(-c5c6nc(c(-c7c(F)cc(S(=O)(=O)[O-])cc7F)c7ccc([nH]7)c(-c7c(F)cc(S(=O)(=O)[O-])cc7F)c7nc(c(-c8c(F)cc(S(=O)(=O)[O-])cc8F)c8ccc5[nH]8)C=C7)C=C6)cc4)CCCN(C(=O)C(C)C)C3)on2)c1
REMARK SMILES IDX 16 1 15 2 14 3 12 4 13 5 11 7 88 8 97 9 89 10 91 11 90 12
REMARK SMILES IDX 10 13 9 14 7 15 8 16 99 17 98 18 6 19 1 20 2 21 3 22 100 23
REMARK SMILES IDX 4 24 5 25 92 26 93 27 94 28 95 29 96 30 17 31 18 32 19 33
REMARK SMILES IDX 20 34 21 36 22 37 23 38 87 39 24 40 86 41 25 42 26 43 27 44
REMARK SMILES IDX 80 45 28 46 85 47 79 48 81 49 29 50 84 51 78 52 77 53 30 55
REMARK SMILES IDX 64 56 43 57 63 58 44 59 47 60 62 61 82 62 45 63 46 64 61 66
REMARK SMILES IDX 83 67 48 68 31 69 32 70 41 71 33 72 34 73 40 74 42 75 35 76
REMARK SMILES IDX 36 77 37 78 38 79 39 80 65 81 66 82 75 83 67 84 68 85 74 86
REMARK SMILES IDX 76 87 69 88 70 89 71 90 72 91 73 92 49 93 50 94 59 95 51 96
REMARK SMILES IDX 52 97 58 98 60 99 53 100 54 101 55 102 56 103 57 104
REMARK H PARENT 14 6 19 35 81 54 47 65
REMARK Flexibility Score: inf
ROOT
ATOM      1  C   UNL A   1      33.972  28.750  25.201  1.00  0.00     0.023 C 
ENDROOT
BRANCH   1   2
ATOM      2  C   UNL A   1      32.636  28.275  24.606  1.00  0.00     0.116 C 
BRANCH   2   3
ATOM      3  N   UNL A   1      31.675  27.758  25.577  1.00  0.00    -0.356 N 
ATOM      4  C   UNL A   1      31.375  26.506  26.034  1.00  0.00     0.228 C 
ATOM      5  O   UNL A   1      30.543  26.461  26.948  1.00  0.00    -0.274 OA
ATOM      6  H   UNL A   1      31.126  28.462  25.990  1.00  0.00     0.163 HD
BRANCH   4   7
ATOM      7  C   UNL A   1      31.995  25.200  25.455  1.00  0.00     0.074 C 
ATOM      8  C   UNL A   1      31.542  25.080  23.971  1.00  0.00     0.021 C 
ATOM      9  C   UNL A   1      33.528  25.249  25.687  1.00  0.00     0.136 C 
ATOM     10  C   UNL A   1      32.555  24.496  22.989  1.00  0.00     0.023 C 
ATOM     11  N   UNL A   1      34.289  24.519  24.668  1.00  0.00    -0.341 N 
ATOM     12  C   UNL A   1      33.979  24.913  23.307  1.00  0.00     0.119 C 
BRANCH   7  13
ATOM     13  C   UNL A   1      31.387  24.013  26.290  1.00  0.00     0.097 C 
BRANCH  13  14
ATOM     14  C   UNL A   1      31.928  22.643  26.037  1.00  0.00     0.138 A 
ATOM     15  C   UNL A   1      32.614  20.640  25.374  1.00  0.00     0.114 A 
ATOM     16  C   UNL A   1      31.792  21.737  25.011  1.00  0.00     0.077 A 
ATOM     17  N   UNL A   1      33.239  20.888  26.536  1.00  0.00    -0.080 NA
ATOM     18  O   UNL A   1      32.821  22.148  26.936  1.00  0.00    -0.361 OA
BRANCH  15  19
ATOM     19  C   UNL A   1      32.778  19.377  24.666  1.00  0.00     0.004 A 
ATOM     20  C   UNL A   1      34.032  15.824  25.264  1.00  0.00     0.044 C 
ATOM     21  C   UNL A   1      33.484  17.048  24.595  1.00  0.00    -0.050 A 
ATOM     22  C   UNL A   1      33.149  16.990  23.236  1.00  0.00     0.003 A 
ATOM     23  C   UNL A   1      33.309  18.250  25.303  1.00  0.00     0.014 A 
ATOM     24  C   UNL A   1      32.616  18.104  22.598  1.00  0.00     0.001 A 
ATOM     25  C   UNL A   1      32.421  19.282  23.317  1.00  0.00     0.010 A 
ENDBRANCH  15  19
ENDBRANCH  13  14
ENDBRANCH   7  13
BRANCH  11  26
ATOM     26  C   UNL A   1      35.182  23.536  25.055  1.00  0.00     0.225 C 
ATOM     27  O   UNL A   1      35.624  23.502  26.211  1.00  0.00    -0.275 OA
BRANCH  26  28
ATOM     28  C   UNL A   1      35.680  22.470  24.071  1.00  0.00     0.072 C 
ATOM     29  C   UNL A   1      36.680  22.926  23.011  1.00  0.00     0.018 C 
ATOM     30  C   UNL A   1      36.129  21.206  24.788  1.00  0.00     0.018 C 
ENDBRANCH  26  28
ENDBRANCH  11  26
ENDBRANCH   4   7
ENDBRANCH   2   3
ENDBRANCH   1   2
BRANCH   1  31
ATOM     31  C   UNL A   1      34.123  28.608  26.714  1.00  0.00     0.023 C 
BRANCH  31  32
ATOM     32  C   UNL A   1      34.363  29.915  27.443  1.00  0.00     0.116 C 
BRANCH  32  33
ATOM     33  N   UNL A   1      35.504  30.699  26.985  1.00  0.00    -0.352 N 
ATOM     34  C   UNL A   1      36.538  30.910  27.885  1.00  0.00     0.251 C 
ATOM     35  H   UNL A   1      35.540  31.067  26.071  1.00  0.00     0.163 HD
ATOM     36  O   UNL A   1      36.620  31.857  28.661  1.00  0.00    -0.269 OA
BRANCH  34  37
ATOM     37  C   UNL A   1      37.348  29.693  28.108  1.00  0.00     0.039 A 
ATOM     38  C   UNL A   1      37.299  28.984  29.310  1.00  0.00     0.014 A 
ATOM     39  C   UNL A   1      38.393  29.521  27.197  1.00  0.00     0.014 A 
ATOM     40  C   UNL A   1      38.394  28.206  29.674  1.00  0.00     0.010 A 
ATOM     41  C   UNL A   1      39.514  28.851  27.611  1.00  0.00     0.010 A 
ATOM     42  C   UNL A   1      39.526  28.225  28.864  1.00  0.00    -0.014 A 
BRANCH  42  43
ATOM     43  C   UNL A   1      40.816  27.646  29.202  1.00  0.00     0.031 A 
ATOM     44  C   UNL A   1      41.070  26.238  28.848  1.00  0.00     0.074 A 
ATOM     45  C   UNL A   1      41.815  28.495  29.518  1.00  0.00     0.049 A 
ATOM     46  N   UNL A   1      42.144  25.593  29.126  1.00  0.00    -0.248 NA
ATOM     47  C   UNL A   1      40.089  25.440  28.121  1.00  0.00     0.031 C 
ATOM     48  C   UNL A   1      43.254  28.267  29.449  1.00  0.00     0.029 A 
ATOM     49  N   UNL A   1      41.692  29.715  30.192  1.00  0.00    -0.354 N 
ATOM     50  C   UNL A   1      42.135  24.428  28.388  1.00  0.00     0.074 A 
ATOM     51  C   UNL A   1      40.810  24.358  27.820  1.00  0.00     0.031 C 
ATOM     52  C   UNL A   1      43.863  29.124  30.285  1.00  0.00     0.029 A 
ATOM     53  C   UNL A   1      42.817  29.788  31.045  1.00  0.00     0.049 A 
ATOM     54  H   UNL A   1      40.975  30.382  30.094  1.00  0.00     0.167 HD
ATOM     55  C   UNL A   1      43.303  23.733  28.250  1.00  0.00     0.037 A 
ATOM     56  C   UNL A   1      42.625  29.642  32.394  1.00  0.00     0.037 A 
ATOM     57  C   UNL A   1      44.338  24.295  29.124  1.00  0.00     0.049 A 
ATOM     58  C   UNL A   1      43.211  28.360  32.972  1.00  0.00     0.074 A 
ATOM     59  C   UNL A   1      45.411  25.155  28.956  1.00  0.00     0.029 A 
ATOM     60  N   UNL A   1      44.118  24.243  30.488  1.00  0.00    -0.354 N 
ATOM     61  N   UNL A   1      43.829  27.441  32.276  1.00  0.00    -0.248 NA
ATOM     62  C   UNL A   1      43.101  27.993  34.384  1.00  0.00     0.031 C 
ATOM     63  C   UNL A   1      45.775  25.671  30.242  1.00  0.00     0.029 A 
ATOM     64  C   UNL A   1      44.940  25.105  31.188  1.00  0.00     0.049 A 
ATOM     65  H   UNL A   1      43.450  23.658  30.913  1.00  0.00     0.167 HD
ATOM     66  C   UNL A   1      44.145  26.379  33.083  1.00  0.00     0.074 A 
ATOM     67  C   UNL A   1      43.680  26.780  34.399  1.00  0.00     0.031 C 
ATOM     68  C   UNL A   1      44.731  25.230  32.625  1.00  0.00     0.037 A 
BRANCH  55  69
ATOM     69  C   UNL A   1      43.548  22.703  27.166  1.00  0.00     0.058 A 
ATOM     70  C   UNL A   1      42.835  21.485  27.162  1.00  0.00     0.135 A 
ATOM     71  C   UNL A   1      44.511  22.817  26.141  1.00  0.00     0.135 A 
ATOM     72  F   UNL A   1      41.828  21.264  28.017  1.00  0.00    -0.206 F 
ATOM     73  C   UNL A   1      43.127  20.433  26.288  1.00  0.00     0.059 A 
ATOM     74  C   UNL A   1      44.867  21.758  25.298  1.00  0.00     0.059 A 
ATOM     75  F   UNL A   1      45.106  23.984  25.866  1.00  0.00    -0.206 F 
ATOM     76  C   UNL A   1      44.170  20.564  25.383  1.00  0.00     0.060 A 
BRANCH  76  77
ATOM     77  S   UNL A   1      44.582  19.172  24.313  1.00  0.00     0.124 S 
ATOM     78  O   UNL A   1      44.406  19.743  22.982  1.00  0.00    -0.237 OA
ATOM     79  O   UNL A   1      45.958  18.887  24.707  1.00  0.00    -0.237 OA
ATOM     80  O   UNL A   1      43.602  18.155  24.685  1.00  0.00    -0.744 OA
ENDBRANCH  76  77
ENDBRANCH  55  69
BRANCH  56  81
ATOM     81  C   UNL A   1      41.380  30.343  32.847  1.00  0.00     0.058 A 
ATOM     82  C   UNL A   1      40.252  29.538  33.130  1.00  0.00     0.135 A 
ATOM     83  C   UNL A   1      41.418  31.616  33.432  1.00  0.00     0.135 A 
ATOM     84  F   UNL A   1      40.148  28.314  32.586  1.00  0.00    -0.206 F 
ATOM     85  C   UNL A   1      39.321  29.893  34.100  1.00  0.00     0.059 A 
ATOM     86  C   UNL A   1      40.474  32.003  34.391  1.00  0.00     0.059 A 
ATOM     87  F   UNL A   1      42.452  32.437  33.200  1.00  0.00    -0.206 F 
ATOM     88  C   UNL A   1      39.488  31.095  34.780  1.00  0.00     0.060 A 
BRANCH  88  89
ATOM     89  S   UNL A   1      38.546  31.331  36.307  1.00  0.00     0.124 S 
ATOM     90  O   UNL A   1      39.534  31.944  37.186  1.00  0.00    -0.237 OA
ATOM     91  O   UNL A   1      37.462  32.206  35.855  1.00  0.00    -0.237 OA
ATOM     92  O   UNL A   1      38.136  29.977  36.666  1.00  0.00    -0.744 OA
ENDBRANCH  88  89
ENDBRANCH  56  81
BRANCH  68  93
ATOM     93  C   UNL A   1      45.121  24.090  33.532  1.00  0.00     0.058 A 
ATOM     94  C   UNL A   1      46.426  23.947  34.033  1.00  0.00     0.135 A 
ATOM     95  C   UNL A   1      44.226  23.040  33.833  1.00  0.00     0.135 A 
ATOM     96  F   UNL A   1      47.373  24.854  33.748  1.00  0.00    -0.206 F 
ATOM     97  C   UNL A   1      46.800  22.865  34.832  1.00  0.00     0.059 A 
ATOM     98  C   UNL A   1      44.593  21.924  34.577  1.00  0.00     0.059 A 
ATOM     99  F   UNL A   1      42.944  23.073  33.447  1.00  0.00    -0.206 F 
ATOM    100  C   UNL A   1      45.873  21.861  35.103  1.00  0.00     0.060 A 
BRANCH 100 101
ATOM    101  S   UNL A   1      46.343  20.467  36.142  1.00  0.00     0.124 S 
ATOM    102  O   UNL A   1      45.381  19.441  35.755  1.00  0.00    -0.237 OA
ATOM    103  O   UNL A   1      47.719  20.240  35.711  1.00  0.00    -0.237 OA
ATOM    104  O   UNL A   1      46.186  20.986  37.498  1.00  0.00    -0.744 OA
ENDBRANCH 100 101
ENDBRANCH  68  93
ENDBRANCH  42  43
ENDBRANCH  34  37
ENDBRANCH  32  33
ENDBRANCH  31  32
ENDBRANCH   1  31
TORSDOF 19
ENDMDL
MODEL 2
REMARK VINA RESULT:     -14.2      2.004      4.677
REMARK SMILES Cc1cccc(-c2cc(C[C@]3(C(=O)NCCCCNC(=O)c4ccc(-c5c6nc(c(-c7c(F)cc(S(=O)(=O)[O-])cc7F)c7ccc([nH]7)c(-c7c(F)cc(S(=O)(=O)[O-])cc7F)c7nc(c(-c8c(F)cc(S(=O)(=O)[O-])cc8F)c8ccc5[nH]8)C=C7)C=C6)cc4)CCCN(C(=O)C(C)C)C3)on2)c1
REMARK SMILES IDX 16 1 15 2 14 3 12 4 13 5 11 7 88 8 97 9 89 10 91 11 90 12
REMARK SMILES IDX 10 13 9 14 7 15 8 16 99 17 98 18 6 19 1 20 2 21 3 22 100 23
REMARK SMILES IDX 4 24 5 25 92 26 93 27 94 28 95 29 96 30 17 31 18 32 19 33
REMARK SMILES IDX 20 34 21 36 22 37 23 38 87 39 24 40 86 41 25 42 26 43 27 44
REMARK SMILES IDX 80 45 28 46 85 47 79 48 81 49 29 50 84 51 78 52 77 53 30 55
REMARK SMILES IDX 64 56 43 57 63 58 44 59 47 60 62 61 82 62 45 63 46 64 61 66
REMARK SMILES IDX 83 67 48 68 31 69 32 70 41 71 33 72 34 73 40 74 42 75 35 76
REMARK SMILES IDX 36 77 37 78 38 79 39 80 65 81 66 82 75 83 67 84 68 85 74 86
REMARK SMILES IDX 76 87 69 88 70 89 71 90 72 91 73 92 49 93 50 94 59 95 51 96
REMARK SMILES IDX 52 97 58 98 60 99 53 100 54 101 55 102 56 103 57 104
REMARK H PARENT 14 6 19 35 81 54 47 65
REMARK Flexibility Score: inf
ROOT
ATOM      1  C   UNL A   1      31.986  29.416  27.141  1.00  0.00     0.023 C 
ENDROOT
BRANCH   1   2
ATOM      2  C   UNL A   1      32.271  27.915  26.974  1.00  0.00     0.116 C 
BRANCH   2   3
ATOM      3  N   UNL A   1      31.089  27.058  26.962  1.00  0.00    -0.356 N 
ATOM      4  C   UNL A   1      30.776  25.890  26.325  1.00  0.00     0.228 C 
ATOM      5  O   UNL A   1      29.686  25.394  26.635  1.00  0.00    -0.274 OA
ATOM      6  H   UNL A   1      30.362  27.393  27.534  1.00  0.00     0.163 HD
BRANCH   4   7
ATOM      7  C   UNL A   1      31.688  25.211  25.260  1.00  0.00     0.074 C 
ATOM      8  C   UNL A   1      33.015  26.019  25.191  1.00  0.00     0.021 C 
ATOM      9  C   UNL A   1      31.832  23.712  25.633  1.00  0.00     0.136 C 
ATOM     10  C   UNL A   1      34.295  25.220  24.956  1.00  0.00     0.023 C 
ATOM     11  N   UNL A   1      33.109  23.132  25.202  1.00  0.00    -0.341 N 
ATOM     12  C   UNL A   1      34.273  23.871  25.651  1.00  0.00     0.119 C 
BRANCH   7  13
ATOM     13  C   UNL A   1      30.927  25.327  23.887  1.00  0.00     0.097 C 
BRANCH  13  14
ATOM     14  C   UNL A   1      30.132  26.568  23.641  1.00  0.00     0.138 A 
ATOM     15  C   UNL A   1      29.218  28.535  23.175  1.00  0.00     0.114 A 
ATOM     16  C   UNL A   1      30.459  27.861  23.304  1.00  0.00     0.077 A 
ATOM     17  N   UNL A   1      28.200  27.686  23.388  1.00  0.00    -0.080 NA
ATOM     18  O   UNL A   1      28.776  26.456  23.660  1.00  0.00    -0.361 OA
BRANCH  15  19
ATOM     19  C   UNL A   1      28.997  29.949  22.897  1.00  0.00     0.004 A 
ATOM     20  C   UNL A   1      27.831  32.232  20.072  1.00  0.00     0.044 C 
ATOM     21  C   UNL A   1      28.349  31.751  21.394  1.00  0.00    -0.050 A 
ATOM     22  C   UNL A   1      28.663  32.689  22.386  1.00  0.00     0.003 A 
ATOM     23  C   UNL A   1      28.530  30.380  21.651  1.00  0.00     0.014 A 
ATOM     24  C   UNL A   1      29.120  32.266  23.629  1.00  0.00     0.001 A 
ATOM     25  C   UNL A   1      29.271  30.904  23.881  1.00  0.00     0.010 A 
ENDBRANCH  15  19
ENDBRANCH  13  14
ENDBRANCH   7  13
BRANCH  11  26
ATOM     26  C   UNL A   1      33.111  21.995  24.415  1.00  0.00     0.225 C 
ATOM     27  O   UNL A   1      33.691  20.967  24.788  1.00  0.00    -0.275 OA
BRANCH  26  28
ATOM     28  C   UNL A   1      32.424  21.967  23.043  1.00  0.00     0.072 C 
ATOM     29  C   UNL A   1      33.011  22.868  21.960  1.00  0.00     0.018 C 
ATOM     30  C   UNL A   1      32.198  20.543  22.555  1.00  0.00     0.018 C 
ENDBRANCH  26  28
ENDBRANCH  11  26
ENDBRANCH   4   7
ENDBRANCH   2   3
ENDBRANCH   1   2
BRANCH   1  31
ATOM     31  C   UNL A   1      33.169  30.356  26.917  1.00  0.00     0.023 C 
BRANCH  31  32
ATOM     32  C   UNL A   1      34.507  29.785  27.341  1.00  0.00     0.116 C 
BRANCH  32  33
ATOM     33  N   UNL A   1      35.676  30.600  27.029  1.00  0.00    -0.352 N 
ATOM     34  C   UNL A   1      36.611  30.789  28.035  1.00  0.00     0.251 C 
ATOM     35  H   UNL A   1      35.797  31.002  26.137  1.00  0.00     0.163 HD
ATOM     36  O   UNL A   1      36.601  31.707  28.849  1.00  0.00    -0.269 OA
BRANCH  34  37
ATOM     37  C   UNL A   1      37.413  29.574  28.294  1.00  0.00     0.039 A 
ATOM     38  C   UNL A   1      37.382  28.918  29.526  1.00  0.00     0.014 A 
ATOM     39  C   UNL A   1      38.438  29.352  27.371  1.00  0.00     0.014 A 
ATOM     40  C   UNL A   1      38.477  28.144  29.901  1.00  0.00     0.010 A 
ATOM     41  C   UNL A   1      39.561  28.689  27.790  1.00  0.00     0.010 A 
ATOM     42  C   UNL A   1      39.593  28.117  29.068  1.00  0.00    -0.014 A 
BRANCH  42  43
ATOM     43  C   UNL A   1      40.883  27.539  29.405  1.00  0.00     0.031 A 
ATOM     44  C   UNL A   1      41.173  26.161  28.970  1.00  0.00     0.074 A 
ATOM     45  C   UNL A   1      41.858  28.382  29.803  1.00  0.00     0.049 A 
ATOM     46  N   UNL A   1      42.252  25.518  29.236  1.00  0.00    -0.248 NA
ATOM     47  C   UNL A   1      40.227  25.395  28.165  1.00  0.00     0.031 C 
ATOM     48  C   UNL A   1      43.301  28.184  29.760  1.00  0.00     0.029 A 
ATOM     49  N   UNL A   1      41.693  29.555  30.550  1.00  0.00    -0.354 N 
ATOM     50  C   UNL A   1      42.283  24.403  28.425  1.00  0.00     0.074 A 
ATOM     51  C   UNL A   1      40.976  24.347  27.817  1.00  0.00     0.031 C 
ATOM     52  C   UNL A   1      43.872  28.996  30.666  1.00  0.00     0.029 A 
ATOM     53  C   UNL A   1      42.794  29.592  31.437  1.00  0.00     0.049 A 
ATOM     54  H   UNL A   1      40.966  30.214  30.473  1.00  0.00     0.167 HD
ATOM     55  C   UNL A   1      43.468  23.738  28.276  1.00  0.00     0.037 A 
ATOM     56  C   UNL A   1      42.568  29.356  32.768  1.00  0.00     0.037 A 
ATOM     57  C   UNL A   1      44.468  24.260  29.213  1.00  0.00     0.049 A 
ATOM     58  C   UNL A   1      43.162  28.050  33.279  1.00  0.00     0.074 A 
ATOM     59  C   UNL A   1      45.529  25.148  29.130  1.00  0.00     0.029 A 
ATOM     60  N   UNL A   1      44.212  24.117  30.564  1.00  0.00    -0.354 N 
ATOM     61  N   UNL A   1      43.815  27.187  32.544  1.00  0.00    -0.248 NA
ATOM     62  C   UNL A   1      43.020  27.591  34.661  1.00  0.00     0.031 C 
ATOM     63  C   UNL A   1      45.848  25.585  30.456  1.00  0.00     0.029 A 
ATOM     64  C   UNL A   1      44.999  24.945  31.341  1.00  0.00     0.049 A 
ATOM     65  H   UNL A   1      43.544  23.494  30.932  1.00  0.00     0.167 HD
ATOM     66  C   UNL A   1      44.130  26.081  33.290  1.00  0.00     0.074 A 
ATOM     67  C   UNL A   1      43.622  26.389  34.615  1.00  0.00     0.031 C 
ATOM     68  C   UNL A   1      44.749  24.975  32.776  1.00  0.00     0.037 A 
BRANCH  55  69
ATOM     69  C   UNL A   1      43.762  22.784  27.135  1.00  0.00     0.058 A 
ATOM     70  C   UNL A   1      43.071  21.557  27.033  1.00  0.00     0.135 A 
ATOM     71  C   UNL A   1      44.750  22.980  26.148  1.00  0.00     0.135 A 
ATOM     72  F   UNL A   1      42.046  21.265  27.844  1.00  0.00    -0.206 F 
ATOM     73  C   UNL A   1      43.406  20.569  26.103  1.00  0.00     0.059 A 
ATOM     74  C   UNL A   1      45.148  21.984  25.250  1.00  0.00     0.059 A 
ATOM     75  F   UNL A   1      45.330  24.172  25.965  1.00  0.00    -0.206 F 
ATOM     76  C   UNL A   1      44.472  20.775  25.238  1.00  0.00     0.060 A 
BRANCH  76  77
ATOM     77  S   UNL A   1      44.939  19.462  24.094  1.00  0.00     0.124 S 
ATOM     78  O   UNL A   1      46.390  19.421  24.246  1.00  0.00    -0.237 OA
ATOM     79  O   UNL A   1      44.210  18.320  24.634  1.00  0.00    -0.237 OA
ATOM     80  O   UNL A   1      44.466  19.952  22.802  1.00  0.00    -0.744 OA
ENDBRANCH  76  77
ENDBRANCH  55  69
BRANCH  56  81
ATOM     81  C   UNL A   1      41.298  30.005  33.229  1.00  0.00     0.058 A 
ATOM     82  C   UNL A   1      41.321  31.405  33.425  1.00  0.00     0.135 A 
ATOM     83  C   UNL A   1      40.045  29.411  33.020  1.00  0.00     0.135 A 
ATOM     84  F   UNL A   1      42.489  32.032  33.646  1.00  0.00    -0.206 F 
ATOM     85  C   UNL A   1      40.196  32.196  33.219  1.00  0.00     0.059 A 
ATOM     86  C   UNL A   1      38.894  30.188  32.836  1.00  0.00     0.059 A 
ATOM     87  F   UNL A   1      39.946  28.087  32.836  1.00  0.00    -0.206 F 
ATOM     88  C   UNL A   1      39.005  31.579  32.847  1.00  0.00     0.060 A 
BRANCH  88  89
ATOM     89  S   UNL A   1      37.696  32.629  32.168  1.00  0.00     0.124 S 
ATOM     90  O   UNL A   1      37.541  33.638  33.209  1.00  0.00    -0.237 OA
ATOM     91  O   UNL A   1      38.304  33.089  30.916  1.00  0.00    -0.237 OA
ATOM     92  O   UNL A   1      36.574  31.711  32.006  1.00  0.00    -0.744 OA
ENDBRANCH  88  89
ENDBRANCH  56  81
BRANCH  68  93
ATOM     93  C   UNL A   1      45.135  23.786  33.619  1.00  0.00     0.058 A 
ATOM     94  C   UNL A   1      44.240  22.736  33.885  1.00  0.00     0.135 A 
ATOM     95  C   UNL A   1      46.379  23.719  34.286  1.00  0.00     0.135 A 
ATOM     96  F   UNL A   1      43.006  22.737  33.358  1.00  0.00    -0.206 F 
ATOM     97  C   UNL A   1      44.581  21.660  34.706  1.00  0.00     0.059 A 
ATOM     98  C   UNL A   1      46.717  22.687  35.154  1.00  0.00     0.059 A 
ATOM     99  F   UNL A   1      47.335  24.637  34.089  1.00  0.00    -0.206 F 
ATOM    100  C   UNL A   1      45.825  21.643  35.332  1.00  0.00     0.060 A 
BRANCH 100 101
ATOM    101  S   UNL A   1      46.277  20.253  36.385  1.00  0.00     0.124 S 
ATOM    102  O   UNL A   1      45.467  19.165  35.843  1.00  0.00    -0.237 OA
ATOM    103  O   UNL A   1      47.712  20.159  36.135  1.00  0.00    -0.237 OA
ATOM    104  O   UNL A   1      45.898  20.702  37.721  1.00  0.00    -0.744 OA
ENDBRANCH 100 101
ENDBRANCH  68  93
ENDBRANCH  42  43
ENDBRANCH  34  37
ENDBRANCH  32  33
ENDBRANCH  31  32
ENDBRANCH   1  31
TORSDOF 19
ENDMDL
MODEL 3
REMARK VINA RESULT:     -13.8      4.897     11.509
REMARK SMILES Cc1cccc(-c2cc(C[C@]3(C(=O)NCCCCNC(=O)c4ccc(-c5c6nc(c(-c7c(F)cc(S(=O)(=O)[O-])cc7F)c7ccc([nH]7)c(-c7c(F)cc(S(=O)(=O)[O-])cc7F)c7nc(c(-c8c(F)cc(S(=O)(=O)[O-])cc8F)c8ccc5[nH]8)C=C7)C=C6)cc4)CCCN(C(=O)C(C)C)C3)on2)c1
REMARK SMILES IDX 16 1 15 2 14 3 12 4 13 5 11 7 88 8 97 9 89 10 91 11 90 12
REMARK SMILES IDX 10 13 9 14 7 15 8 16 99 17 98 18 6 19 1 20 2 21 3 22 100 23
REMARK SMILES IDX 4 24 5 25 92 26 93 27 94 28 95 29 96 30 17 31 18 32 19 33
REMARK SMILES IDX 20 34 21 36 22 37 23 38 87 39 24 40 86 41 25 42 26 43 27 44
REMARK SMILES IDX 80 45 28 46 85 47 79 48 81 49 29 50 84 51 78 52 77 53 30 55
REMARK SMILES IDX 64 56 43 57 63 58 44 59 47 60 62 61 82 62 45 63 46 64 61 66
REMARK SMILES IDX 83 67 48 68 31 69 32 70 41 71 33 72 34 73 40 74 42 75 35 76
REMARK SMILES IDX 36 77 37 78 38 79 39 80 65 81 66 82 75 83 67 84 68 85 74 86
REMARK SMILES IDX 76 87 69 88 70 89 71 90 72 91 73 92 49 93 50 94 59 95 51 96
REMARK SMILES IDX 52 97 58 98 60 99 53 100 54 101 55 102 56 103 57 104
REMARK H PARENT 14 6 19 35 81 54 47 65
REMARK Flexibility Score: inf
ROOT
ATOM      1  C   UNL A   1      35.877  22.577  26.011  1.00  0.00     0.023 C 
ENDROOT
BRANCH   1   2
ATOM      2  C   UNL A   1      34.422  22.705  25.530  1.00  0.00     0.116 C 
BRANCH   2   3
ATOM      3  N   UNL A   1      34.250  22.739  24.080  1.00  0.00    -0.356 N 
ATOM      4  C   UNL A   1      33.722  23.654  23.214  1.00  0.00     0.228 C 
ATOM      5  O   UNL A   1      33.832  23.373  22.015  1.00  0.00    -0.274 OA
ATOM      6  H   UNL A   1      34.585  21.930  23.631  1.00  0.00     0.163 HD
BRANCH   4   7
ATOM      7  C   UNL A   1      33.001  24.960  23.664  1.00  0.00     0.074 C 
ATOM      8  C   UNL A   1      32.055  24.594  24.844  1.00  0.00     0.021 C 
ATOM      9  C   UNL A   1      34.085  26.025  23.977  1.00  0.00     0.136 C 
ATOM     10  C   UNL A   1      31.910  25.632  25.954  1.00  0.00     0.023 C 
ATOM     11  N   UNL A   1      33.668  26.985  25.005  1.00  0.00    -0.341 N 
ATOM     12  C   UNL A   1      33.206  26.369  26.233  1.00  0.00     0.119 C 
BRANCH   7  13
ATOM     13  C   UNL A   1      32.148  25.442  22.432  1.00  0.00     0.097 C 
BRANCH  13  14
ATOM     14  C   UNL A   1      31.182  26.559  22.658  1.00  0.00     0.138 A 
ATOM     15  C   UNL A   1      29.919  28.378  22.787  1.00  0.00     0.114 A 
ATOM     16  C   UNL A   1      31.150  27.884  22.288  1.00  0.00     0.077 A 
ATOM     17  N   UNL A   1      29.231  27.396  23.391  1.00  0.00    -0.080 NA
ATOM     18  O   UNL A   1      30.015  26.259  23.291  1.00  0.00    -0.361 OA
BRANCH  15  19
ATOM     19  C   UNL A   1      29.418  29.746  22.730  1.00  0.00     0.004 A 
ATOM     20  C   UNL A   1      27.902  32.212  20.245  1.00  0.00     0.044 C 
ATOM     21  C   UNL A   1      28.463  31.619  21.502  1.00  0.00    -0.050 A 
ATOM     22  C   UNL A   1      28.541  32.412  22.655  1.00  0.00     0.003 A 
ATOM     23  C   UNL A   1      28.915  30.288  21.542  1.00  0.00     0.014 A 
ATOM     24  C   UNL A   1      29.034  31.878  23.839  1.00  0.00     0.001 A 
ATOM     25  C   UNL A   1      29.455  30.550  23.874  1.00  0.00     0.010 A 
ENDBRANCH  15  19
ENDBRANCH  13  14
ENDBRANCH   7  13
BRANCH  11  26
ATOM     26  C   UNL A   1      33.716  28.340  24.733  1.00  0.00     0.225 C 
ATOM     27  O   UNL A   1      34.107  28.753  23.633  1.00  0.00    -0.275 OA
BRANCH  26  28
ATOM     28  C   UNL A   1      33.314  29.385  25.783  1.00  0.00     0.072 C 
ATOM     29  C   UNL A   1      31.868  29.348  26.272  1.00  0.00     0.018 C 
ATOM     30  C   UNL A   1      34.314  29.446  26.929  1.00  0.00     0.018 C 
ENDBRANCH  26  28
ENDBRANCH  11  26
ENDBRANCH   4   7
ENDBRANCH   2   3
ENDBRANCH   1   2
BRANCH   1  31
ATOM     31  C   UNL A   1      36.818  23.714  25.616  1.00  0.00     0.023 C 
BRANCH  31  32
ATOM     32  C   UNL A   1      38.286  23.417  25.848  1.00  0.00     0.116 C 
BRANCH  32  33
ATOM     33  N   UNL A   1      38.710  23.348  27.241  1.00  0.00    -0.352 N 
ATOM     34  C   UNL A   1      39.828  24.083  27.606  1.00  0.00     0.251 C 
ATOM     35  H   UNL A   1      38.222  22.801  27.899  1.00  0.00     0.163 HD
ATOM     36  O   UNL A   1      40.984  23.674  27.580  1.00  0.00    -0.269 OA
BRANCH  34  37
ATOM     37  C   UNL A   1      39.553  25.534  27.667  1.00  0.00     0.039 A 
ATOM     38  C   UNL A   1      40.129  26.432  26.765  1.00  0.00     0.014 A 
ATOM     39  C   UNL A   1      38.985  25.965  28.868  1.00  0.00     0.014 A 
ATOM     40  C   UNL A   1      40.274  27.763  27.145  1.00  0.00     0.010 A 
ATOM     41  C   UNL A   1      39.234  27.245  29.285  1.00  0.00     0.010 A 
ATOM     42  C   UNL A   1      39.912  28.132  28.438  1.00  0.00    -0.014 A 
BRANCH  42  43
ATOM     43  C   UNL A   1      40.191  29.416  29.059  1.00  0.00     0.031 A 
ATOM     44  C   UNL A   1      39.148  30.457  29.024  1.00  0.00     0.074 A 
ATOM     45  C   UNL A   1      41.239  29.483  29.905  1.00  0.00     0.049 A 
ATOM     46  N   UNL A   1      39.279  31.645  29.494  1.00  0.00    -0.248 NA
ATOM     47  C   UNL A   1      37.834  30.209  28.440  1.00  0.00     0.031 C 
ATOM     48  C   UNL A   1      41.478  30.441  30.978  1.00  0.00     0.029 A 
ATOM     49  N   UNL A   1      42.442  28.774  29.802  1.00  0.00    -0.354 N 
ATOM     50  C   UNL A   1      38.024  32.213  29.549  1.00  0.00     0.074 A 
ATOM     51  C   UNL A   1      37.169  31.297  28.833  1.00  0.00     0.031 C 
ATOM     52  C   UNL A   1      42.797  30.477  31.233  1.00  0.00     0.029 A 
ATOM     53  C   UNL A   1      43.448  29.682  30.205  1.00  0.00     0.049 A 
ATOM     54  H   UNL A   1      42.562  27.842  29.511  1.00  0.00     0.167 HD
ATOM     55  C   UNL A   1      37.847  33.333  30.310  1.00  0.00     0.037 A 
ATOM     56  C   UNL A   1      44.292  30.188  29.250  1.00  0.00     0.037 A 
ATOM     57  C   UNL A   1      39.140  33.840  30.782  1.00  0.00     0.049 A 
ATOM     58  C   UNL A   1      44.108  31.677  28.982  1.00  0.00     0.074 A 
ATOM     59  C   UNL A   1      39.862  33.758  31.962  1.00  0.00     0.029 A 
ATOM     60  N   UNL A   1      40.044  34.267  29.826  1.00  0.00    -0.354 N 
ATOM     61  N   UNL A   1      43.221  32.438  29.568  1.00  0.00    -0.248 NA
ATOM     62  C   UNL A   1      44.888  32.414  27.988  1.00  0.00     0.031 C 
ATOM     63  C   UNL A   1      41.229  34.072  31.671  1.00  0.00     0.029 A 
ATOM     64  C   UNL A   1      41.329  34.368  30.323  1.00  0.00     0.049 A 
ATOM     65  H   UNL A   1      39.800  34.476  28.896  1.00  0.00     0.167 HD
ATOM     66  C   UNL A   1      43.259  33.699  29.032  1.00  0.00     0.074 A 
ATOM     67  C   UNL A   1      44.331  33.636  28.054  1.00  0.00     0.031 C 
ATOM     68  C   UNL A   1      42.397  34.699  29.390  1.00  0.00     0.037 A 
BRANCH  55  69
ATOM     69  C   UNL A   1      36.496  33.818  30.797  1.00  0.00     0.058 A 
ATOM     70  C   UNL A   1      35.553  34.342  29.887  1.00  0.00     0.135 A 
ATOM     71  C   UNL A   1      36.086  33.856  32.147  1.00  0.00     0.135 A 
ATOM     72  F   UNL A   1      35.760  34.294  28.564  1.00  0.00    -0.206 F 
ATOM     73  C   UNL A   1      34.361  34.949  30.289  1.00  0.00     0.059 A 
ATOM     74  C   UNL A   1      34.930  34.515  32.581  1.00  0.00     0.059 A 
ATOM     75  F   UNL A   1      36.755  33.198  33.101  1.00  0.00    -0.206 F 
ATOM     76  C   UNL A   1      34.073  35.065  31.642  1.00  0.00     0.060 A 
BRANCH  76  77
ATOM     77  S   UNL A   1      32.566  35.916  32.149  1.00  0.00     0.124 S 
ATOM     78  O   UNL A   1      32.092  36.481  30.889  1.00  0.00    -0.237 OA
ATOM     79  O   UNL A   1      31.771  34.821  32.694  1.00  0.00    -0.237 OA
ATOM     80  O   UNL A   1      33.038  36.893  33.126  1.00  0.00    -0.744 OA
ENDBRANCH  76  77
ENDBRANCH  55  69
BRANCH  56  81
ATOM     81  C   UNL A   1      44.680  29.138  28.253  1.00  0.00     0.058 A 
ATOM     82  C   UNL A   1      45.641  28.185  28.660  1.00  0.00     0.135 A 
ATOM     83  C   UNL A   1      43.841  28.783  27.188  1.00  0.00     0.135 A 
ATOM     84  F   UNL A   1      46.486  28.471  29.665  1.00  0.00    -0.206 F 
ATOM     85  C   UNL A   1      45.633  26.881  28.177  1.00  0.00     0.059 A 
ATOM     86  C   UNL A   1      43.835  27.483  26.669  1.00  0.00     0.059 A 
ATOM     87  F   UNL A   1      42.912  29.642  26.743  1.00  0.00    -0.206 F 
ATOM     88  C   UNL A   1      44.672  26.521  27.238  1.00  0.00     0.060 A 
BRANCH  88  89
ATOM     89  S   UNL A   1      44.398  24.754  26.955  1.00  0.00     0.124 S 
ATOM     90  O   UNL A   1      43.285  24.764  26.013  1.00  0.00    -0.237 OA
ATOM     91  O   UNL A   1      45.693  24.336  26.412  1.00  0.00    -0.237 OA
ATOM     92  O   UNL A   1      44.093  24.241  28.286  1.00  0.00    -0.744 OA
ENDBRANCH  88  89
ENDBRANCH  56  81
BRANCH  68  93
ATOM     93  C   UNL A   1      42.484  36.096  28.828  1.00  0.00     0.058 A 
ATOM     94  C   UNL A   1      41.835  36.464  27.638  1.00  0.00     0.135 A 
ATOM     95  C   UNL A   1      43.318  37.079  29.405  1.00  0.00     0.135 A 
ATOM     96  F   UNL A   1      41.074  35.583  26.970  1.00  0.00    -0.206 F 
ATOM     97  C   UNL A   1      41.956  37.743  27.091  1.00  0.00     0.059 A 
ATOM     98  C   UNL A   1      43.500  38.340  28.846  1.00  0.00     0.059 A 
ATOM     99  F   UNL A   1      43.963  36.868  30.561  1.00  0.00    -0.206 F 
ATOM    100  C   UNL A   1      42.787  38.676  27.707  1.00  0.00     0.060 A 
BRANCH 100 101
ATOM    101  S   UNL A   1      42.940  40.331  27.015  1.00  0.00     0.124 S 
ATOM    102  O   UNL A   1      43.903  40.138  25.935  1.00  0.00    -0.237 OA
ATOM    103  O   UNL A   1      41.567  40.596  26.599  1.00  0.00    -0.237 OA
ATOM    104  O   UNL A   1      43.422  41.126  28.141  1.00  0.00    -0.744 OA
ENDBRANCH 100 101
ENDBRANCH  68  93
ENDBRANCH  42  43
ENDBRANCH  34  37
ENDBRANCH  32  33
ENDBRANCH  31  32
ENDBRANCH   1  31
TORSDOF 19
ENDMDL
