MODEL 1
REMARK VINA RESULT:     -12.3      0.000      0.000
REMARK SMILES Cc1cccc(NC(=O)[C@H]2C[C@H]2C(=O)NCCCCNC(=O)c2ccc(-c3c4nc(c(-c5c(F)cc(S(=O)(=O)[O-])cc5F)c5ccc([nH]5)c(-c5c(F)cc(S(=O)(=O)[O-])cc5F)c5nc(c(-c6c(F)cc(S(=O)(=O)[O-])cc6F)c6ccc3[nH]6)C=C5)C=C4)cc2)c1
REMARK SMILES IDX 18 1 17 2 16 3 15 4 13 5 14 6 12 8 10 9 11 10 8 11 7 12 9 14
REMARK SMILES IDX 6 15 1 16 2 17 3 18 89 19 4 20 5 21 19 22 20 23 21 24 22 26
REMARK SMILES IDX 23 27 24 28 88 29 25 30 87 31 26 32 27 33 28 34 81 35 29 36
REMARK SMILES IDX 86 37 80 38 82 39 30 40 85 41 79 42 78 43 31 45 65 46 44 47
REMARK SMILES IDX 64 48 45 49 48 50 63 51 83 52 46 53 47 54 62 56 84 57 49 58
REMARK SMILES IDX 32 59 33 60 42 61 34 62 35 63 41 64 43 65 36 66 37 67 38 68
REMARK SMILES IDX 39 69 40 70 66 71 67 72 76 73 68 74 69 75 75 76 77 77 70 78
REMARK SMILES IDX 71 79 72 80 73 81 74 82 50 83 51 84 60 85 52 86 53 87 59 88
REMARK SMILES IDX 61 89 54 90 55 91 56 92 57 93 58 94
REMARK H PARENT 15 7 7 13 20 25 82 44 48 55
REMARK Flexibility Score: inf
ROOT
ATOM      1  C   UNL A   1      40.791  20.533  26.455  1.00  0.00     0.023 C 
ENDROOT
BRANCH   1   2
ATOM      2  C   UNL A   1      41.787  19.250  26.579  1.00  0.00     0.023 C 
BRANCH   2   3
ATOM      3  C   UNL A   1      43.237  19.083  26.016  1.00  0.00     0.116 C 
BRANCH   3   4
ATOM      4  N   UNL A   1      43.440  19.198  24.575  1.00  0.00    -0.356 N 
ATOM      5  C   UNL A   1      44.523  19.544  23.808  1.00  0.00     0.223 C 
ATOM      6  O   UNL A   1      44.487  19.299  22.600  1.00  0.00    -0.275 OA
ATOM      7  H   UNL A   1      42.637  18.982  24.047  1.00  0.00     0.163 HD
BRANCH   5   8
ATOM      8  C   UNL A   1      45.732  20.287  24.267  1.00  0.00     0.091 C 
ATOM      9  C   UNL A   1      45.841  21.772  24.508  1.00  0.00     0.092 C 
ATOM     10  C   UNL A   1      46.051  20.769  25.642  1.00  0.00     0.028 C 
BRANCH   9  11
ATOM     11  C   UNL A   1      44.742  22.754  24.625  1.00  0.00     0.228 C 
ATOM     12  N   UNL A   1      44.907  23.965  25.242  1.00  0.00    -0.326 N 
ATOM     13  H   UNL A   1      44.080  24.497  25.282  1.00  0.00     0.169 HD
ATOM     14  O   UNL A   1      43.603  22.429  24.287  1.00  0.00    -0.274 OA
BRANCH  12  15
ATOM     15  C   UNL A   1      46.007  24.604  25.831  1.00  0.00     0.041 A 
ATOM     16  C   UNL A   1      48.797  26.879  24.556  1.00  0.00     0.044 C 
ATOM     17  C   UNL A   1      47.937  26.056  25.465  1.00  0.00    -0.049 A 
ATOM     18  C   UNL A   1      48.234  25.998  26.828  1.00  0.00     0.003 A 
ATOM     19  C   UNL A   1      46.836  25.339  24.972  1.00  0.00     0.029 A 
ATOM     20  C   UNL A   1      47.442  25.239  27.680  1.00  0.00     0.002 A 
ATOM     21  C   UNL A   1      46.332  24.558  27.180  1.00  0.00     0.026 A 
ENDBRANCH  12  15
ENDBRANCH   9  11
ENDBRANCH   5   8
ENDBRANCH   3   4
ENDBRANCH   2   3
ENDBRANCH   1   2
BRANCH   1  22
ATOM     22  C   UNL A   1      41.060  21.863  27.306  1.00  0.00     0.116 C 
BRANCH  22  23
ATOM     23  N   UNL A   1      41.747  23.187  26.761  1.00  0.00    -0.352 N 
ATOM     24  C   UNL A   1      41.787  24.620  27.012  1.00  0.00     0.251 C 
ATOM     25  H   UNL A   1      42.340  22.965  26.008  1.00  0.00     0.163 HD
ATOM     26  O   UNL A   1      42.941  25.039  27.224  1.00  0.00    -0.269 OA
BRANCH  24  27
ATOM     27  C   UNL A   1      40.711  25.772  27.043  1.00  0.00     0.039 A 
ATOM     28  C   UNL A   1      40.902  26.975  26.299  1.00  0.00     0.014 A 
ATOM     29  C   UNL A   1      39.576  25.811  27.837  1.00  0.00     0.014 A 
ATOM     30  C   UNL A   1      40.428  28.240  26.811  1.00  0.00     0.010 A 
ATOM     31  C   UNL A   1      39.113  27.057  28.357  1.00  0.00     0.010 A 
ATOM     32  C   UNL A   1      39.705  28.280  28.011  1.00  0.00    -0.014 A 
BRANCH  32  33
ATOM     33  C   UNL A   1      39.679  29.450  28.978  1.00  0.00     0.031 A 
ATOM     34  C   UNL A   1      38.606  30.436  28.924  1.00  0.00     0.074 A 
ATOM     35  C   UNL A   1      40.481  29.675  30.063  1.00  0.00     0.049 A 
ATOM     36  N   UNL A   1      38.778  31.715  28.846  1.00  0.00    -0.248 NA
ATOM     37  C   UNL A   1      37.224  30.014  29.069  1.00  0.00     0.031 C 
ATOM     38  C   UNL A   1      40.479  30.678  31.145  1.00  0.00     0.029 A 
ATOM     39  N   UNL A   1      41.547  28.918  30.487  1.00  0.00    -0.354 N 
ATOM     40  C   UNL A   1      37.582  32.268  29.251  1.00  0.00     0.074 A 
ATOM     41  C   UNL A   1      36.612  31.195  29.170  1.00  0.00     0.031 C 
ATOM     42  C   UNL A   1      41.678  30.675  31.778  1.00  0.00     0.029 A 
ATOM     43  C   UNL A   1      42.512  29.688  31.130  1.00  0.00     0.049 A 
ATOM     44  H   UNL A   1      41.618  27.946  30.351  1.00  0.00     0.167 HD
ATOM     45  C   UNL A   1      37.535  33.461  29.918  1.00  0.00     0.037 A 
ATOM     46  C   UNL A   1      43.746  29.812  30.545  1.00  0.00     0.037 A 
ATOM     47  C   UNL A   1      38.872  33.865  30.376  1.00  0.00     0.049 A 
ATOM     48  C   UNL A   1      43.895  31.201  29.982  1.00  0.00     0.074 A 
ATOM     49  C   UNL A   1      39.453  33.875  31.638  1.00  0.00     0.029 A 
ATOM     50  N   UNL A   1      39.920  34.029  29.475  1.00  0.00    -0.354 N 
ATOM     51  N   UNL A   1      42.891  32.026  29.932  1.00  0.00    -0.248 NA
ATOM     52  C   UNL A   1      45.119  31.809  29.474  1.00  0.00     0.031 C 
ATOM     53  C   UNL A   1      40.858  33.986  31.486  1.00  0.00     0.029 A 
ATOM     54  C   UNL A   1      41.137  34.065  30.133  1.00  0.00     0.049 A 
ATOM     55  H   UNL A   1      39.810  34.108  28.501  1.00  0.00     0.167 HD
ATOM     56  C   UNL A   1      43.280  33.241  29.468  1.00  0.00     0.074 A 
ATOM     57  C   UNL A   1      44.693  33.057  29.186  1.00  0.00     0.031 C 
ATOM     58  C   UNL A   1      42.382  34.268  29.396  1.00  0.00     0.037 A 
BRANCH  45  59
ATOM     59  C   UNL A   1      36.244  34.062  30.460  1.00  0.00     0.058 A 
ATOM     60  C   UNL A   1      35.235  34.564  29.611  1.00  0.00     0.135 A 
ATOM     61  C   UNL A   1      35.921  34.111  31.835  1.00  0.00     0.135 A 
ATOM     62  F   UNL A   1      35.323  34.468  28.278  1.00  0.00    -0.206 F 
ATOM     63  C   UNL A   1      34.060  35.156  30.086  1.00  0.00     0.059 A 
ATOM     64  C   UNL A   1      34.786  34.756  32.338  1.00  0.00     0.059 A 
ATOM     65  F   UNL A   1      36.663  33.469  32.751  1.00  0.00    -0.206 F 
ATOM     66  C   UNL A   1      33.852  35.269  31.452  1.00  0.00     0.060 A 
BRANCH  66  67
ATOM     67  S   UNL A   1      32.314  35.997  32.045  1.00  0.00     0.124 S 
ATOM     68  O   UNL A   1      32.790  37.070  32.913  1.00  0.00    -0.237 OA
ATOM     69  O   UNL A   1      31.681  36.421  30.801  1.00  0.00    -0.237 OA
ATOM     70  O   UNL A   1      31.655  34.890  32.733  1.00  0.00    -0.744 OA
ENDBRANCH  66  67
ENDBRANCH  45  59
BRANCH  46  71
ATOM     71  C   UNL A   1      44.314  28.505  29.961  1.00  0.00     0.058 A 
ATOM     72  C   UNL A   1      43.719  28.179  28.731  1.00  0.00     0.135 A 
ATOM     73  C   UNL A   1      45.695  28.457  29.895  1.00  0.00     0.135 A 
ATOM     74  F   UNL A   1      42.468  27.702  28.701  1.00  0.00    -0.206 F 
ATOM     75  C   UNL A   1      44.307  28.549  27.510  1.00  0.00     0.059 A 
ATOM     76  C   UNL A   1      46.301  28.799  28.671  1.00  0.00     0.059 A 
ATOM     77  F   UNL A   1      46.426  28.490  31.022  1.00  0.00    -0.206 F 
ATOM     78  C   UNL A   1      45.571  29.094  27.523  1.00  0.00     0.060 A 
BRANCH  78  79
ATOM     79  S   UNL A   1      46.246  30.424  26.206  1.00  0.00     0.124 S 
ATOM     80  O   UNL A   1      47.468  30.975  26.743  1.00  0.00    -0.237 OA
ATOM     81  O   UNL A   1      46.530  29.622  25.021  1.00  0.00    -0.237 OA
ATOM     82  O   UNL A   1      45.216  31.415  26.077  1.00  0.00    -0.744 OA
ENDBRANCH  78  79
ENDBRANCH  46  71
BRANCH  58  83
ATOM     83  C   UNL A   1      42.594  35.605  28.740  1.00  0.00     0.058 A 
ATOM     84  C   UNL A   1      42.186  35.920  27.438  1.00  0.00     0.135 A 
ATOM     85  C   UNL A   1      43.110  36.688  29.500  1.00  0.00     0.135 A 
ATOM     86  F   UNL A   1      41.584  35.018  26.652  1.00  0.00    -0.206 F 
ATOM     87  C   UNL A   1      42.341  37.198  26.902  1.00  0.00     0.059 A 
ATOM     88  C   UNL A   1      43.204  37.983  29.011  1.00  0.00     0.059 A 
ATOM     89  F   UNL A   1      43.539  36.533  30.762  1.00  0.00    -0.206 F 
ATOM     90  C   UNL A   1      42.847  38.222  27.697  1.00  0.00     0.060 A 
BRANCH  90  91
ATOM     91  S   UNL A   1      43.007  39.878  27.016  1.00  0.00     0.124 S 
ATOM     92  O   UNL A   1      41.869  39.924  26.103  1.00  0.00    -0.237 OA
ATOM     93  O   UNL A   1      42.898  40.720  28.204  1.00  0.00    -0.237 OA
ATOM     94  O   UNL A   1      44.323  39.862  26.387  1.00  0.00    -0.744 OA
ENDBRANCH  90  91
ENDBRANCH  58  83
ENDBRANCH  32  33
ENDBRANCH  24  27
ENDBRANCH  22  23
ENDBRANCH   1  22
TORSDOF 16
ENDMDL
MODEL 2
REMARK VINA RESULT:     -12.0      3.480      5.963
REMARK SMILES Cc1cccc(NC(=O)[C@H]2C[C@H]2C(=O)NCCCCNC(=O)c2ccc(-c3c4nc(c(-c5c(F)cc(S(=O)(=O)[O-])cc5F)c5ccc([nH]5)c(-c5c(F)cc(S(=O)(=O)[O-])cc5F)c5nc(c(-c6c(F)cc(S(=O)(=O)[O-])cc6F)c6ccc3[nH]6)C=C5)C=C4)cc2)c1
REMARK SMILES IDX 18 1 17 2 16 3 15 4 13 5 14 6 12 8 10 9 11 10 8 11 7 12 9 14
REMARK SMILES IDX 6 15 1 16 2 17 3 18 89 19 4 20 5 21 19 22 20 23 21 24 22 26
REMARK SMILES IDX 23 27 24 28 88 29 25 30 87 31 26 32 27 33 28 34 81 35 29 36
REMARK SMILES IDX 86 37 80 38 82 39 30 40 85 41 79 42 78 43 31 45 65 46 44 47
REMARK SMILES IDX 64 48 45 49 48 50 63 51 83 52 46 53 47 54 62 56 84 57 49 58
REMARK SMILES IDX 32 59 33 60 42 61 34 62 35 63 41 64 43 65 36 66 37 67 38 68
REMARK SMILES IDX 39 69 40 70 66 71 67 72 76 73 68 74 69 75 75 76 77 77 70 78
REMARK SMILES IDX 71 79 72 80 73 81 74 82 50 83 51 84 60 85 52 86 53 87 59 88
REMARK SMILES IDX 61 89 54 90 55 91 56 92 57 93 58 94
REMARK H PARENT 15 7 7 13 20 25 82 44 48 55
REMARK Flexibility Score: inf
ROOT
ATOM      1  C   UNL A   1      39.676  21.820  26.491  1.00  0.00     0.023 C 
ENDROOT
BRANCH   1   2
ATOM      2  C   UNL A   1      38.564  22.896  25.983  1.00  0.00     0.023 C 
BRANCH   2   3
ATOM      3  C   UNL A   1      37.353  22.666  25.020  1.00  0.00     0.116 C 
BRANCH   3   4
ATOM      4  N   UNL A   1      36.190  21.944  25.527  1.00  0.00    -0.356 N 
ATOM      5  C   UNL A   1      34.914  22.331  25.843  1.00  0.00     0.223 C 
ATOM      6  O   UNL A   1      34.058  21.458  26.000  1.00  0.00    -0.275 OA
ATOM      7  H   UNL A   1      36.356  20.984  25.670  1.00  0.00     0.163 HD
BRANCH   5   8
ATOM      8  C   UNL A   1      34.454  23.724  26.119  1.00  0.00     0.091 C 
ATOM      9  C   UNL A   1      34.278  24.832  25.110  1.00  0.00     0.092 C 
ATOM     10  C   UNL A   1      33.095  24.302  25.920  1.00  0.00     0.028 C 
BRANCH   9  11
ATOM     11  C   UNL A   1      34.235  24.718  23.637  1.00  0.00     0.228 C 
ATOM     12  N   UNL A   1      33.405  25.488  22.868  1.00  0.00    -0.326 N 
ATOM     13  H   UNL A   1      33.455  25.275  21.909  1.00  0.00     0.169 HD
ATOM     14  O   UNL A   1      34.857  23.810  23.083  1.00  0.00    -0.274 OA
BRANCH  12  15
ATOM     15  C   UNL A   1      32.499  26.517  23.163  1.00  0.00     0.041 A 
ATOM     16  C   UNL A   1      28.745  26.685  23.840  1.00  0.00     0.044 C 
ATOM     17  C   UNL A   1      30.174  27.088  23.644  1.00  0.00    -0.049 A 
ATOM     18  C   UNL A   1      30.539  28.427  23.802  1.00  0.00     0.003 A 
ATOM     19  C   UNL A   1      31.155  26.145  23.303  1.00  0.00     0.029 A 
ATOM     20  C   UNL A   1      31.861  28.811  23.623  1.00  0.00     0.002 A 
ATOM     21  C   UNL A   1      32.831  27.857  23.317  1.00  0.00     0.026 A 
ENDBRANCH  12  15
ENDBRANCH   9  11
ENDBRANCH   5   8
ENDBRANCH   3   4
ENDBRANCH   2   3
ENDBRANCH   1   2
BRANCH   1  22
ATOM     22  C   UNL A   1      41.240  22.099  26.285  1.00  0.00     0.116 C 
BRANCH  22  23
ATOM     23  N   UNL A   1      41.945  23.519  26.368  1.00  0.00    -0.352 N 
ATOM     24  C   UNL A   1      41.819  24.801  27.046  1.00  0.00     0.251 C 
ATOM     25  H   UNL A   1      42.720  23.539  25.762  1.00  0.00     0.163 HD
ATOM     26  O   UNL A   1      42.851  25.120  27.666  1.00  0.00    -0.269 OA
BRANCH  24  27
ATOM     27  C   UNL A   1      40.689  25.896  27.148  1.00  0.00     0.039 A 
ATOM     28  C   UNL A   1      40.769  27.105  26.394  1.00  0.00     0.014 A 
ATOM     29  C   UNL A   1      39.610  25.880  28.017  1.00  0.00     0.014 A 
ATOM     30  C   UNL A   1      40.266  28.345  26.937  1.00  0.00     0.010 A 
ATOM     31  C   UNL A   1      39.119  27.102  28.567  1.00  0.00     0.010 A 
ATOM     32  C   UNL A   1      39.622  28.352  28.183  1.00  0.00    -0.014 A 
BRANCH  32  33
ATOM     33  C   UNL A   1      39.601  29.523  29.149  1.00  0.00     0.031 A 
ATOM     34  C   UNL A   1      38.524  30.505  29.105  1.00  0.00     0.074 A 
ATOM     35  C   UNL A   1      40.411  29.751  30.228  1.00  0.00     0.049 A 
ATOM     36  N   UNL A   1      38.691  31.784  29.025  1.00  0.00    -0.248 NA
ATOM     37  C   UNL A   1      37.145  30.078  29.261  1.00  0.00     0.031 C 
ATOM     38  C   UNL A   1      40.415  30.754  31.309  1.00  0.00     0.029 A 
ATOM     39  N   UNL A   1      41.483  28.997  30.642  1.00  0.00    -0.354 N 
ATOM     40  C   UNL A   1      37.497  32.334  29.439  1.00  0.00     0.074 A 
ATOM     41  C   UNL A   1      36.529  31.257  29.367  1.00  0.00     0.031 C 
ATOM     42  C   UNL A   1      41.619  30.755  31.932  1.00  0.00     0.029 A 
ATOM     43  C   UNL A   1      42.451  29.770  31.277  1.00  0.00     0.049 A 
ATOM     44  H   UNL A   1      41.557  28.025  30.506  1.00  0.00     0.167 HD
ATOM     45  C   UNL A   1      37.451  33.526  30.107  1.00  0.00     0.037 A 
ATOM     46  C   UNL A   1      43.680  29.899  30.682  1.00  0.00     0.037 A 
ATOM     47  C   UNL A   1      38.790  33.935  30.553  1.00  0.00     0.049 A 
ATOM     48  C   UNL A   1      43.819  31.288  30.118  1.00  0.00     0.074 A 
ATOM     49  C   UNL A   1      39.382  33.947  31.811  1.00  0.00     0.029 A 
ATOM     50  N   UNL A   1      39.830  34.102  29.644  1.00  0.00    -0.354 N 
ATOM     51  N   UNL A   1      42.811  32.110  30.075  1.00  0.00    -0.248 NA
ATOM     52  C   UNL A   1      45.037  31.900  29.599  1.00  0.00     0.031 C 
ATOM     53  C   UNL A   1      40.785  34.063  31.646  1.00  0.00     0.029 A 
ATOM     54  C   UNL A   1      41.053  34.143  30.291  1.00  0.00     0.049 A 
ATOM     55  H   UNL A   1      39.711  34.181  28.670  1.00  0.00     0.167 HD
ATOM     56  C   UNL A   1      43.193  33.326  29.608  1.00  0.00     0.074 A 
ATOM     57  C   UNL A   1      44.604  33.147  29.314  1.00  0.00     0.031 C 
ATOM     58  C   UNL A   1      42.291  34.350  29.543  1.00  0.00     0.037 A 
BRANCH  45  59
ATOM     59  C   UNL A   1      36.162  34.123  30.660  1.00  0.00     0.058 A 
ATOM     60  C   UNL A   1      35.149  34.630  29.819  1.00  0.00     0.135 A 
ATOM     61  C   UNL A   1      35.846  34.163  32.037  1.00  0.00     0.135 A 
ATOM     62  F   UNL A   1      35.230  34.543  28.485  1.00  0.00    -0.206 F 
ATOM     63  C   UNL A   1      33.976  35.218  30.304  1.00  0.00     0.059 A 
ATOM     64  C   UNL A   1      34.714  34.804  32.549  1.00  0.00     0.059 A 
ATOM     65  F   UNL A   1      36.594  33.515  32.944  1.00  0.00    -0.206 F 
ATOM     66  C   UNL A   1      33.776  35.322  31.672  1.00  0.00     0.060 A 
BRANCH  66  67
ATOM     67  S   UNL A   1      32.240  36.045  32.278  1.00  0.00     0.124 S 
ATOM     68  O   UNL A   1      32.717  37.022  33.253  1.00  0.00    -0.237 OA
ATOM     69  O   UNL A   1      31.663  36.597  31.057  1.00  0.00    -0.237 OA
ATOM     70  O   UNL A   1      31.525  34.904  32.844  1.00  0.00    -0.744 OA
ENDBRANCH  66  67
ENDBRANCH  45  59
BRANCH  46  71
ATOM     71  C   UNL A   1      44.247  28.593  30.093  1.00  0.00     0.058 A 
ATOM     72  C   UNL A   1      43.645  28.268  28.866  1.00  0.00     0.135 A 
ATOM     73  C   UNL A   1      45.628  28.549  30.018  1.00  0.00     0.135 A 
ATOM     74  F   UNL A   1      42.395  27.787  28.845  1.00  0.00    -0.206 F 
ATOM     75  C   UNL A   1      44.224  28.640  27.643  1.00  0.00     0.059 A 
ATOM     76  C   UNL A   1      46.225  28.893  28.791  1.00  0.00     0.059 A 
ATOM     77  F   UNL A   1      46.366  28.584  31.140  1.00  0.00    -0.206 F 
ATOM     78  C   UNL A   1      45.488  29.188  27.647  1.00  0.00     0.060 A 
BRANCH  78  79
ATOM     79  S   UNL A   1      46.151  30.520  26.328  1.00  0.00     0.124 S 
ATOM     80  O   UNL A   1      45.093  31.482  26.123  1.00  0.00    -0.237 OA
ATOM     81  O   UNL A   1      47.280  31.146  27.007  1.00  0.00    -0.237 OA
ATOM     82  O   UNL A   1      46.452  29.783  25.133  1.00  0.00    -0.744 OA
ENDBRANCH  78  79
ENDBRANCH  46  71
BRANCH  58  83
ATOM     83  C   UNL A   1      42.492  35.688  28.886  1.00  0.00     0.058 A 
ATOM     84  C   UNL A   1      41.915  36.063  27.667  1.00  0.00     0.135 A 
ATOM     85  C   UNL A   1      43.191  36.714  29.576  1.00  0.00     0.135 A 
ATOM     86  F   UNL A   1      41.140  35.225  26.967  1.00  0.00    -0.206 F 
ATOM     87  C   UNL A   1      42.074  37.343  27.135  1.00  0.00     0.059 A 
ATOM     88  C   UNL A   1      43.298  38.012  29.100  1.00  0.00     0.059 A 
ATOM     89  F   UNL A   1      43.795  36.497  30.754  1.00  0.00    -0.206 F 
ATOM     90  C   UNL A   1      42.764  38.310  27.861  1.00  0.00     0.060 A 
BRANCH  90  91
ATOM     91  S   UNL A   1      42.933  39.969  27.191  1.00  0.00     0.124 S 
ATOM     92  O   UNL A   1      41.601  40.192  26.637  1.00  0.00    -0.237 OA
ATOM     93  O   UNL A   1      43.264  40.756  28.376  1.00  0.00    -0.237 OA
ATOM     94  O   UNL A   1      44.009  39.836  26.216  1.00  0.00    -0.744 OA
ENDBRANCH  90  91
ENDBRANCH  58  83
ENDBRANCH  32  33
ENDBRANCH  24  27
ENDBRANCH  22  23
ENDBRANCH   1  22
TORSDOF 16
ENDMDL
MODEL 3
REMARK VINA RESULT:     -11.9      3.549      5.897
REMARK SMILES Cc1cccc(NC(=O)[C@H]2C[C@H]2C(=O)NCCCCNC(=O)c2ccc(-c3c4nc(c(-c5c(F)cc(S(=O)(=O)[O-])cc5F)c5ccc([nH]5)c(-c5c(F)cc(S(=O)(=O)[O-])cc5F)c5nc(c(-c6c(F)cc(S(=O)(=O)[O-])cc6F)c6ccc3[nH]6)C=C5)C=C4)cc2)c1
REMARK SMILES IDX 18 1 17 2 16 3 15 4 13 5 14 6 12 8 10 9 11 10 8 11 7 12 9 14
REMARK SMILES IDX 6 15 1 16 2 17 3 18 89 19 4 20 5 21 19 22 20 23 21 24 22 26
REMARK SMILES IDX 23 27 24 28 88 29 25 30 87 31 26 32 27 33 28 34 81 35 29 36
REMARK SMILES IDX 86 37 80 38 82 39 30 40 85 41 79 42 78 43 31 45 65 46 44 47
REMARK SMILES IDX 64 48 45 49 48 50 63 51 83 52 46 53 47 54 62 56 84 57 49 58
REMARK SMILES IDX 32 59 33 60 42 61 34 62 35 63 41 64 43 65 36 66 37 67 38 68
REMARK SMILES IDX 39 69 40 70 66 71 67 72 76 73 68 74 69 75 75 76 77 77 70 78
REMARK SMILES IDX 71 79 72 80 73 81 74 82 50 83 51 84 60 85 52 86 53 87 59 88
REMARK SMILES IDX 61 89 54 90 55 91 56 92 57 93 58 94
REMARK H PARENT 15 7 7 13 20 25 82 44 48 55
REMARK Flexibility Score: inf
ROOT
ATOM      1  C   UNL A   1      39.418  21.739  26.086  1.00  0.00     0.023 C 
ENDROOT
BRANCH   1   2
ATOM      2  C   UNL A   1      38.360  22.976  26.018  1.00  0.00     0.023 C 
BRANCH   2   3
ATOM      3  C   UNL A   1      37.112  23.143  25.089  1.00  0.00     0.116 C 
BRANCH   3   4
ATOM      4  N   UNL A   1      36.065  24.075  25.493  1.00  0.00    -0.356 N 
ATOM      5  C   UNL A   1      34.893  24.477  24.905  1.00  0.00     0.223 C 
ATOM      6  O   UNL A   1      34.068  25.079  25.595  1.00  0.00    -0.275 OA
ATOM      7  H   UNL A   1      36.233  24.501  26.365  1.00  0.00     0.163 HD
BRANCH   5   8
ATOM      8  C   UNL A   1      34.537  24.346  23.462  1.00  0.00     0.091 C 
ATOM      9  C   UNL A   1      33.332  23.641  22.890  1.00  0.00     0.092 C 
ATOM     10  C   UNL A   1      33.546  25.140  22.682  1.00  0.00     0.028 C 
BRANCH   9  11
ATOM     11  C   UNL A   1      32.121  23.191  23.608  1.00  0.00     0.228 C 
ATOM     12  N   UNL A   1      32.036  21.957  24.194  1.00  0.00    -0.326 N 
ATOM     13  H   UNL A   1      31.158  21.778  24.599  1.00  0.00     0.169 HD
ATOM     14  O   UNL A   1      31.102  23.880  23.565  1.00  0.00    -0.274 OA
BRANCH  12  15
ATOM     15  C   UNL A   1      32.939  20.893  24.335  1.00  0.00     0.041 A 
ATOM     16  C   UNL A   1      33.022  17.259  23.166  1.00  0.00     0.044 C 
ATOM     17  C   UNL A   1      33.407  18.554  23.811  1.00  0.00    -0.049 A 
ATOM     18  C   UNL A   1      34.635  18.656  24.469  1.00  0.00     0.003 A 
ATOM     19  C   UNL A   1      32.557  19.669  23.768  1.00  0.00     0.029 A 
ATOM     20  C   UNL A   1      35.003  19.853  25.070  1.00  0.00     0.002 A 
ATOM     21  C   UNL A   1      34.162  20.962  24.991  1.00  0.00     0.026 A 
ENDBRANCH  12  15
ENDBRANCH   9  11
ENDBRANCH   5   8
ENDBRANCH   3   4
ENDBRANCH   2   3
ENDBRANCH   1   2
BRANCH   1  22
ATOM     22  C   UNL A   1      40.916  21.971  26.602  1.00  0.00     0.116 C 
BRANCH  22  23
ATOM     23  N   UNL A   1      41.712  23.344  26.545  1.00  0.00    -0.352 N 
ATOM     24  C   UNL A   1      41.678  24.690  27.098  1.00  0.00     0.251 C 
ATOM     25  H   UNL A   1      42.480  23.255  25.936  1.00  0.00     0.163 HD
ATOM     26  O   UNL A   1      42.735  24.998  27.680  1.00  0.00    -0.269 OA
BRANCH  24  27
ATOM     27  C   UNL A   1      40.622  25.861  27.102  1.00  0.00     0.039 A 
ATOM     28  C   UNL A   1      40.866  27.071  26.385  1.00  0.00     0.014 A 
ATOM     29  C   UNL A   1      39.457  25.911  27.851  1.00  0.00     0.014 A 
ATOM     30  C   UNL A   1      40.394  28.337  26.896  1.00  0.00     0.010 A 
ATOM     31  C   UNL A   1      38.996  27.158  28.370  1.00  0.00     0.010 A 
ATOM     32  C   UNL A   1      39.623  28.374  28.067  1.00  0.00    -0.014 A 
BRANCH  32  33
ATOM     33  C   UNL A   1      39.579  29.531  29.049  1.00  0.00     0.031 A 
ATOM     34  C   UNL A   1      38.500  30.510  28.996  1.00  0.00     0.074 A 
ATOM     35  C   UNL A   1      40.367  29.746  30.146  1.00  0.00     0.049 A 
ATOM     36  N   UNL A   1      38.665  31.791  28.937  1.00  0.00    -0.248 NA
ATOM     37  C   UNL A   1      37.120  30.078  29.120  1.00  0.00     0.031 C 
ATOM     38  C   UNL A   1      40.347  30.734  31.241  1.00  0.00     0.029 A 
ATOM     39  N   UNL A   1      41.433  28.990  30.571  1.00  0.00    -0.354 N 
ATOM     40  C   UNL A   1      37.462  32.331  29.336  1.00  0.00     0.074 A 
ATOM     41  C   UNL A   1      36.499  31.253  29.230  1.00  0.00     0.031 C 
ATOM     42  C   UNL A   1      41.539  30.730  31.888  1.00  0.00     0.029 A 
ATOM     43  C   UNL A   1      42.386  29.757  31.235  1.00  0.00     0.049 A 
ATOM     44  H   UNL A   1      41.513  28.020  30.423  1.00  0.00     0.167 HD
ATOM     45  C   UNL A   1      37.399  33.515  30.019  1.00  0.00     0.037 A 
ATOM     46  C   UNL A   1      43.626  29.897  30.666  1.00  0.00     0.037 A 
ATOM     47  C   UNL A   1      38.728  33.921  30.497  1.00  0.00     0.049 A 
ATOM     48  C   UNL A   1      43.772  31.294  30.124  1.00  0.00     0.074 A 
ATOM     49  C   UNL A   1      39.295  33.917  31.766  1.00  0.00     0.029 A 
ATOM     50  N   UNL A   1      39.785  34.104  29.611  1.00  0.00    -0.354 N 
ATOM     51  N   UNL A   1      42.763  32.113  30.073  1.00  0.00    -0.248 NA
ATOM     52  C   UNL A   1      44.998  31.916  29.637  1.00  0.00     0.031 C 
ATOM     53  C   UNL A   1      40.701  34.039  31.631  1.00  0.00     0.029 A 
ATOM     54  C   UNL A   1      40.995  34.139  30.282  1.00  0.00     0.049 A 
ATOM     55  H   UNL A   1      39.685  34.196  28.636  1.00  0.00     0.167 HD
ATOM     56  C   UNL A   1      43.150  33.337  29.631  1.00  0.00     0.074 A 
ATOM     57  C   UNL A   1      44.567  33.165  29.361  1.00  0.00     0.031 C 
ATOM     58  C   UNL A   1      42.247  34.359  29.562  1.00  0.00     0.037 A 
BRANCH  45  59
ATOM     59  C   UNL A   1      36.098  34.100  30.555  1.00  0.00     0.058 A 
ATOM     60  C   UNL A   1      35.141  34.700  29.709  1.00  0.00     0.135 A 
ATOM     61  C   UNL A   1      35.714  34.039  31.914  1.00  0.00     0.135 A 
ATOM     62  F   UNL A   1      35.287  34.717  28.378  1.00  0.00    -0.206 F 
ATOM     63  C   UNL A   1      33.959  35.279  30.182  1.00  0.00     0.059 A 
ATOM     64  C   UNL A   1      34.572  34.667  32.420  1.00  0.00     0.059 A 
ATOM     65  F   UNL A   1      36.399  33.301  32.801  1.00  0.00    -0.206 F 
ATOM     66  C   UNL A   1      33.691  35.279  31.543  1.00  0.00     0.060 A 
BRANCH  66  67
ATOM     67  S   UNL A   1      32.144  35.993  32.130  1.00  0.00     0.124 S 
ATOM     68  O   UNL A   1      32.606  37.051  33.023  1.00  0.00    -0.237 OA
ATOM     69  O   UNL A   1      31.525  36.438  30.886  1.00  0.00    -0.237 OA
ATOM     70  O   UNL A   1      31.479  34.873  32.790  1.00  0.00    -0.744 OA
ENDBRANCH  66  67
ENDBRANCH  45  59
BRANCH  46  71
ATOM     71  C   UNL A   1      44.209  28.601  30.070  1.00  0.00     0.058 A 
ATOM     72  C   UNL A   1      43.631  28.290  28.828  1.00  0.00     0.135 A 
ATOM     73  C   UNL A   1      45.591  28.562  30.021  1.00  0.00     0.135 A 
ATOM     74  F   UNL A   1      42.383  27.806  28.777  1.00  0.00    -0.206 F 
ATOM     75  C   UNL A   1      44.232  28.680  27.621  1.00  0.00     0.059 A 
ATOM     76  C   UNL A   1      46.210  28.925  28.810  1.00  0.00     0.059 A 
ATOM     77  F   UNL A   1      46.308  28.583  31.157  1.00  0.00    -0.206 F 
ATOM     78  C   UNL A   1      45.493  29.232  27.657  1.00  0.00     0.060 A 
BRANCH  78  79
ATOM     79  S   UNL A   1      46.176  30.585  26.368  1.00  0.00     0.124 S 
ATOM     80  O   UNL A   1      45.105  31.521  26.123  1.00  0.00    -0.237 OA
ATOM     81  O   UNL A   1      47.262  31.235  27.093  1.00  0.00    -0.237 OA
ATOM     82  O   UNL A   1      46.543  29.858  25.185  1.00  0.00    -0.744 OA
ENDBRANCH  78  79
ENDBRANCH  46  71
BRANCH  58  83
ATOM     83  C   UNL A   1      42.457  35.706  28.927  1.00  0.00     0.058 A 
ATOM     84  C   UNL A   1      41.831  36.130  27.748  1.00  0.00     0.135 A 
ATOM     85  C   UNL A   1      43.221  36.693  29.605  1.00  0.00     0.135 A 
ATOM     86  F   UNL A   1      40.996  35.333  27.069  1.00  0.00    -0.206 F 
ATOM     87  C   UNL A   1      42.004  37.417  27.240  1.00  0.00     0.059 A 
ATOM     88  C   UNL A   1      43.345  37.999  29.156  1.00  0.00     0.059 A 
ATOM     89  F   UNL A   1      43.876  36.428  30.746  1.00  0.00    -0.206 F 
ATOM     90  C   UNL A   1      42.759  38.345  27.952  1.00  0.00     0.060 A 
BRANCH  90  91
ATOM     91  S   UNL A   1      42.947  40.014  27.315  1.00  0.00     0.124 S 
ATOM     92  O   UNL A   1      43.195  40.764  28.542  1.00  0.00    -0.237 OA
ATOM     93  O   UNL A   1      44.088  39.882  26.413  1.00  0.00    -0.237 OA
ATOM     94  O   UNL A   1      41.669  40.276  26.661  1.00  0.00    -0.744 OA
ENDBRANCH  90  91
ENDBRANCH  58  83
ENDBRANCH  32  33
ENDBRANCH  24  27
ENDBRANCH  22  23
ENDBRANCH   1  22
TORSDOF 16
ENDMDL
