MODEL 1
REMARK VINA RESULT:     -11.9      0.000      0.000
REMARK SMILES O=C(NCCCCNC(=O)[C@@H]1CCC(=O)N(CCCOC2CCCCC2)[C@H]1c1ccco1)c1ccc(-c2c3nc(c(-c4c(F)cc(S(=O)(=O)[O-])cc4F)c4ccc([nH]4)c(-c4c(F)cc(S(=O)(=O)[O-])cc4F)c4nc(c(-c5c(F)cc(S(=O)(=O)[O-])cc5F)c5ccc2[nH]5)C=C4)C=C3)cc1
REMARK SMILES IDX 6 1 5 2 4 3 3 4 1 5 2 6 33 8 34 9 98 10 35 11 97 12 36 13
REMARK SMILES IDX 37 14 38 15 91 16 39 17 96 18 90 19 92 20 40 21 95 22 89 23
REMARK SMILES IDX 88 24 41 26 75 27 54 28 74 29 55 30 58 31 73 32 93 33 56 34
REMARK SMILES IDX 57 35 72 37 94 38 59 39 42 40 43 41 52 42 44 43 45 44 51 45
REMARK SMILES IDX 53 46 46 47 47 48 48 49 49 50 50 51 76 52 77 53 86 54 78 55
REMARK SMILES IDX 79 56 85 57 87 58 80 59 81 60 82 61 83 62 84 63 60 64 61 65
REMARK SMILES IDX 70 66 62 67 63 68 69 69 71 70 64 71 65 72 66 73 67 74 68 75
REMARK SMILES IDX 7 76 8 77 9 78 10 80 11 81 12 82 27 83 13 84 16 85 14 86
REMARK SMILES IDX 15 87 28 88 29 89 32 90 30 91 31 92 17 93 18 94 19 95 20 96
REMARK SMILES IDX 21 97 22 98 26 99 23 100 25 101 24 102
REMARK H PARENT 3 7 92 25 58 36 8 79
REMARK Flexibility Score: inf
ROOT
ATOM      1  C   UNL A   1      38.584  22.694  26.097  1.00  0.00     0.023 C 
ENDROOT
BRANCH   1   2
ATOM      2  C   UNL A   1      39.780  22.160  26.875  1.00  0.00     0.023 C 
BRANCH   2   3
ATOM      3  C   UNL A   1      40.942  23.132  27.027  1.00  0.00     0.116 C 
BRANCH   3   4
ATOM      4  N   UNL A   1      41.120  24.070  25.924  1.00  0.00    -0.352 N 
ATOM      5  O   UNL A   1      41.397  26.129  25.003  1.00  0.00    -0.269 OA
ATOM      6  C   UNL A   1      41.284  25.438  26.010  1.00  0.00     0.251 C 
ATOM      7  H   UNL A   1      41.124  23.686  25.019  1.00  0.00     0.163 HD
BRANCH   6   8
ATOM      8  C   UNL A   1      41.268  26.047  27.354  1.00  0.00     0.039 A 
ATOM      9  C   UNL A   1      40.073  26.069  28.070  1.00  0.00     0.014 A 
ATOM     10  C   UNL A   1      42.392  26.735  27.818  1.00  0.00     0.014 A 
ATOM     11  C   UNL A   1      39.940  26.950  29.128  1.00  0.00     0.010 A 
ATOM     12  C   UNL A   1      42.287  27.526  28.966  1.00  0.00     0.010 A 
ATOM     13  C   UNL A   1      41.047  27.679  29.602  1.00  0.00    -0.014 A 
BRANCH  13  14
ATOM     14  C   UNL A   1      40.856  28.540  30.798  1.00  0.00     0.031 A 
ATOM     15  C   UNL A   1      41.795  28.489  31.975  1.00  0.00     0.074 A 
ATOM     16  C   UNL A   1      39.862  29.450  30.757  1.00  0.00     0.049 A 
ATOM     17  N   UNL A   1      41.786  29.224  33.058  1.00  0.00    -0.248 NA
ATOM     18  C   UNL A   1      42.870  27.485  31.945  1.00  0.00     0.031 C 
ATOM     19  C   UNL A   1      38.881  29.570  29.672  1.00  0.00     0.029 A 
ATOM     20  N   UNL A   1      39.538  30.474  31.607  1.00  0.00    -0.354 N 
ATOM     21  C   UNL A   1      42.829  28.758  33.851  1.00  0.00     0.074 A 
ATOM     22  C   UNL A   1      43.447  27.666  33.128  1.00  0.00     0.031 C 
ATOM     23  C   UNL A   1      38.130  30.659  29.875  1.00  0.00     0.029 A 
ATOM     24  C   UNL A   1      38.513  31.262  31.144  1.00  0.00     0.049 A 
ATOM     25  H   UNL A   1      39.996  30.629  32.465  1.00  0.00     0.167 HD
ATOM     26  C   UNL A   1      43.230  29.204  35.067  1.00  0.00     0.037 A 
ATOM     27  C   UNL A   1      37.926  32.344  31.686  1.00  0.00     0.037 A 
ATOM     28  C   UNL A   1      42.618  30.309  35.763  1.00  0.00     0.049 A 
ATOM     29  C   UNL A   1      38.416  32.837  33.013  1.00  0.00     0.074 A 
ATOM     30  C   UNL A   1      42.942  30.834  37.003  1.00  0.00     0.029 A 
ATOM     31  N   UNL A   1      41.564  31.070  35.274  1.00  0.00    -0.354 N 
ATOM     32  N   UNL A   1      39.386  32.360  33.756  1.00  0.00    -0.248 NA
ATOM     33  C   UNL A   1      37.727  34.001  33.581  1.00  0.00     0.031 C 
ATOM     34  C   UNL A   1      42.069  31.895  37.274  1.00  0.00     0.029 A 
ATOM     35  C   UNL A   1      41.225  32.055  36.187  1.00  0.00     0.049 A 
ATOM     36  H   UNL A   1      41.123  30.930  34.405  1.00  0.00     0.167 HD
ATOM     37  C   UNL A   1      39.411  33.154  34.893  1.00  0.00     0.074 A 
ATOM     38  C   UNL A   1      38.392  34.171  34.716  1.00  0.00     0.031 C 
ATOM     39  C   UNL A   1      40.193  33.043  35.995  1.00  0.00     0.037 A 
BRANCH  26  40
ATOM     40  C   UNL A   1      44.375  28.494  35.739  1.00  0.00     0.058 A 
ATOM     41  C   UNL A   1      45.706  28.890  35.543  1.00  0.00     0.135 A 
ATOM     42  C   UNL A   1      44.132  27.448  36.646  1.00  0.00     0.135 A 
ATOM     43  F   UNL A   1      45.999  29.872  34.676  1.00  0.00    -0.206 F 
ATOM     44  C   UNL A   1      46.758  28.270  36.214  1.00  0.00     0.059 A 
ATOM     45  C   UNL A   1      45.166  26.828  37.344  1.00  0.00     0.059 A 
ATOM     46  F   UNL A   1      42.877  27.029  36.872  1.00  0.00    -0.206 F 
ATOM     47  C   UNL A   1      46.477  27.241  37.115  1.00  0.00     0.060 A 
BRANCH  47  48
ATOM     48  S   UNL A   1      47.848  26.464  37.999  1.00  0.00     0.124 S 
ATOM     49  O   UNL A   1      47.166  25.910  39.164  1.00  0.00    -0.237 OA
ATOM     50  O   UNL A   1      48.334  25.489  37.027  1.00  0.00    -0.237 OA
ATOM     51  O   UNL A   1      48.751  27.577  38.271  1.00  0.00    -0.744 OA
ENDBRANCH  47  48
ENDBRANCH  26  40
BRANCH  27  52
ATOM     52  C   UNL A   1      36.792  32.995  30.980  1.00  0.00     0.058 A 
ATOM     53  C   UNL A   1      35.465  32.756  31.358  1.00  0.00     0.135 A 
ATOM     54  C   UNL A   1      37.025  33.910  29.941  1.00  0.00     0.135 A 
ATOM     55  F   UNL A   1      35.192  31.889  32.347  1.00  0.00    -0.206 F 
ATOM     56  C   UNL A   1      34.403  33.396  30.726  1.00  0.00     0.059 A 
ATOM     57  C   UNL A   1      35.984  34.584  29.315  1.00  0.00     0.059 A 
ATOM     58  F   UNL A   1      38.280  34.189  29.559  1.00  0.00    -0.206 F 
ATOM     59  C   UNL A   1      34.675  34.311  29.707  1.00  0.00     0.060 A 
BRANCH  59  60
ATOM     60  S   UNL A   1      33.304  35.193  28.931  1.00  0.00     0.124 S 
ATOM     61  O   UNL A   1      34.003  36.280  28.255  1.00  0.00    -0.237 OA
ATOM     62  O   UNL A   1      32.725  34.170  28.065  1.00  0.00    -0.237 OA
ATOM     63  O   UNL A   1      32.474  35.581  30.067  1.00  0.00    -0.744 OA
ENDBRANCH  59  60
ENDBRANCH  27  52
BRANCH  39  64
ATOM     64  C   UNL A   1      39.955  34.046  37.085  1.00  0.00     0.058 A 
ATOM     65  C   UNL A   1      39.048  33.788  38.126  1.00  0.00     0.135 A 
ATOM     66  C   UNL A   1      40.625  35.279  37.081  1.00  0.00     0.135 A 
ATOM     67  F   UNL A   1      38.378  32.626  38.165  1.00  0.00    -0.206 F 
ATOM     68  C   UNL A   1      38.782  34.737  39.105  1.00  0.00     0.059 A 
ATOM     69  C   UNL A   1      40.390  36.233  38.065  1.00  0.00     0.059 A 
ATOM     70  F   UNL A   1      41.506  35.567  36.111  1.00  0.00    -0.206 F 
ATOM     71  C   UNL A   1      39.451  35.962  39.061  1.00  0.00     0.060 A 
BRANCH  71  72
ATOM     72  S   UNL A   1      39.089  37.194  40.327  1.00  0.00     0.124 S 
ATOM     73  O   UNL A   1      40.426  37.687  40.645  1.00  0.00    -0.237 OA
ATOM     74  O   UNL A   1      38.220  38.129  39.621  1.00  0.00    -0.237 OA
ATOM     75  O   UNL A   1      38.440  36.417  41.379  1.00  0.00    -0.744 OA
ENDBRANCH  71  72
ENDBRANCH  39  64
ENDBRANCH  13  14
ENDBRANCH   6   8
ENDBRANCH   3   4
ENDBRANCH   2   3
ENDBRANCH   1   2
BRANCH   1  76
ATOM     76  C   UNL A   1      37.729  21.632  25.408  1.00  0.00     0.116 C 
BRANCH  76  77
ATOM     77  N   UNL A   1      37.015  22.166  24.271  1.00  0.00    -0.356 N 
ATOM     78  C   UNL A   1      36.005  23.043  24.119  1.00  0.00     0.225 C 
ATOM     79  H   UNL A   1      37.341  21.808  23.413  1.00  0.00     0.163 HD
ATOM     80  O   UNL A   1      35.753  23.338  22.941  1.00  0.00    -0.275 OA
BRANCH  78  81
ATOM     81  C   UNL A   1      35.199  23.741  25.220  1.00  0.00     0.109 C 
ATOM     82  C   UNL A   1      34.849  23.134  26.562  1.00  0.00     0.026 C 
ATOM     83  C   UNL A   1      33.920  24.328  24.584  1.00  0.00     0.164 C 
ATOM     84  C   UNL A   1      33.645  22.218  26.548  1.00  0.00     0.101 C 
ATOM     85  N   UNL A   1      32.804  23.375  24.496  1.00  0.00    -0.332 N 
ATOM     86  C   UNL A   1      32.597  22.411  25.471  1.00  0.00     0.223 C 
ATOM     87  O   UNL A   1      31.625  21.651  25.464  1.00  0.00    -0.275 OA
BRANCH  83  88
ATOM     88  C   UNL A   1      33.483  25.575  25.302  1.00  0.00     0.127 A 
ATOM     89  C   UNL A   1      34.011  26.852  25.349  1.00  0.00     0.048 A 
ATOM     90  O   UNL A   1      32.363  25.512  26.079  1.00  0.00    -0.467 OA
ATOM     91  C   UNL A   1      33.155  27.607  26.185  1.00  0.00     0.042 A 
ATOM     92  C   UNL A   1      32.163  26.749  26.596  1.00  0.00     0.195 A 
ENDBRANCH  83  88
BRANCH  85  93
ATOM     93  C   UNL A   1      31.872  23.400  23.349  1.00  0.00     0.122 C 
BRANCH  93  94
ATOM     94  C   UNL A   1      30.628  24.296  23.413  1.00  0.00     0.050 C 
BRANCH  94  95
ATOM     95  C   UNL A   1      30.722  25.745  22.917  1.00  0.00     0.162 C 
BRANCH  95  96
ATOM     96  O   UNL A   1      30.061  26.725  23.712  1.00  0.00    -0.378 OA
BRANCH  96  97
ATOM     97  C   UNL A   1      29.544  27.927  23.129  1.00  0.00     0.118 C 
ATOM     98  C   UNL A   1      28.019  28.097  23.124  1.00  0.00     0.032 C 
ATOM     99  C   UNL A   1      30.326  29.112  23.701  1.00  0.00     0.032 C 
ATOM    100  C   UNL A   1      27.534  29.496  22.760  1.00  0.00     0.003 C 
ATOM    101  C   UNL A   1      29.795  30.456  23.223  1.00  0.00     0.003 C 
ATOM    102  C   UNL A   1      28.304  30.581  23.502  1.00  0.00     0.000 C 
ENDBRANCH  96  97
ENDBRANCH  95  96
ENDBRANCH  94  95
ENDBRANCH  93  94
ENDBRANCH  85  93
ENDBRANCH  78  81
ENDBRANCH  76  77
ENDBRANCH   1  76
TORSDOF 20
ENDMDL
MODEL 2
REMARK VINA RESULT:     -11.9      1.496      3.574
REMARK SMILES O=C(NCCCCNC(=O)[C@@H]1CCC(=O)N(CCCOC2CCCCC2)[C@H]1c1ccco1)c1ccc(-c2c3nc(c(-c4c(F)cc(S(=O)(=O)[O-])cc4F)c4ccc([nH]4)c(-c4c(F)cc(S(=O)(=O)[O-])cc4F)c4nc(c(-c5c(F)cc(S(=O)(=O)[O-])cc5F)c5ccc2[nH]5)C=C4)C=C3)cc1
REMARK SMILES IDX 6 1 5 2 4 3 3 4 1 5 2 6 33 8 34 9 98 10 35 11 97 12 36 13
REMARK SMILES IDX 37 14 38 15 91 16 39 17 96 18 90 19 92 20 40 21 95 22 89 23
REMARK SMILES IDX 88 24 41 26 75 27 54 28 74 29 55 30 58 31 73 32 93 33 56 34
REMARK SMILES IDX 57 35 72 37 94 38 59 39 42 40 43 41 52 42 44 43 45 44 51 45
REMARK SMILES IDX 53 46 46 47 47 48 48 49 49 50 50 51 76 52 77 53 86 54 78 55
REMARK SMILES IDX 79 56 85 57 87 58 80 59 81 60 82 61 83 62 84 63 60 64 61 65
REMARK SMILES IDX 70 66 62 67 63 68 69 69 71 70 64 71 65 72 66 73 67 74 68 75
REMARK SMILES IDX 7 76 8 77 9 78 10 80 11 81 12 82 27 83 13 84 16 85 14 86
REMARK SMILES IDX 15 87 28 88 29 89 32 90 30 91 31 92 17 93 18 94 19 95 20 96
REMARK SMILES IDX 21 97 22 98 26 99 23 100 25 101 24 102
REMARK H PARENT 3 7 92 25 58 36 8 79
REMARK Flexibility Score: inf
ROOT
ATOM      1  C   UNL A   1      38.591  22.679  26.120  1.00  0.00     0.023 C 
ENDROOT
BRANCH   1   2
ATOM      2  C   UNL A   1      39.811  22.070  26.801  1.00  0.00     0.023 C 
BRANCH   2   3
ATOM      3  C   UNL A   1      40.976  23.025  27.022  1.00  0.00     0.116 C 
BRANCH   3   4
ATOM      4  N   UNL A   1      41.245  23.946  25.922  1.00  0.00    -0.352 N 
ATOM      5  O   UNL A   1      41.666  25.981  25.003  1.00  0.00    -0.269 OA
ATOM      6  C   UNL A   1      41.478  25.303  26.009  1.00  0.00     0.251 C 
ATOM      7  H   UNL A   1      41.264  23.555  25.019  1.00  0.00     0.163 HD
BRANCH   6   8
ATOM      8  C   UNL A   1      41.443  25.921  27.348  1.00  0.00     0.039 A 
ATOM      9  C   UNL A   1      40.255  25.888  28.075  1.00  0.00     0.014 A 
ATOM     10  C   UNL A   1      42.535  26.668  27.796  1.00  0.00     0.014 A 
ATOM     11  C   UNL A   1      40.087  26.770  29.128  1.00  0.00     0.010 A 
ATOM     12  C   UNL A   1      42.401  27.462  28.940  1.00  0.00     0.010 A 
ATOM     13  C   UNL A   1      41.159  27.557  29.586  1.00  0.00    -0.014 A 
BRANCH  13  14
ATOM     14  C   UNL A   1      40.936  28.416  30.777  1.00  0.00     0.031 A 
ATOM     15  C   UNL A   1      41.858  28.385  31.968  1.00  0.00     0.074 A 
ATOM     16  C   UNL A   1      39.926  29.308  30.720  1.00  0.00     0.049 A 
ATOM     17  N   UNL A   1      41.820  29.121  33.050  1.00  0.00    -0.248 NA
ATOM     18  C   UNL A   1      42.951  27.400  31.955  1.00  0.00     0.031 C 
ATOM     19  C   UNL A   1      38.959  29.408  29.621  1.00  0.00     0.029 A 
ATOM     20  N   UNL A   1      39.572  30.327  31.563  1.00  0.00    -0.354 N 
ATOM     21  C   UNL A   1      42.860  28.675  33.858  1.00  0.00     0.074 A 
ATOM     22  C   UNL A   1      43.508  27.593  33.146  1.00  0.00     0.031 C 
ATOM     23  C   UNL A   1      38.186  30.484  29.811  1.00  0.00     0.029 A 
ATOM     24  C   UNL A   1      38.539  31.096  31.084  1.00  0.00     0.049 A 
ATOM     25  H   UNL A   1      40.014  30.492  32.428  1.00  0.00     0.167 HD
ATOM     26  C   UNL A   1      43.235  29.130  35.079  1.00  0.00     0.037 A 
ATOM     27  C   UNL A   1      37.925  32.169  31.616  1.00  0.00     0.037 A 
ATOM     28  C   UNL A   1      42.593  30.225  35.764  1.00  0.00     0.049 A 
ATOM     29  C   UNL A   1      38.387  32.672  32.949  1.00  0.00     0.074 A 
ATOM     30  C   UNL A   1      42.890  30.758  37.007  1.00  0.00     0.029 A 
ATOM     31  N   UNL A   1      41.533  30.966  35.258  1.00  0.00    -0.354 N 
ATOM     32  N   UNL A   1      39.354  32.214  33.707  1.00  0.00    -0.248 NA
ATOM     33  C   UNL A   1      37.669  33.824  33.504  1.00  0.00     0.031 C 
ATOM     34  C   UNL A   1      41.993  31.803  37.264  1.00  0.00     0.029 A 
ATOM     35  C   UNL A   1      41.163  31.947  36.165  1.00  0.00     0.049 A 
ATOM     36  H   UNL A   1      41.107  30.816  34.383  1.00  0.00     0.167 HD
ATOM     37  C   UNL A   1      39.349  33.011  34.842  1.00  0.00     0.074 A 
ATOM     38  C   UNL A   1      38.314  34.009  34.648  1.00  0.00     0.031 C 
ATOM     39  C   UNL A   1      40.116  32.915  35.956  1.00  0.00     0.037 A 
BRANCH  26  40
ATOM     40  C   UNL A   1      44.383  28.442  35.769  1.00  0.00     0.058 A 
ATOM     41  C   UNL A   1      45.708  28.871  35.603  1.00  0.00     0.135 A 
ATOM     42  C   UNL A   1      44.146  27.383  36.663  1.00  0.00     0.135 A 
ATOM     43  F   UNL A   1      45.994  29.867  34.750  1.00  0.00    -0.206 F 
ATOM     44  C   UNL A   1      46.760  28.271  36.291  1.00  0.00     0.059 A 
ATOM     45  C   UNL A   1      45.180  26.782  37.376  1.00  0.00     0.059 A 
ATOM     46  F   UNL A   1      42.898  26.932  36.859  1.00  0.00    -0.206 F 
ATOM     47  C   UNL A   1      46.485  27.229  37.178  1.00  0.00     0.060 A 
BRANCH  47  48
ATOM     48  S   UNL A   1      47.857  26.477  38.084  1.00  0.00     0.124 S 
ATOM     49  O   UNL A   1      47.145  25.654  39.057  1.00  0.00    -0.237 OA
ATOM     50  O   UNL A   1      48.563  25.748  37.035  1.00  0.00    -0.237 OA
ATOM     51  O   UNL A   1      48.570  27.624  38.635  1.00  0.00    -0.744 OA
ENDBRANCH  47  48
ENDBRANCH  26  40
BRANCH  27  52
ATOM     52  C   UNL A   1      36.790  32.797  30.892  1.00  0.00     0.058 A 
ATOM     53  C   UNL A   1      35.462  32.542  31.257  1.00  0.00     0.135 A 
ATOM     54  C   UNL A   1      37.021  33.708  29.849  1.00  0.00     0.135 A 
ATOM     55  F   UNL A   1      35.191  31.679  32.249  1.00  0.00    -0.206 F 
ATOM     56  C   UNL A   1      34.399  33.162  30.608  1.00  0.00     0.059 A 
ATOM     57  C   UNL A   1      35.978  34.363  29.206  1.00  0.00     0.059 A 
ATOM     58  F   UNL A   1      38.277  34.002  29.478  1.00  0.00    -0.206 F 
ATOM     59  C   UNL A   1      34.668  34.074  29.585  1.00  0.00     0.060 A 
BRANCH  59  60
ATOM     60  S   UNL A   1      33.294  34.930  28.787  1.00  0.00     0.124 S 
ATOM     61  O   UNL A   1      32.812  33.908  27.865  1.00  0.00    -0.237 OA
ATOM     62  O   UNL A   1      32.420  35.236  29.915  1.00  0.00    -0.237 OA
ATOM     63  O   UNL A   1      33.936  36.087  28.173  1.00  0.00    -0.744 OA
ENDBRANCH  59  60
ENDBRANCH  27  52
BRANCH  39  64
ATOM     64  C   UNL A   1      39.844  33.915  37.040  1.00  0.00     0.058 A 
ATOM     65  C   UNL A   1      40.371  35.216  36.980  1.00  0.00     0.135 A 
ATOM     66  C   UNL A   1      39.064  33.568  38.154  1.00  0.00     0.135 A 
ATOM     67  F   UNL A   1      41.130  35.589  35.938  1.00  0.00    -0.206 F 
ATOM     68  C   UNL A   1      40.168  36.126  38.010  1.00  0.00     0.059 A 
ATOM     69  C   UNL A   1      38.830  34.472  39.184  1.00  0.00     0.059 A 
ATOM     70  F   UNL A   1      38.533  32.339  38.251  1.00  0.00    -0.206 F 
ATOM     71  C   UNL A   1      39.404  35.742  39.113  1.00  0.00     0.060 A 
BRANCH  71  72
ATOM     72  S   UNL A   1      39.158  36.925  40.453  1.00  0.00     0.124 S 
ATOM     73  O   UNL A   1      38.593  38.064  39.735  1.00  0.00    -0.237 OA
ATOM     74  O   UNL A   1      38.241  36.215  41.338  1.00  0.00    -0.237 OA
ATOM     75  O   UNL A   1      40.505  37.120  40.982  1.00  0.00    -0.744 OA
ENDBRANCH  71  72
ENDBRANCH  39  64
ENDBRANCH  13  14
ENDBRANCH   6   8
ENDBRANCH   3   4
ENDBRANCH   2   3
ENDBRANCH   1   2
BRANCH   1  76
ATOM     76  C   UNL A   1      37.527  21.677  25.676  1.00  0.00     0.116 C 
BRANCH  76  77
ATOM     77  N   UNL A   1      36.967  22.018  24.388  1.00  0.00    -0.356 N 
ATOM     78  C   UNL A   1      36.118  22.966  23.949  1.00  0.00     0.225 C 
ATOM     79  H   UNL A   1      37.278  21.421  23.668  1.00  0.00     0.163 HD
ATOM     80  O   UNL A   1      35.979  23.000  22.717  1.00  0.00    -0.275 OA
BRANCH  78  81
ATOM     81  C   UNL A   1      35.375  24.014  24.784  1.00  0.00     0.109 C 
ATOM     82  C   UNL A   1      35.180  23.955  26.284  1.00  0.00     0.026 C 
ATOM     83  C   UNL A   1      34.014  24.292  24.109  1.00  0.00     0.164 C 
ATOM     84  C   UNL A   1      34.032  23.081  26.739  1.00  0.00     0.101 C 
ATOM     85  N   UNL A   1      32.950  23.357  24.501  1.00  0.00    -0.332 N 
ATOM     86  C   UNL A   1      32.883  22.831  25.783  1.00  0.00     0.223 C 
ATOM     87  O   UNL A   1      31.959  22.108  26.162  1.00  0.00    -0.275 OA
BRANCH  83  88
ATOM     88  C   UNL A   1      33.573  25.711  24.346  1.00  0.00     0.127 A 
ATOM     89  C   UNL A   1      33.773  26.579  25.402  1.00  0.00     0.048 A 
ATOM     90  O   UNL A   1      32.824  26.322  23.383  1.00  0.00    -0.467 OA
ATOM     91  C   UNL A   1      33.126  27.788  25.052  1.00  0.00     0.042 A 
ATOM     92  C   UNL A   1      32.572  27.583  23.811  1.00  0.00     0.195 A 
ENDBRANCH  83  88
BRANCH  85  93
ATOM     93  C   UNL A   1      31.920  22.928  23.531  1.00  0.00     0.122 C 
BRANCH  93  94
ATOM     94  C   UNL A   1      32.309  21.966  22.400  1.00  0.00     0.050 C 
BRANCH  94  95
ATOM     95  C   UNL A   1      32.099  20.458  22.592  1.00  0.00     0.162 C 
BRANCH  95  96
ATOM     96  O   UNL A   1      32.620  19.899  23.794  1.00  0.00    -0.378 OA
BRANCH  96  97
ATOM     97  C   UNL A   1      32.646  18.483  24.003  1.00  0.00     0.118 C 
ATOM     98  C   UNL A   1      33.670  17.679  23.192  1.00  0.00     0.032 C 
ATOM     99  C   UNL A   1      32.664  18.221  25.511  1.00  0.00     0.032 C 
ATOM    100  C   UNL A   1      33.856  16.236  23.649  1.00  0.00     0.003 C 
ATOM    101  C   UNL A   1      32.790  16.743  25.853  1.00  0.00     0.003 C 
ATOM    102  C   UNL A   1      33.998  16.127  25.162  1.00  0.00     0.000 C 
ENDBRANCH  96  97
ENDBRANCH  95  96
ENDBRANCH  94  95
ENDBRANCH  93  94
ENDBRANCH  85  93
ENDBRANCH  78  81
ENDBRANCH  76  77
ENDBRANCH   1  76
TORSDOF 20
ENDMDL
MODEL 3
REMARK VINA RESULT:     -11.8      6.137      8.208
REMARK SMILES O=C(NCCCCNC(=O)[C@@H]1CCC(=O)N(CCCOC2CCCCC2)[C@H]1c1ccco1)c1ccc(-c2c3nc(c(-c4c(F)cc(S(=O)(=O)[O-])cc4F)c4ccc([nH]4)c(-c4c(F)cc(S(=O)(=O)[O-])cc4F)c4nc(c(-c5c(F)cc(S(=O)(=O)[O-])cc5F)c5ccc2[nH]5)C=C4)C=C3)cc1
REMARK SMILES IDX 6 1 5 2 4 3 3 4 1 5 2 6 33 8 34 9 98 10 35 11 97 12 36 13
REMARK SMILES IDX 37 14 38 15 91 16 39 17 96 18 90 19 92 20 40 21 95 22 89 23
REMARK SMILES IDX 88 24 41 26 75 27 54 28 74 29 55 30 58 31 73 32 93 33 56 34
REMARK SMILES IDX 57 35 72 37 94 38 59 39 42 40 43 41 52 42 44 43 45 44 51 45
REMARK SMILES IDX 53 46 46 47 47 48 48 49 49 50 50 51 76 52 77 53 86 54 78 55
REMARK SMILES IDX 79 56 85 57 87 58 80 59 81 60 82 61 83 62 84 63 60 64 61 65
REMARK SMILES IDX 70 66 62 67 63 68 69 69 71 70 64 71 65 72 66 73 67 74 68 75
REMARK SMILES IDX 7 76 8 77 9 78 10 80 11 81 12 82 27 83 13 84 16 85 14 86
REMARK SMILES IDX 15 87 28 88 29 89 32 90 30 91 31 92 17 93 18 94 19 95 20 96
REMARK SMILES IDX 21 97 22 98 26 99 23 100 25 101 24 102
REMARK H PARENT 3 7 92 25 58 36 8 79
REMARK Flexibility Score: inf
ROOT
ATOM      1  C   UNL A   1      39.626  23.244  26.883  1.00  0.00     0.023 C 
ENDROOT
BRANCH   1   2
ATOM      2  C   UNL A   1      39.588  21.825  26.330  1.00  0.00     0.023 C 
BRANCH   2   3
ATOM      3  C   UNL A   1      40.390  20.799  27.118  1.00  0.00     0.116 C 
BRANCH   3   4
ATOM      4  N   UNL A   1      41.072  19.789  26.315  1.00  0.00    -0.352 N 
ATOM      5  O   UNL A   1      42.789  18.968  25.072  1.00  0.00    -0.269 OA
ATOM      6  C   UNL A   1      42.331  19.879  25.755  1.00  0.00     0.251 C 
ATOM      7  H   UNL A   1      40.582  18.952  26.155  1.00  0.00     0.163 HD
BRANCH   6   8
ATOM      8  C   UNL A   1      43.088  21.128  25.965  1.00  0.00     0.039 A 
ATOM      9  C   UNL A   1      43.589  21.408  27.234  1.00  0.00     0.014 A 
ATOM     10  C   UNL A   1      43.149  22.081  24.945  1.00  0.00     0.014 A 
ATOM     11  C   UNL A   1      43.949  22.708  27.542  1.00  0.00     0.010 A 
ATOM     12  C   UNL A   1      43.637  23.360  25.230  1.00  0.00     0.010 A 
ATOM     13  C   UNL A   1      43.994  23.698  26.544  1.00  0.00    -0.014 A 
BRANCH  13  14
ATOM     14  C   UNL A   1      44.476  25.052  26.924  1.00  0.00     0.031 A 
ATOM     15  C   UNL A   1      45.903  25.481  26.705  1.00  0.00     0.074 A 
ATOM     16  C   UNL A   1      43.563  25.930  27.385  1.00  0.00     0.049 A 
ATOM     17  N   UNL A   1      46.448  26.649  26.932  1.00  0.00    -0.248 NA
ATOM     18  C   UNL A   1      46.842  24.477  26.180  1.00  0.00     0.031 C 
ATOM     19  C   UNL A   1      42.156  25.611  27.654  1.00  0.00     0.029 A 
ATOM     20  N   UNL A   1      43.654  27.269  27.659  1.00  0.00    -0.354 N 
ATOM     21  C   UNL A   1      47.794  26.518  26.607  1.00  0.00     0.074 A 
ATOM     22  C   UNL A   1      47.988  25.149  26.176  1.00  0.00     0.031 C 
ATOM     23  C   UNL A   1      41.500  26.736  27.962  1.00  0.00     0.029 A 
ATOM     24  C   UNL A   1      42.451  27.838  28.001  1.00  0.00     0.049 A 
ATOM     25  H   UNL A   1      44.499  27.773  27.615  1.00  0.00     0.167 HD
ATOM     26  C   UNL A   1      48.772  27.456  26.664  1.00  0.00     0.037 A 
ATOM     27  C   UNL A   1      42.143  29.106  28.329  1.00  0.00     0.037 A 
ATOM     28  C   UNL A   1      48.556  28.822  27.075  1.00  0.00     0.049 A 
ATOM     29  C   UNL A   1      43.238  30.128  28.347  1.00  0.00     0.074 A 
ATOM     30  C   UNL A   1      49.480  29.848  27.176  1.00  0.00     0.029 A 
ATOM     31  N   UNL A   1      47.327  29.357  27.437  1.00  0.00    -0.354 N 
ATOM     32  N   UNL A   1      44.509  29.972  28.063  1.00  0.00    -0.248 NA
ATOM     33  C   UNL A   1      42.863  31.490  28.741  1.00  0.00     0.031 C 
ATOM     34  C   UNL A   1      48.815  30.996  27.625  1.00  0.00     0.029 A 
ATOM     35  C   UNL A   1      47.471  30.696  27.766  1.00  0.00     0.049 A 
ATOM     36  H   UNL A   1      46.479  28.859  27.458  1.00  0.00     0.167 HD
ATOM     37  C   UNL A   1      45.093  31.214  28.264  1.00  0.00     0.074 A 
ATOM     38  C   UNL A   1      44.026  32.120  28.646  1.00  0.00     0.031 C 
ATOM     39  C   UNL A   1      46.396  31.571  28.162  1.00  0.00     0.037 A 
BRANCH  26  40
ATOM     40  C   UNL A   1      50.170  27.043  26.291  1.00  0.00     0.058 A 
ATOM     41  C   UNL A   1      51.087  26.590  27.251  1.00  0.00     0.135 A 
ATOM     42  C   UNL A   1      50.576  27.034  24.945  1.00  0.00     0.135 A 
ATOM     43  F   UNL A   1      50.759  26.591  28.553  1.00  0.00    -0.206 F 
ATOM     44  C   UNL A   1      52.360  26.151  26.893  1.00  0.00     0.059 A 
ATOM     45  C   UNL A   1      51.836  26.581  24.563  1.00  0.00     0.059 A 
ATOM     46  F   UNL A   1      49.739  27.458  23.986  1.00  0.00    -0.206 F 
ATOM     47  C   UNL A   1      52.724  26.148  25.545  1.00  0.00     0.060 A 
BRANCH  47  48
ATOM     48  S   UNL A   1      54.369  25.551  25.093  1.00  0.00     0.124 S 
ATOM     49  O   UNL A   1      54.071  24.195  24.642  1.00  0.00    -0.237 OA
ATOM     50  O   UNL A   1      54.767  26.491  24.050  1.00  0.00    -0.237 OA
ATOM     51  O   UNL A   1      55.120  25.647  26.340  1.00  0.00    -0.744 OA
ENDBRANCH  47  48
ENDBRANCH  26  40
BRANCH  27  52
ATOM     52  C   UNL A   1      40.746  29.448  28.700  1.00  0.00     0.058 A 
ATOM     53  C   UNL A   1      39.735  29.531  27.734  1.00  0.00     0.135 A 
ATOM     54  C   UNL A   1      40.390  29.651  30.043  1.00  0.00     0.135 A 
ATOM     55  F   UNL A   1      40.027  29.344  26.437  1.00  0.00    -0.206 F 
ATOM     56  C   UNL A   1      38.418  29.811  28.084  1.00  0.00     0.059 A 
ATOM     57  C   UNL A   1      39.077  29.901  30.420  1.00  0.00     0.059 A 
ATOM     58  F   UNL A   1      41.319  29.559  31.007  1.00  0.00    -0.206 F 
ATOM     59  C   UNL A   1      38.099  29.991  29.432  1.00  0.00     0.060 A 
BRANCH  59  60
ATOM     60  S   UNL A   1      36.379  30.287  29.895  1.00  0.00     0.124 S 
ATOM     61  O   UNL A   1      35.669  29.681  28.774  1.00  0.00    -0.237 OA
ATOM     62  O   UNL A   1      36.275  29.587  31.171  1.00  0.00    -0.237 OA
ATOM     63  O   UNL A   1      36.305  31.742  29.982  1.00  0.00    -0.744 OA
ENDBRANCH  59  60
ENDBRANCH  27  52
BRANCH  39  64
ATOM     64  C   UNL A   1      46.722  33.000  28.482  1.00  0.00     0.058 A 
ATOM     65  C   UNL A   1      47.044  33.399  29.789  1.00  0.00     0.135 A 
ATOM     66  C   UNL A   1      46.697  33.981  27.478  1.00  0.00     0.135 A 
ATOM     67  F   UNL A   1      47.071  32.497  30.782  1.00  0.00    -0.206 F 
ATOM     68  C   UNL A   1      47.290  34.730  30.100  1.00  0.00     0.059 A 
ATOM     69  C   UNL A   1      46.963  35.316  27.764  1.00  0.00     0.059 A 
ATOM     70  F   UNL A   1      46.402  33.647  26.213  1.00  0.00    -0.206 F 
ATOM     71  C   UNL A   1      47.238  35.684  29.081  1.00  0.00     0.060 A 
BRANCH  71  72
ATOM     72  S   UNL A   1      47.545  37.413  29.495  1.00  0.00     0.124 S 
ATOM     73  O   UNL A   1      47.430  38.050  28.187  1.00  0.00    -0.237 OA
ATOM     74  O   UNL A   1      46.473  37.708  30.440  1.00  0.00    -0.237 OA
ATOM     75  O   UNL A   1      48.888  37.390  30.067  1.00  0.00    -0.744 OA
ENDBRANCH  71  72
ENDBRANCH  39  64
ENDBRANCH  13  14
ENDBRANCH   6   8
ENDBRANCH   3   4
ENDBRANCH   2   3
ENDBRANCH   1   2
BRANCH   1  76
ATOM     76  C   UNL A   1      38.421  24.114  26.529  1.00  0.00     0.116 C 
BRANCH  76  77
ATOM     77  N   UNL A   1      37.772  23.671  25.316  1.00  0.00    -0.356 N 
ATOM     78  C   UNL A   1      36.490  23.532  24.930  1.00  0.00     0.225 C 
ATOM     79  H   UNL A   1      38.413  23.413  24.614  1.00  0.00     0.163 HD
ATOM     80  O   UNL A   1      36.344  23.231  23.735  1.00  0.00    -0.275 OA
BRANCH  78  81
ATOM     81  C   UNL A   1      35.230  23.759  25.771  1.00  0.00     0.109 C 
ATOM     82  C   UNL A   1      34.803  22.909  26.949  1.00  0.00     0.026 C 
ATOM     83  C   UNL A   1      34.032  23.928  24.811  1.00  0.00     0.164 C 
ATOM     84  C   UNL A   1      34.076  21.634  26.579  1.00  0.00     0.101 C 
ATOM     85  N   UNL A   1      33.416  22.659  24.395  1.00  0.00    -0.332 N 
ATOM     86  C   UNL A   1      33.343  21.573  25.254  1.00  0.00     0.223 C 
ATOM     87  O   UNL A   1      32.763  20.525  24.959  1.00  0.00    -0.275 OA
BRANCH  83  88
ATOM     88  C   UNL A   1      32.993  24.842  25.399  1.00  0.00     0.127 A 
ATOM     89  C   UNL A   1      33.091  26.021  26.114  1.00  0.00     0.048 A 
ATOM     90  O   UNL A   1      31.678  24.507  25.244  1.00  0.00    -0.467 OA
ATOM     91  C   UNL A   1      31.766  26.432  26.391  1.00  0.00     0.042 A 
ATOM     92  C   UNL A   1      30.944  25.482  25.832  1.00  0.00     0.195 A 
ENDBRANCH  83  88
BRANCH  85  93
ATOM     93  C   UNL A   1      32.868  22.492  23.032  1.00  0.00     0.122 C 
BRANCH  93  94
ATOM     94  C   UNL A   1      33.459  23.315  21.879  1.00  0.00     0.050 C 
BRANCH  94  95
ATOM     95  C   UNL A   1      32.820  24.662  21.516  1.00  0.00     0.162 C 
BRANCH  95  96
ATOM     96  O   UNL A   1      33.617  25.819  21.751  1.00  0.00    -0.378 OA
BRANCH  96  97
ATOM     97  C   UNL A   1      33.017  27.083  22.057  1.00  0.00     0.118 C 
ATOM     98  C   UNL A   1      31.517  27.081  22.377  1.00  0.00     0.032 C 
ATOM     99  C   UNL A   1      33.899  27.795  23.086  1.00  0.00     0.032 C 
ATOM    100  C   UNL A   1      30.989  28.384  22.968  1.00  0.00     0.003 C 
ATOM    101  C   UNL A   1      33.306  29.115  23.560  1.00  0.00     0.003 C 
ATOM    102  C   UNL A   1      31.888  28.918  24.077  1.00  0.00     0.000 C 
ENDBRANCH  96  97
ENDBRANCH  95  96
ENDBRANCH  94  95
ENDBRANCH  93  94
ENDBRANCH  85  93
ENDBRANCH  78  81
ENDBRANCH  76  77
ENDBRANCH   1  76
TORSDOF 20
ENDMDL
