MODEL 1
REMARK VINA RESULT:     -14.5      0.000      0.000
REMARK SMILES O=C(Cn1c(-c2nc(-c3ccc(C(F)(F)F)cc3)no2)cc2ccccc21)NCCCCNC(=O)c1ccc(-c2c3nc(c(-c4c(F)cc(S(=O)(=O)[O-])cc4F)c4ccc([nH]4)c(-c4c(F)cc(S(=O)(=O)[O-])cc4F)c4nc(c(-c5c(F)cc(S(=O)(=O)[O-])cc5F)c5ccc2[nH]5)C=C4)C=C3)cc1
REMARK SMILES IDX 30 1 29 2 28 3 1 4 2 5 3 7 4 8 5 9 27 10 21 11 22 12 26 13
REMARK SMILES IDX 23 14 25 15 24 16 6 17 7 18 20 19 8 20 19 21 9 22 10 23
REMARK SMILES IDX 18 24 11 25 17 26 12 27 13 28 14 29 15 30 16 31 31 32 32 33
REMARK SMILES IDX 33 34 34 35 35 37 36 38 37 39 101 40 38 41 100 42 39 43
REMARK SMILES IDX 40 44 41 45 94 46 42 47 99 48 93 49 95 50 43 51 98 52 92 53
REMARK SMILES IDX 91 54 44 56 78 57 57 58 77 59 58 60 61 61 76 62 96 63 59 64
REMARK SMILES IDX 60 65 75 67 97 68 62 69 45 70 46 71 55 72 47 73 48 74 54 75
REMARK SMILES IDX 56 76 49 77 50 78 51 79 52 80 53 81 79 82 80 83 89 84 81 85
REMARK SMILES IDX 82 86 88 87 90 88 83 89 84 90 85 91 86 92 87 93 63 94 64 95
REMARK SMILES IDX 73 96 65 97 66 98 72 99 74 100 67 101 68 102 69 103 70 104
REMARK SMILES IDX 71 105
REMARK H PARENT 28 6 33 36 95 55 61 66
REMARK Flexibility Score: inf
ROOT
ATOM      1  C   UNL A   1      35.888  23.721  24.818  1.00  0.00     0.023 C 
ENDROOT
BRANCH   1   2
ATOM      2  C   UNL A   1      35.015  24.107  23.631  1.00  0.00     0.116 C 
BRANCH   2   3
ATOM      3  N   UNL A   1      34.216  25.299  23.838  1.00  0.00    -0.355 N 
ATOM      4  O   UNL A   1      33.695  25.568  21.610  1.00  0.00    -0.273 OA
ATOM      5  C   UNL A   1      33.552  25.902  22.783  1.00  0.00     0.239 C 
ATOM      6  H   UNL A   1      34.145  25.685  24.741  1.00  0.00     0.163 HD
BRANCH   5   7
ATOM      7  C   UNL A   1      32.670  27.057  23.176  1.00  0.00     0.222 C 
BRANCH   7   8
ATOM      8  N   UNL A   1      31.224  26.829  23.278  1.00  0.00    -0.327 N 
ATOM      9  C   UNL A   1      30.503  25.742  23.735  1.00  0.00     0.109 A 
ATOM     10  C   UNL A   1      30.339  27.897  23.047  1.00  0.00     0.049 A 
ATOM     11  C   UNL A   1      29.167  26.107  23.744  1.00  0.00     0.042 A 
ATOM     12  C   UNL A   1      29.053  27.454  23.353  1.00  0.00     0.000 A 
ATOM     13  C   UNL A   1      30.566  29.223  22.631  1.00  0.00     0.027 A 
ATOM     14  C   UNL A   1      27.965  28.344  23.266  1.00  0.00     0.010 A 
ATOM     15  C   UNL A   1      29.471  30.094  22.552  1.00  0.00     0.002 A 
ATOM     16  C   UNL A   1      28.188  29.663  22.869  1.00  0.00     0.001 A 
BRANCH   9  17
ATOM     17  C   UNL A   1      30.950  24.495  24.278  1.00  0.00     0.274 A 
ATOM     18  N   UNL A   1      31.425  23.446  23.637  1.00  0.00    -0.185 NA
ATOM     19  O   UNL A   1      30.785  24.247  25.616  1.00  0.00    -0.332 OA
ATOM     20  C   UNL A   1      31.582  22.509  24.648  1.00  0.00     0.202 A 
ATOM     21  N   UNL A   1      31.200  22.957  25.853  1.00  0.00    -0.057 NA
BRANCH  20  22
ATOM     22  C   UNL A   1      32.203  21.193  24.488  1.00  0.00     0.023 A 
ATOM     23  C   UNL A   1      32.162  20.562  23.230  1.00  0.00     0.013 A 
ATOM     24  C   UNL A   1      32.801  20.508  25.551  1.00  0.00     0.013 A 
ATOM     25  C   UNL A   1      32.673  19.277  23.041  1.00  0.00     0.014 A 
ATOM     26  C   UNL A   1      33.346  19.226  25.353  1.00  0.00     0.014 A 
ATOM     27  C   UNL A   1      33.286  18.598  24.097  1.00  0.00     0.056 A 
BRANCH  27  28
ATOM     28  C   UNL A   1      33.854  17.221  23.855  1.00  0.00     0.416 C 
ATOM     29  F   UNL A   1      35.037  17.015  24.496  1.00  0.00    -0.166 F 
ATOM     30  F   UNL A   1      33.020  16.232  24.285  1.00  0.00    -0.166 F 
ATOM     31  F   UNL A   1      34.091  16.953  22.540  1.00  0.00    -0.166 F 
ENDBRANCH  27  28
ENDBRANCH  20  22
ENDBRANCH   9  17
ENDBRANCH   7   8
ENDBRANCH   5   7
ENDBRANCH   2   3
ENDBRANCH   1   2
BRANCH   1  32
ATOM     32  C   UNL A   1      36.981  22.677  24.553  1.00  0.00     0.023 C 
BRANCH  32  33
ATOM     33  C   UNL A   1      37.720  22.144  25.780  1.00  0.00     0.116 C 
BRANCH  33  34
ATOM     34  N   UNL A   1      39.154  22.020  25.629  1.00  0.00    -0.352 N 
ATOM     35  C   UNL A   1      40.237  22.562  26.268  1.00  0.00     0.251 C 
ATOM     36  H   UNL A   1      39.409  21.408  24.902  1.00  0.00     0.163 HD
ATOM     37  O   UNL A   1      41.310  21.969  26.123  1.00  0.00    -0.269 OA
BRANCH  35  38
ATOM     38  C   UNL A   1      40.220  23.845  27.024  1.00  0.00     0.039 A 
ATOM     39  C   UNL A   1      39.207  24.797  26.965  1.00  0.00     0.014 A 
ATOM     40  C   UNL A   1      41.368  24.132  27.792  1.00  0.00     0.014 A 
ATOM     41  C   UNL A   1      39.379  26.042  27.560  1.00  0.00     0.010 A 
ATOM     42  C   UNL A   1      41.535  25.371  28.411  1.00  0.00     0.010 A 
ATOM     43  C   UNL A   1      40.556  26.344  28.257  1.00  0.00    -0.014 A 
BRANCH  43  44
ATOM     44  C   UNL A   1      40.628  27.660  28.894  1.00  0.00     0.031 A 
ATOM     45  C   UNL A   1      41.739  28.514  28.397  1.00  0.00     0.074 A 
ATOM     46  C   UNL A   1      39.757  28.137  29.808  1.00  0.00     0.049 A 
ATOM     47  N   UNL A   1      42.798  28.887  29.036  1.00  0.00    -0.248 NA
ATOM     48  C   UNL A   1      41.728  28.900  26.977  1.00  0.00     0.031 C 
ATOM     49  C   UNL A   1      38.454  27.578  30.170  1.00  0.00     0.029 A 
ATOM     50  N   UNL A   1      39.820  29.286  30.552  1.00  0.00    -0.354 N 
ATOM     51  C   UNL A   1      43.475  29.747  28.174  1.00  0.00     0.074 A 
ATOM     52  C   UNL A   1      42.866  29.588  26.879  1.00  0.00     0.031 C 
ATOM     53  C   UNL A   1      37.762  28.492  30.890  1.00  0.00     0.029 A 
ATOM     54  C   UNL A   1      38.626  29.626  31.175  1.00  0.00     0.049 A 
ATOM     55  H   UNL A   1      40.641  29.824  30.638  1.00  0.00     0.167 HD
ATOM     56  C   UNL A   1      44.310  30.709  28.653  1.00  0.00     0.037 A 
ATOM     57  C   UNL A   1      38.350  30.765  31.857  1.00  0.00     0.037 A 
ATOM     58  C   UNL A   1      44.641  30.487  30.034  1.00  0.00     0.049 A 
ATOM     59  C   UNL A   1      39.629  31.331  32.351  1.00  0.00     0.074 A 
ATOM     60  C   UNL A   1      45.558  29.755  30.755  1.00  0.00     0.029 A 
ATOM     61  N   UNL A   1      43.682  30.912  30.909  1.00  0.00    -0.354 N 
ATOM     62  N   UNL A   1      40.386  30.749  33.240  1.00  0.00    -0.248 NA
ATOM     63  C   UNL A   1      40.234  32.464  31.657  1.00  0.00     0.031 C 
ATOM     64  C   UNL A   1      45.045  29.657  32.084  1.00  0.00     0.029 A 
ATOM     65  C   UNL A   1      43.839  30.347  32.146  1.00  0.00     0.049 A 
ATOM     66  H   UNL A   1      42.965  31.546  30.678  1.00  0.00     0.167 HD
ATOM     67  C   UNL A   1      41.660  31.171  32.929  1.00  0.00     0.074 A 
ATOM     68  C   UNL A   1      41.494  32.341  32.081  1.00  0.00     0.031 C 
ATOM     69  C   UNL A   1      42.733  30.348  33.079  1.00  0.00     0.037 A 
BRANCH  56  70
ATOM     70  C   UNL A   1      44.478  32.083  28.037  1.00  0.00     0.058 A 
ATOM     71  C   UNL A   1      45.661  32.391  27.332  1.00  0.00     0.135 A 
ATOM     72  C   UNL A   1      43.664  33.188  28.367  1.00  0.00     0.135 A 
ATOM     73  F   UNL A   1      46.523  31.422  26.985  1.00  0.00    -0.206 F 
ATOM     74  C   UNL A   1      46.026  33.703  27.017  1.00  0.00     0.059 A 
ATOM     75  C   UNL A   1      43.982  34.498  28.017  1.00  0.00     0.059 A 
ATOM     76  F   UNL A   1      42.570  33.062  29.130  1.00  0.00    -0.206 F 
ATOM     77  C   UNL A   1      45.181  34.750  27.372  1.00  0.00     0.060 A 
BRANCH  77  78
ATOM     78  S   UNL A   1      45.680  36.447  27.024  1.00  0.00     0.124 S 
ATOM     79  O   UNL A   1      46.434  36.285  25.787  1.00  0.00    -0.237 OA
ATOM     80  O   UNL A   1      44.392  37.122  26.904  1.00  0.00    -0.237 OA
ATOM     81  O   UNL A   1      46.463  36.814  28.200  1.00  0.00    -0.744 OA
ENDBRANCH  77  78
ENDBRANCH  56  70
BRANCH  57  82
ATOM     82  C   UNL A   1      37.087  31.550  31.899  1.00  0.00     0.058 A 
ATOM     83  C   UNL A   1      36.582  32.031  33.122  1.00  0.00     0.135 A 
ATOM     84  C   UNL A   1      36.535  32.113  30.732  1.00  0.00     0.135 A 
ATOM     85  F   UNL A   1      37.049  31.550  34.283  1.00  0.00    -0.206 F 
ATOM     86  C   UNL A   1      35.660  33.079  33.186  1.00  0.00     0.059 A 
ATOM     87  C   UNL A   1      35.604  33.150  30.771  1.00  0.00     0.059 A 
ATOM     88  F   UNL A   1      36.964  31.743  29.516  1.00  0.00    -0.206 F 
ATOM     89  C   UNL A   1      35.203  33.656  32.003  1.00  0.00     0.060 A 
BRANCH  89  90
ATOM     90  S   UNL A   1      34.198  35.156  32.087  1.00  0.00     0.124 S 
ATOM     91  O   UNL A   1      35.023  36.027  32.917  1.00  0.00    -0.237 OA
ATOM     92  O   UNL A   1      34.092  35.529  30.681  1.00  0.00    -0.237 OA
ATOM     93  O   UNL A   1      32.956  34.698  32.704  1.00  0.00    -0.744 OA
ENDBRANCH  89  90
ENDBRANCH  57  82
BRANCH  69  94
ATOM     94  C   UNL A   1      42.682  29.297  34.142  1.00  0.00     0.058 A 
ATOM     95  C   UNL A   1      43.027  29.495  35.487  1.00  0.00     0.135 A 
ATOM     96  C   UNL A   1      42.171  28.040  33.780  1.00  0.00     0.135 A 
ATOM     97  F   UNL A   1      43.463  30.688  35.920  1.00  0.00    -0.206 F 
ATOM     98  C   UNL A   1      42.879  28.476  36.431  1.00  0.00     0.059 A 
ATOM     99  C   UNL A   1      41.989  27.022  34.708  1.00  0.00     0.059 A 
ATOM    100  F   UNL A   1      41.796  27.806  32.511  1.00  0.00    -0.206 F 
ATOM    101  C   UNL A   1      42.349  27.247  36.034  1.00  0.00     0.060 A 
BRANCH 101 102
ATOM    102  S   UNL A   1      42.054  25.966  37.273  1.00  0.00     0.124 S 
ATOM    103  O   UNL A   1      40.634  26.147  37.572  1.00  0.00    -0.237 OA
ATOM    104  O   UNL A   1      42.394  24.744  36.544  1.00  0.00    -0.237 OA
ATOM    105  O   UNL A   1      42.967  26.312  38.351  1.00  0.00    -0.744 OA
ENDBRANCH 101 102
ENDBRANCH  69  94
ENDBRANCH  43  44
ENDBRANCH  35  38
ENDBRANCH  33  34
ENDBRANCH  32  33
ENDBRANCH   1  32
TORSDOF 18
ENDMDL
MODEL 2
REMARK VINA RESULT:     -14.3      3.389     10.030
REMARK SMILES O=C(Cn1c(-c2nc(-c3ccc(C(F)(F)F)cc3)no2)cc2ccccc21)NCCCCNC(=O)c1ccc(-c2c3nc(c(-c4c(F)cc(S(=O)(=O)[O-])cc4F)c4ccc([nH]4)c(-c4c(F)cc(S(=O)(=O)[O-])cc4F)c4nc(c(-c5c(F)cc(S(=O)(=O)[O-])cc5F)c5ccc2[nH]5)C=C4)C=C3)cc1
REMARK SMILES IDX 30 1 29 2 28 3 1 4 2 5 3 7 4 8 5 9 27 10 21 11 22 12 26 13
REMARK SMILES IDX 23 14 25 15 24 16 6 17 7 18 20 19 8 20 19 21 9 22 10 23
REMARK SMILES IDX 18 24 11 25 17 26 12 27 13 28 14 29 15 30 16 31 31 32 32 33
REMARK SMILES IDX 33 34 34 35 35 37 36 38 37 39 101 40 38 41 100 42 39 43
REMARK SMILES IDX 40 44 41 45 94 46 42 47 99 48 93 49 95 50 43 51 98 52 92 53
REMARK SMILES IDX 91 54 44 56 78 57 57 58 77 59 58 60 61 61 76 62 96 63 59 64
REMARK SMILES IDX 60 65 75 67 97 68 62 69 45 70 46 71 55 72 47 73 48 74 54 75
REMARK SMILES IDX 56 76 49 77 50 78 51 79 52 80 53 81 79 82 80 83 89 84 81 85
REMARK SMILES IDX 82 86 88 87 90 88 83 89 84 90 85 91 86 92 87 93 63 94 64 95
REMARK SMILES IDX 73 96 65 97 66 98 72 99 74 100 67 101 68 102 69 103 70 104
REMARK SMILES IDX 71 105
REMARK H PARENT 28 6 33 36 95 55 61 66
REMARK Flexibility Score: inf
ROOT
ATOM      1  C   UNL A   1      33.192  27.834  26.578  1.00  0.00     0.023 C 
ENDROOT
BRANCH   1   2
ATOM      2  C   UNL A   1      32.249  26.637  26.562  1.00  0.00     0.116 C 
BRANCH   2   3
ATOM      3  N   UNL A   1      32.879  25.383  26.199  1.00  0.00    -0.355 N 
ATOM      4  O   UNL A   1      31.354  24.071  27.323  1.00  0.00    -0.273 OA
ATOM      5  C   UNL A   1      32.318  24.172  26.569  1.00  0.00     0.239 C 
ATOM      6  H   UNL A   1      33.718  25.392  25.683  1.00  0.00     0.163 HD
BRANCH   5   7
ATOM      7  C   UNL A   1      33.023  22.961  26.017  1.00  0.00     0.222 C 
BRANCH   7   8
ATOM      8  N   UNL A   1      32.502  22.348  24.790  1.00  0.00    -0.327 N 
ATOM      9  C   UNL A   1      31.973  22.911  23.644  1.00  0.00     0.109 A 
ATOM     10  C   UNL A   1      32.673  20.968  24.581  1.00  0.00     0.049 A 
ATOM     11  C   UNL A   1      31.766  21.885  22.737  1.00  0.00     0.042 A 
ATOM     12  C   UNL A   1      32.229  20.677  23.292  1.00  0.00     0.000 A 
ATOM     13  C   UNL A   1      33.213  19.961  25.403  1.00  0.00     0.027 A 
ATOM     14  C   UNL A   1      32.338  19.365  22.792  1.00  0.00     0.010 A 
ATOM     15  C   UNL A   1      33.315  18.662  24.887  1.00  0.00     0.002 A 
ATOM     16  C   UNL A   1      32.887  18.367  23.597  1.00  0.00     0.001 A 
BRANCH   9  17
ATOM     17  C   UNL A   1      31.789  24.285  23.286  1.00  0.00     0.274 A 
ATOM     18  N   UNL A   1      30.860  25.122  23.701  1.00  0.00    -0.185 NA
ATOM     19  O   UNL A   1      32.572  24.835  22.304  1.00  0.00    -0.332 OA
ATOM     20  C   UNL A   1      31.105  26.260  22.945  1.00  0.00     0.202 A 
ATOM     21  N   UNL A   1      32.127  26.118  22.088  1.00  0.00    -0.057 NA
BRANCH  20  22
ATOM     22  C   UNL A   1      30.421  27.543  23.109  1.00  0.00     0.023 A 
ATOM     23  C   UNL A   1      29.017  27.592  23.013  1.00  0.00     0.013 A 
ATOM     24  C   UNL A   1      31.110  28.743  23.311  1.00  0.00     0.013 A 
ATOM     25  C   UNL A   1      28.322  28.799  23.087  1.00  0.00     0.014 A 
ATOM     26  C   UNL A   1      30.408  29.957  23.419  1.00  0.00     0.014 A 
ATOM     27  C   UNL A   1      29.007  29.996  23.307  1.00  0.00     0.056 A 
BRANCH  27  28
ATOM     28  C   UNL A   1      28.225  31.283  23.411  1.00  0.00     0.416 C 
ATOM     29  F   UNL A   1      27.661  31.658  22.230  1.00  0.00    -0.166 F 
ATOM     30  F   UNL A   1      27.197  31.197  24.303  1.00  0.00    -0.166 F 
ATOM     31  F   UNL A   1      28.975  32.345  23.819  1.00  0.00    -0.166 F 
ENDBRANCH  27  28
ENDBRANCH  20  22
ENDBRANCH   9  17
ENDBRANCH   7   8
ENDBRANCH   5   7
ENDBRANCH   2   3
ENDBRANCH   1   2
BRANCH   1  32
ATOM     32  C   UNL A   1      32.660  29.116  27.229  1.00  0.00     0.023 C 
BRANCH  32  33
ATOM     33  C   UNL A   1      33.410  30.406  26.899  1.00  0.00     0.116 C 
BRANCH  33  34
ATOM     34  N   UNL A   1      33.657  31.280  28.025  1.00  0.00    -0.352 N 
ATOM     35  C   UNL A   1      34.783  31.729  28.663  1.00  0.00     0.251 C 
ATOM     36  H   UNL A   1      32.829  31.632  28.423  1.00  0.00     0.163 HD
ATOM     37  O   UNL A   1      34.650  32.742  29.356  1.00  0.00    -0.269 OA
BRANCH  35  38
ATOM     38  C   UNL A   1      36.098  31.031  28.652  1.00  0.00     0.039 A 
ATOM     39  C   UNL A   1      36.287  29.682  28.366  1.00  0.00     0.014 A 
ATOM     40  C   UNL A   1      37.215  31.798  29.044  1.00  0.00     0.014 A 
ATOM     41  C   UNL A   1      37.529  29.090  28.571  1.00  0.00     0.010 A 
ATOM     42  C   UNL A   1      38.468  31.213  29.228  1.00  0.00     0.010 A 
ATOM     43  C   UNL A   1      38.614  29.846  29.033  1.00  0.00    -0.014 A 
BRANCH  43  44
ATOM     44  C   UNL A   1      39.894  29.150  29.170  1.00  0.00     0.031 A 
ATOM     45  C   UNL A   1      40.313  28.923  30.579  1.00  0.00     0.074 A 
ATOM     46  C   UNL A   1      40.641  28.674  28.152  1.00  0.00     0.049 A 
ATOM     47  N   UNL A   1      41.302  29.466  31.209  1.00  0.00    -0.248 NA
ATOM     48  C   UNL A   1      39.453  28.080  31.425  1.00  0.00     0.031 C 
ATOM     49  C   UNL A   1      40.243  28.525  26.751  1.00  0.00     0.029 A 
ATOM     50  N   UNL A   1      41.902  28.140  28.175  1.00  0.00    -0.354 N 
ATOM     51  C   UNL A   1      41.330  28.858  32.462  1.00  0.00     0.074 A 
ATOM     52  C   UNL A   1      40.085  28.146  32.597  1.00  0.00     0.031 C 
ATOM     53  C   UNL A   1      41.146  27.746  26.112  1.00  0.00     0.029 A 
ATOM     54  C   UNL A   1      42.261  27.479  27.006  1.00  0.00     0.049 A 
ATOM     55  H   UNL A   1      42.503  28.217  28.952  1.00  0.00     0.167 HD
ATOM     56  C   UNL A   1      42.483  28.779  33.179  1.00  0.00     0.037 A 
ATOM     57  C   UNL A   1      43.379  26.743  26.788  1.00  0.00     0.037 A 
ATOM     58  C   UNL A   1      43.495  29.658  32.659  1.00  0.00     0.049 A 
ATOM     59  C   UNL A   1      44.429  27.205  27.728  1.00  0.00     0.074 A 
ATOM     60  C   UNL A   1      43.858  30.980  32.789  1.00  0.00     0.029 A 
ATOM     61  N   UNL A   1      44.158  29.158  31.574  1.00  0.00    -0.354 N 
ATOM     62  N   UNL A   1      44.966  28.394  27.690  1.00  0.00    -0.248 NA
ATOM     63  C   UNL A   1      44.728  26.421  28.922  1.00  0.00     0.031 C 
ATOM     64  C   UNL A   1      44.679  31.288  31.662  1.00  0.00     0.029 A 
ATOM     65  C   UNL A   1      44.812  30.144  30.884  1.00  0.00     0.049 A 
ATOM     66  H   UNL A   1      44.165  28.207  31.319  1.00  0.00     0.167 HD
ATOM     67  C   UNL A   1      45.316  28.650  28.998  1.00  0.00     0.074 A 
ATOM     68  C   UNL A   1      45.313  27.359  29.669  1.00  0.00     0.031 C 
ATOM     69  C   UNL A   1      45.231  29.904  29.520  1.00  0.00     0.037 A 
BRANCH  56  70
ATOM     70  C   UNL A   1      42.867  27.607  34.060  1.00  0.00     0.058 A 
ATOM     71  C   UNL A   1      42.904  27.771  35.461  1.00  0.00     0.135 A 
ATOM     72  C   UNL A   1      43.482  26.434  33.569  1.00  0.00     0.135 A 
ATOM     73  F   UNL A   1      42.370  28.859  36.037  1.00  0.00    -0.206 F 
ATOM     74  C   UNL A   1      43.542  26.858  36.305  1.00  0.00     0.059 A 
ATOM     75  C   UNL A   1      44.076  25.486  34.397  1.00  0.00     0.059 A 
ATOM     76  F   UNL A   1      43.622  26.200  32.258  1.00  0.00    -0.206 F 
ATOM     77  C   UNL A   1      44.132  25.722  35.761  1.00  0.00     0.060 A 
BRANCH  77  78
ATOM     78  S   UNL A   1      45.011  24.576  36.840  1.00  0.00     0.124 S 
ATOM     79  O   UNL A   1      46.382  25.057  36.726  1.00  0.00    -0.237 OA
ATOM     80  O   UNL A   1      44.356  24.807  38.123  1.00  0.00    -0.237 OA
ATOM     81  O   UNL A   1      44.744  23.274  36.234  1.00  0.00    -0.744 OA
ENDBRANCH  77  78
ENDBRANCH  56  70
BRANCH  57  82
ATOM     82  C   UNL A   1      43.537  25.489  26.004  1.00  0.00     0.058 A 
ATOM     83  C   UNL A   1      44.709  25.251  25.261  1.00  0.00     0.135 A 
ATOM     84  C   UNL A   1      42.704  24.376  26.226  1.00  0.00     0.135 A 
ATOM     85  F   UNL A   1      45.561  26.254  25.000  1.00  0.00    -0.206 F 
ATOM     86  C   UNL A   1      45.083  23.970  24.850  1.00  0.00     0.059 A 
ATOM     87  C   UNL A   1      43.049  23.090  25.813  1.00  0.00     0.059 A 
ATOM     88  F   UNL A   1      41.576  24.489  26.944  1.00  0.00    -0.206 F 
ATOM     89  C   UNL A   1      44.261  22.889  25.162  1.00  0.00     0.060 A 
BRANCH  89  90
ATOM     90  S   UNL A   1      44.853  21.211  24.839  1.00  0.00     0.124 S 
ATOM     91  O   UNL A   1      43.959  20.411  25.668  1.00  0.00    -0.237 OA
ATOM     92  O   UNL A   1      44.661  21.094  23.398  1.00  0.00    -0.237 OA
ATOM     93  O   UNL A   1      46.245  21.252  25.279  1.00  0.00    -0.744 OA
ENDBRANCH  89  90
ENDBRANCH  57  82
BRANCH  69  94
ATOM     94  C   UNL A   1      45.410  31.071  28.601  1.00  0.00     0.058 A 
ATOM     95  C   UNL A   1      46.639  31.511  28.088  1.00  0.00     0.135 A 
ATOM     96  C   UNL A   1      44.249  31.723  28.156  1.00  0.00     0.135 A 
ATOM     97  F   UNL A   1      47.785  30.896  28.420  1.00  0.00    -0.206 F 
ATOM     98  C   UNL A   1      46.709  32.566  27.175  1.00  0.00     0.059 A 
ATOM     99  C   UNL A   1      44.293  32.756  27.227  1.00  0.00     0.059 A 
ATOM    100  F   UNL A   1      43.043  31.323  28.591  1.00  0.00    -0.206 F 
ATOM    101  C   UNL A   1      45.529  33.175  26.743  1.00  0.00     0.060 A 
BRANCH 101 102
ATOM    102  S   UNL A   1      45.609  34.466  25.482  1.00  0.00     0.124 S 
ATOM    103  O   UNL A   1      47.047  34.569  25.237  1.00  0.00    -0.237 OA
ATOM    104  O   UNL A   1      44.824  33.885  24.392  1.00  0.00    -0.237 OA
ATOM    105  O   UNL A   1      45.002  35.618  26.129  1.00  0.00    -0.744 OA
ENDBRANCH 101 102
ENDBRANCH  69  94
ENDBRANCH  43  44
ENDBRANCH  35  38
ENDBRANCH  33  34
ENDBRANCH  32  33
ENDBRANCH   1  32
TORSDOF 18
ENDMDL
MODEL 3
REMARK VINA RESULT:     -14.2      3.085      5.259
REMARK SMILES O=C(Cn1c(-c2nc(-c3ccc(C(F)(F)F)cc3)no2)cc2ccccc21)NCCCCNC(=O)c1ccc(-c2c3nc(c(-c4c(F)cc(S(=O)(=O)[O-])cc4F)c4ccc([nH]4)c(-c4c(F)cc(S(=O)(=O)[O-])cc4F)c4nc(c(-c5c(F)cc(S(=O)(=O)[O-])cc5F)c5ccc2[nH]5)C=C4)C=C3)cc1
REMARK SMILES IDX 30 1 29 2 28 3 1 4 2 5 3 7 4 8 5 9 27 10 21 11 22 12 26 13
REMARK SMILES IDX 23 14 25 15 24 16 6 17 7 18 20 19 8 20 19 21 9 22 10 23
REMARK SMILES IDX 18 24 11 25 17 26 12 27 13 28 14 29 15 30 16 31 31 32 32 33
REMARK SMILES IDX 33 34 34 35 35 37 36 38 37 39 101 40 38 41 100 42 39 43
REMARK SMILES IDX 40 44 41 45 94 46 42 47 99 48 93 49 95 50 43 51 98 52 92 53
REMARK SMILES IDX 91 54 44 56 78 57 57 58 77 59 58 60 61 61 76 62 96 63 59 64
REMARK SMILES IDX 60 65 75 67 97 68 62 69 45 70 46 71 55 72 47 73 48 74 54 75
REMARK SMILES IDX 56 76 49 77 50 78 51 79 52 80 53 81 79 82 80 83 89 84 81 85
REMARK SMILES IDX 82 86 88 87 90 88 83 89 84 90 85 91 86 92 87 93 63 94 64 95
REMARK SMILES IDX 73 96 65 97 66 98 72 99 74 100 67 101 68 102 69 103 70 104
REMARK SMILES IDX 71 105
REMARK H PARENT 28 6 33 36 95 55 61 66
REMARK Flexibility Score: inf
ROOT
ATOM      1  C   UNL A   1      39.329  23.397  26.806  1.00  0.00     0.023 C 
ENDROOT
BRANCH   1   2
ATOM      2  C   UNL A   1      38.008  23.687  26.105  1.00  0.00     0.116 C 
BRANCH   2   3
ATOM      3  N   UNL A   1      37.527  22.608  25.264  1.00  0.00    -0.355 N 
ATOM      4  O   UNL A   1      35.787  22.038  26.663  1.00  0.00    -0.273 OA
ATOM      5  C   UNL A   1      36.383  21.902  25.598  1.00  0.00     0.239 C 
ATOM      6  H   UNL A   1      38.021  22.374  24.445  1.00  0.00     0.163 HD
BRANCH   5   7
ATOM      7  C   UNL A   1      35.946  20.895  24.568  1.00  0.00     0.222 C 
BRANCH   7   8
ATOM      8  N   UNL A   1      34.557  20.423  24.597  1.00  0.00    -0.327 N 
ATOM      9  C   UNL A   1      33.360  21.105  24.484  1.00  0.00     0.109 A 
ATOM     10  C   UNL A   1      34.297  19.041  24.570  1.00  0.00     0.049 A 
ATOM     11  C   UNL A   1      32.348  20.160  24.438  1.00  0.00     0.042 A 
ATOM     12  C   UNL A   1      32.918  18.873  24.455  1.00  0.00     0.000 A 
ATOM     13  C   UNL A   1      35.160  17.930  24.602  1.00  0.00     0.027 A 
ATOM     14  C   UNL A   1      32.376  17.578  24.347  1.00  0.00     0.010 A 
ATOM     15  C   UNL A   1      34.602  16.649  24.492  1.00  0.00     0.002 A 
ATOM     16  C   UNL A   1      33.228  16.474  24.362  1.00  0.00     0.001 A 
BRANCH   9  17
ATOM     17  C   UNL A   1      33.104  22.499  24.279  1.00  0.00     0.274 A 
ATOM     18  N   UNL A   1      33.109  23.472  25.167  1.00  0.00    -0.185 NA
ATOM     19  O   UNL A   1      32.678  22.930  23.050  1.00  0.00    -0.332 OA
ATOM     20  C   UNL A   1      32.685  24.569  24.431  1.00  0.00     0.202 A 
ATOM     21  N   UNL A   1      32.410  24.275  23.151  1.00  0.00    -0.057 NA
BRANCH  20  22
ATOM     22  C   UNL A   1      32.636  25.947  24.923  1.00  0.00     0.023 A 
ATOM     23  C   UNL A   1      31.487  26.392  25.604  1.00  0.00     0.013 A 
ATOM     24  C   UNL A   1      33.669  26.862  24.703  1.00  0.00     0.013 A 
ATOM     25  C   UNL A   1      31.357  27.715  26.029  1.00  0.00     0.014 A 
ATOM     26  C   UNL A   1      33.554  28.188  25.160  1.00  0.00     0.014 A 
ATOM     27  C   UNL A   1      32.396  28.627  25.826  1.00  0.00     0.056 A 
BRANCH  27  28
ATOM     28  C   UNL A   1      32.238  30.044  26.321  1.00  0.00     0.416 C 
ATOM     29  F   UNL A   1      31.607  30.118  27.525  1.00  0.00    -0.166 F 
ATOM     30  F   UNL A   1      33.437  30.673  26.490  1.00  0.00    -0.166 F 
ATOM     31  F   UNL A   1      31.524  30.839  25.476  1.00  0.00    -0.166 F 
ENDBRANCH  27  28
ENDBRANCH  20  22
ENDBRANCH   9  17
ENDBRANCH   7   8
ENDBRANCH   5   7
ENDBRANCH   2   3
ENDBRANCH   1   2
BRANCH   1  32
ATOM     32  C   UNL A   1      39.949  22.017  26.554  1.00  0.00     0.023 C 
BRANCH  32  33
ATOM     33  C   UNL A   1      41.465  21.914  26.722  1.00  0.00     0.116 C 
BRANCH  33  34
ATOM     34  N   UNL A   1      42.243  22.383  25.596  1.00  0.00    -0.352 N 
ATOM     35  C   UNL A   1      42.970  23.514  25.336  1.00  0.00     0.251 C 
ATOM     36  H   UNL A   1      42.251  21.746  24.847  1.00  0.00     0.163 HD
ATOM     37  O   UNL A   1      43.798  23.433  24.424  1.00  0.00    -0.269 OA
BRANCH  35  38
ATOM     38  C   UNL A   1      42.759  24.829  26.003  1.00  0.00     0.039 A 
ATOM     39  C   UNL A   1      43.298  25.200  27.232  1.00  0.00     0.014 A 
ATOM     40  C   UNL A   1      41.877  25.721  25.359  1.00  0.00     0.014 A 
ATOM     41  C   UNL A   1      42.884  26.373  27.852  1.00  0.00     0.010 A 
ATOM     42  C   UNL A   1      41.477  26.911  25.967  1.00  0.00     0.010 A 
ATOM     43  C   UNL A   1      41.949  27.216  27.237  1.00  0.00    -0.014 A 
BRANCH  43  44
ATOM     44  C   UNL A   1      41.612  28.454  27.940  1.00  0.00     0.031 A 
ATOM     45  C   UNL A   1      42.658  29.508  27.847  1.00  0.00     0.074 A 
ATOM     46  C   UNL A   1      40.449  28.703  28.578  1.00  0.00     0.049 A 
ATOM     47  N   UNL A   1      43.412  29.963  28.793  1.00  0.00    -0.248 NA
ATOM     48  C   UNL A   1      42.987  30.034  26.513  1.00  0.00     0.031 C 
ATOM     49  C   UNL A   1      39.211  27.926  28.504  1.00  0.00     0.029 A 
ATOM     50  N   UNL A   1      40.103  29.764  29.372  1.00  0.00    -0.354 N 
ATOM     51  C   UNL A   1      44.151  30.997  28.222  1.00  0.00     0.074 A 
ATOM     52  C   UNL A   1      43.972  30.886  26.798  1.00  0.00     0.031 C 
ATOM     53  C   UNL A   1      38.199  28.650  29.035  1.00  0.00     0.029 A 
ATOM     54  C   UNL A   1      38.741  29.861  29.628  1.00  0.00     0.049 A 
ATOM     55  H   UNL A   1      40.761  30.404  29.730  1.00  0.00     0.167 HD
ATOM     56  C   UNL A   1      44.639  32.014  28.982  1.00  0.00     0.037 A 
ATOM     57  C   UNL A   1      38.093  30.871  30.261  1.00  0.00     0.037 A 
ATOM     58  C   UNL A   1      44.594  31.700  30.384  1.00  0.00     0.049 A 
ATOM     59  C   UNL A   1      39.062  31.562  31.145  1.00  0.00     0.074 A 
ATOM     60  C   UNL A   1      45.378  31.038  31.303  1.00  0.00     0.029 A 
ATOM     61  N   UNL A   1      43.368  31.888  30.956  1.00  0.00    -0.354 N 
ATOM     62  N   UNL A   1      39.622  31.006  32.185  1.00  0.00    -0.248 NA
ATOM     63  C   UNL A   1      39.640  32.837  30.729  1.00  0.00     0.031 C 
ATOM     64  C   UNL A   1      44.532  30.729  32.411  1.00  0.00     0.029 A 
ATOM     65  C   UNL A   1      43.260  31.226  32.149  1.00  0.00     0.049 A 
ATOM     66  H   UNL A   1      42.650  32.432  30.558  1.00  0.00     0.167 HD
ATOM     67  C   UNL A   1      40.841  31.639  32.293  1.00  0.00     0.074 A 
ATOM     68  C   UNL A   1      40.728  32.854  31.502  1.00  0.00     0.031 C 
ATOM     69  C   UNL A   1      41.950  30.969  32.708  1.00  0.00     0.037 A 
BRANCH  56  70
ATOM     70  C   UNL A   1      44.740  33.455  28.523  1.00  0.00     0.058 A 
ATOM     71  C   UNL A   1      46.011  34.045  28.358  1.00  0.00     0.135 A 
ATOM     72  C   UNL A   1      43.650  34.352  28.532  1.00  0.00     0.135 A 
ATOM     73  F   UNL A   1      47.121  33.292  28.357  1.00  0.00    -0.206 F 
ATOM     74  C   UNL A   1      46.186  35.428  28.252  1.00  0.00     0.059 A 
ATOM     75  C   UNL A   1      43.798  35.728  28.375  1.00  0.00     0.059 A 
ATOM     76  F   UNL A   1      42.400  33.949  28.791  1.00  0.00    -0.206 F 
ATOM     77  C   UNL A   1      45.072  36.261  28.270  1.00  0.00     0.060 A 
BRANCH  77  78
ATOM     78  S   UNL A   1      45.300  38.048  28.198  1.00  0.00     0.124 S 
ATOM     79  O   UNL A   1      44.432  38.411  27.085  1.00  0.00    -0.237 OA
ATOM     80  O   UNL A   1      44.849  38.463  29.522  1.00  0.00    -0.237 OA
ATOM     81  O   UNL A   1      46.733  38.193  27.958  1.00  0.00    -0.744 OA
ENDBRANCH  77  78
ENDBRANCH  56  70
BRANCH  57  82
ATOM     82  C   UNL A   1      36.757  31.455  29.969  1.00  0.00     0.058 A 
ATOM     83  C   UNL A   1      35.970  32.000  31.002  1.00  0.00     0.135 A 
ATOM     84  C   UNL A   1      36.372  31.784  28.655  1.00  0.00     0.135 A 
ATOM     85  F   UNL A   1      36.263  31.739  32.285  1.00  0.00    -0.206 F 
ATOM     86  C   UNL A   1      34.929  32.896  30.752  1.00  0.00     0.059 A 
ATOM     87  C   UNL A   1      35.327  32.665  28.380  1.00  0.00     0.059 A 
ATOM     88  F   UNL A   1      37.068  31.338  27.598  1.00  0.00    -0.206 F 
ATOM     89  C   UNL A   1      34.637  33.250  29.437  1.00  0.00     0.060 A 
BRANCH  89  90
ATOM     90  S   UNL A   1      33.453  34.581  29.125  1.00  0.00     0.124 S 
ATOM     91  O   UNL A   1      32.537  33.954  28.178  1.00  0.00    -0.237 OA
ATOM     92  O   UNL A   1      32.919  34.829  30.459  1.00  0.00    -0.237 OA
ATOM     93  O   UNL A   1      34.282  35.651  28.578  1.00  0.00    -0.744 OA
ENDBRANCH  89  90
ENDBRANCH  57  82
BRANCH  69  94
ATOM     94  C   UNL A   1      41.776  29.817  33.646  1.00  0.00     0.058 A 
ATOM     95  C   UNL A   1      41.608  28.480  33.256  1.00  0.00     0.135 A 
ATOM     96  C   UNL A   1      41.870  30.086  35.021  1.00  0.00     0.135 A 
ATOM     97  F   UNL A   1      41.573  28.138  31.959  1.00  0.00    -0.206 F 
ATOM     98  C   UNL A   1      41.527  27.453  34.200  1.00  0.00     0.059 A 
ATOM     99  C   UNL A   1      41.820  29.077  35.975  1.00  0.00     0.059 A 
ATOM    100  F   UNL A   1      42.061  31.345  35.449  1.00  0.00    -0.206 F 
ATOM    101  C   UNL A   1      41.644  27.761  35.557  1.00  0.00     0.060 A 
BRANCH 101 102
ATOM    102  S   UNL A   1      41.649  26.425  36.772  1.00  0.00     0.124 S 
ATOM    103  O   UNL A   1      40.386  26.644  37.475  1.00  0.00    -0.237 OA
ATOM    104  O   UNL A   1      41.700  25.233  35.924  1.00  0.00    -0.237 OA
ATOM    105  O   UNL A   1      42.849  26.674  37.554  1.00  0.00    -0.744 OA
ENDBRANCH 101 102
ENDBRANCH  69  94
ENDBRANCH  43  44
ENDBRANCH  35  38
ENDBRANCH  33  34
ENDBRANCH  32  33
ENDBRANCH   1  32
TORSDOF 18
ENDMDL
