MODEL 1
REMARK VINA RESULT:     -10.4      0.000      0.000
REMARK SMILES [NH3+]CC(=O)N1C[C@H](O)C[C@H]1C(=O)NCCCCNC(=O)c1ccc(-c2c3nc(c(-c4c(F)cc(S(=O)(=O)[O-])cc4F)c4ccc([nH]4)c(-c4c(F)cc(S(=O)(=O)[O-])cc4F)c4nc(c(-c5c(F)cc(S(=O)(=O)[O-])cc5F)c5ccc2[nH]5)C=C4)C=C3)cc1
REMARK SMILES IDX 15 1 14 2 13 3 11 4 12 5 10 7 5 8 6 9 7 10 9 11 3 12 4 13
REMARK SMILES IDX 2 14 1 15 8 19 16 21 17 22 18 23 19 24 20 26 21 27 22 28
REMARK SMILES IDX 86 29 23 30 85 31 24 32 25 33 26 34 79 35 27 36 84 37 78 38
REMARK SMILES IDX 80 39 28 40 83 41 77 42 76 43 29 45 63 46 42 47 62 48 43 49
REMARK SMILES IDX 46 50 61 51 81 52 44 53 45 54 60 56 82 57 47 58 30 59 31 60
REMARK SMILES IDX 40 61 32 62 33 63 39 64 41 65 34 66 35 67 36 68 37 69 38 70
REMARK SMILES IDX 64 71 65 72 74 73 66 74 67 75 73 76 75 77 68 78 69 79 70 80
REMARK SMILES IDX 71 81 72 82 48 83 49 84 58 85 50 86 51 87 57 88 59 89 52 90
REMARK SMILES IDX 53 91 54 92 55 93 56 94
REMARK H PARENT 13 6 1 16 1 17 1 18 8 20 18 25 80 44 46 55
REMARK Flexibility Score: inf
ROOT
ATOM      1  C   UNL A   1      46.325  25.190  27.398  1.00  0.00     0.023 C 
ENDROOT
BRANCH   1   2
ATOM      2  C   UNL A   1      46.565  23.800  26.825  1.00  0.00     0.116 C 
BRANCH   2   3
ATOM      3  N   UNL A   1      46.215  23.704  25.426  1.00  0.00    -0.354 N 
ATOM      4  C   UNL A   1      45.702  22.666  24.710  1.00  0.00     0.242 C 
ATOM      5  O   UNL A   1      45.261  22.928  23.585  1.00  0.00    -0.273 OA
ATOM      6  H   UNL A   1      46.372  24.525  24.905  1.00  0.00     0.163 HD
BRANCH   4   7
ATOM      7  C   UNL A   1      45.449  21.275  25.325  1.00  0.00     0.177 C 
ATOM      8  N   UNL A   1      44.127  20.652  25.179  1.00  0.00    -0.323 N 
ATOM      9  C   UNL A   1      44.230  19.277  24.709  1.00  0.00     0.152 C 
ATOM     10  C   UNL A   1      45.708  18.921  24.854  1.00  0.00     0.136 C 
ATOM     11  C   UNL A   1      46.437  20.254  24.744  1.00  0.00     0.069 C 
BRANCH   8  12
ATOM     12  C   UNL A   1      43.027  21.258  25.757  1.00  0.00     0.278 C 
ATOM     13  O   UNL A   1      42.529  22.270  25.263  1.00  0.00    -0.268 OA
BRANCH  12  14
ATOM     14  C   UNL A   1      42.464  20.685  27.065  1.00  0.00     0.360 C 
BRANCH  14  15
ATOM     15  N   UNL A   1      42.579  21.613  28.196  1.00  0.00    -0.350 N 
ATOM     16  H   UNL A   1      43.254  21.248  28.869  1.00  0.00     0.344 HD
ATOM     17  H   UNL A   1      41.669  21.714  28.647  1.00  0.00     0.344 HD
ATOM     18  H   UNL A   1      42.895  22.523  27.859  1.00  0.00     0.344 HD
ENDBRANCH  14  15
ENDBRANCH  12  14
ENDBRANCH   8  12
BRANCH  10  19
ATOM     19  O   UNL A   1      45.955  18.325  26.125  1.00  0.00    -0.391 OA
ATOM     20  H   UNL A   1      45.192  17.784  26.382  1.00  0.00     0.211 HD
ENDBRANCH  10  19
ENDBRANCH   4   7
ENDBRANCH   2   3
ENDBRANCH   1   2
BRANCH   1  21
ATOM     21  C   UNL A   1      45.000  25.837  26.989  1.00  0.00     0.023 C 
BRANCH  21  22
ATOM     22  C   UNL A   1      43.760  24.960  27.142  1.00  0.00     0.116 C 
BRANCH  22  23
ATOM     23  N   UNL A   1      42.824  25.085  26.034  1.00  0.00    -0.352 N 
ATOM     24  C   UNL A   1      41.650  25.803  25.988  1.00  0.00     0.251 C 
ATOM     25  H   UNL A   1      43.059  24.594  25.214  1.00  0.00     0.163 HD
ATOM     26  O   UNL A   1      40.916  25.731  25.008  1.00  0.00    -0.269 OA
BRANCH  24  27
ATOM     27  C   UNL A   1      41.271  26.630  27.152  1.00  0.00     0.039 A 
ATOM     28  C   UNL A   1      40.369  26.117  28.087  1.00  0.00     0.014 A 
ATOM     29  C   UNL A   1      41.856  27.885  27.343  1.00  0.00     0.014 A 
ATOM     30  C   UNL A   1      40.110  26.832  29.260  1.00  0.00     0.010 A 
ATOM     31  C   UNL A   1      41.644  28.565  28.537  1.00  0.00     0.010 A 
ATOM     32  C   UNL A   1      40.775  28.043  29.510  1.00  0.00    -0.014 A 
BRANCH  32  33
ATOM     33  C   UNL A   1      40.584  28.801  30.772  1.00  0.00     0.031 A 
ATOM     34  C   UNL A   1      39.529  29.870  30.836  1.00  0.00     0.074 A 
ATOM     35  C   UNL A   1      41.422  28.612  31.810  1.00  0.00     0.049 A 
ATOM     36  N   UNL A   1      39.327  30.780  31.751  1.00  0.00    -0.248 NA
ATOM     37  C   UNL A   1      38.600  29.945  29.696  1.00  0.00     0.031 C 
ATOM     38  C   UNL A   1      42.503  27.624  31.859  1.00  0.00     0.029 A 
ATOM     39  N   UNL A   1      41.515  29.262  33.015  1.00  0.00    -0.354 N 
ATOM     40  C   UNL A   1      38.275  31.558  31.283  1.00  0.00     0.074 A 
ATOM     41  C   UNL A   1      37.902  31.032  29.988  1.00  0.00     0.031 C 
ATOM     42  C   UNL A   1      43.146  27.734  33.033  1.00  0.00     0.029 A 
ATOM     43  C   UNL A   1      42.555  28.825  33.802  1.00  0.00     0.049 A 
ATOM     44  H   UNL A   1      40.894  29.975  33.291  1.00  0.00     0.167 HD
ATOM     45  C   UNL A   1      37.668  32.608  31.885  1.00  0.00     0.037 A 
ATOM     46  C   UNL A   1      42.995  29.267  34.997  1.00  0.00     0.037 A 
ATOM     47  C   UNL A   1      38.016  33.097  33.192  1.00  0.00     0.049 A 
ATOM     48  C   UNL A   1      42.290  30.423  35.656  1.00  0.00     0.074 A 
ATOM     49  C   UNL A   1      37.431  34.124  33.911  1.00  0.00     0.029 A 
ATOM     50  N   UNL A   1      39.037  32.585  33.981  1.00  0.00    -0.354 N 
ATOM     51  N   UNL A   1      41.278  31.129  35.215  1.00  0.00    -0.248 NA
ATOM     52  C   UNL A   1      42.785  30.842  36.977  1.00  0.00     0.031 C 
ATOM     53  C   UNL A   1      38.112  34.249  35.126  1.00  0.00     0.029 A 
ATOM     54  C   UNL A   1      39.098  33.276  35.177  1.00  0.00     0.049 A 
ATOM     55  H   UNL A   1      39.628  31.840  33.726  1.00  0.00     0.167 HD
ATOM     56  C   UNL A   1      40.991  32.052  36.215  1.00  0.00     0.074 A 
ATOM     57  C   UNL A   1      41.941  31.819  37.284  1.00  0.00     0.031 C 
ATOM     58  C   UNL A   1      40.027  33.003  36.246  1.00  0.00     0.037 A 
BRANCH  45  59
ATOM     59  C   UNL A   1      36.565  33.296  31.133  1.00  0.00     0.058 A 
ATOM     60  C   UNL A   1      36.831  34.119  30.028  1.00  0.00     0.135 A 
ATOM     61  C   UNL A   1      35.225  33.115  31.510  1.00  0.00     0.135 A 
ATOM     62  F   UNL A   1      38.096  34.339  29.637  1.00  0.00    -0.206 F 
ATOM     63  C   UNL A   1      35.809  34.767  29.342  1.00  0.00     0.059 A 
ATOM     64  C   UNL A   1      34.184  33.732  30.821  1.00  0.00     0.059 A 
ATOM     65  F   UNL A   1      34.915  32.338  32.559  1.00  0.00    -0.206 F 
ATOM     66  C   UNL A   1      34.488  34.571  29.750  1.00  0.00     0.060 A 
BRANCH  66  67
ATOM     67  S   UNL A   1      33.172  35.424  28.857  1.00  0.00     0.124 S 
ATOM     68  O   UNL A   1      33.937  36.361  28.040  1.00  0.00    -0.237 OA
ATOM     69  O   UNL A   1      32.526  34.335  28.132  1.00  0.00    -0.237 OA
ATOM     70  O   UNL A   1      32.373  36.024  29.920  1.00  0.00    -0.744 OA
ENDBRANCH  66  67
ENDBRANCH  45  59
BRANCH  46  71
ATOM     71  C   UNL A   1      44.150  28.605  35.655  1.00  0.00     0.058 A 
ATOM     72  C   UNL A   1      43.953  27.552  36.559  1.00  0.00     0.135 A 
ATOM     73  C   UNL A   1      45.471  28.994  35.383  1.00  0.00     0.135 A 
ATOM     74  F   UNL A   1      42.707  27.147  36.855  1.00  0.00    -0.206 F 
ATOM     75  C   UNL A   1      45.020  26.915  37.184  1.00  0.00     0.059 A 
ATOM     76  C   UNL A   1      46.557  28.359  35.979  1.00  0.00     0.059 A 
ATOM     77  F   UNL A   1      45.714  29.986  34.512  1.00  0.00    -0.206 F 
ATOM     78  C   UNL A   1      46.320  27.326  36.886  1.00  0.00     0.060 A 
BRANCH  78  79
ATOM     79  S   UNL A   1      47.703  26.461  37.663  1.00  0.00     0.124 S 
ATOM     80  O   UNL A   1      48.693  26.468  36.592  1.00  0.00    -0.237 OA
ATOM     81  O   UNL A   1      47.996  27.316  38.809  1.00  0.00    -0.237 OA
ATOM     82  O   UNL A   1      47.138  25.156  37.993  1.00  0.00    -0.744 OA
ENDBRANCH  78  79
ENDBRANCH  46  71
BRANCH  58  83
ATOM     83  C   UNL A   1      39.895  33.829  37.492  1.00  0.00     0.058 A 
ATOM     84  C   UNL A   1      40.521  35.078  37.618  1.00  0.00     0.135 A 
ATOM     85  C   UNL A   1      39.037  33.412  38.523  1.00  0.00     0.135 A 
ATOM     86  F   UNL A   1      41.355  35.515  36.662  1.00  0.00    -0.206 F 
ATOM     87  C   UNL A   1      40.295  35.890  38.725  1.00  0.00     0.059 A 
ATOM     88  C   UNL A   1      38.782  34.217  39.628  1.00  0.00     0.059 A 
ATOM     89  F   UNL A   1      38.410  32.228  38.443  1.00  0.00    -0.206 F 
ATOM     90  C   UNL A   1      39.417  35.456  39.720  1.00  0.00     0.060 A 
BRANCH  90  91
ATOM     91  S   UNL A   1      39.063  36.556  41.106  1.00  0.00     0.124 S 
ATOM     92  O   UNL A   1      38.007  35.826  41.801  1.00  0.00    -0.237 OA
ATOM     93  O   UNL A   1      40.349  36.618  41.795  1.00  0.00    -0.237 OA
ATOM     94  O   UNL A   1      38.647  37.796  40.458  1.00  0.00    -0.744 OA
ENDBRANCH  90  91
ENDBRANCH  58  83
ENDBRANCH  32  33
ENDBRANCH  24  27
ENDBRANCH  22  23
ENDBRANCH  21  22
ENDBRANCH   1  21
TORSDOF 18
ENDMDL
MODEL 2
REMARK VINA RESULT:     -10.4      6.055     11.130
REMARK SMILES [NH3+]CC(=O)N1C[C@H](O)C[C@H]1C(=O)NCCCCNC(=O)c1ccc(-c2c3nc(c(-c4c(F)cc(S(=O)(=O)[O-])cc4F)c4ccc([nH]4)c(-c4c(F)cc(S(=O)(=O)[O-])cc4F)c4nc(c(-c5c(F)cc(S(=O)(=O)[O-])cc5F)c5ccc2[nH]5)C=C4)C=C3)cc1
REMARK SMILES IDX 15 1 14 2 13 3 11 4 12 5 10 7 5 8 6 9 7 10 9 11 3 12 4 13
REMARK SMILES IDX 2 14 1 15 8 19 16 21 17 22 18 23 19 24 20 26 21 27 22 28
REMARK SMILES IDX 86 29 23 30 85 31 24 32 25 33 26 34 79 35 27 36 84 37 78 38
REMARK SMILES IDX 80 39 28 40 83 41 77 42 76 43 29 45 63 46 42 47 62 48 43 49
REMARK SMILES IDX 46 50 61 51 81 52 44 53 45 54 60 56 82 57 47 58 30 59 31 60
REMARK SMILES IDX 40 61 32 62 33 63 39 64 41 65 34 66 35 67 36 68 37 69 38 70
REMARK SMILES IDX 64 71 65 72 74 73 66 74 67 75 73 76 75 77 68 78 69 79 70 80
REMARK SMILES IDX 71 81 72 82 48 83 49 84 58 85 50 86 51 87 57 88 59 89 52 90
REMARK SMILES IDX 53 91 54 92 55 93 56 94
REMARK H PARENT 13 6 1 16 1 17 1 18 8 20 18 25 80 44 46 55
REMARK Flexibility Score: inf
ROOT
ATOM      1  C   UNL A   1      32.080  28.026  25.223  1.00  0.00     0.023 C 
ENDROOT
BRANCH   1   2
ATOM      2  C   UNL A   1      31.803  26.629  24.681  1.00  0.00     0.116 C 
BRANCH   2   3
ATOM      3  N   UNL A   1      32.729  26.239  23.642  1.00  0.00    -0.354 N 
ATOM      4  C   UNL A   1      33.608  25.201  23.583  1.00  0.00     0.242 C 
ATOM      5  O   UNL A   1      34.101  24.950  22.477  1.00  0.00    -0.273 OA
ATOM      6  H   UNL A   1      32.723  26.818  22.846  1.00  0.00     0.163 HD
BRANCH   4   7
ATOM      7  C   UNL A   1      33.818  24.221  24.755  1.00  0.00     0.177 C 
ATOM      8  N   UNL A   1      33.619  22.782  24.536  1.00  0.00    -0.323 N 
ATOM      9  C   UNL A   1      34.739  22.000  25.043  1.00  0.00     0.152 C 
ATOM     10  C   UNL A   1      35.546  22.978  25.896  1.00  0.00     0.136 C 
ATOM     11  C   UNL A   1      35.249  24.347  25.297  1.00  0.00     0.069 C 
BRANCH   8  12
ATOM     12  C   UNL A   1      32.362  22.319  24.195  1.00  0.00     0.278 C 
ATOM     13  O   UNL A   1      31.418  22.414  24.981  1.00  0.00    -0.268 OA
BRANCH  12  14
ATOM     14  C   UNL A   1      32.167  21.625  22.840  1.00  0.00     0.360 C 
BRANCH  14  15
ATOM     15  N   UNL A   1      32.562  22.464  21.703  1.00  0.00    -0.350 N 
ATOM     16  H   UNL A   1      33.509  22.813  21.849  1.00  0.00     0.344 HD
ATOM     17  H   UNL A   1      31.918  23.252  21.621  1.00  0.00     0.344 HD
ATOM     18  H   UNL A   1      32.532  21.911  20.846  1.00  0.00     0.344 HD
ENDBRANCH  14  15
ENDBRANCH  12  14
ENDBRANCH   8  12
BRANCH  10  19
ATOM     19  O   UNL A   1      35.116  22.929  27.254  1.00  0.00    -0.391 OA
ATOM     20  H   UNL A   1      35.890  22.887  27.837  1.00  0.00     0.211 HD
ENDBRANCH  10  19
ENDBRANCH   4   7
ENDBRANCH   2   3
ENDBRANCH   1   2
BRANCH   1  21
ATOM     21  C   UNL A   1      33.497  28.238  25.761  1.00  0.00     0.023 C 
BRANCH  21  22
ATOM     22  C   UNL A   1      33.611  28.438  27.269  1.00  0.00     0.116 C 
BRANCH  22  23
ATOM     23  N   UNL A   1      33.519  29.833  27.676  1.00  0.00    -0.352 N 
ATOM     24  C   UNL A   1      34.496  30.621  28.240  1.00  0.00     0.251 C 
ATOM     25  H   UNL A   1      32.648  30.267  27.530  1.00  0.00     0.163 HD
ATOM     26  O   UNL A   1      34.235  31.758  28.620  1.00  0.00    -0.269 OA
BRANCH  24  27
ATOM     27  C   UNL A   1      35.852  30.064  28.416  1.00  0.00     0.039 A 
ATOM     28  C   UNL A   1      36.740  30.079  27.336  1.00  0.00     0.014 A 
ATOM     29  C   UNL A   1      36.260  29.585  29.664  1.00  0.00     0.014 A 
ATOM     30  C   UNL A   1      38.066  29.683  27.528  1.00  0.00     0.010 A 
ATOM     31  C   UNL A   1      37.594  29.250  29.866  1.00  0.00     0.010 A 
ATOM     32  C   UNL A   1      38.512  29.302  28.803  1.00  0.00    -0.014 A 
BRANCH  32  33
ATOM     33  C   UNL A   1      39.928  28.941  29.069  1.00  0.00     0.031 A 
ATOM     34  C   UNL A   1      40.872  29.996  29.575  1.00  0.00     0.074 A 
ATOM     35  C   UNL A   1      40.386  27.714  28.752  1.00  0.00     0.049 A 
ATOM     36  N   UNL A   1      42.174  29.959  29.681  1.00  0.00    -0.248 NA
ATOM     37  C   UNL A   1      40.271  31.276  29.983  1.00  0.00     0.031 C 
ATOM     38  C   UNL A   1      39.573  26.614  28.228  1.00  0.00     0.029 A 
ATOM     39  N   UNL A   1      41.655  27.194  28.799  1.00  0.00    -0.354 N 
ATOM     40  C   UNL A   1      42.551  31.218  30.130  1.00  0.00     0.074 A 
ATOM     41  C   UNL A   1      41.344  32.006  30.247  1.00  0.00     0.031 C 
ATOM     42  C   UNL A   1      40.364  25.552  28.005  1.00  0.00     0.029 A 
ATOM     43  C   UNL A   1      41.742  25.905  28.326  1.00  0.00     0.049 A 
ATOM     44  H   UNL A   1      42.431  27.696  29.140  1.00  0.00     0.167 HD
ATOM     45  C   UNL A   1      43.792  31.671  30.428  1.00  0.00     0.037 A 
ATOM     46  C   UNL A   1      42.815  25.108  28.152  1.00  0.00     0.037 A 
ATOM     47  C   UNL A   1      44.982  30.868  30.350  1.00  0.00     0.049 A 
ATOM     48  C   UNL A   1      44.182  25.627  28.512  1.00  0.00     0.074 A 
ATOM     49  C   UNL A   1      46.279  31.219  30.677  1.00  0.00     0.029 A 
ATOM     50  N   UNL A   1      45.017  29.548  29.925  1.00  0.00    -0.354 N 
ATOM     51  N   UNL A   1      44.520  26.811  28.964  1.00  0.00    -0.248 NA
ATOM     52  C   UNL A   1      45.315  24.704  28.340  1.00  0.00     0.031 C 
ATOM     53  C   UNL A   1      47.105  30.117  30.427  1.00  0.00     0.029 A 
ATOM     54  C   UNL A   1      46.314  29.070  29.979  1.00  0.00     0.049 A 
ATOM     55  H   UNL A   1      44.235  29.028  29.629  1.00  0.00     0.167 HD
ATOM     56  C   UNL A   1      45.895  26.764  29.164  1.00  0.00     0.074 A 
ATOM     57  C   UNL A   1      46.330  25.437  28.778  1.00  0.00     0.031 C 
ATOM     58  C   UNL A   1      46.721  27.733  29.627  1.00  0.00     0.037 A 
BRANCH  45  59
ATOM     59  C   UNL A   1      43.920  33.103  30.867  1.00  0.00     0.058 A 
ATOM     60  C   UNL A   1      43.845  33.466  32.221  1.00  0.00     0.135 A 
ATOM     61  C   UNL A   1      44.142  34.120  29.926  1.00  0.00     0.135 A 
ATOM     62  F   UNL A   1      43.618  32.534  33.160  1.00  0.00    -0.206 F 
ATOM     63  C   UNL A   1      43.950  34.793  32.623  1.00  0.00     0.059 A 
ATOM     64  C   UNL A   1      44.277  35.451  30.308  1.00  0.00     0.059 A 
ATOM     65  F   UNL A   1      44.223  33.826  28.618  1.00  0.00    -0.206 F 
ATOM     66  C   UNL A   1      44.161  35.779  31.658  1.00  0.00     0.060 A 
BRANCH  66  67
ATOM     67  S   UNL A   1      44.286  37.499  32.193  1.00  0.00     0.124 S 
ATOM     68  O   UNL A   1      43.870  38.208  30.986  1.00  0.00    -0.237 OA
ATOM     69  O   UNL A   1      43.350  37.551  33.311  1.00  0.00    -0.237 OA
ATOM     70  O   UNL A   1      45.693  37.642  32.551  1.00  0.00    -0.744 OA
ENDBRANCH  66  67
ENDBRANCH  45  59
BRANCH  46  71
ATOM     71  C   UNL A   1      42.638  23.729  27.629  1.00  0.00     0.058 A 
ATOM     72  C   UNL A   1      42.502  22.642  28.504  1.00  0.00     0.135 A 
ATOM     73  C   UNL A   1      42.585  23.469  26.251  1.00  0.00     0.135 A 
ATOM     74  F   UNL A   1      42.552  22.840  29.831  1.00  0.00    -0.206 F 
ATOM     75  C   UNL A   1      42.332  21.343  28.035  1.00  0.00     0.059 A 
ATOM     76  C   UNL A   1      42.395  22.181  25.757  1.00  0.00     0.059 A 
ATOM     77  F   UNL A   1      42.694  24.477  25.372  1.00  0.00    -0.206 F 
ATOM     78  C   UNL A   1      42.279  21.124  26.658  1.00  0.00     0.060 A 
BRANCH  78  79
ATOM     79  S   UNL A   1      42.007  19.440  26.059  1.00  0.00     0.124 S 
ATOM     80  O   UNL A   1      42.468  18.648  27.193  1.00  0.00    -0.237 OA
ATOM     81  O   UNL A   1      40.568  19.429  25.814  1.00  0.00    -0.237 OA
ATOM     82  O   UNL A   1      42.839  19.374  24.861  1.00  0.00    -0.744 OA
ENDBRANCH  78  79
ENDBRANCH  46  71
BRANCH  58  83
ATOM     83  C   UNL A   1      48.171  27.391  29.810  1.00  0.00     0.058 A 
ATOM     84  C   UNL A   1      49.115  27.618  28.799  1.00  0.00     0.135 A 
ATOM     85  C   UNL A   1      48.633  26.937  31.057  1.00  0.00     0.135 A 
ATOM     86  F   UNL A   1      48.721  28.045  27.590  1.00  0.00    -0.206 F 
ATOM     87  C   UNL A   1      50.473  27.412  29.020  1.00  0.00     0.059 A 
ATOM     88  C   UNL A   1      49.987  26.743  31.305  1.00  0.00     0.059 A 
ATOM     89  F   UNL A   1      47.767  26.712  32.058  1.00  0.00    -0.206 F 
ATOM     90  C   UNL A   1      50.901  26.984  30.279  1.00  0.00     0.060 A 
BRANCH  90  91
ATOM     91  S   UNL A   1      52.672  26.806  30.581  1.00  0.00     0.124 S 
ATOM     92  O   UNL A   1      52.689  25.856  31.688  1.00  0.00    -0.237 OA
ATOM     93  O   UNL A   1      53.159  26.298  29.301  1.00  0.00    -0.237 OA
ATOM     94  O   UNL A   1      53.098  28.163  30.911  1.00  0.00    -0.744 OA
ENDBRANCH  90  91
ENDBRANCH  58  83
ENDBRANCH  32  33
ENDBRANCH  24  27
ENDBRANCH  22  23
ENDBRANCH  21  22
ENDBRANCH   1  21
TORSDOF 18
ENDMDL
MODEL 3
REMARK VINA RESULT:     -10.1      3.902      9.956
REMARK SMILES [NH3+]CC(=O)N1C[C@H](O)C[C@H]1C(=O)NCCCCNC(=O)c1ccc(-c2c3nc(c(-c4c(F)cc(S(=O)(=O)[O-])cc4F)c4ccc([nH]4)c(-c4c(F)cc(S(=O)(=O)[O-])cc4F)c4nc(c(-c5c(F)cc(S(=O)(=O)[O-])cc5F)c5ccc2[nH]5)C=C4)C=C3)cc1
REMARK SMILES IDX 15 1 14 2 13 3 11 4 12 5 10 7 5 8 6 9 7 10 9 11 3 12 4 13
REMARK SMILES IDX 2 14 1 15 8 19 16 21 17 22 18 23 19 24 20 26 21 27 22 28
REMARK SMILES IDX 86 29 23 30 85 31 24 32 25 33 26 34 79 35 27 36 84 37 78 38
REMARK SMILES IDX 80 39 28 40 83 41 77 42 76 43 29 45 63 46 42 47 62 48 43 49
REMARK SMILES IDX 46 50 61 51 81 52 44 53 45 54 60 56 82 57 47 58 30 59 31 60
REMARK SMILES IDX 40 61 32 62 33 63 39 64 41 65 34 66 35 67 36 68 37 69 38 70
REMARK SMILES IDX 64 71 65 72 74 73 66 74 67 75 73 76 75 77 68 78 69 79 70 80
REMARK SMILES IDX 71 81 72 82 48 83 49 84 58 85 50 86 51 87 57 88 59 89 52 90
REMARK SMILES IDX 53 91 54 92 55 93 56 94
REMARK H PARENT 13 6 1 16 1 17 1 18 8 20 18 25 80 44 46 55
REMARK Flexibility Score: inf
ROOT
ATOM      1  C   UNL A   1      37.282  22.491  25.045  1.00  0.00     0.023 C 
ENDROOT
BRANCH   1   2
ATOM      2  C   UNL A   1      36.147  21.478  25.139  1.00  0.00     0.116 C 
BRANCH   2   3
ATOM      3  N   UNL A   1      35.557  21.422  26.456  1.00  0.00    -0.354 N 
ATOM      4  C   UNL A   1      34.311  21.767  26.884  1.00  0.00     0.242 C 
ATOM      5  O   UNL A   1      33.984  21.384  28.014  1.00  0.00    -0.273 OA
ATOM      6  H   UNL A   1      36.153  21.079  27.161  1.00  0.00     0.163 HD
BRANCH   4   7
ATOM      7  C   UNL A   1      33.253  22.388  25.951  1.00  0.00     0.177 C 
ATOM      8  N   UNL A   1      32.186  21.540  25.404  1.00  0.00    -0.323 N 
ATOM      9  C   UNL A   1      30.872  22.143  25.585  1.00  0.00     0.152 C 
ATOM     10  C   UNL A   1      31.156  23.586  25.999  1.00  0.00     0.136 C 
ATOM     11  C   UNL A   1      32.523  23.532  26.669  1.00  0.00     0.069 C 
BRANCH   8  12
ATOM     12  C   UNL A   1      32.518  20.498  24.557  1.00  0.00     0.278 C 
ATOM     13  O   UNL A   1      32.856  20.713  23.393  1.00  0.00    -0.268 OA
BRANCH  12  14
ATOM     14  C   UNL A   1      32.402  19.057  25.071  1.00  0.00     0.360 C 
BRANCH  14  15
ATOM     15  N   UNL A   1      32.831  18.907  26.467  1.00  0.00    -0.350 N 
ATOM     16  H   UNL A   1      33.745  18.455  26.496  1.00  0.00     0.344 HD
ATOM     17  H   UNL A   1      32.153  18.336  26.972  1.00  0.00     0.344 HD
ATOM     18  H   UNL A   1      32.893  19.827  26.904  1.00  0.00     0.344 HD
ENDBRANCH  14  15
ENDBRANCH  12  14
ENDBRANCH   8  12
BRANCH  10  19
ATOM     19  O   UNL A   1      31.200  24.434  24.854  1.00  0.00    -0.391 OA
ATOM     20  H   UNL A   1      31.094  23.899  24.052  1.00  0.00     0.211 HD
ENDBRANCH  10  19
ENDBRANCH   4   7
ENDBRANCH   2   3
ENDBRANCH   1   2
BRANCH   1  21
ATOM     21  C   UNL A   1      37.290  23.554  26.145  1.00  0.00     0.023 C 
BRANCH  21  22
ATOM     22  C   UNL A   1      38.434  24.561  26.085  1.00  0.00     0.116 C 
BRANCH  22  23
ATOM     23  N   UNL A   1      39.749  23.950  26.211  1.00  0.00    -0.352 N 
ATOM     24  C   UNL A   1      40.816  24.375  26.970  1.00  0.00     0.251 C 
ATOM     25  H   UNL A   1      39.895  23.130  25.687  1.00  0.00     0.163 HD
ATOM     26  O   UNL A   1      41.899  23.802  26.896  1.00  0.00    -0.269 OA
BRANCH  24  27
ATOM     27  C   UNL A   1      40.648  25.552  27.845  1.00  0.00     0.039 A 
ATOM     28  C   UNL A   1      39.598  25.572  28.767  1.00  0.00     0.014 A 
ATOM     29  C   UNL A   1      41.566  26.605  27.792  1.00  0.00     0.014 A 
ATOM     30  C   UNL A   1      39.511  26.615  29.693  1.00  0.00     0.010 A 
ATOM     31  C   UNL A   1      41.513  27.609  28.752  1.00  0.00     0.010 A 
ATOM     32  C   UNL A   1      40.490  27.621  29.716  1.00  0.00    -0.014 A 
BRANCH  32  33
ATOM     33  C   UNL A   1      40.478  28.710  30.726  1.00  0.00     0.031 A 
ATOM     34  C   UNL A   1      41.387  28.616  31.919  1.00  0.00     0.074 A 
ATOM     35  C   UNL A   1      39.582  29.712  30.631  1.00  0.00     0.049 A 
ATOM     36  N   UNL A   1      41.399  29.335  33.009  1.00  0.00    -0.248 NA
ATOM     37  C   UNL A   1      42.395  27.542  31.895  1.00  0.00     0.031 C 
ATOM     38  C   UNL A   1      38.628  29.897  29.535  1.00  0.00     0.029 A 
ATOM     39  N   UNL A   1      39.309  30.750  31.487  1.00  0.00    -0.354 N 
ATOM     40  C   UNL A   1      42.385  28.781  33.816  1.00  0.00     0.074 A 
ATOM     41  C   UNL A   1      42.929  27.647  33.102  1.00  0.00     0.031 C 
ATOM     42  C   UNL A   1      37.878  30.983  29.785  1.00  0.00     0.029 A 
ATOM     43  C   UNL A   1      38.265  31.546  31.075  1.00  0.00     0.049 A 
ATOM     44  H   UNL A   1      39.813  30.911  32.317  1.00  0.00     0.167 HD
ATOM     45  C   UNL A   1      42.807  29.190  35.036  1.00  0.00     0.037 A 
ATOM     46  C   UNL A   1      37.673  32.595  31.679  1.00  0.00     0.037 A 
ATOM     47  C   UNL A   1      42.291  30.345  35.720  1.00  0.00     0.049 A 
ATOM     48  C   UNL A   1      38.174  33.045  33.026  1.00  0.00     0.074 A 
ATOM     49  C   UNL A   1      42.684  30.872  36.937  1.00  0.00     0.029 A 
ATOM     50  N   UNL A   1      41.275  31.160  35.239  1.00  0.00    -0.354 N 
ATOM     51  N   UNL A   1      39.128  32.529  33.763  1.00  0.00    -0.248 NA
ATOM     52  C   UNL A   1      37.520  34.219  33.625  1.00  0.00     0.031 C 
ATOM     53  C   UNL A   1      41.890  31.992  37.204  1.00  0.00     0.029 A 
ATOM     54  C   UNL A   1      41.028  32.183  36.136  1.00  0.00     0.049 A 
ATOM     55  H   UNL A   1      40.802  31.028  34.386  1.00  0.00     0.167 HD
ATOM     56  C   UNL A   1      39.214  33.334  34.894  1.00  0.00     0.074 A 
ATOM     57  C   UNL A   1      38.211  34.369  34.748  1.00  0.00     0.031 C 
ATOM     58  C   UNL A   1      40.050  33.226  35.955  1.00  0.00     0.037 A 
BRANCH  45  59
ATOM     59  C   UNL A   1      43.880  28.381  35.707  1.00  0.00     0.058 A 
ATOM     60  C   UNL A   1      45.241  28.615  35.457  1.00  0.00     0.135 A 
ATOM     61  C   UNL A   1      43.545  27.373  36.624  1.00  0.00     0.135 A 
ATOM     62  F   UNL A   1      45.616  29.556  34.576  1.00  0.00    -0.206 F 
ATOM     63  C   UNL A   1      46.233  27.855  36.068  1.00  0.00     0.059 A 
ATOM     64  C   UNL A   1      44.521  26.617  37.267  1.00  0.00     0.059 A 
ATOM     65  F   UNL A   1      42.258  27.108  36.898  1.00  0.00    -0.206 F 
ATOM     66  C   UNL A   1      45.862  26.854  36.968  1.00  0.00     0.060 A 
BRANCH  66  67
ATOM     67  S   UNL A   1      47.158  25.869  37.748  1.00  0.00     0.124 S 
ATOM     68  O   UNL A   1      47.711  25.158  36.598  1.00  0.00    -0.237 OA
ATOM     69  O   UNL A   1      48.020  26.889  38.334  1.00  0.00    -0.237 OA
ATOM     70  O   UNL A   1      46.428  25.044  38.705  1.00  0.00    -0.744 OA
ENDBRANCH  66  67
ENDBRANCH  45  59
BRANCH  46  71
ATOM     71  C   UNL A   1      36.554  33.305  31.008  1.00  0.00     0.058 A 
ATOM     72  C   UNL A   1      35.243  33.198  31.495  1.00  0.00     0.135 A 
ATOM     73  C   UNL A   1      36.768  34.114  29.882  1.00  0.00     0.135 A 
ATOM     74  F   UNL A   1      34.987  32.431  32.567  1.00  0.00    -0.206 F 
ATOM     75  C   UNL A   1      34.181  33.856  30.884  1.00  0.00     0.059 A 
ATOM     76  C   UNL A   1      35.725  34.799  29.265  1.00  0.00     0.059 A 
ATOM     77  F   UNL A   1      38.007  34.261  29.387  1.00  0.00    -0.206 F 
ATOM     78  C   UNL A   1      34.433  34.656  29.769  1.00  0.00     0.060 A 
BRANCH  78  79
ATOM     79  S   UNL A   1      33.055  35.547  29.011  1.00  0.00     0.124 S 
ATOM     80  O   UNL A   1      32.292  35.958  30.184  1.00  0.00    -0.237 OA
ATOM     81  O   UNL A   1      33.740  36.615  28.289  1.00  0.00    -0.237 OA
ATOM     82  O   UNL A   1      32.426  34.535  28.169  1.00  0.00    -0.744 OA
ENDBRANCH  78  79
ENDBRANCH  46  71
BRANCH  58  83
ATOM     83  C   UNL A   1      39.973  34.282  37.019  1.00  0.00     0.058 A 
ATOM     84  C   UNL A   1      40.662  35.497  36.902  1.00  0.00     0.135 A 
ATOM     85  C   UNL A   1      39.106  34.115  38.112  1.00  0.00     0.135 A 
ATOM     86  F   UNL A   1      41.507  35.700  35.880  1.00  0.00    -0.206 F 
ATOM     87  C   UNL A   1      40.489  36.517  37.833  1.00  0.00     0.059 A 
ATOM     88  C   UNL A   1      38.904  35.128  39.041  1.00  0.00     0.059 A 
ATOM     89  F   UNL A   1      38.420  32.971  38.261  1.00  0.00    -0.206 F 
ATOM     90  C   UNL A   1      39.601  36.328  38.893  1.00  0.00     0.060 A 
BRANCH  90  91
ATOM     91  S   UNL A   1      39.317  37.691  40.043  1.00  0.00     0.124 S 
ATOM     92  O   UNL A   1      40.582  38.414  39.960  1.00  0.00    -0.237 OA
ATOM     93  O   UNL A   1      38.163  38.363  39.453  1.00  0.00    -0.237 OA
ATOM     94  O   UNL A   1      39.061  37.017  41.312  1.00  0.00    -0.744 OA
ENDBRANCH  90  91
ENDBRANCH  58  83
ENDBRANCH  32  33
ENDBRANCH  24  27
ENDBRANCH  22  23
ENDBRANCH  21  22
ENDBRANCH   1  21
TORSDOF 18
ENDMDL
