MODEL 1
REMARK VINA RESULT:     -10.5      0.000      0.000
REMARK SMILES COc1ccc([C@@H]([NH3+])CC(=O)NCCCCNC(=O)c2ccc(-c3c4nc(c(-c5c(F)cc(S(=O)(=O)[O-])cc5F)c5ccc([nH]5)c(-c5c(F)cc(S(=O)(=O)[O-])cc5F)c5nc(c(-c6c(F)cc(S(=O)(=O)[O-])cc6F)c6ccc3[nH]6)C=C5)C=C4)cc2)cc1
REMARK SMILES IDX 14 1 13 2 12 3 10 4 11 5 9 7 7 8 6 9 3 10 4 11 87 12 5 13
REMARK SMILES IDX 86 14 2 15 1 16 8 17 15 21 16 22 17 23 18 24 19 26 20 27
REMARK SMILES IDX 21 28 85 29 22 30 84 31 23 32 24 33 25 34 78 35 26 36 83 37
REMARK SMILES IDX 77 38 79 39 27 40 82 41 76 42 75 43 28 45 62 46 41 47 61 48
REMARK SMILES IDX 42 49 45 50 60 51 80 52 43 53 44 54 59 56 81 57 46 58 29 59
REMARK SMILES IDX 30 60 39 61 31 62 32 63 38 64 40 65 33 66 34 67 35 68 36 69
REMARK SMILES IDX 37 70 63 71 64 72 73 73 65 74 66 75 72 76 74 77 67 78 68 79
REMARK SMILES IDX 69 80 70 81 71 82 47 83 48 84 57 85 49 86 50 87 56 88 58 89
REMARK SMILES IDX 51 90 52 91 53 92 54 93 55 94
REMARK H PARENT 12 6 8 18 8 19 8 20 17 25 79 44 45 55
REMARK Flexibility Score: inf
ROOT
ATOM      1  C   UNL A   1      33.723  26.920  25.460  1.00  0.00     0.023 C 
ENDROOT
BRANCH   1   2
ATOM      2  C   UNL A   1      32.342  26.298  25.288  1.00  0.00     0.116 C 
BRANCH   2   3
ATOM      3  N   UNL A   1      32.101  25.334  26.343  1.00  0.00    -0.356 N 
ATOM      4  C   UNL A   1      31.448  24.141  26.275  1.00  0.00     0.226 C 
ATOM      5  O   UNL A   1      31.132  23.586  27.329  1.00  0.00    -0.275 OA
ATOM      6  H   UNL A   1      32.457  25.574  27.228  1.00  0.00     0.163 HD
BRANCH   4   7
ATOM      7  C   UNL A   1      31.154  23.486  24.941  1.00  0.00     0.170 C 
BRANCH   7   8
ATOM      8  C   UNL A   1      31.878  22.136  24.779  1.00  0.00     0.221 C 
BRANCH   8   9
ATOM      9  C   UNL A   1      33.396  22.246  24.782  1.00  0.00     0.010 A 
ATOM     10  C   UNL A   1      36.213  22.326  24.734  1.00  0.00     0.118 A 
ATOM     11  C   UNL A   1      35.476  23.072  23.815  1.00  0.00     0.047 A 
ATOM     12  C   UNL A   1      35.553  21.612  25.733  1.00  0.00     0.047 A 
ATOM     13  C   UNL A   1      34.079  23.031  23.837  1.00  0.00     0.014 A 
ATOM     14  C   UNL A   1      34.153  21.576  25.760  1.00  0.00     0.014 A 
BRANCH  10  15
ATOM     15  O   UNL A   1      37.572  22.363  24.594  1.00  0.00    -0.497 OA
ATOM     16  C   UNL A   1      38.283  21.998  25.778  1.00  0.00     0.278 C 
ENDBRANCH  10  15
ENDBRANCH   8   9
BRANCH   8  17
ATOM     17  N   UNL A   1      31.475  21.227  25.866  1.00  0.00    -0.351 N 
ATOM     18  H   UNL A   1      31.893  20.309  25.713  1.00  0.00     0.345 HD
ATOM     19  H   UNL A   1      30.459  21.140  25.876  1.00  0.00     0.345 HD
ATOM     20  H   UNL A   1      31.793  21.602  26.759  1.00  0.00     0.345 HD
ENDBRANCH   8  17
ENDBRANCH   7   8
ENDBRANCH   4   7
ENDBRANCH   2   3
ENDBRANCH   1   2
BRANCH   1  21
ATOM     21  C   UNL A   1      33.731  28.379  25.882  1.00  0.00     0.023 C 
BRANCH  21  22
ATOM     22  C   UNL A   1      33.480  28.596  27.366  1.00  0.00     0.116 C 
BRANCH  22  23
ATOM     23  N   UNL A   1      33.515  29.996  27.776  1.00  0.00    -0.352 N 
ATOM     24  C   UNL A   1      34.564  30.729  28.288  1.00  0.00     0.251 C 
ATOM     25  H   UNL A   1      32.668  30.487  27.674  1.00  0.00     0.163 HD
ATOM     26  O   UNL A   1      34.388  31.882  28.670  1.00  0.00    -0.269 OA
BRANCH  24  27
ATOM     27  C   UNL A   1      35.886  30.091  28.423  1.00  0.00     0.039 A 
ATOM     28  C   UNL A   1      36.760  30.096  27.334  1.00  0.00     0.014 A 
ATOM     29  C   UNL A   1      36.290  29.570  29.653  1.00  0.00     0.014 A 
ATOM     30  C   UNL A   1      38.078  29.669  27.509  1.00  0.00     0.010 A 
ATOM     31  C   UNL A   1      37.625  29.255  29.853  1.00  0.00     0.010 A 
ATOM     32  C   UNL A   1      38.534  29.298  28.784  1.00  0.00    -0.014 A 
BRANCH  32  33
ATOM     33  C   UNL A   1      39.945  28.920  29.044  1.00  0.00     0.031 A 
ATOM     34  C   UNL A   1      40.892  29.963  29.577  1.00  0.00     0.074 A 
ATOM     35  C   UNL A   1      40.401  27.701  28.695  1.00  0.00     0.049 A 
ATOM     36  N   UNL A   1      42.194  29.930  29.667  1.00  0.00    -0.248 NA
ATOM     37  C   UNL A   1      40.291  31.235  30.013  1.00  0.00     0.031 C 
ATOM     38  C   UNL A   1      39.596  26.624  28.113  1.00  0.00     0.029 A 
ATOM     39  N   UNL A   1      41.665  27.170  28.757  1.00  0.00    -0.354 N 
ATOM     40  C   UNL A   1      42.571  31.193  30.111  1.00  0.00     0.074 A 
ATOM     41  C   UNL A   1      41.364  31.980  30.227  1.00  0.00     0.031 C 
ATOM     42  C   UNL A   1      40.380  25.555  27.896  1.00  0.00     0.029 A 
ATOM     43  C   UNL A   1      41.749  25.884  28.280  1.00  0.00     0.049 A 
ATOM     44  H   UNL A   1      42.439  27.665  29.111  1.00  0.00     0.167 HD
ATOM     45  C   UNL A   1      43.809  31.647  30.417  1.00  0.00     0.037 A 
ATOM     46  C   UNL A   1      42.814  25.068  28.158  1.00  0.00     0.037 A 
ATOM     47  C   UNL A   1      44.991  30.831  30.379  1.00  0.00     0.049 A 
ATOM     48  C   UNL A   1      44.167  25.566  28.586  1.00  0.00     0.074 A 
ATOM     49  C   UNL A   1      46.282  31.165  30.745  1.00  0.00     0.029 A 
ATOM     50  N   UNL A   1      45.018  29.505  29.972  1.00  0.00    -0.354 N 
ATOM     51  N   UNL A   1      44.503  26.753  29.033  1.00  0.00    -0.248 NA
ATOM     52  C   UNL A   1      45.284  24.616  28.500  1.00  0.00     0.031 C 
ATOM     53  C   UNL A   1      47.094  30.042  30.548  1.00  0.00     0.029 A 
ATOM     54  C   UNL A   1      46.303  29.003  30.084  1.00  0.00     0.049 A 
ATOM     55  H   UNL A   1      44.238  28.997  29.650  1.00  0.00     0.167 HD
ATOM     56  C   UNL A   1      45.865  26.686  29.302  1.00  0.00     0.074 A 
ATOM     57  C   UNL A   1      46.288  25.339  28.977  1.00  0.00     0.031 C 
ATOM     58  C   UNL A   1      46.692  27.652  29.773  1.00  0.00     0.037 A 
BRANCH  45  59
ATOM     59  C   UNL A   1      43.932  33.085  30.838  1.00  0.00     0.058 A 
ATOM     60  C   UNL A   1      43.669  33.491  32.156  1.00  0.00     0.135 A 
ATOM     61  C   UNL A   1      44.312  34.070  29.912  1.00  0.00     0.135 A 
ATOM     62  F   UNL A   1      43.281  32.594  33.075  1.00  0.00    -0.206 F 
ATOM     63  C   UNL A   1      43.737  34.828  32.532  1.00  0.00     0.059 A 
ATOM     64  C   UNL A   1      44.416  35.410  30.273  1.00  0.00     0.059 A 
ATOM     65  F   UNL A   1      44.574  33.736  28.639  1.00  0.00    -0.206 F 
ATOM     66  C   UNL A   1      44.106  35.782  31.581  1.00  0.00     0.060 A 
BRANCH  66  67
ATOM     67  S   UNL A   1      44.179  37.516  32.078  1.00  0.00     0.124 S 
ATOM     68  O   UNL A   1      43.594  38.174  30.914  1.00  0.00    -0.237 OA
ATOM     69  O   UNL A   1      43.364  37.531  33.289  1.00  0.00    -0.237 OA
ATOM     70  O   UNL A   1      45.605  37.748  32.283  1.00  0.00    -0.744 OA
ENDBRANCH  66  67
ENDBRANCH  45  59
BRANCH  46  71
ATOM     71  C   UNL A   1      42.638  23.684  27.644  1.00  0.00     0.058 A 
ATOM     72  C   UNL A   1      42.647  23.428  26.266  1.00  0.00     0.135 A 
ATOM     73  C   UNL A   1      42.475  22.593  28.512  1.00  0.00     0.135 A 
ATOM     74  F   UNL A   1      42.796  24.440  25.397  1.00  0.00    -0.206 F 
ATOM     75  C   UNL A   1      42.486  22.141  25.761  1.00  0.00     0.059 A 
ATOM     76  C   UNL A   1      42.333  21.294  28.032  1.00  0.00     0.059 A 
ATOM     77  F   UNL A   1      42.479  22.784  29.840  1.00  0.00    -0.206 F 
ATOM     78  C   UNL A   1      42.331  21.080  26.653  1.00  0.00     0.060 A 
BRANCH  78  79
ATOM     79  S   UNL A   1      42.176  19.406  25.992  1.00  0.00     0.124 S 
ATOM     80  O   UNL A   1      40.743  19.321  25.742  1.00  0.00    -0.237 OA
ATOM     81  O   UNL A   1      43.030  19.462  24.808  1.00  0.00    -0.237 OA
ATOM     82  O   UNL A   1      42.681  18.571  27.077  1.00  0.00    -0.744 OA
ENDBRANCH  78  79
ENDBRANCH  46  71
BRANCH  58  83
ATOM     83  C   UNL A   1      48.127  27.276  30.003  1.00  0.00     0.058 A 
ATOM     84  C   UNL A   1      49.113  27.519  29.036  1.00  0.00     0.135 A 
ATOM     85  C   UNL A   1      48.524  26.721  31.228  1.00  0.00     0.135 A 
ATOM     86  F   UNL A   1      48.778  28.044  27.846  1.00  0.00    -0.206 F 
ATOM     87  C   UNL A   1      50.447  27.211  29.272  1.00  0.00     0.059 A 
ATOM     88  C   UNL A   1      49.856  26.423  31.494  1.00  0.00     0.059 A 
ATOM     89  F   UNL A   1      47.617  26.478  32.188  1.00  0.00    -0.206 F 
ATOM     90  C   UNL A   1      50.809  26.663  30.504  1.00  0.00     0.060 A 
BRANCH  90  91
ATOM     91  S   UNL A   1      52.551  26.305  30.817  1.00  0.00     0.124 S 
ATOM     92  O   UNL A   1      52.458  25.121  31.665  1.00  0.00    -0.237 OA
ATOM     93  O   UNL A   1      53.074  26.082  29.473  1.00  0.00    -0.237 OA
ATOM     94  O   UNL A   1      53.032  27.515  31.476  1.00  0.00    -0.744 OA
ENDBRANCH  90  91
ENDBRANCH  58  83
ENDBRANCH  32  33
ENDBRANCH  24  27
ENDBRANCH  22  23
ENDBRANCH  21  22
ENDBRANCH   1  21
TORSDOF 18
ENDMDL
MODEL 2
REMARK VINA RESULT:     -10.3      1.066      2.073
REMARK SMILES COc1ccc([C@@H]([NH3+])CC(=O)NCCCCNC(=O)c2ccc(-c3c4nc(c(-c5c(F)cc(S(=O)(=O)[O-])cc5F)c5ccc([nH]5)c(-c5c(F)cc(S(=O)(=O)[O-])cc5F)c5nc(c(-c6c(F)cc(S(=O)(=O)[O-])cc6F)c6ccc3[nH]6)C=C5)C=C4)cc2)cc1
REMARK SMILES IDX 14 1 13 2 12 3 10 4 11 5 9 7 7 8 6 9 3 10 4 11 87 12 5 13
REMARK SMILES IDX 86 14 2 15 1 16 8 17 15 21 16 22 17 23 18 24 19 26 20 27
REMARK SMILES IDX 21 28 85 29 22 30 84 31 23 32 24 33 25 34 78 35 26 36 83 37
REMARK SMILES IDX 77 38 79 39 27 40 82 41 76 42 75 43 28 45 62 46 41 47 61 48
REMARK SMILES IDX 42 49 45 50 60 51 80 52 43 53 44 54 59 56 81 57 46 58 29 59
REMARK SMILES IDX 30 60 39 61 31 62 32 63 38 64 40 65 33 66 34 67 35 68 36 69
REMARK SMILES IDX 37 70 63 71 64 72 73 73 65 74 66 75 72 76 74 77 67 78 68 79
REMARK SMILES IDX 69 80 70 81 71 82 47 83 48 84 57 85 49 86 50 87 56 88 58 89
REMARK SMILES IDX 51 90 52 91 53 92 54 93 55 94
REMARK H PARENT 12 6 8 18 8 19 8 20 17 25 79 44 45 55
REMARK Flexibility Score: inf
ROOT
ATOM      1  C   UNL A   1      32.320  26.777  25.799  1.00  0.00     0.023 C 
ENDROOT
BRANCH   1   2
ATOM      2  C   UNL A   1      31.249  25.821  26.313  1.00  0.00     0.116 C 
BRANCH   2   3
ATOM      3  N   UNL A   1      31.866  24.761  27.085  1.00  0.00    -0.356 N 
ATOM      4  C   UNL A   1      31.605  23.425  27.058  1.00  0.00     0.226 C 
ATOM      5  O   UNL A   1      32.058  22.722  27.965  1.00  0.00    -0.275 OA
ATOM      6  H   UNL A   1      32.569  25.045  27.713  1.00  0.00     0.163 HD
BRANCH   4   7
ATOM      7  C   UNL A   1      30.816  22.804  25.924  1.00  0.00     0.170 C 
BRANCH   7   8
ATOM      8  C   UNL A   1      31.724  22.287  24.793  1.00  0.00     0.221 C 
BRANCH   8   9
ATOM      9  C   UNL A   1      32.267  23.381  23.886  1.00  0.00     0.010 A 
ATOM     10  C   UNL A   1      33.218  25.498  22.287  1.00  0.00     0.118 A 
ATOM     11  C   UNL A   1      34.097  24.791  23.106  1.00  0.00     0.047 A 
ATOM     12  C   UNL A   1      31.886  25.098  22.194  1.00  0.00     0.047 A 
ATOM     13  C   UNL A   1      33.626  23.742  23.901  1.00  0.00     0.014 A 
ATOM     14  C   UNL A   1      31.415  24.042  22.985  1.00  0.00     0.014 A 
BRANCH  10  15
ATOM     15  O   UNL A   1      33.746  26.557  21.603  1.00  0.00    -0.497 OA
ATOM     16  C   UNL A   1      33.852  27.750  22.380  1.00  0.00     0.278 C 
ENDBRANCH  10  15
ENDBRANCH   8   9
BRANCH   8  17
ATOM     17  N   UNL A   1      32.865  21.555  25.373  1.00  0.00    -0.351 N 
ATOM     18  H   UNL A   1      32.570  21.096  26.235  1.00  0.00     0.345 HD
ATOM     19  H   UNL A   1      33.619  22.209  25.578  1.00  0.00     0.345 HD
ATOM     20  H   UNL A   1      33.193  20.854  24.709  1.00  0.00     0.345 HD
ENDBRANCH   8  17
ENDBRANCH   7   8
ENDBRANCH   4   7
ENDBRANCH   2   3
ENDBRANCH   1   2
BRANCH   1  21
ATOM     21  C   UNL A   1      32.261  28.184  26.368  1.00  0.00     0.023 C 
BRANCH  21  22
ATOM     22  C   UNL A   1      33.450  28.549  27.243  1.00  0.00     0.116 C 
BRANCH  22  23
ATOM     23  N   UNL A   1      33.465  29.943  27.674  1.00  0.00    -0.352 N 
ATOM     24  C   UNL A   1      34.497  30.677  28.218  1.00  0.00     0.251 C 
ATOM     25  H   UNL A   1      32.615  30.428  27.562  1.00  0.00     0.163 HD
ATOM     26  O   UNL A   1      34.302  31.823  28.614  1.00  0.00    -0.269 OA
BRANCH  24  27
ATOM     27  C   UNL A   1      35.821  30.048  28.371  1.00  0.00     0.039 A 
ATOM     28  C   UNL A   1      36.723  30.092  27.306  1.00  0.00     0.014 A 
ATOM     29  C   UNL A   1      36.198  29.498  29.596  1.00  0.00     0.014 A 
ATOM     30  C   UNL A   1      38.041  29.674  27.504  1.00  0.00     0.010 A 
ATOM     31  C   UNL A   1      37.531  29.191  29.823  1.00  0.00     0.010 A 
ATOM     32  C   UNL A   1      38.466  29.272  28.780  1.00  0.00    -0.014 A 
BRANCH  32  33
ATOM     33  C   UNL A   1      39.874  28.901  29.067  1.00  0.00     0.031 A 
ATOM     34  C   UNL A   1      40.800  29.941  29.640  1.00  0.00     0.074 A 
ATOM     35  C   UNL A   1      40.349  27.691  28.708  1.00  0.00     0.049 A 
ATOM     36  N   UNL A   1      42.100  29.917  29.760  1.00  0.00    -0.248 NA
ATOM     37  C   UNL A   1      40.179  31.201  30.083  1.00  0.00     0.031 C 
ATOM     38  C   UNL A   1      39.566  26.617  28.090  1.00  0.00     0.029 A 
ATOM     39  N   UNL A   1      41.615  27.169  28.791  1.00  0.00    -0.354 N 
ATOM     40  C   UNL A   1      42.456  31.175  30.234  1.00  0.00     0.074 A 
ATOM     41  C   UNL A   1      41.240  31.951  30.335  1.00  0.00     0.031 C 
ATOM     42  C   UNL A   1      40.364  25.559  27.873  1.00  0.00     0.029 A 
ATOM     43  C   UNL A   1      41.721  25.891  28.295  1.00  0.00     0.049 A 
ATOM     44  H   UNL A   1      42.376  27.664  29.171  1.00  0.00     0.167 HD
ATOM     45  C   UNL A   1      43.683  31.634  30.576  1.00  0.00     0.037 A 
ATOM     46  C   UNL A   1      42.795  25.086  28.184  1.00  0.00     0.037 A 
ATOM     47  C   UNL A   1      44.872  30.828  30.552  1.00  0.00     0.049 A 
ATOM     48  C   UNL A   1      44.133  25.587  28.653  1.00  0.00     0.074 A 
ATOM     49  C   UNL A   1      46.151  31.165  30.955  1.00  0.00     0.029 A 
ATOM     50  N   UNL A   1      44.919  29.509  30.124  1.00  0.00    -0.354 N 
ATOM     51  N   UNL A   1      44.449  26.769  29.127  1.00  0.00    -0.248 NA
ATOM     52  C   UNL A   1      45.260  24.647  28.576  1.00  0.00     0.031 C 
ATOM     53  C   UNL A   1      46.977  30.052  30.758  1.00  0.00     0.029 A 
ATOM     54  C   UNL A   1      46.205  29.015  30.258  1.00  0.00     0.049 A 
ATOM     55  H   UNL A   1      44.152  29.000  29.775  1.00  0.00     0.167 HD
ATOM     56  C   UNL A   1      45.804  26.708  29.427  1.00  0.00     0.074 A 
ATOM     57  C   UNL A   1      46.247  25.370  29.090  1.00  0.00     0.031 C 
ATOM     58  C   UNL A   1      46.612  27.672  29.933  1.00  0.00     0.037 A 
BRANCH  45  59
ATOM     59  C   UNL A   1      43.784  33.065  31.024  1.00  0.00     0.058 A 
ATOM     60  C   UNL A   1      44.031  34.106  30.115  1.00  0.00     0.135 A 
ATOM     61  C   UNL A   1      43.638  33.401  32.380  1.00  0.00     0.135 A 
ATOM     62  F   UNL A   1      44.201  33.837  28.810  1.00  0.00    -0.206 F 
ATOM     63  C   UNL A   1      44.173  35.423  30.537  1.00  0.00     0.059 A 
ATOM     64  C   UNL A   1      43.746  34.716  32.822  1.00  0.00     0.059 A 
ATOM     65  F   UNL A   1      43.402  32.444  33.292  1.00  0.00    -0.206 F 
ATOM     66  C   UNL A   1      44.034  35.717  31.895  1.00  0.00     0.060 A 
BRANCH  66  67
ATOM     67  S   UNL A   1      44.232  37.429  32.433  1.00  0.00     0.124 S 
ATOM     68  O   UNL A   1      43.892  38.156  31.214  1.00  0.00    -0.237 OA
ATOM     69  O   UNL A   1      43.265  37.532  33.521  1.00  0.00    -0.237 OA
ATOM     70  O   UNL A   1      45.634  37.495  32.835  1.00  0.00    -0.744 OA
ENDBRANCH  66  67
ENDBRANCH  45  59
BRANCH  46  71
ATOM     71  C   UNL A   1      42.642  23.710  27.643  1.00  0.00     0.058 A 
ATOM     72  C   UNL A   1      42.462  22.620  28.507  1.00  0.00     0.135 A 
ATOM     73  C   UNL A   1      42.656  23.457  26.263  1.00  0.00     0.135 A 
ATOM     74  F   UNL A   1      42.446  22.812  29.835  1.00  0.00    -0.206 F 
ATOM     75  C   UNL A   1      42.315  21.323  28.024  1.00  0.00     0.059 A 
ATOM     76  C   UNL A   1      42.490  22.171  25.756  1.00  0.00     0.059 A 
ATOM     77  F   UNL A   1      42.807  24.469  25.396  1.00  0.00    -0.206 F 
ATOM     78  C   UNL A   1      42.329  21.109  26.645  1.00  0.00     0.060 A 
BRANCH  78  79
ATOM     79  S   UNL A   1      42.085  19.430  26.025  1.00  0.00     0.124 S 
ATOM     80  O   UNL A   1      40.639  19.394  25.843  1.00  0.00    -0.237 OA
ATOM     81  O   UNL A   1      42.883  19.433  24.803  1.00  0.00    -0.237 OA
ATOM     82  O   UNL A   1      42.609  18.598  27.103  1.00  0.00    -0.744 OA
ENDBRANCH  78  79
ENDBRANCH  46  71
BRANCH  58  83
ATOM     83  C   UNL A   1      48.044  27.303  30.191  1.00  0.00     0.058 A 
ATOM     84  C   UNL A   1      49.020  27.408  29.189  1.00  0.00     0.135 A 
ATOM     85  C   UNL A   1      48.451  26.899  31.471  1.00  0.00     0.135 A 
ATOM     86  F   UNL A   1      48.677  27.786  27.948  1.00  0.00    -0.206 F 
ATOM     87  C   UNL A   1      50.353  27.109  29.446  1.00  0.00     0.059 A 
ATOM     88  C   UNL A   1      49.782  26.614  31.756  1.00  0.00     0.059 A 
ATOM     89  F   UNL A   1      47.554  26.793  32.464  1.00  0.00    -0.206 F 
ATOM     90  C   UNL A   1      50.724  26.713  30.731  1.00  0.00     0.060 A 
BRANCH  90  91
ATOM     91  S   UNL A   1      52.465  26.367  31.066  1.00  0.00     0.124 S 
ATOM     92  O   UNL A   1      53.020  26.330  29.716  1.00  0.00    -0.237 OA
ATOM     93  O   UNL A   1      52.862  27.508  31.884  1.00  0.00    -0.237 OA
ATOM     94  O   UNL A   1      52.426  25.086  31.765  1.00  0.00    -0.744 OA
ENDBRANCH  90  91
ENDBRANCH  58  83
ENDBRANCH  32  33
ENDBRANCH  24  27
ENDBRANCH  22  23
ENDBRANCH  21  22
ENDBRANCH   1  21
TORSDOF 18
ENDMDL
MODEL 3
REMARK VINA RESULT:     -10.3      1.499      2.317
REMARK SMILES COc1ccc([C@@H]([NH3+])CC(=O)NCCCCNC(=O)c2ccc(-c3c4nc(c(-c5c(F)cc(S(=O)(=O)[O-])cc5F)c5ccc([nH]5)c(-c5c(F)cc(S(=O)(=O)[O-])cc5F)c5nc(c(-c6c(F)cc(S(=O)(=O)[O-])cc6F)c6ccc3[nH]6)C=C5)C=C4)cc2)cc1
REMARK SMILES IDX 14 1 13 2 12 3 10 4 11 5 9 7 7 8 6 9 3 10 4 11 87 12 5 13
REMARK SMILES IDX 86 14 2 15 1 16 8 17 15 21 16 22 17 23 18 24 19 26 20 27
REMARK SMILES IDX 21 28 85 29 22 30 84 31 23 32 24 33 25 34 78 35 26 36 83 37
REMARK SMILES IDX 77 38 79 39 27 40 82 41 76 42 75 43 28 45 62 46 41 47 61 48
REMARK SMILES IDX 42 49 45 50 60 51 80 52 43 53 44 54 59 56 81 57 46 58 29 59
REMARK SMILES IDX 30 60 39 61 31 62 32 63 38 64 40 65 33 66 34 67 35 68 36 69
REMARK SMILES IDX 37 70 63 71 64 72 73 73 65 74 66 75 72 76 74 77 67 78 68 79
REMARK SMILES IDX 69 80 70 81 71 82 47 83 48 84 57 85 49 86 50 87 56 88 58 89
REMARK SMILES IDX 51 90 52 91 53 92 54 93 55 94
REMARK H PARENT 12 6 8 18 8 19 8 20 17 25 79 44 45 55
REMARK Flexibility Score: inf
ROOT
ATOM      1  C   UNL A   1      33.324  28.850  24.422  1.00  0.00     0.023 C 
ENDROOT
BRANCH   1   2
ATOM      2  C   UNL A   1      32.799  27.957  23.302  1.00  0.00     0.116 C 
BRANCH   2   3
ATOM      3  N   UNL A   1      31.839  28.688  22.500  1.00  0.00    -0.356 N 
ATOM      4  C   UNL A   1      30.479  28.656  22.558  1.00  0.00     0.226 C 
ATOM      5  O   UNL A   1      29.841  29.156  21.629  1.00  0.00    -0.275 OA
ATOM      6  H   UNL A   1      32.222  29.289  21.821  1.00  0.00     0.163 HD
BRANCH   4   7
ATOM      7  C   UNL A   1      29.762  28.059  23.752  1.00  0.00     0.170 C 
BRANCH   7   8
ATOM      8  C   UNL A   1      29.304  26.611  23.496  1.00  0.00     0.221 C 
BRANCH   8   9
ATOM      9  C   UNL A   1      30.135  25.562  24.221  1.00  0.00     0.010 A 
ATOM     10  C   UNL A   1      31.782  23.682  25.521  1.00  0.00     0.118 A 
ATOM     11  C   UNL A   1      31.116  24.657  26.261  1.00  0.00     0.047 A 
ATOM     12  C   UNL A   1      31.561  23.584  24.148  1.00  0.00     0.047 A 
ATOM     13  C   UNL A   1      30.300  25.592  25.617  1.00  0.00     0.014 A 
ATOM     14  C   UNL A   1      30.738  24.515  23.503  1.00  0.00     0.014 A 
BRANCH  10  15
ATOM     15  O   UNL A   1      32.619  22.857  26.220  1.00  0.00    -0.497 OA
ATOM     16  C   UNL A   1      33.874  23.454  26.548  1.00  0.00     0.278 C 
ENDBRANCH  10  15
ENDBRANCH   8   9
BRANCH   8  17
ATOM     17  N   UNL A   1      27.898  26.458  23.909  1.00  0.00    -0.351 N 
ATOM     18  H   UNL A   1      27.861  26.140  24.877  1.00  0.00     0.345 HD
ATOM     19  H   UNL A   1      27.440  25.773  23.308  1.00  0.00     0.345 HD
ATOM     20  H   UNL A   1      27.420  27.355  23.826  1.00  0.00     0.345 HD
ENDBRANCH   8  17
ENDBRANCH   7   8
ENDBRANCH   4   7
ENDBRANCH   2   3
ENDBRANCH   1   2
BRANCH   1  21
ATOM     21  C   UNL A   1      32.691  28.622  25.784  1.00  0.00     0.023 C 
BRANCH  21  22
ATOM     22  C   UNL A   1      33.658  28.769  26.949  1.00  0.00     0.116 C 
BRANCH  22  23
ATOM     23  N   UNL A   1      33.629  30.083  27.583  1.00  0.00    -0.352 N 
ATOM     24  C   UNL A   1      34.615  30.730  28.295  1.00  0.00     0.251 C 
ATOM     25  H   UNL A   1      32.782  30.578  27.489  1.00  0.00     0.163 HD
ATOM     26  O   UNL A   1      34.382  31.803  28.844  1.00  0.00    -0.269 OA
BRANCH  24  27
ATOM     27  C   UNL A   1      35.935  30.089  28.438  1.00  0.00     0.039 A 
ATOM     28  C   UNL A   1      36.840  30.149  27.376  1.00  0.00     0.014 A 
ATOM     29  C   UNL A   1      36.304  29.508  29.651  1.00  0.00     0.014 A 
ATOM     30  C   UNL A   1      38.154  29.718  27.568  1.00  0.00     0.010 A 
ATOM     31  C   UNL A   1      37.634  29.187  29.874  1.00  0.00     0.010 A 
ATOM     32  C   UNL A   1      38.573  29.285  28.836  1.00  0.00    -0.014 A 
BRANCH  32  33
ATOM     33  C   UNL A   1      39.978  28.897  29.119  1.00  0.00     0.031 A 
ATOM     34  C   UNL A   1      40.918  29.928  29.686  1.00  0.00     0.074 A 
ATOM     35  C   UNL A   1      40.437  27.682  28.759  1.00  0.00     0.049 A 
ATOM     36  N   UNL A   1      42.218  29.889  29.801  1.00  0.00    -0.248 NA
ATOM     37  C   UNL A   1      40.314  31.195  30.129  1.00  0.00     0.031 C 
ATOM     38  C   UNL A   1      39.639  26.616  28.146  1.00  0.00     0.029 A 
ATOM     39  N   UNL A   1      41.697  27.145  28.839  1.00  0.00    -0.354 N 
ATOM     40  C   UNL A   1      42.591  31.143  30.272  1.00  0.00     0.074 A 
ATOM     41  C   UNL A   1      41.384  31.933  30.376  1.00  0.00     0.031 C 
ATOM     42  C   UNL A   1      40.424  25.548  27.928  1.00  0.00     0.029 A 
ATOM     43  C   UNL A   1      41.786  25.865  28.344  1.00  0.00     0.049 A 
ATOM     44  H   UNL A   1      42.466  27.631  29.215  1.00  0.00     0.167 HD
ATOM     45  C   UNL A   1      43.824  31.588  30.609  1.00  0.00     0.037 A 
ATOM     46  C   UNL A   1      42.850  25.047  28.231  1.00  0.00     0.037 A 
ATOM     47  C   UNL A   1      45.003  30.768  30.582  1.00  0.00     0.049 A 
ATOM     48  C   UNL A   1      44.196  25.533  28.693  1.00  0.00     0.074 A 
ATOM     49  C   UNL A   1      46.288  31.091  30.979  1.00  0.00     0.029 A 
ATOM     50  N   UNL A   1      45.034  29.447  30.155  1.00  0.00    -0.354 N 
ATOM     51  N   UNL A   1      44.527  26.712  29.165  1.00  0.00    -0.248 NA
ATOM     52  C   UNL A   1      45.311  24.580  28.614  1.00  0.00     0.031 C 
ATOM     53  C   UNL A   1      47.100  29.967  30.781  1.00  0.00     0.029 A 
ATOM     54  C   UNL A   1      46.314  28.939  30.286  1.00  0.00     0.049 A 
ATOM     55  H   UNL A   1      44.259  28.947  29.811  1.00  0.00     0.167 HD
ATOM     56  C   UNL A   1      45.883  26.636  29.459  1.00  0.00     0.074 A 
ATOM     57  C   UNL A   1      46.308  25.292  29.123  1.00  0.00     0.031 C 
ATOM     58  C   UNL A   1      46.704  27.591  29.961  1.00  0.00     0.037 A 
BRANCH  45  59
ATOM     59  C   UNL A   1      43.944  33.018  31.054  1.00  0.00     0.058 A 
ATOM     60  C   UNL A   1      44.007  33.363  32.414  1.00  0.00     0.135 A 
ATOM     61  C   UNL A   1      43.992  34.058  30.112  1.00  0.00     0.135 A 
ATOM     62  F   UNL A   1      43.943  32.410  33.357  1.00  0.00    -0.206 F 
ATOM     63  C   UNL A   1      44.070  34.690  32.826  1.00  0.00     0.059 A 
ATOM     64  C   UNL A   1      44.085  35.391  30.500  1.00  0.00     0.059 A 
ATOM     65  F   UNL A   1      43.935  33.783  28.799  1.00  0.00    -0.206 F 
ATOM     66  C   UNL A   1      44.102  35.698  31.860  1.00  0.00     0.060 A 
BRANCH  66  67
ATOM     67  S   UNL A   1      44.171  37.417  32.406  1.00  0.00     0.124 S 
ATOM     68  O   UNL A   1      43.063  37.463  33.355  1.00  0.00    -0.237 OA
ATOM     69  O   UNL A   1      45.507  37.511  32.987  1.00  0.00    -0.237 OA
ATOM     70  O   UNL A   1      43.974  38.171  31.172  1.00  0.00    -0.744 OA
ENDBRANCH  66  67
ENDBRANCH  45  59
BRANCH  46  71
ATOM     71  C   UNL A   1      42.679  23.672  27.693  1.00  0.00     0.058 A 
ATOM     72  C   UNL A   1      42.723  23.436  26.311  1.00  0.00     0.135 A 
ATOM     73  C   UNL A   1      42.486  22.570  28.539  1.00  0.00     0.135 A 
ATOM     74  F   UNL A   1      42.902  24.459  25.461  1.00  0.00    -0.206 F 
ATOM     75  C   UNL A   1      42.568  22.158  25.784  1.00  0.00     0.059 A 
ATOM     76  C   UNL A   1      42.349  21.279  28.037  1.00  0.00     0.059 A 
ATOM     77  F   UNL A   1      42.455  22.742  29.870  1.00  0.00    -0.206 F 
ATOM     78  C   UNL A   1      42.382  21.085  26.656  1.00  0.00     0.060 A 
BRANCH  78  79
ATOM     79  S   UNL A   1      42.235  19.422  25.966  1.00  0.00     0.124 S 
ATOM     80  O   UNL A   1      42.794  18.609  27.040  1.00  0.00    -0.237 OA
ATOM     81  O   UNL A   1      40.795  19.300  25.756  1.00  0.00    -0.237 OA
ATOM     82  O   UNL A   1      43.032  19.495  24.746  1.00  0.00    -0.744 OA
ENDBRANCH  78  79
ENDBRANCH  46  71
BRANCH  58  83
ATOM     83  C   UNL A   1      48.133  27.205  30.214  1.00  0.00     0.058 A 
ATOM     84  C   UNL A   1      49.132  27.426  29.255  1.00  0.00     0.135 A 
ATOM     85  C   UNL A   1      48.511  26.665  31.453  1.00  0.00     0.135 A 
ATOM     86  F   UNL A   1      48.817  27.935  28.054  1.00  0.00    -0.206 F 
ATOM     87  C   UNL A   1      50.461  27.109  29.512  1.00  0.00     0.059 A 
ATOM     88  C   UNL A   1      49.837  26.360  31.739  1.00  0.00     0.059 A 
ATOM     89  F   UNL A   1      47.590  26.445  32.405  1.00  0.00    -0.206 F 
ATOM     90  C   UNL A   1      50.804  26.577  30.756  1.00  0.00     0.060 A 
BRANCH  90  91
ATOM     91  S   UNL A   1      52.538  26.208  31.095  1.00  0.00     0.124 S 
ATOM     92  O   UNL A   1      52.434  24.934  31.801  1.00  0.00    -0.237 OA
ATOM     93  O   UNL A   1      53.115  26.146  29.756  1.00  0.00    -0.237 OA
ATOM     94  O   UNL A   1      52.973  27.342  31.905  1.00  0.00    -0.744 OA
ENDBRANCH  90  91
ENDBRANCH  58  83
ENDBRANCH  32  33
ENDBRANCH  24  27
ENDBRANCH  22  23
ENDBRANCH  21  22
ENDBRANCH   1  21
TORSDOF 18
ENDMDL
