MODEL 1
REMARK VINA RESULT:     -11.7      0.000      0.000
REMARK SMILES O=C(CCOc1cc(-c2ccncc2)nc(-c2ccc(C(F)(F)F)cc2)n1)NCCCCNC(=O)c1ccc(-c2c3nc(c(-c4c(F)cc(S(=O)(=O)[O-])cc4F)c4ccc([nH]4)c(-c4c(F)cc(S(=O)(=O)[O-])cc4F)c4nc(c(-c5c(F)cc(S(=O)(=O)[O-])cc5F)c5ccc2[nH]5)C=C4)C=C3)cc1
REMARK SMILES IDX 29 1 28 2 1 3 2 4 3 6 4 7 5 8 6 9 7 10 27 11 8 12 16 13
REMARK SMILES IDX 15 14 9 15 10 16 14 17 11 18 13 19 12 20 17 21 18 22 26 23
REMARK SMILES IDX 19 24 25 25 20 26 21 27 22 28 23 29 24 30 30 31 31 32 32 33
REMARK SMILES IDX 33 34 34 35 35 37 36 38 37 39 101 40 38 41 100 42 39 43
REMARK SMILES IDX 40 44 41 45 94 46 42 47 99 48 93 49 95 50 43 51 98 52 92 53
REMARK SMILES IDX 91 54 44 56 78 57 57 58 77 59 58 60 61 61 76 62 96 63 59 64
REMARK SMILES IDX 60 65 75 67 97 68 62 69 45 70 46 71 55 72 47 73 48 74 54 75
REMARK SMILES IDX 56 76 49 77 50 78 51 79 52 80 53 81 79 82 80 83 89 84 81 85
REMARK SMILES IDX 82 86 88 87 90 88 83 89 84 90 85 91 86 92 87 93 63 94 64 95
REMARK SMILES IDX 73 96 65 97 66 98 72 99 74 100 67 101 68 102 69 103 70 104
REMARK SMILES IDX 71 105
REMARK H PARENT 28 5 33 36 95 55 61 66
REMARK Flexibility Score: inf
ROOT
ATOM      1  C   UNL A   1      42.246  20.850  25.993  1.00  0.00     0.116 C 
ENDROOT
BRANCH   1   2
ATOM      2  N   UNL A   1      41.098  21.728  25.939  1.00  0.00    -0.356 N 
ATOM      3  O   UNL A   1      40.515  21.447  28.146  1.00  0.00    -0.275 OA
ATOM      4  C   UNL A   1      40.367  22.023  27.069  1.00  0.00     0.223 C 
ATOM      5  H   UNL A   1      40.834  22.123  25.077  1.00  0.00     0.163 HD
BRANCH   4   6
ATOM      6  C   UNL A   1      39.475  23.233  26.938  1.00  0.00     0.141 C 
BRANCH   6   7
ATOM      7  C   UNL A   1      38.502  23.021  25.776  1.00  0.00     0.241 C 
BRANCH   7   8
ATOM      8  O   UNL A   1      38.004  21.680  25.762  1.00  0.00    -0.477 OA
BRANCH   8   9
ATOM      9  C   UNL A   1      36.730  21.510  25.287  1.00  0.00     0.217 A 
ATOM     10  C   UNL A   1      36.190  20.275  25.023  1.00  0.00     0.097 A 
ATOM     11  N   UNL A   1      35.993  22.627  25.290  1.00  0.00    -0.193 NA
ATOM     12  C   UNL A   1      34.827  20.212  24.826  1.00  0.00     0.078 A 
ATOM     13  C   UNL A   1      34.679  22.483  25.036  1.00  0.00     0.163 A 
ATOM     14  N   UNL A   1      34.051  21.309  24.826  1.00  0.00    -0.228 NA
BRANCH  12  15
ATOM     15  C   UNL A   1      34.166  18.911  24.679  1.00  0.00     0.003 A 
ATOM     16  C   UNL A   1      32.827  18.736  25.047  1.00  0.00     0.030 A 
ATOM     17  C   UNL A   1      34.871  17.781  24.269  1.00  0.00     0.030 A 
ATOM     18  C   UNL A   1      32.262  17.473  25.014  1.00  0.00     0.111 A 
ATOM     19  C   UNL A   1      34.224  16.553  24.274  1.00  0.00     0.111 A 
ATOM     20  N   UNL A   1      32.938  16.372  24.645  1.00  0.00    -0.265 NA
ENDBRANCH  12  15
BRANCH  13  21
ATOM     21  C   UNL A   1      33.868  23.706  25.039  1.00  0.00     0.019 A 
ATOM     22  C   UNL A   1      33.440  24.297  23.837  1.00  0.00     0.012 A 
ATOM     23  C   UNL A   1      33.510  24.336  26.242  1.00  0.00     0.012 A 
ATOM     24  C   UNL A   1      32.685  25.474  23.837  1.00  0.00     0.014 A 
ATOM     25  C   UNL A   1      32.778  25.528  26.246  1.00  0.00     0.014 A 
ATOM     26  C   UNL A   1      32.360  26.111  25.042  1.00  0.00     0.056 A 
BRANCH  26  27
ATOM     27  C   UNL A   1      31.535  27.378  25.043  1.00  0.00     0.416 C 
ATOM     28  F   UNL A   1      31.209  27.794  26.296  1.00  0.00    -0.166 F 
ATOM     29  F   UNL A   1      32.199  28.415  24.461  1.00  0.00    -0.166 F 
ATOM     30  F   UNL A   1      30.362  27.249  24.366  1.00  0.00    -0.166 F 
ENDBRANCH  26  27
ENDBRANCH  13  21
ENDBRANCH   8   9
ENDBRANCH   7   8
ENDBRANCH   6   7
ENDBRANCH   4   6
ENDBRANCH   1   2
BRANCH   1  31
ATOM     31  C   UNL A   1      43.617  21.517  25.830  1.00  0.00     0.023 C 
BRANCH  31  32
ATOM     32  C   UNL A   1      44.015  22.699  26.723  1.00  0.00     0.023 C 
BRANCH  32  33
ATOM     33  C   UNL A   1      44.156  24.106  26.135  1.00  0.00     0.116 C 
BRANCH  33  34
ATOM     34  N   UNL A   1      42.958  24.667  25.534  1.00  0.00    -0.352 N 
ATOM     35  C   UNL A   1      42.134  25.708  25.892  1.00  0.00     0.251 C 
ATOM     36  H   UNL A   1      42.682  24.212  24.704  1.00  0.00     0.163 HD
ATOM     37  O   UNL A   1      41.257  26.053  25.101  1.00  0.00    -0.269 OA
BRANCH  35  38
ATOM     38  C   UNL A   1      42.195  26.352  27.224  1.00  0.00     0.039 A 
ATOM     39  C   UNL A   1      43.072  27.436  27.373  1.00  0.00     0.014 A 
ATOM     40  C   UNL A   1      41.413  25.948  28.307  1.00  0.00     0.014 A 
ATOM     41  C   UNL A   1      43.064  28.195  28.545  1.00  0.00     0.010 A 
ATOM     42  C   UNL A   1      41.362  26.738  29.456  1.00  0.00     0.010 A 
ATOM     43  C   UNL A   1      42.152  27.892  29.564  1.00  0.00    -0.014 A 
BRANCH  43  44
ATOM     44  C   UNL A   1      41.906  28.834  30.684  1.00  0.00     0.031 A 
ATOM     45  C   UNL A   1      42.691  28.738  31.958  1.00  0.00     0.074 A 
ATOM     46  C   UNL A   1      40.870  29.692  30.580  1.00  0.00     0.049 A 
ATOM     47  N   UNL A   1      42.515  29.382  33.082  1.00  0.00    -0.248 NA
ATOM     48  C   UNL A   1      43.803  27.776  31.978  1.00  0.00     0.031 C 
ATOM     49  C   UNL A   1      40.001  29.828  29.407  1.00  0.00     0.029 A 
ATOM     50  N   UNL A   1      40.346  30.583  31.482  1.00  0.00    -0.354 N 
ATOM     51  C   UNL A   1      43.487  28.901  33.951  1.00  0.00     0.074 A 
ATOM     52  C   UNL A   1      44.226  27.883  33.231  1.00  0.00     0.031 C 
ATOM     53  C   UNL A   1      39.047  30.735  29.666  1.00  0.00     0.029 A 
ATOM     54  C   UNL A   1      39.215  31.221  31.030  1.00  0.00     0.049 A 
ATOM     55  H   UNL A   1      40.742  30.748  32.368  1.00  0.00     0.167 HD
ATOM     56  C   UNL A   1      43.743  29.285  35.225  1.00  0.00     0.037 A 
ATOM     57  C   UNL A   1      38.390  32.087  31.649  1.00  0.00     0.037 A 
ATOM     58  C   UNL A   1      42.998  30.300  35.926  1.00  0.00     0.049 A 
ATOM     59  C   UNL A   1      38.698  32.502  33.060  1.00  0.00     0.074 A 
ATOM     60  C   UNL A   1      43.209  30.798  37.200  1.00  0.00     0.029 A 
ATOM     61  N   UNL A   1      41.893  30.967  35.416  1.00  0.00    -0.354 N 
ATOM     62  N   UNL A   1      39.663  32.086  33.845  1.00  0.00    -0.248 NA
ATOM     63  C   UNL A   1      37.818  33.510  33.665  1.00  0.00     0.031 C 
ATOM     64  C   UNL A   1      42.211  31.742  37.473  1.00  0.00     0.029 A 
ATOM     65  C   UNL A   1      41.403  31.863  36.353  1.00  0.00     0.049 A 
ATOM     66  H   UNL A   1      41.513  30.827  34.519  1.00  0.00     0.167 HD
ATOM     67  C   UNL A   1      39.522  32.799  35.029  1.00  0.00     0.074 A 
ATOM     68  C   UNL A   1      38.383  33.679  34.852  1.00  0.00     0.031 C 
ATOM     69  C   UNL A   1      40.269  32.733  36.158  1.00  0.00     0.037 A 
BRANCH  56  70
ATOM     70  C   UNL A   1      44.879  28.606  35.940  1.00  0.00     0.058 A 
ATOM     71  C   UNL A   1      46.189  29.109  35.878  1.00  0.00     0.135 A 
ATOM     72  C   UNL A   1      44.654  27.465  36.728  1.00  0.00     0.135 A 
ATOM     73  F   UNL A   1      46.463  30.191  35.132  1.00  0.00    -0.206 F 
ATOM     74  C   UNL A   1      47.240  28.490  36.549  1.00  0.00     0.059 A 
ATOM     75  C   UNL A   1      45.687  26.845  37.427  1.00  0.00     0.059 A 
ATOM     76  F   UNL A   1      43.422  26.942  36.824  1.00  0.00    -0.206 F 
ATOM     77  C   UNL A   1      46.979  27.357  37.320  1.00  0.00     0.060 A 
BRANCH  77  78
ATOM     78  S   UNL A   1      48.351  26.572  38.194  1.00  0.00     0.124 S 
ATOM     79  O   UNL A   1      48.466  27.417  39.377  1.00  0.00    -0.237 OA
ATOM     80  O   UNL A   1      47.843  25.223  38.427  1.00  0.00    -0.237 OA
ATOM     81  O   UNL A   1      49.456  26.665  37.244  1.00  0.00    -0.744 OA
ENDBRANCH  77  78
ENDBRANCH  56  70
BRANCH  57  82
ATOM     82  C   UNL A   1      37.212  32.631  30.926  1.00  0.00     0.058 A 
ATOM     83  C   UNL A   1      37.329  33.766  30.111  1.00  0.00     0.135 A 
ATOM     84  C   UNL A   1      35.958  32.004  31.000  1.00  0.00     0.135 A 
ATOM     85  F   UNL A   1      38.507  34.399  30.011  1.00  0.00    -0.206 F 
ATOM     86  C   UNL A   1      36.243  34.269  29.403  1.00  0.00     0.059 A 
ATOM     87  C   UNL A   1      34.862  32.476  30.285  1.00  0.00     0.059 A 
ATOM     88  F   UNL A   1      35.799  30.902  31.750  1.00  0.00    -0.206 F 
ATOM     89  C   UNL A   1      35.013  33.615  29.493  1.00  0.00     0.060 A 
BRANCH  89  90
ATOM     90  S   UNL A   1      33.625  34.238  28.520  1.00  0.00     0.124 S 
ATOM     91  O   UNL A   1      33.187  33.032  27.828  1.00  0.00    -0.237 OA
ATOM     92  O   UNL A   1      32.728  34.745  29.553  1.00  0.00    -0.237 OA
ATOM     93  O   UNL A   1      34.241  35.261  27.678  1.00  0.00    -0.744 OA
ENDBRANCH  89  90
ENDBRANCH  57  82
BRANCH  69  94
ATOM     94  C   UNL A   1      39.897  33.662  37.279  1.00  0.00     0.058 A 
ATOM     95  C   UNL A   1      38.943  33.304  38.244  1.00  0.00     0.135 A 
ATOM     96  C   UNL A   1      40.532  34.907  37.409  1.00  0.00     0.135 A 
ATOM     97  F   UNL A   1      38.301  32.129  38.157  1.00  0.00    -0.206 F 
ATOM     98  C   UNL A   1      38.616  34.160  39.290  1.00  0.00     0.059 A 
ATOM     99  C   UNL A   1      40.237  35.769  38.460  1.00  0.00     0.059 A 
ATOM    100  F   UNL A   1      41.457  35.292  36.515  1.00  0.00    -0.206 F 
ATOM    101  C   UNL A   1      39.268  35.391  39.389  1.00  0.00     0.060 A 
BRANCH 101 102
ATOM    102  S   UNL A   1      38.856  36.482  40.769  1.00  0.00     0.124 S 
ATOM    103  O   UNL A   1      37.817  35.715  41.447  1.00  0.00    -0.237 OA
ATOM    104  O   UNL A   1      40.129  36.589  41.475  1.00  0.00    -0.237 OA
ATOM    105  O   UNL A   1      38.407  37.705  40.110  1.00  0.00    -0.744 OA
ENDBRANCH 101 102
ENDBRANCH  69  94
ENDBRANCH  43  44
ENDBRANCH  35  38
ENDBRANCH  33  34
ENDBRANCH  32  33
ENDBRANCH  31  32
ENDBRANCH   1  31
TORSDOF 20
ENDMDL
MODEL 2
REMARK VINA RESULT:     -11.7      0.573      7.969
REMARK SMILES O=C(CCOc1cc(-c2ccncc2)nc(-c2ccc(C(F)(F)F)cc2)n1)NCCCCNC(=O)c1ccc(-c2c3nc(c(-c4c(F)cc(S(=O)(=O)[O-])cc4F)c4ccc([nH]4)c(-c4c(F)cc(S(=O)(=O)[O-])cc4F)c4nc(c(-c5c(F)cc(S(=O)(=O)[O-])cc5F)c5ccc2[nH]5)C=C4)C=C3)cc1
REMARK SMILES IDX 29 1 28 2 1 3 2 4 3 6 4 7 5 8 6 9 7 10 27 11 8 12 16 13
REMARK SMILES IDX 15 14 9 15 10 16 14 17 11 18 13 19 12 20 17 21 18 22 26 23
REMARK SMILES IDX 19 24 25 25 20 26 21 27 22 28 23 29 24 30 30 31 31 32 32 33
REMARK SMILES IDX 33 34 34 35 35 37 36 38 37 39 101 40 38 41 100 42 39 43
REMARK SMILES IDX 40 44 41 45 94 46 42 47 99 48 93 49 95 50 43 51 98 52 92 53
REMARK SMILES IDX 91 54 44 56 78 57 57 58 77 59 58 60 61 61 76 62 96 63 59 64
REMARK SMILES IDX 60 65 75 67 97 68 62 69 45 70 46 71 55 72 47 73 48 74 54 75
REMARK SMILES IDX 56 76 49 77 50 78 51 79 52 80 53 81 79 82 80 83 89 84 81 85
REMARK SMILES IDX 82 86 88 87 90 88 83 89 84 90 85 91 86 92 87 93 63 94 64 95
REMARK SMILES IDX 73 96 65 97 66 98 72 99 74 100 67 101 68 102 69 103 70 104
REMARK SMILES IDX 71 105
REMARK H PARENT 28 5 33 36 95 55 61 66
REMARK Flexibility Score: inf
ROOT
ATOM      1  C   UNL A   1      42.267  20.968  25.937  1.00  0.00     0.116 C 
ENDROOT
BRANCH   1   2
ATOM      2  N   UNL A   1      41.064  21.769  25.912  1.00  0.00    -0.356 N 
ATOM      3  O   UNL A   1      40.886  21.951  28.198  1.00  0.00    -0.275 OA
ATOM      4  C   UNL A   1      40.515  22.274  27.071  1.00  0.00     0.223 C 
ATOM      5  H   UNL A   1      40.628  21.958  25.050  1.00  0.00     0.163 HD
BRANCH   4   6
ATOM      6  C   UNL A   1      39.524  23.392  26.858  1.00  0.00     0.141 C 
BRANCH   6   7
ATOM      7  C   UNL A   1      38.621  23.050  25.671  1.00  0.00     0.241 C 
BRANCH   7   8
ATOM      8  O   UNL A   1      38.092  21.726  25.794  1.00  0.00    -0.477 OA
BRANCH   8   9
ATOM      9  C   UNL A   1      36.781  21.560  25.430  1.00  0.00     0.217 A 
ATOM     10  C   UNL A   1      36.254  20.343  25.074  1.00  0.00     0.097 A 
ATOM     11  N   UNL A   1      36.016  22.638  25.639  1.00  0.00    -0.193 NA
ATOM     12  C   UNL A   1      34.880  20.247  25.006  1.00  0.00     0.078 A 
ATOM     13  C   UNL A   1      34.687  22.470  25.500  1.00  0.00     0.163 A 
ATOM     14  N   UNL A   1      34.076  21.303  25.214  1.00  0.00    -0.228 NA
BRANCH  12  15
ATOM     15  C   UNL A   1      34.246  18.945  24.770  1.00  0.00     0.003 A 
ATOM     16  C   UNL A   1      32.931  18.699  25.179  1.00  0.00     0.030 A 
ATOM     17  C   UNL A   1      34.961  17.878  24.228  1.00  0.00     0.030 A 
ATOM     18  C   UNL A   1      32.397  17.428  25.055  1.00  0.00     0.111 A 
ATOM     19  C   UNL A   1      34.346  16.636  24.150  1.00  0.00     0.111 A 
ATOM     20  N   UNL A   1      33.083  16.384  24.558  1.00  0.00    -0.265 NA
ENDBRANCH  12  15
BRANCH  13  21
ATOM     21  C   UNL A   1      33.845  23.649  25.730  1.00  0.00     0.019 A 
ATOM     22  C   UNL A   1      34.361  24.949  25.584  1.00  0.00     0.012 A 
ATOM     23  C   UNL A   1      32.504  23.517  26.123  1.00  0.00     0.012 A 
ATOM     24  C   UNL A   1      33.567  26.075  25.823  1.00  0.00     0.014 A 
ATOM     25  C   UNL A   1      31.713  24.640  26.389  1.00  0.00     0.014 A 
ATOM     26  C   UNL A   1      32.238  25.931  26.244  1.00  0.00     0.056 A 
BRANCH  26  27
ATOM     27  C   UNL A   1      31.376  27.148  26.493  1.00  0.00     0.416 C 
ATOM     28  F   UNL A   1      31.499  28.090  25.520  1.00  0.00    -0.166 F 
ATOM     29  F   UNL A   1      30.052  26.829  26.546  1.00  0.00    -0.166 F 
ATOM     30  F   UNL A   1      31.663  27.772  27.668  1.00  0.00    -0.166 F 
ENDBRANCH  26  27
ENDBRANCH  13  21
ENDBRANCH   8   9
ENDBRANCH   7   8
ENDBRANCH   6   7
ENDBRANCH   4   6
ENDBRANCH   1   2
BRANCH   1  31
ATOM     31  C   UNL A   1      43.584  21.716  25.696  1.00  0.00     0.023 C 
BRANCH  31  32
ATOM     32  C   UNL A   1      44.049  22.802  26.676  1.00  0.00     0.023 C 
BRANCH  32  33
ATOM     33  C   UNL A   1      44.302  24.232  26.190  1.00  0.00     0.116 C 
BRANCH  33  34
ATOM     34  N   UNL A   1      43.187  24.885  25.524  1.00  0.00    -0.352 N 
ATOM     35  C   UNL A   1      42.363  25.923  25.887  1.00  0.00     0.251 C 
ATOM     36  H   UNL A   1      42.982  24.509  24.637  1.00  0.00     0.163 HD
ATOM     37  O   UNL A   1      41.580  26.364  25.047  1.00  0.00    -0.269 OA
BRANCH  35  38
ATOM     38  C   UNL A   1      42.310  26.455  27.268  1.00  0.00     0.039 A 
ATOM     39  C   UNL A   1      42.994  27.653  27.522  1.00  0.00     0.014 A 
ATOM     40  C   UNL A   1      41.600  25.839  28.300  1.00  0.00     0.014 A 
ATOM     41  C   UNL A   1      42.855  28.300  28.751  1.00  0.00     0.010 A 
ATOM     42  C   UNL A   1      41.414  26.510  29.508  1.00  0.00     0.010 A 
ATOM     43  C   UNL A   1      42.001  27.766  29.725  1.00  0.00    -0.014 A 
BRANCH  43  44
ATOM     44  C   UNL A   1      41.597  28.558  30.913  1.00  0.00     0.031 A 
ATOM     45  C   UNL A   1      40.445  29.517  30.844  1.00  0.00     0.074 A 
ATOM     46  C   UNL A   1      42.371  28.494  32.015  1.00  0.00     0.049 A 
ATOM     47  N   UNL A   1      40.045  30.385  31.736  1.00  0.00    -0.248 NA
ATOM     48  C   UNL A   1      39.657  29.516  29.603  1.00  0.00     0.031 C 
ATOM     49  C   UNL A   1      43.551  27.639  32.170  1.00  0.00     0.029 A 
ATOM     50  N   UNL A   1      42.309  29.184  33.200  1.00  0.00    -0.354 N 
ATOM     51  C   UNL A   1      38.962  31.042  31.165  1.00  0.00     0.074 A 
ATOM     52  C   UNL A   1      38.793  30.496  29.834  1.00  0.00     0.031 C 
ATOM     53  C   UNL A   1      44.108  27.864  33.370  1.00  0.00     0.029 A 
ATOM     54  C   UNL A   1      43.346  28.900  34.056  1.00  0.00     0.049 A 
ATOM     55  H   UNL A   1      41.590  29.822  33.415  1.00  0.00     0.167 HD
ATOM     56  C   UNL A   1      38.178  32.004  31.710  1.00  0.00     0.037 A 
ATOM     57  C   UNL A   1      43.664  29.429  35.253  1.00  0.00     0.037 A 
ATOM     58  C   UNL A   1      38.359  32.537  33.037  1.00  0.00     0.049 A 
ATOM     59  C   UNL A   1      42.776  30.489  35.839  1.00  0.00     0.074 A 
ATOM     60  C   UNL A   1      37.589  33.475  33.701  1.00  0.00     0.029 A 
ATOM     61  N   UNL A   1      39.388  32.184  33.899  1.00  0.00    -0.354 N 
ATOM     62  N   UNL A   1      41.715  31.053  35.313  1.00  0.00    -0.248 NA
ATOM     63  C   UNL A   1      43.115  30.976  37.182  1.00  0.00     0.031 C 
ATOM     64  C   UNL A   1      38.171  33.715  34.952  1.00  0.00     0.029 A 
ATOM     65  C   UNL A   1      39.280  32.894  35.084  1.00  0.00     0.049 A 
ATOM     66  H   UNL A   1      40.091  31.524  33.699  1.00  0.00     0.167 HD
ATOM     67  C   UNL A   1      41.245  31.944  36.270  1.00  0.00     0.074 A 
ATOM     68  C   UNL A   1      42.133  31.837  37.411  1.00  0.00     0.031 C 
ATOM     69  C   UNL A   1      40.174  32.772  36.211  1.00  0.00     0.037 A 
BRANCH  56  70
ATOM     70  C   UNL A   1      37.048  32.537  30.871  1.00  0.00     0.058 A 
ATOM     71  C   UNL A   1      35.745  32.026  30.986  1.00  0.00     0.135 A 
ATOM     72  C   UNL A   1      37.258  33.595  29.971  1.00  0.00     0.135 A 
ATOM     73  F   UNL A   1      35.489  31.009  31.824  1.00  0.00    -0.206 F 
ATOM     74  C   UNL A   1      34.696  32.526  30.221  1.00  0.00     0.059 A 
ATOM     75  C   UNL A   1      36.217  34.126  29.212  1.00  0.00     0.059 A 
ATOM     76  F   UNL A   1      38.483  34.122  29.821  1.00  0.00    -0.206 F 
ATOM     77  C   UNL A   1      34.943  33.575  29.334  1.00  0.00     0.060 A 
BRANCH  77  78
ATOM     78  S   UNL A   1      33.569  34.221  28.356  1.00  0.00     0.124 S 
ATOM     79  O   UNL A   1      32.679  34.722  29.397  1.00  0.00    -0.237 OA
ATOM     80  O   UNL A   1      34.219  35.238  27.535  1.00  0.00    -0.237 OA
ATOM     81  O   UNL A   1      33.089  33.049  27.630  1.00  0.00    -0.744 OA
ENDBRANCH  77  78
ENDBRANCH  56  70
BRANCH  57  82
ATOM     82  C   UNL A   1      44.865  28.943  35.980  1.00  0.00     0.058 A 
ATOM     83  C   UNL A   1      44.777  27.869  36.878  1.00  0.00     0.135 A 
ATOM     84  C   UNL A   1      46.129  29.511  35.761  1.00  0.00     0.135 A 
ATOM     85  F   UNL A   1      43.590  27.295  37.120  1.00  0.00    -0.206 F 
ATOM     86  C   UNL A   1      45.898  27.382  37.542  1.00  0.00     0.059 A 
ATOM     87  C   UNL A   1      47.269  29.028  36.397  1.00  0.00     0.059 A 
ATOM     88  F   UNL A   1      46.270  30.528  34.894  1.00  0.00    -0.206 F 
ATOM     89  C   UNL A   1      47.141  27.966  37.292  1.00  0.00     0.060 A 
BRANCH  89  90
ATOM     90  S   UNL A   1      48.600  27.284  38.111  1.00  0.00     0.124 S 
ATOM     91  O   UNL A   1      49.668  28.079  37.517  1.00  0.00    -0.237 OA
ATOM     92  O   UNL A   1      48.314  27.547  39.518  1.00  0.00    -0.237 OA
ATOM     93  O   UNL A   1      48.571  25.876  37.726  1.00  0.00    -0.744 OA
ENDBRANCH  89  90
ENDBRANCH  57  82
BRANCH  69  94
ATOM     94  C   UNL A   1      39.885  33.605  37.427  1.00  0.00     0.058 A 
ATOM     95  C   UNL A   1      40.432  34.888  37.586  1.00  0.00     0.135 A 
ATOM     96  C   UNL A   1      39.022  33.128  38.425  1.00  0.00     0.135 A 
ATOM     97  F   UNL A   1      41.271  35.385  36.664  1.00  0.00    -0.206 F 
ATOM     98  C   UNL A   1      40.147  35.662  38.705  1.00  0.00     0.059 A 
ATOM     99  C   UNL A   1      38.705  33.895  39.542  1.00  0.00     0.059 A 
ATOM    100  F   UNL A   1      38.469  31.909  38.316  1.00  0.00    -0.206 F 
ATOM    101  C   UNL A   1      39.283  35.156  39.679  1.00  0.00     0.060 A 
BRANCH 101 102
ATOM    102  S   UNL A   1      38.897  36.182  41.114  1.00  0.00     0.124 S 
ATOM    103  O   UNL A   1      38.714  37.492  40.496  1.00  0.00    -0.237 OA
ATOM    104  O   UNL A   1      37.688  35.553  41.635  1.00  0.00    -0.237 OA
ATOM    105  O   UNL A   1      40.081  36.045  41.956  1.00  0.00    -0.744 OA
ENDBRANCH 101 102
ENDBRANCH  69  94
ENDBRANCH  43  44
ENDBRANCH  35  38
ENDBRANCH  33  34
ENDBRANCH  32  33
ENDBRANCH  31  32
ENDBRANCH   1  31
TORSDOF 20
ENDMDL
MODEL 3
REMARK VINA RESULT:     -10.4      3.937      8.717
REMARK SMILES O=C(CCOc1cc(-c2ccncc2)nc(-c2ccc(C(F)(F)F)cc2)n1)NCCCCNC(=O)c1ccc(-c2c3nc(c(-c4c(F)cc(S(=O)(=O)[O-])cc4F)c4ccc([nH]4)c(-c4c(F)cc(S(=O)(=O)[O-])cc4F)c4nc(c(-c5c(F)cc(S(=O)(=O)[O-])cc5F)c5ccc2[nH]5)C=C4)C=C3)cc1
REMARK SMILES IDX 29 1 28 2 1 3 2 4 3 6 4 7 5 8 6 9 7 10 27 11 8 12 16 13
REMARK SMILES IDX 15 14 9 15 10 16 14 17 11 18 13 19 12 20 17 21 18 22 26 23
REMARK SMILES IDX 19 24 25 25 20 26 21 27 22 28 23 29 24 30 30 31 31 32 32 33
REMARK SMILES IDX 33 34 34 35 35 37 36 38 37 39 101 40 38 41 100 42 39 43
REMARK SMILES IDX 40 44 41 45 94 46 42 47 99 48 93 49 95 50 43 51 98 52 92 53
REMARK SMILES IDX 91 54 44 56 78 57 57 58 77 59 58 60 61 61 76 62 96 63 59 64
REMARK SMILES IDX 60 65 75 67 97 68 62 69 45 70 46 71 55 72 47 73 48 74 54 75
REMARK SMILES IDX 56 76 49 77 50 78 51 79 52 80 53 81 79 82 80 83 89 84 81 85
REMARK SMILES IDX 82 86 88 87 90 88 83 89 84 90 85 91 86 92 87 93 63 94 64 95
REMARK SMILES IDX 73 96 65 97 66 98 72 99 74 100 67 101 68 102 69 103 70 104
REMARK SMILES IDX 71 105
REMARK H PARENT 28 5 33 36 95 55 61 66
REMARK Flexibility Score: inf
ROOT
ATOM      1  C   UNL A   1      45.233  21.603  25.335  1.00  0.00     0.116 C 
ENDROOT
BRANCH   1   2
ATOM      2  N   UNL A   1      44.148  20.672  25.556  1.00  0.00    -0.356 N 
ATOM      3  O   UNL A   1      45.103  18.952  24.365  1.00  0.00    -0.275 OA
ATOM      4  C   UNL A   1      44.220  19.369  25.113  1.00  0.00     0.223 C 
ATOM      5  H   UNL A   1      43.343  20.975  26.033  1.00  0.00     0.163 HD
BRANCH   4   6
ATOM      6  C   UNL A   1      43.221  18.436  25.751  1.00  0.00     0.141 C 
BRANCH   6   7
ATOM      7  C   UNL A   1      42.256  19.244  26.621  1.00  0.00     0.241 C 
BRANCH   7   8
ATOM      8  O   UNL A   1      41.006  19.443  25.953  1.00  0.00    -0.477 OA
BRANCH   8   9
ATOM      9  C   UNL A   1      40.327  20.591  26.264  1.00  0.00     0.217 A 
ATOM     10  C   UNL A   1      40.909  21.648  26.920  1.00  0.00     0.097 A 
ATOM     11  N   UNL A   1      39.114  20.676  25.705  1.00  0.00    -0.193 NA
ATOM     12  C   UNL A   1      40.221  22.844  26.924  1.00  0.00     0.078 A 
ATOM     13  C   UNL A   1      38.488  21.865  25.801  1.00  0.00     0.163 A 
ATOM     14  N   UNL A   1      39.004  22.972  26.370  1.00  0.00    -0.228 NA
BRANCH  12  15
ATOM     15  C   UNL A   1      40.846  24.048  27.483  1.00  0.00     0.003 A 
ATOM     16  C   UNL A   1      42.129  24.002  28.037  1.00  0.00     0.030 A 
ATOM     17  C   UNL A   1      40.147  25.250  27.578  1.00  0.00     0.030 A 
ATOM     18  C   UNL A   1      42.649  25.120  28.667  1.00  0.00     0.111 A 
ATOM     19  C   UNL A   1      40.745  26.317  28.234  1.00  0.00     0.111 A 
ATOM     20  N   UNL A   1      41.976  26.278  28.788  1.00  0.00    -0.265 NA
ENDBRANCH  12  15
BRANCH  13  21
ATOM     21  C   UNL A   1      37.159  21.961  25.188  1.00  0.00     0.019 A 
ATOM     22  C   UNL A   1      36.944  22.743  24.039  1.00  0.00     0.012 A 
ATOM     23  C   UNL A   1      36.055  21.293  25.741  1.00  0.00     0.012 A 
ATOM     24  C   UNL A   1      35.674  22.854  23.465  1.00  0.00     0.014 A 
ATOM     25  C   UNL A   1      34.777  21.422  25.186  1.00  0.00     0.014 A 
ATOM     26  C   UNL A   1      34.573  22.207  24.043  1.00  0.00     0.056 A 
BRANCH  26  27
ATOM     27  C   UNL A   1      33.201  22.318  23.418  1.00  0.00     0.416 C 
ATOM     28  F   UNL A   1      32.271  22.822  24.273  1.00  0.00    -0.166 F 
ATOM     29  F   UNL A   1      33.204  23.142  22.333  1.00  0.00    -0.166 F 
ATOM     30  F   UNL A   1      32.715  21.123  22.986  1.00  0.00    -0.166 F 
ENDBRANCH  26  27
ENDBRANCH  13  21
ENDBRANCH   8   9
ENDBRANCH   7   8
ENDBRANCH   6   7
ENDBRANCH   4   6
ENDBRANCH   1   2
BRANCH   1  31
ATOM     31  C   UNL A   1      45.414  22.696  26.395  1.00  0.00     0.023 C 
BRANCH  31  32
ATOM     32  C   UNL A   1      45.710  24.142  25.974  1.00  0.00     0.023 C 
BRANCH  32  33
ATOM     33  C   UNL A   1      47.153  24.615  25.776  1.00  0.00     0.116 C 
BRANCH  33  34
ATOM     34  N   UNL A   1      47.394  25.452  24.612  1.00  0.00    -0.352 N 
ATOM     35  C   UNL A   1      47.328  26.810  24.411  1.00  0.00     0.251 C 
ATOM     36  H   UNL A   1      47.657  24.945  23.809  1.00  0.00     0.163 HD
ATOM     37  O   UNL A   1      47.732  27.259  23.338  1.00  0.00    -0.269 OA
BRANCH  35  38
ATOM     38  C   UNL A   1      46.700  27.732  25.385  1.00  0.00     0.039 A 
ATOM     39  C   UNL A   1      45.300  27.723  25.466  1.00  0.00     0.014 A 
ATOM     40  C   UNL A   1      47.431  28.572  26.226  1.00  0.00     0.014 A 
ATOM     41  C   UNL A   1      44.646  28.440  26.469  1.00  0.00     0.010 A 
ATOM     42  C   UNL A   1      46.784  29.244  27.264  1.00  0.00     0.010 A 
ATOM     43  C   UNL A   1      45.393  29.145  27.421  1.00  0.00    -0.014 A 
BRANCH  43  44
ATOM     44  C   UNL A   1      44.767  29.669  28.660  1.00  0.00     0.031 A 
ATOM     45  C   UNL A   1      44.315  31.096  28.750  1.00  0.00     0.074 A 
ATOM     46  C   UNL A   1      44.736  28.870  29.746  1.00  0.00     0.049 A 
ATOM     47  N   UNL A   1      43.879  31.756  29.792  1.00  0.00    -0.248 NA
ATOM     48  C   UNL A   1      44.383  31.890  27.515  1.00  0.00     0.031 C 
ATOM     49  C   UNL A   1      45.205  27.482  29.787  1.00  0.00     0.029 A 
ATOM     50  N   UNL A   1      44.329  29.116  31.033  1.00  0.00    -0.354 N 
ATOM     51  C   UNL A   1      43.627  33.046  29.344  1.00  0.00     0.074 A 
ATOM     52  C   UNL A   1      43.995  33.084  27.943  1.00  0.00     0.031 C 
ATOM     53  C   UNL A   1      45.072  27.006  31.034  1.00  0.00     0.029 A 
ATOM     54  C   UNL A   1      44.541  28.060  31.889  1.00  0.00     0.049 A 
ATOM     55  H   UNL A   1      43.924  29.968  31.317  1.00  0.00     0.167 HD
ATOM     56  C   UNL A   1      43.125  34.096  30.039  1.00  0.00     0.037 A 
ATOM     57  C   UNL A   1      44.348  27.957  33.217  1.00  0.00     0.037 A 
ATOM     58  C   UNL A   1      42.763  34.041  31.433  1.00  0.00     0.049 A 
ATOM     59  C   UNL A   1      43.785  29.132  33.964  1.00  0.00     0.074 A 
ATOM     60  C   UNL A   1      42.198  35.032  32.216  1.00  0.00     0.029 A 
ATOM     61  N   UNL A   1      42.938  32.936  32.255  1.00  0.00    -0.354 N 
ATOM     62  N   UNL A   1      43.489  30.326  33.511  1.00  0.00    -0.248 NA
ATOM     63  C   UNL A   1      43.515  28.944  35.395  1.00  0.00     0.031 C 
ATOM     64  C   UNL A   1      42.062  34.538  33.520  1.00  0.00     0.029 A 
ATOM     65  C   UNL A   1      42.504  33.224  33.539  1.00  0.00     0.049 A 
ATOM     66  H   UNL A   1      43.314  32.073  31.967  1.00  0.00     0.167 HD
ATOM     67  C   UNL A   1      42.976  31.027  34.596  1.00  0.00     0.074 A 
ATOM     68  C   UNL A   1      42.993  30.117  35.725  1.00  0.00     0.031 C 
ATOM     69  C   UNL A   1      42.527  32.305  34.650  1.00  0.00     0.037 A 
BRANCH  56  70
ATOM     70  C   UNL A   1      42.932  35.391  29.298  1.00  0.00     0.058 A 
ATOM     71  C   UNL A   1      41.713  35.706  28.677  1.00  0.00     0.135 A 
ATOM     72  C   UNL A   1      43.960  36.347  29.240  1.00  0.00     0.135 A 
ATOM     73  F   UNL A   1      40.699  34.826  28.693  1.00  0.00    -0.206 F 
ATOM     74  C   UNL A   1      41.528  36.909  28.002  1.00  0.00     0.059 A 
ATOM     75  C   UNL A   1      43.788  37.566  28.591  1.00  0.00     0.059 A 
ATOM     76  F   UNL A   1      45.146  36.098  29.817  1.00  0.00    -0.206 F 
ATOM     77  C   UNL A   1      42.573  37.832  27.963  1.00  0.00     0.060 A 
BRANCH  77  78
ATOM     78  S   UNL A   1      42.314  39.394  27.092  1.00  0.00     0.124 S 
ATOM     79  O   UNL A   1      41.155  39.078  26.265  1.00  0.00    -0.237 OA
ATOM     80  O   UNL A   1      42.074  40.328  28.188  1.00  0.00    -0.237 OA
ATOM     81  O   UNL A   1      43.567  39.592  26.369  1.00  0.00    -0.744 OA
ENDBRANCH  77  78
ENDBRANCH  56  70
BRANCH  57  82
ATOM     82  C   UNL A   1      44.673  26.685  33.913  1.00  0.00     0.058 A 
ATOM     83  C   UNL A   1      45.999  26.354  34.225  1.00  0.00     0.135 A 
ATOM     84  C   UNL A   1      43.664  25.798  34.318  1.00  0.00     0.135 A 
ATOM     85  F   UNL A   1      46.998  27.171  33.857  1.00  0.00    -0.206 F 
ATOM     86  C   UNL A   1      46.317  25.182  34.904  1.00  0.00     0.059 A 
ATOM     87  C   UNL A   1      43.954  24.630  35.017  1.00  0.00     0.059 A 
ATOM     88  F   UNL A   1      42.376  26.080  34.063  1.00  0.00    -0.206 F 
ATOM     89  C   UNL A   1      45.287  24.328  35.299  1.00  0.00     0.060 A 
BRANCH  89  90
ATOM     90  S   UNL A   1      45.704  22.841  36.237  1.00  0.00     0.124 S 
ATOM     91  O   UNL A   1      45.277  23.211  37.580  1.00  0.00    -0.237 OA
ATOM     92  O   UNL A   1      44.903  21.821  35.568  1.00  0.00    -0.237 OA
ATOM     93  O   UNL A   1      47.147  22.719  36.043  1.00  0.00    -0.744 OA
ENDBRANCH  89  90
ENDBRANCH  57  82
BRANCH  69  94
ATOM     94  C   UNL A   1      41.989  32.785  35.968  1.00  0.00     0.058 A 
ATOM     95  C   UNL A   1      42.804  33.450  36.897  1.00  0.00     0.135 A 
ATOM     96  C   UNL A   1      40.633  32.610  36.287  1.00  0.00     0.135 A 
ATOM     97  F   UNL A   1      44.109  33.633  36.643  1.00  0.00    -0.206 F 
ATOM     98  C   UNL A   1      42.297  33.908  38.108  1.00  0.00     0.059 A 
ATOM     99  C   UNL A   1      40.099  33.080  37.482  1.00  0.00     0.059 A 
ATOM    100  F   UNL A   1      39.812  31.985  35.429  1.00  0.00    -0.206 F 
ATOM    101  C   UNL A   1      40.942  33.718  38.392  1.00  0.00     0.060 A 
BRANCH 101 102
ATOM    102  S   UNL A   1      40.287  34.344  39.954  1.00  0.00     0.124 S 
ATOM    103  O   UNL A   1      39.389  35.398  39.494  1.00  0.00    -0.237 OA
ATOM    104  O   UNL A   1      39.642  33.163  40.520  1.00  0.00    -0.237 OA
ATOM    105  O   UNL A   1      41.480  34.799  40.662  1.00  0.00    -0.744 OA
ENDBRANCH 101 102
ENDBRANCH  69  94
ENDBRANCH  43  44
ENDBRANCH  35  38
ENDBRANCH  33  34
ENDBRANCH  32  33
ENDBRANCH  31  32
ENDBRANCH   1  31
TORSDOF 20
ENDMDL
