MODEL 1
REMARK VINA RESULT:     -10.4      0.000      0.000
REMARK SMILES CN(C[C@H]1C[C@H](O)C1)C(=O)NCCOCC(=O)NCCCCNC(=O)c1ccc(-c2c3nc(c(-c4c(F)cc(S(=O)(=O)[O-])cc4F)c4ccc([nH]4)c(-c4c(F)cc(S(=O)(=O)[O-])cc4F)c4nc(c(-c5c(F)cc(S(=O)(=O)[O-])cc5F)c5ccc2[nH]5)C=C4)C=C3)cc1
REMARK SMILES IDX 16 1 17 2 18 3 15 5 14 6 13 7 12 8 11 9 9 10 10 11 2 13 1 14
REMARK SMILES IDX 3 15 4 16 8 17 5 18 6 19 7 20 19 22 20 23 21 24 22 25 23 26
REMARK SMILES IDX 24 27 25 29 26 30 27 31 91 32 28 33 90 34 29 35 30 36 31 37
REMARK SMILES IDX 84 38 32 39 89 40 83 41 85 42 33 43 88 44 82 45 81 46 34 48
REMARK SMILES IDX 68 49 47 50 67 51 48 52 51 53 66 54 86 55 49 56 50 57 65 59
REMARK SMILES IDX 87 60 52 61 35 62 36 63 45 64 37 65 38 66 44 67 46 68 39 69
REMARK SMILES IDX 40 70 41 71 42 72 43 73 69 74 70 75 79 76 71 77 72 78 78 79
REMARK SMILES IDX 80 80 73 81 74 82 75 83 76 84 77 85 53 86 54 87 63 88 55 89
REMARK SMILES IDX 56 90 62 91 64 92 57 93 58 94 59 95 60 96 61 97
REMARK H PARENT 18 4 11 12 7 21 23 28 85 47 51 58
REMARK Flexibility Score: inf
ROOT
ATOM      1  C   UNL A   1      33.392  36.494  28.879  1.00  0.00     0.245 C 
ATOM      2  O   UNL A   1      32.996  37.564  28.418  1.00  0.00    -0.272 OA
ATOM      3  N   UNL A   1      34.319  35.801  28.162  1.00  0.00    -0.354 N 
ATOM      4  H   UNL A   1      34.602  36.223  27.318  1.00  0.00     0.163 HD
ENDROOT
BRANCH   1   5
ATOM      5  C   UNL A   1      32.895  35.967  30.245  1.00  0.00     0.260 C 
BRANCH   5   6
ATOM      6  O   UNL A   1      32.248  36.763  31.223  1.00  0.00    -0.370 OA
BRANCH   6   7
ATOM      7  C   UNL A   1      32.746  36.652  32.553  1.00  0.00     0.182 C 
BRANCH   7   8
ATOM      8  C   UNL A   1      34.280  36.781  32.728  1.00  0.00     0.146 C 
BRANCH   8   9
ATOM      9  N   UNL A   1      35.067  35.685  32.185  1.00  0.00    -0.336 N 
ATOM     10  C   UNL A   1      35.827  34.651  32.565  1.00  0.00     0.317 C 
ATOM     11  O   UNL A   1      36.084  33.869  31.638  1.00  0.00    -0.249 OA
ATOM     12  H   UNL A   1      35.027  35.712  31.201  1.00  0.00     0.165 HD
BRANCH  10  13
ATOM     13  N   UNL A   1      36.293  34.407  33.825  1.00  0.00    -0.328 N 
ATOM     14  C   UNL A   1      35.244  34.317  34.845  1.00  0.00     0.148 C 
BRANCH  13  15
ATOM     15  C   UNL A   1      37.646  34.187  34.327  1.00  0.00     0.124 C 
BRANCH  15  16
ATOM     16  C   UNL A   1      37.843  32.757  34.833  1.00  0.00     0.014 C 
ATOM     17  C   UNL A   1      37.737  32.651  36.357  1.00  0.00     0.037 C 
ATOM     18  C   UNL A   1      39.203  31.998  34.967  1.00  0.00     0.037 C 
ATOM     19  C   UNL A   1      38.719  31.482  36.342  1.00  0.00     0.115 C 
BRANCH  19  20
ATOM     20  O   UNL A   1      38.113  30.179  36.383  1.00  0.00    -0.393 OA
ATOM     21  H   UNL A   1      37.177  30.265  36.620  1.00  0.00     0.210 HD
ENDBRANCH  19  20
ENDBRANCH  15  16
ENDBRANCH  13  15
ENDBRANCH  10  13
ENDBRANCH   8   9
ENDBRANCH   7   8
ENDBRANCH   6   7
ENDBRANCH   5   6
ENDBRANCH   1   5
BRANCH   3  22
ATOM     22  C   UNL A   1      34.948  34.533  28.460  1.00  0.00     0.116 C 
BRANCH  22  23
ATOM     23  C   UNL A   1      34.013  33.360  28.156  1.00  0.00     0.023 C 
BRANCH  23  24
ATOM     24  C   UNL A   1      34.701  32.018  27.877  1.00  0.00     0.023 C 
BRANCH  24  25
ATOM     25  C   UNL A   1      36.004  31.765  28.630  1.00  0.00     0.116 C 
BRANCH  25  26
ATOM     26  N   UNL A   1      35.793  31.369  30.012  1.00  0.00    -0.352 N 
ATOM     27  C   UNL A   1      36.540  30.537  30.815  1.00  0.00     0.251 C 
ATOM     28  H   UNL A   1      34.993  31.753  30.440  1.00  0.00     0.163 HD
ATOM     29  O   UNL A   1      36.111  30.220  31.918  1.00  0.00    -0.269 OA
BRANCH  27  30
ATOM     30  C   UNL A   1      37.838  30.002  30.339  1.00  0.00     0.039 A 
ATOM     31  C   UNL A   1      38.096  29.989  28.965  1.00  0.00     0.014 A 
ATOM     32  C   UNL A   1      38.793  29.509  31.230  1.00  0.00     0.014 A 
ATOM     33  C   UNL A   1      39.337  29.553  28.493  1.00  0.00     0.010 A 
ATOM     34  C   UNL A   1      40.056  29.144  30.765  1.00  0.00     0.010 A 
ATOM     35  C   UNL A   1      40.345  29.166  29.393  1.00  0.00    -0.014 A 
BRANCH  35  36
ATOM     36  C   UNL A   1      41.708  28.803  28.917  1.00  0.00     0.031 A 
ATOM     37  C   UNL A   1      42.782  29.851  28.804  1.00  0.00     0.074 A 
ATOM     38  C   UNL A   1      41.959  27.537  28.524  1.00  0.00     0.049 A 
ATOM     39  N   UNL A   1      44.004  29.736  28.348  1.00  0.00    -0.248 NA
ATOM     40  C   UNL A   1      42.431  31.212  29.238  1.00  0.00     0.031 C 
ATOM     41  C   UNL A   1      40.989  26.439  28.539  1.00  0.00     0.029 A 
ATOM     42  N   UNL A   1      43.100  26.960  28.023  1.00  0.00    -0.354 N 
ATOM     43  C   UNL A   1      44.562  31.006  28.430  1.00  0.00     0.074 A 
ATOM     44  C   UNL A   1      43.529  31.888  28.928  1.00  0.00     0.031 C 
ATOM     45  C   UNL A   1      41.581  25.320  28.091  1.00  0.00     0.029 A 
ATOM     46  C   UNL A   1      42.958  25.627  27.713  1.00  0.00     0.049 A 
ATOM     47  H   UNL A   1      43.941  27.455  27.896  1.00  0.00     0.167 HD
ATOM     48  C   UNL A   1      45.826  31.399  28.137  1.00  0.00     0.037 A 
ATOM     49  C   UNL A   1      43.830  24.752  27.176  1.00  0.00     0.037 A 
ATOM     50  C   UNL A   1      46.855  30.511  27.656  1.00  0.00     0.049 A 
ATOM     51  C   UNL A   1      45.224  25.214  26.845  1.00  0.00     0.074 A 
ATOM     52  C   UNL A   1      48.180  30.802  27.383  1.00  0.00     0.029 A 
ATOM     53  N   UNL A   1      46.675  29.166  27.371  1.00  0.00    -0.354 N 
ATOM     54  N   UNL A   1      45.754  26.406  26.992  1.00  0.00    -0.248 NA
ATOM     55  C   UNL A   1      46.141  24.214  26.280  1.00  0.00     0.031 C 
ATOM     56  C   UNL A   1      48.787  29.646  26.881  1.00  0.00     0.029 A 
ATOM     57  C   UNL A   1      47.858  28.619  26.900  1.00  0.00     0.049 A 
ATOM     58  H   UNL A   1      45.830  28.672  27.485  1.00  0.00     0.167 HD
ATOM     59  C   UNL A   1      47.074  26.290  26.568  1.00  0.00     0.074 A 
ATOM     60  C   UNL A   1      47.264  24.911  26.171  1.00  0.00     0.031 C 
ATOM     61  C   UNL A   1      48.040  27.240  26.516  1.00  0.00     0.037 A 
BRANCH  48  62
ATOM     62  C   UNL A   1      46.172  32.852  28.328  1.00  0.00     0.058 A 
ATOM     63  C   UNL A   1      46.643  33.343  29.557  1.00  0.00     0.135 A 
ATOM     64  C   UNL A   1      46.076  33.757  27.258  1.00  0.00     0.135 A 
ATOM     65  F   UNL A   1      46.743  32.527  30.618  1.00  0.00    -0.206 F 
ATOM     66  C   UNL A   1      46.979  34.683  29.725  1.00  0.00     0.059 A 
ATOM     67  C   UNL A   1      46.436  35.094  27.396  1.00  0.00     0.059 A 
ATOM     68  F   UNL A   1      45.632  33.343  26.060  1.00  0.00    -0.206 F 
ATOM     69  C   UNL A   1      46.873  35.551  28.637  1.00  0.00     0.060 A 
BRANCH  69  70
ATOM     70  S   UNL A   1      47.321  37.284  28.873  1.00  0.00     0.124 S 
ATOM     71  O   UNL A   1      48.772  37.195  28.999  1.00  0.00    -0.237 OA
ATOM     72  O   UNL A   1      46.828  37.903  27.647  1.00  0.00    -0.237 OA
ATOM     73  O   UNL A   1      46.608  37.658  30.091  1.00  0.00    -0.744 OA
ENDBRANCH  69  70
ENDBRANCH  48  62
BRANCH  49  74
ATOM     74  C   UNL A   1      43.416  23.342  26.931  1.00  0.00     0.058 A 
ATOM     75  C   UNL A   1      43.228  22.449  27.997  1.00  0.00     0.135 A 
ATOM     76  C   UNL A   1      43.198  22.862  25.631  1.00  0.00     0.135 A 
ATOM     77  F   UNL A   1      43.431  22.857  29.259  1.00  0.00    -0.206 F 
ATOM     78  C   UNL A   1      42.855  21.125  27.782  1.00  0.00     0.059 A 
ATOM     79  C   UNL A   1      42.795  21.550  25.393  1.00  0.00     0.059 A 
ATOM     80  F   UNL A   1      43.349  23.679  24.577  1.00  0.00    -0.206 F 
ATOM     81  C   UNL A   1      42.638  20.686  26.475  1.00  0.00     0.060 A 
BRANCH  81  82
ATOM     82  S   UNL A   1      42.112  18.978  26.212  1.00  0.00     0.124 S 
ATOM     83  O   UNL A   1      42.288  18.409  27.542  1.00  0.00    -0.237 OA
ATOM     84  O   UNL A   1      40.732  19.150  25.767  1.00  0.00    -0.237 OA
ATOM     85  O   UNL A   1      43.036  18.496  25.190  1.00  0.00    -0.744 OA
ENDBRANCH  81  82
ENDBRANCH  49  74
BRANCH  61  86
ATOM     86  C   UNL A   1      49.408  26.817  26.052  1.00  0.00     0.058 A 
ATOM     87  C   UNL A   1      49.812  26.948  24.715  1.00  0.00     0.135 A 
ATOM     88  C   UNL A   1      50.347  26.324  26.974  1.00  0.00     0.135 A 
ATOM     89  F   UNL A   1      48.954  27.407  23.790  1.00  0.00    -0.206 F 
ATOM     90  C   UNL A   1      51.090  26.582  24.302  1.00  0.00     0.059 A 
ATOM     91  C   UNL A   1      51.639  25.982  26.591  1.00  0.00     0.059 A 
ATOM     92  F   UNL A   1      50.017  26.188  28.268  1.00  0.00    -0.206 F 
ATOM     93  C   UNL A   1      51.998  26.103  25.249  1.00  0.00     0.060 A 
BRANCH  93  94
ATOM     94  S   UNL A   1      53.664  25.667  24.707  1.00  0.00     0.124 S 
ATOM     95  O   UNL A   1      53.652  26.125  23.322  1.00  0.00    -0.237 OA
ATOM     96  O   UNL A   1      54.501  26.436  25.622  1.00  0.00    -0.237 OA
ATOM     97  O   UNL A   1      53.714  24.219  24.888  1.00  0.00    -0.744 OA
ENDBRANCH  93  94
ENDBRANCH  61  86
ENDBRANCH  35  36
ENDBRANCH  27  30
ENDBRANCH  25  26
ENDBRANCH  24  25
ENDBRANCH  23  24
ENDBRANCH  22  23
ENDBRANCH   3  22
TORSDOF 22
ENDMDL
MODEL 2
REMARK VINA RESULT:     -10.3      6.559     13.758
REMARK SMILES CN(C[C@H]1C[C@H](O)C1)C(=O)NCCOCC(=O)NCCCCNC(=O)c1ccc(-c2c3nc(c(-c4c(F)cc(S(=O)(=O)[O-])cc4F)c4ccc([nH]4)c(-c4c(F)cc(S(=O)(=O)[O-])cc4F)c4nc(c(-c5c(F)cc(S(=O)(=O)[O-])cc5F)c5ccc2[nH]5)C=C4)C=C3)cc1
REMARK SMILES IDX 16 1 17 2 18 3 15 5 14 6 13 7 12 8 11 9 9 10 10 11 2 13 1 14
REMARK SMILES IDX 3 15 4 16 8 17 5 18 6 19 7 20 19 22 20 23 21 24 22 25 23 26
REMARK SMILES IDX 24 27 25 29 26 30 27 31 91 32 28 33 90 34 29 35 30 36 31 37
REMARK SMILES IDX 84 38 32 39 89 40 83 41 85 42 33 43 88 44 82 45 81 46 34 48
REMARK SMILES IDX 68 49 47 50 67 51 48 52 51 53 66 54 86 55 49 56 50 57 65 59
REMARK SMILES IDX 87 60 52 61 35 62 36 63 45 64 37 65 38 66 44 67 46 68 39 69
REMARK SMILES IDX 40 70 41 71 42 72 43 73 69 74 70 75 79 76 71 77 72 78 78 79
REMARK SMILES IDX 80 80 73 81 74 82 75 83 76 84 77 85 53 86 54 87 63 88 55 89
REMARK SMILES IDX 56 90 62 91 64 92 57 93 58 94 59 95 60 96 61 97
REMARK H PARENT 18 4 11 12 7 21 23 28 85 47 51 58
REMARK Flexibility Score: inf
ROOT
ATOM      1  C   UNL A   1      36.771  23.165  25.153  1.00  0.00     0.245 C 
ATOM      2  O   UNL A   1      36.362  23.742  24.146  1.00  0.00    -0.272 OA
ATOM      3  N   UNL A   1      38.030  23.457  25.581  1.00  0.00    -0.354 N 
ATOM      4  H   UNL A   1      38.517  24.119  25.039  1.00  0.00     0.163 HD
ENDROOT
BRANCH   1   5
ATOM      5  C   UNL A   1      35.878  22.177  25.940  1.00  0.00     0.260 C 
BRANCH   5   6
ATOM      6  O   UNL A   1      35.524  20.883  25.486  1.00  0.00    -0.370 OA
BRANCH   6   7
ATOM      7  C   UNL A   1      34.198  20.733  24.987  1.00  0.00     0.182 C 
BRANCH   7   8
ATOM      8  C   UNL A   1      33.401  22.039  24.745  1.00  0.00     0.146 C 
BRANCH   8   9
ATOM      9  N   UNL A   1      33.463  22.570  23.392  1.00  0.00    -0.336 N 
ATOM     10  C   UNL A   1      33.113  23.641  22.669  1.00  0.00     0.317 C 
ATOM     11  O   UNL A   1      33.638  23.662  21.546  1.00  0.00    -0.249 OA
ATOM     12  H   UNL A   1      33.918  21.921  22.809  1.00  0.00     0.165 HD
BRANCH  10  13
ATOM     13  N   UNL A   1      32.285  24.652  23.065  1.00  0.00    -0.328 N 
ATOM     14  C   UNL A   1      30.879  24.259  23.199  1.00  0.00     0.148 C 
BRANCH  13  15
ATOM     15  C   UNL A   1      32.560  26.043  23.412  1.00  0.00     0.124 C 
BRANCH  15  16
ATOM     16  C   UNL A   1      31.587  27.006  22.728  1.00  0.00     0.014 C 
ATOM     17  C   UNL A   1      32.105  28.446  22.700  1.00  0.00     0.037 C 
ATOM     18  C   UNL A   1      30.272  27.588  23.340  1.00  0.00     0.037 C 
ATOM     19  C   UNL A   1      30.669  28.961  22.752  1.00  0.00     0.115 C 
BRANCH  19  20
ATOM     20  O   UNL A   1      30.107  29.323  21.480  1.00  0.00    -0.393 OA
ATOM     21  H   UNL A   1      29.868  28.520  20.992  1.00  0.00     0.210 HD
ENDBRANCH  19  20
ENDBRANCH  15  16
ENDBRANCH  13  15
ENDBRANCH  10  13
ENDBRANCH   8   9
ENDBRANCH   7   8
ENDBRANCH   6   7
ENDBRANCH   5   6
ENDBRANCH   1   5
BRANCH   3  22
ATOM     22  C   UNL A   1      38.756  22.933  26.718  1.00  0.00     0.116 C 
BRANCH  22  23
ATOM     23  C   UNL A   1      39.711  21.812  26.302  1.00  0.00     0.023 C 
BRANCH  23  24
ATOM     24  C   UNL A   1      41.024  21.733  27.090  1.00  0.00     0.023 C 
BRANCH  24  25
ATOM     25  C   UNL A   1      41.776  23.050  27.271  1.00  0.00     0.116 C 
BRANCH  25  26
ATOM     26  N   UNL A   1      41.711  23.904  26.097  1.00  0.00    -0.352 N 
ATOM     27  C   UNL A   1      41.491  25.260  26.005  1.00  0.00     0.251 C 
ATOM     28  H   UNL A   1      41.845  23.444  25.236  1.00  0.00     0.163 HD
ATOM     29  O   UNL A   1      41.336  25.771  24.902  1.00  0.00    -0.269 OA
BRANCH  27  30
ATOM     30  C   UNL A   1      41.409  26.092  27.229  1.00  0.00     0.039 A 
ATOM     31  C   UNL A   1      42.380  27.075  27.439  1.00  0.00     0.014 A 
ATOM     32  C   UNL A   1      40.392  25.907  28.167  1.00  0.00     0.014 A 
ATOM     33  C   UNL A   1      42.289  27.918  28.550  1.00  0.00     0.010 A 
ATOM     34  C   UNL A   1      40.260  26.795  29.234  1.00  0.00     0.010 A 
ATOM     35  C   UNL A   1      41.203  27.814  29.436  1.00  0.00    -0.014 A 
BRANCH  35  36
ATOM     36  C   UNL A   1      41.030  28.772  30.562  1.00  0.00     0.031 A 
ATOM     37  C   UNL A   1      41.893  28.670  31.791  1.00  0.00     0.074 A 
ATOM     38  C   UNL A   1      40.050  29.697  30.503  1.00  0.00     0.049 A 
ATOM     39  N   UNL A   1      41.843  29.371  32.895  1.00  0.00    -0.248 NA
ATOM     40  C   UNL A   1      42.932  27.629  31.789  1.00  0.00     0.031 C 
ATOM     41  C   UNL A   1      39.115  29.868  29.388  1.00  0.00     0.029 A 
ATOM     42  N   UNL A   1      39.664  30.658  31.404  1.00  0.00    -0.354 N 
ATOM     43  C   UNL A   1      42.833  28.851  33.721  1.00  0.00     0.074 A 
ATOM     44  C   UNL A   1      43.432  27.741  33.012  1.00  0.00     0.031 C 
ATOM     45  C   UNL A   1      38.282  30.884  29.662  1.00  0.00     0.029 A 
ATOM     46  C   UNL A   1      38.589  31.410  30.988  1.00  0.00     0.049 A 
ATOM     47  H   UNL A   1      40.115  30.796  32.269  1.00  0.00     0.167 HD
ATOM     48  C   UNL A   1      43.222  29.272  34.949  1.00  0.00     0.037 A 
ATOM     49  C   UNL A   1      37.919  32.402  31.607  1.00  0.00     0.037 A 
ATOM     50  C   UNL A   1      42.632  30.390  35.643  1.00  0.00     0.049 A 
ATOM     51  C   UNL A   1      38.360  32.843  32.977  1.00  0.00     0.074 A 
ATOM     52  C   UNL A   1      42.993  30.928  36.866  1.00  0.00     0.029 A 
ATOM     53  N   UNL A   1      41.557  31.134  35.181  1.00  0.00    -0.354 N 
ATOM     54  N   UNL A   1      39.342  32.382  33.715  1.00  0.00    -0.248 NA
ATOM     55  C   UNL A   1      37.607  33.942  33.598  1.00  0.00     0.031 C 
ATOM     56  C   UNL A   1      42.102  31.963  37.169  1.00  0.00     0.029 A 
ATOM     57  C   UNL A   1      41.225  32.111  36.107  1.00  0.00     0.049 A 
ATOM     58  H   UNL A   1      41.096  30.990  34.323  1.00  0.00     0.167 HD
ATOM     59  C   UNL A   1      39.345  33.156  34.871  1.00  0.00     0.074 A 
ATOM     60  C   UNL A   1      38.275  34.121  34.729  1.00  0.00     0.031 C 
ATOM     61  C   UNL A   1      40.162  33.074  35.951  1.00  0.00     0.037 A 
BRANCH  48  62
ATOM     62  C   UNL A   1      44.341  28.526  35.626  1.00  0.00     0.058 A 
ATOM     63  C   UNL A   1      45.686  28.889  35.446  1.00  0.00     0.135 A 
ATOM     64  C   UNL A   1      44.064  27.462  36.502  1.00  0.00     0.135 A 
ATOM     65  F   UNL A   1      46.011  29.888  34.612  1.00  0.00    -0.206 F 
ATOM     66  C   UNL A   1      46.716  28.208  36.087  1.00  0.00     0.059 A 
ATOM     67  C   UNL A   1      45.077  26.787  37.177  1.00  0.00     0.059 A 
ATOM     68  F   UNL A   1      42.797  27.072  36.712  1.00  0.00    -0.206 F 
ATOM     69  C   UNL A   1      46.402  27.158  36.952  1.00  0.00     0.060 A 
BRANCH  69  70
ATOM     70  S   UNL A   1      47.752  26.292  37.780  1.00  0.00     0.124 S 
ATOM     71  O   UNL A   1      47.107  25.038  38.155  1.00  0.00    -0.237 OA
ATOM     72  O   UNL A   1      48.755  26.199  36.725  1.00  0.00    -0.237 OA
ATOM     73  O   UNL A   1      48.094  27.176  38.890  1.00  0.00    -0.744 OA
ENDBRANCH  69  70
ENDBRANCH  48  62
BRANCH  49  74
ATOM     74  C   UNL A   1      36.767  33.058  30.929  1.00  0.00     0.058 A 
ATOM     75  C   UNL A   1      35.455  32.873  31.391  1.00  0.00     0.135 A 
ATOM     76  C   UNL A   1      36.954  33.885  29.810  1.00  0.00     0.135 A 
ATOM     77  F   UNL A   1      35.222  32.086  32.452  1.00  0.00    -0.206 F 
ATOM     78  C   UNL A   1      34.368  33.469  30.758  1.00  0.00     0.059 A 
ATOM     79  C   UNL A   1      35.885  34.516  29.179  1.00  0.00     0.059 A 
ATOM     80  F   UNL A   1      38.190  34.108  29.337  1.00  0.00    -0.206 F 
ATOM     81  C   UNL A   1      34.594  34.292  29.654  1.00  0.00     0.060 A 
BRANCH  81  82
ATOM     82  S   UNL A   1      33.180  35.095  28.869  1.00  0.00     0.124 S 
ATOM     83  O   UNL A   1      32.776  34.089  27.894  1.00  0.00    -0.237 OA
ATOM     84  O   UNL A   1      32.275  35.291  29.997  1.00  0.00    -0.237 OA
ATOM     85  O   UNL A   1      33.753  36.318  28.315  1.00  0.00    -0.744 OA
ENDBRANCH  81  82
ENDBRANCH  49  74
BRANCH  61  86
ATOM     86  C   UNL A   1      39.964  34.082  37.051  1.00  0.00     0.058 A 
ATOM     87  C   UNL A   1      40.526  35.366  36.993  1.00  0.00     0.135 A 
ATOM     88  C   UNL A   1      39.152  33.773  38.156  1.00  0.00     0.135 A 
ATOM     89  F   UNL A   1      41.316  35.712  35.964  1.00  0.00    -0.206 F 
ATOM     90  C   UNL A   1      40.312  36.300  38.001  1.00  0.00     0.059 A 
ATOM     91  C   UNL A   1      38.898  34.702  39.160  1.00  0.00     0.059 A 
ATOM     92  F   UNL A   1      38.579  32.563  38.258  1.00  0.00    -0.206 F 
ATOM     93  C   UNL A   1      39.493  35.960  39.080  1.00  0.00     0.060 A 
BRANCH  93  94
ATOM     94  S   UNL A   1      39.194  37.194  40.363  1.00  0.00     0.124 S 
ATOM     95  O   UNL A   1      38.475  38.223  39.619  1.00  0.00    -0.237 OA
ATOM     96  O   UNL A   1      38.405  36.447  41.337  1.00  0.00    -0.237 OA
ATOM     97  O   UNL A   1      40.537  37.562  40.802  1.00  0.00    -0.744 OA
ENDBRANCH  93  94
ENDBRANCH  61  86
ENDBRANCH  35  36
ENDBRANCH  27  30
ENDBRANCH  25  26
ENDBRANCH  24  25
ENDBRANCH  23  24
ENDBRANCH  22  23
ENDBRANCH   3  22
TORSDOF 22
ENDMDL
MODEL 3
REMARK VINA RESULT:     -10.3      6.671     13.582
REMARK SMILES CN(C[C@H]1C[C@H](O)C1)C(=O)NCCOCC(=O)NCCCCNC(=O)c1ccc(-c2c3nc(c(-c4c(F)cc(S(=O)(=O)[O-])cc4F)c4ccc([nH]4)c(-c4c(F)cc(S(=O)(=O)[O-])cc4F)c4nc(c(-c5c(F)cc(S(=O)(=O)[O-])cc5F)c5ccc2[nH]5)C=C4)C=C3)cc1
REMARK SMILES IDX 16 1 17 2 18 3 15 5 14 6 13 7 12 8 11 9 9 10 10 11 2 13 1 14
REMARK SMILES IDX 3 15 4 16 8 17 5 18 6 19 7 20 19 22 20 23 21 24 22 25 23 26
REMARK SMILES IDX 24 27 25 29 26 30 27 31 91 32 28 33 90 34 29 35 30 36 31 37
REMARK SMILES IDX 84 38 32 39 89 40 83 41 85 42 33 43 88 44 82 45 81 46 34 48
REMARK SMILES IDX 68 49 47 50 67 51 48 52 51 53 66 54 86 55 49 56 50 57 65 59
REMARK SMILES IDX 87 60 52 61 35 62 36 63 45 64 37 65 38 66 44 67 46 68 39 69
REMARK SMILES IDX 40 70 41 71 42 72 43 73 69 74 70 75 79 76 71 77 72 78 78 79
REMARK SMILES IDX 80 80 73 81 74 82 75 83 76 84 77 85 53 86 54 87 63 88 55 89
REMARK SMILES IDX 56 90 62 91 64 92 57 93 58 94 59 95 60 96 61 97
REMARK H PARENT 18 4 11 12 7 21 23 28 85 47 51 58
REMARK Flexibility Score: inf
ROOT
ATOM      1  C   UNL A   1      36.191  22.784  23.859  1.00  0.00     0.245 C 
ATOM      2  O   UNL A   1      36.162  23.147  22.684  1.00  0.00    -0.272 OA
ATOM      3  N   UNL A   1      37.410  22.578  24.428  1.00  0.00    -0.354 N 
ATOM      4  H   UNL A   1      38.183  22.742  23.839  1.00  0.00     0.163 HD
ENDROOT
BRANCH   1   5
ATOM      5  C   UNL A   1      34.895  22.608  24.685  1.00  0.00     0.260 C 
BRANCH   5   6
ATOM      6  O   UNL A   1      34.050  23.673  25.085  1.00  0.00    -0.370 OA
BRANCH   6   7
ATOM      7  C   UNL A   1      34.703  24.860  25.527  1.00  0.00     0.182 C 
BRANCH   7   8
ATOM      8  C   UNL A   1      33.963  26.194  25.254  1.00  0.00     0.146 C 
BRANCH   8   9
ATOM      9  N   UNL A   1      33.541  26.407  23.878  1.00  0.00    -0.336 N 
ATOM     10  C   UNL A   1      32.606  27.032  23.153  1.00  0.00     0.317 C 
ATOM     11  O   UNL A   1      32.866  27.058  21.942  1.00  0.00    -0.249 OA
ATOM     12  H   UNL A   1      34.153  25.928  23.274  1.00  0.00     0.165 HD
BRANCH  10  13
ATOM     13  N   UNL A   1      31.469  27.619  23.629  1.00  0.00    -0.328 N 
ATOM     14  C   UNL A   1      31.684  28.932  24.244  1.00  0.00     0.148 C 
BRANCH  13  15
ATOM     15  C   UNL A   1      30.076  27.184  23.604  1.00  0.00     0.124 C 
BRANCH  15  16
ATOM     16  C   UNL A   1      29.834  25.981  24.516  1.00  0.00     0.014 C 
ATOM     17  C   UNL A   1      30.369  26.200  25.934  1.00  0.00     0.037 C 
ATOM     18  C   UNL A   1      30.638  24.640  24.519  1.00  0.00     0.037 C 
ATOM     19  C   UNL A   1      30.632  24.701  26.064  1.00  0.00     0.115 C 
BRANCH  19  20
ATOM     20  O   UNL A   1      29.610  23.962  26.751  1.00  0.00    -0.393 OA
ATOM     21  H   UNL A   1      28.753  24.125  26.328  1.00  0.00     0.210 HD
ENDBRANCH  19  20
ENDBRANCH  15  16
ENDBRANCH  13  15
ENDBRANCH  10  13
ENDBRANCH   8   9
ENDBRANCH   7   8
ENDBRANCH   6   7
ENDBRANCH   5   6
ENDBRANCH   1   5
BRANCH   3  22
ATOM     22  C   UNL A   1      37.735  22.153  25.772  1.00  0.00     0.116 C 
BRANCH  22  23
ATOM     23  C   UNL A   1      39.061  21.390  25.811  1.00  0.00     0.023 C 
BRANCH  23  24
ATOM     24  C   UNL A   1      40.075  21.875  26.856  1.00  0.00     0.023 C 
BRANCH  24  25
ATOM     25  C   UNL A   1      40.105  23.380  27.110  1.00  0.00     0.116 C 
BRANCH  25  26
ATOM     26  N   UNL A   1      40.819  24.114  26.079  1.00  0.00    -0.352 N 
ATOM     27  C   UNL A   1      41.299  25.404  26.088  1.00  0.00     0.251 C 
ATOM     28  H   UNL A   1      40.984  23.614  25.247  1.00  0.00     0.163 HD
ATOM     29  O   UNL A   1      41.755  25.884  25.057  1.00  0.00    -0.269 OA
BRANCH  27  30
ATOM     30  C   UNL A   1      41.236  26.220  27.324  1.00  0.00     0.039 A 
ATOM     31  C   UNL A   1      42.127  27.287  27.471  1.00  0.00     0.014 A 
ATOM     32  C   UNL A   1      40.315  25.939  28.335  1.00  0.00     0.014 A 
ATOM     33  C   UNL A   1      42.045  28.114  28.595  1.00  0.00     0.010 A 
ATOM     34  C   UNL A   1      40.186  26.806  29.419  1.00  0.00     0.010 A 
ATOM     35  C   UNL A   1      41.045  27.907  29.559  1.00  0.00    -0.014 A 
BRANCH  35  36
ATOM     36  C   UNL A   1      40.872  28.840  30.706  1.00  0.00     0.031 A 
ATOM     37  C   UNL A   1      41.729  28.706  31.936  1.00  0.00     0.074 A 
ATOM     38  C   UNL A   1      39.897  29.771  30.664  1.00  0.00     0.049 A 
ATOM     39  N   UNL A   1      41.679  29.381  33.056  1.00  0.00    -0.248 NA
ATOM     40  C   UNL A   1      42.763  27.658  31.915  1.00  0.00     0.031 C 
ATOM     41  C   UNL A   1      38.968  29.973  29.550  1.00  0.00     0.029 A 
ATOM     42  N   UNL A   1      39.513  30.714  31.586  1.00  0.00    -0.354 N 
ATOM     43  C   UNL A   1      42.662  28.837  33.874  1.00  0.00     0.074 A 
ATOM     44  C   UNL A   1      43.258  27.740  33.142  1.00  0.00     0.031 C 
ATOM     45  C   UNL A   1      38.139  30.987  29.843  1.00  0.00     0.029 A 
ATOM     46  C   UNL A   1      38.444  31.481  31.182  1.00  0.00     0.049 A 
ATOM     47  H   UNL A   1      39.961  30.830  32.455  1.00  0.00     0.167 HD
ATOM     48  C   UNL A   1      43.049  29.228  35.112  1.00  0.00     0.037 A 
ATOM     49  C   UNL A   1      37.777  32.462  31.821  1.00  0.00     0.037 A 
ATOM     50  C   UNL A   1      42.462  30.333  35.829  1.00  0.00     0.049 A 
ATOM     51  C   UNL A   1      38.215  32.870  33.202  1.00  0.00     0.074 A 
ATOM     52  C   UNL A   1      42.820  30.842  37.065  1.00  0.00     0.029 A 
ATOM     53  N   UNL A   1      41.393  31.093  35.380  1.00  0.00    -0.354 N 
ATOM     54  N   UNL A   1      39.191  32.387  33.933  1.00  0.00    -0.248 NA
ATOM     55  C   UNL A   1      37.465  33.959  33.844  1.00  0.00     0.031 C 
ATOM     56  C   UNL A   1      41.934  31.874  37.388  1.00  0.00     0.029 A 
ATOM     57  C   UNL A   1      41.062  32.051  36.326  1.00  0.00     0.049 A 
ATOM     58  H   UNL A   1      40.935  30.971  34.516  1.00  0.00     0.167 HD
ATOM     59  C   UNL A   1      39.194  33.134  35.107  1.00  0.00     0.074 A 
ATOM     60  C   UNL A   1      38.129  34.108  34.982  1.00  0.00     0.031 C 
ATOM     61  C   UNL A   1      40.005  33.024  36.187  1.00  0.00     0.037 A 
BRANCH  48  62
ATOM     62  C   UNL A   1      44.161  28.460  35.777  1.00  0.00     0.058 A 
ATOM     63  C   UNL A   1      45.510  28.804  35.590  1.00  0.00     0.135 A 
ATOM     64  C   UNL A   1      43.874  27.395  36.648  1.00  0.00     0.135 A 
ATOM     65  F   UNL A   1      45.844  29.804  34.760  1.00  0.00    -0.206 F 
ATOM     66  C   UNL A   1      46.534  28.103  36.219  1.00  0.00     0.059 A 
ATOM     67  C   UNL A   1      44.881  26.701  37.311  1.00  0.00     0.059 A 
ATOM     68  F   UNL A   1      42.602  27.023  36.864  1.00  0.00    -0.206 F 
ATOM     69  C   UNL A   1      46.209  27.053  37.080  1.00  0.00     0.060 A 
BRANCH  69  70
ATOM     70  S   UNL A   1      47.551  26.161  37.893  1.00  0.00     0.124 S 
ATOM     71  O   UNL A   1      47.628  26.855  39.175  1.00  0.00    -0.237 OA
ATOM     72  O   UNL A   1      47.034  24.797  37.941  1.00  0.00    -0.237 OA
ATOM     73  O   UNL A   1      48.688  26.367  37.000  1.00  0.00    -0.744 OA
ENDBRANCH  69  70
ENDBRANCH  48  62
BRANCH  49  74
ATOM     74  C   UNL A   1      36.631  33.140  31.153  1.00  0.00     0.058 A 
ATOM     75  C   UNL A   1      36.839  34.036  30.093  1.00  0.00     0.135 A 
ATOM     76  C   UNL A   1      35.308  32.904  31.557  1.00  0.00     0.135 A 
ATOM     77  F   UNL A   1      38.086  34.302  29.674  1.00  0.00    -0.206 F 
ATOM     78  C   UNL A   1      35.779  34.687  29.470  1.00  0.00     0.059 A 
ATOM     79  C   UNL A   1      34.229  33.521  30.929  1.00  0.00     0.059 A 
ATOM     80  F   UNL A   1      35.053  32.044  32.556  1.00  0.00    -0.206 F 
ATOM     81  C   UNL A   1      34.477  34.420  29.893  1.00  0.00     0.060 A 
BRANCH  81  82
ATOM     82  S   UNL A   1      33.106  35.238  29.047  1.00  0.00     0.124 S 
ATOM     83  O   UNL A   1      32.198  35.510  30.155  1.00  0.00    -0.237 OA
ATOM     84  O   UNL A   1      33.762  36.401  28.458  1.00  0.00    -0.237 OA
ATOM     85  O   UNL A   1      32.653  34.233  28.091  1.00  0.00    -0.744 OA
ENDBRANCH  81  82
ENDBRANCH  49  74
BRANCH  61  86
ATOM     86  C   UNL A   1      39.808  34.007  37.310  1.00  0.00     0.058 A 
ATOM     87  C   UNL A   1      39.029  33.703  38.436  1.00  0.00     0.135 A 
ATOM     88  C   UNL A   1      40.455  35.255  37.280  1.00  0.00     0.135 A 
ATOM     89  F   UNL A   1      38.382  32.529  38.513  1.00  0.00    -0.206 F 
ATOM     90  C   UNL A   1      38.877  34.608  39.482  1.00  0.00     0.059 A 
ATOM     91  C   UNL A   1      40.345  36.162  38.328  1.00  0.00     0.059 A 
ATOM     92  F   UNL A   1      41.222  35.594  36.231  1.00  0.00    -0.206 F 
ATOM     93  C   UNL A   1      39.543  35.835  39.420  1.00  0.00     0.060 A 
BRANCH  93  94
ATOM     94  S   UNL A   1      39.368  36.984  40.801  1.00  0.00     0.124 S 
ATOM     95  O   UNL A   1      38.684  36.155  41.789  1.00  0.00    -0.237 OA
ATOM     96  O   UNL A   1      40.755  37.320  41.106  1.00  0.00    -0.237 OA
ATOM     97  O   UNL A   1      38.574  38.073  40.240  1.00  0.00    -0.744 OA
ENDBRANCH  93  94
ENDBRANCH  61  86
ENDBRANCH  35  36
ENDBRANCH  27  30
ENDBRANCH  25  26
ENDBRANCH  24  25
ENDBRANCH  23  24
ENDBRANCH  22  23
ENDBRANCH   3  22
TORSDOF 22
ENDMDL
