MODEL 1
REMARK VINA RESULT:      -9.5      0.000      0.000
REMARK SMILES C[C@@H](OCC(F)(F)F)C(=O)NCCCCNC(=O)c1ccc(-c2c3nc(c(-c4c(F)cc(S(=O)(=O)[O-])cc4F)c4ccc([nH]4)c(-c4c(F)cc(S(=O)(=O)[O-])cc4F)c4nc(c(-c5c(F)cc(S(=O)(=O)[O-])cc5F)c5ccc2[nH]5)C=C4)C=C3)cc1
REMARK SMILES IDX 13 1 12 2 11 3 9 4 10 5 2 7 1 8 3 9 4 10 5 11 6 12 7 13 8 14
REMARK SMILES IDX 14 15 15 16 16 17 17 18 18 20 19 21 20 22 84 23 21 24 83 25
REMARK SMILES IDX 22 26 23 27 24 28 77 29 25 30 82 31 76 32 78 33 26 34 81 35
REMARK SMILES IDX 75 36 74 37 27 39 61 40 40 41 60 42 41 43 44 44 59 45 79 46
REMARK SMILES IDX 42 47 43 48 58 50 80 51 45 52 28 53 29 54 38 55 30 56 31 57
REMARK SMILES IDX 37 58 39 59 32 60 33 61 34 62 35 63 36 64 62 65 63 66 72 67
REMARK SMILES IDX 64 68 65 69 71 70 73 71 66 72 67 73 68 74 69 75 70 76 46 77
REMARK SMILES IDX 47 78 56 79 48 80 49 81 55 82 57 83 50 84 51 85 52 86 53 87
REMARK SMILES IDX 54 88
REMARK H PARENT 11 6 16 19 78 38 44 49
REMARK Flexibility Score: inf
ROOT
ATOM      1  C   UNL A   1      33.115  34.762  28.416  1.00  0.00     0.023 C 
ENDROOT
BRANCH   1   2
ATOM      2  C   UNL A   1      33.402  36.138  29.015  1.00  0.00     0.116 C 
BRANCH   2   3
ATOM      3  N   UNL A   1      32.526  36.429  30.134  1.00  0.00    -0.354 N 
ATOM      4  C   UNL A   1      32.711  36.197  31.467  1.00  0.00     0.248 C 
ATOM      5  O   UNL A   1      31.804  36.510  32.242  1.00  0.00    -0.272 OA
ATOM      6  H   UNL A   1      31.672  36.856  29.898  1.00  0.00     0.163 HD
BRANCH   4   7
ATOM      7  C   UNL A   1      33.998  35.526  31.988  1.00  0.00     0.204 C 
ATOM      8  C   UNL A   1      34.343  36.056  33.377  1.00  0.00     0.049 C 
BRANCH   7   9
ATOM      9  O   UNL A   1      33.863  34.105  31.936  1.00  0.00    -0.359 OA
BRANCH   9  10
ATOM     10  C   UNL A   1      34.538  33.356  32.955  1.00  0.00     0.276 C 
BRANCH  10  11
ATOM     11  C   UNL A   1      35.646  32.408  32.502  1.00  0.00     0.411 C 
ATOM     12  F   UNL A   1      35.176  31.457  31.664  1.00  0.00    -0.168 F 
ATOM     13  F   UNL A   1      36.601  33.094  31.828  1.00  0.00    -0.168 F 
ATOM     14  F   UNL A   1      36.246  31.793  33.541  1.00  0.00    -0.168 F 
ENDBRANCH  10  11
ENDBRANCH   9  10
ENDBRANCH   7   9
ENDBRANCH   4   7
ENDBRANCH   2   3
ENDBRANCH   1   2
BRANCH   1  15
ATOM     15  C   UNL A   1      34.358  33.937  28.080  1.00  0.00     0.023 C 
BRANCH  15  16
ATOM     16  C   UNL A   1      34.405  32.545  28.703  1.00  0.00     0.116 C 
BRANCH  16  17
ATOM     17  N   UNL A   1      33.907  31.507  27.814  1.00  0.00    -0.352 N 
ATOM     18  C   UNL A   1      34.521  30.343  27.416  1.00  0.00     0.251 C 
ATOM     19  H   UNL A   1      33.006  31.658  27.446  1.00  0.00     0.163 HD
ATOM     20  O   UNL A   1      34.000  29.637  26.556  1.00  0.00    -0.269 OA
BRANCH  18  21
ATOM     21  C   UNL A   1      35.825  29.964  28.003  1.00  0.00     0.039 A 
ATOM     22  C   UNL A   1      36.994  30.274  27.306  1.00  0.00     0.014 A 
ATOM     23  C   UNL A   1      35.894  29.327  29.246  1.00  0.00     0.014 A 
ATOM     24  C   UNL A   1      38.237  30.010  27.887  1.00  0.00     0.010 A 
ATOM     25  C   UNL A   1      37.131  29.127  29.853  1.00  0.00     0.010 A 
ATOM     26  C   UNL A   1      38.315  29.469  29.182  1.00  0.00    -0.014 A 
BRANCH  26  27
ATOM     27  C   UNL A   1      39.624  29.264  29.854  1.00  0.00     0.031 A 
ATOM     28  C   UNL A   1      40.553  28.180  29.385  1.00  0.00     0.074 A 
ATOM     29  C   UNL A   1      39.943  30.008  30.933  1.00  0.00     0.049 A 
ATOM     30  N   UNL A   1      41.697  27.797  29.889  1.00  0.00    -0.248 NA
ATOM     31  C   UNL A   1      40.128  27.406  28.207  1.00  0.00     0.031 C 
ATOM     32  C   UNL A   1      39.101  31.054  31.517  1.00  0.00     0.029 A 
ATOM     33  N   UNL A   1      41.053  29.989  31.739  1.00  0.00    -0.354 N 
ATOM     34  C   UNL A   1      42.122  26.732  29.103  1.00  0.00     0.074 A 
ATOM     35  C   UNL A   1      41.087  26.496  28.119  1.00  0.00     0.031 C 
ATOM     36  C   UNL A   1      39.732  31.585  32.578  1.00  0.00     0.029 A 
ATOM     37  C   UNL A   1      41.004  30.896  32.770  1.00  0.00     0.049 A 
ATOM     38  H   UNL A   1      41.815  29.381  31.592  1.00  0.00     0.167 HD
ATOM     39  C   UNL A   1      43.278  26.030  29.178  1.00  0.00     0.037 A 
ATOM     40  C   UNL A   1      41.880  31.141  33.764  1.00  0.00     0.037 A 
ATOM     41  C   UNL A   1      44.314  26.285  30.145  1.00  0.00     0.049 A 
ATOM     42  C   UNL A   1      43.162  30.356  33.822  1.00  0.00     0.074 A 
ATOM     43  C   UNL A   1      45.545  25.664  30.271  1.00  0.00     0.029 A 
ATOM     44  N   UNL A   1      44.242  27.235  31.153  1.00  0.00    -0.354 N 
ATOM     45  N   UNL A   1      43.574  29.393  33.033  1.00  0.00    -0.248 NA
ATOM     46  C   UNL A   1      44.102  30.695  34.900  1.00  0.00     0.031 C 
ATOM     47  C   UNL A   1      46.202  26.215  31.377  1.00  0.00     0.029 A 
ATOM     48  C   UNL A   1      45.400  27.209  31.913  1.00  0.00     0.049 A 
ATOM     49  H   UNL A   1      43.480  27.840  31.306  1.00  0.00     0.167 HD
ATOM     50  C   UNL A   1      44.831  29.027  33.503  1.00  0.00     0.074 A 
ATOM     51  C   UNL A   1      45.116  29.881  34.638  1.00  0.00     0.031 C 
ATOM     52  C   UNL A   1      45.671  28.070  33.038  1.00  0.00     0.037 A 
BRANCH  39  53
ATOM     53  C   UNL A   1      43.486  24.927  28.178  1.00  0.00     0.058 A 
ATOM     54  C   UNL A   1      44.042  25.176  26.913  1.00  0.00     0.135 A 
ATOM     55  C   UNL A   1      43.147  23.600  28.493  1.00  0.00     0.135 A 
ATOM     56  F   UNL A   1      44.370  26.428  26.553  1.00  0.00    -0.206 F 
ATOM     57  C   UNL A   1      44.224  24.158  25.984  1.00  0.00     0.059 A 
ATOM     58  C   UNL A   1      43.347  22.561  27.589  1.00  0.00     0.059 A 
ATOM     59  F   UNL A   1      42.613  23.305  29.688  1.00  0.00    -0.206 F 
ATOM     60  C   UNL A   1      43.870  22.853  26.330  1.00  0.00     0.060 A 
BRANCH  60  61
ATOM     61  S   UNL A   1      44.106  21.543  25.110  1.00  0.00     0.124 S 
ATOM     62  O   UNL A   1      44.003  22.289  23.860  1.00  0.00    -0.237 OA
ATOM     63  O   UNL A   1      45.437  21.044  25.441  1.00  0.00    -0.237 OA
ATOM     64  O   UNL A   1      43.009  20.621  25.383  1.00  0.00    -0.744 OA
ENDBRANCH  60  61
ENDBRANCH  39  53
BRANCH  40  65
ATOM     65  C   UNL A   1      41.582  32.194  34.771  1.00  0.00     0.058 A 
ATOM     66  C   UNL A   1      42.046  33.507  34.602  1.00  0.00     0.135 A 
ATOM     67  C   UNL A   1      40.809  31.915  35.909  1.00  0.00     0.135 A 
ATOM     68  F   UNL A   1      42.794  33.820  33.534  1.00  0.00    -0.206 F 
ATOM     69  C   UNL A   1      41.766  34.503  35.531  1.00  0.00     0.059 A 
ATOM     70  C   UNL A   1      40.496  32.900  36.839  1.00  0.00     0.059 A 
ATOM     71  F   UNL A   1      40.325  30.678  36.107  1.00  0.00    -0.206 F 
ATOM     72  C   UNL A   1      40.987  34.191  36.646  1.00  0.00     0.060 A 
BRANCH  72  73
ATOM     73  S   UNL A   1      40.581  35.505  37.816  1.00  0.00     0.124 S 
ATOM     74  O   UNL A   1      41.907  35.984  38.191  1.00  0.00    -0.237 OA
ATOM     75  O   UNL A   1      39.783  36.411  36.996  1.00  0.00    -0.237 OA
ATOM     76  O   UNL A   1      39.842  34.805  38.863  1.00  0.00    -0.744 OA
ENDBRANCH  72  73
ENDBRANCH  40  65
BRANCH  52  77
ATOM     77  C   UNL A   1      46.995  27.914  33.733  1.00  0.00     0.058 A 
ATOM     78  C   UNL A   1      47.164  27.027  34.806  1.00  0.00     0.135 A 
ATOM     79  C   UNL A   1      48.121  28.625  33.285  1.00  0.00     0.135 A 
ATOM     80  F   UNL A   1      46.118  26.328  35.277  1.00  0.00    -0.206 F 
ATOM     81  C   UNL A   1      48.400  26.863  35.424  1.00  0.00     0.059 A 
ATOM     82  C   UNL A   1      49.371  28.457  33.871  1.00  0.00     0.059 A 
ATOM     83  F   UNL A   1      48.014  29.480  32.256  1.00  0.00    -0.206 F 
ATOM     84  C   UNL A   1      49.497  27.582  34.948  1.00  0.00     0.060 A 
BRANCH  84  85
ATOM     85  S   UNL A   1      51.103  27.333  35.736  1.00  0.00     0.124 S 
ATOM     86  O   UNL A   1      51.280  25.892  35.596  1.00  0.00    -0.237 OA
ATOM     87  O   UNL A   1      51.985  28.163  34.920  1.00  0.00    -0.237 OA
ATOM     88  O   UNL A   1      50.889  27.811  37.100  1.00  0.00    -0.744 OA
ENDBRANCH  84  85
ENDBRANCH  52  77
ENDBRANCH  26  27
ENDBRANCH  18  21
ENDBRANCH  16  17
ENDBRANCH  15  16
ENDBRANCH   1  15
TORSDOF 17
ENDMDL
MODEL 2
REMARK VINA RESULT:      -9.4      3.187     11.294
REMARK SMILES C[C@@H](OCC(F)(F)F)C(=O)NCCCCNC(=O)c1ccc(-c2c3nc(c(-c4c(F)cc(S(=O)(=O)[O-])cc4F)c4ccc([nH]4)c(-c4c(F)cc(S(=O)(=O)[O-])cc4F)c4nc(c(-c5c(F)cc(S(=O)(=O)[O-])cc5F)c5ccc2[nH]5)C=C4)C=C3)cc1
REMARK SMILES IDX 13 1 12 2 11 3 9 4 10 5 2 7 1 8 3 9 4 10 5 11 6 12 7 13 8 14
REMARK SMILES IDX 14 15 15 16 16 17 17 18 18 20 19 21 20 22 84 23 21 24 83 25
REMARK SMILES IDX 22 26 23 27 24 28 77 29 25 30 82 31 76 32 78 33 26 34 81 35
REMARK SMILES IDX 75 36 74 37 27 39 61 40 40 41 60 42 41 43 44 44 59 45 79 46
REMARK SMILES IDX 42 47 43 48 58 50 80 51 45 52 28 53 29 54 38 55 30 56 31 57
REMARK SMILES IDX 37 58 39 59 32 60 33 61 34 62 35 63 36 64 62 65 63 66 72 67
REMARK SMILES IDX 64 68 65 69 71 70 73 71 66 72 67 73 68 74 69 75 70 76 46 77
REMARK SMILES IDX 47 78 56 79 48 80 49 81 55 82 57 83 50 84 51 85 52 86 53 87
REMARK SMILES IDX 54 88
REMARK H PARENT 11 6 16 19 78 38 44 49
REMARK Flexibility Score: inf
ROOT
ATOM      1  C   UNL A   1      42.161  22.477  28.249  1.00  0.00     0.023 C 
ENDROOT
BRANCH   1   2
ATOM      2  C   UNL A   1      43.259  21.842  27.398  1.00  0.00     0.116 C 
BRANCH   2   3
ATOM      3  N   UNL A   1      42.752  20.737  26.607  1.00  0.00    -0.354 N 
ATOM      4  C   UNL A   1      43.331  20.076  25.562  1.00  0.00     0.248 C 
ATOM      5  O   UNL A   1      42.691  19.171  25.020  1.00  0.00    -0.272 OA
ATOM      6  H   UNL A   1      41.858  20.416  26.862  1.00  0.00     0.163 HD
BRANCH   4   7
ATOM      7  C   UNL A   1      44.729  20.472  25.045  1.00  0.00     0.204 C 
ATOM      8  C   UNL A   1      45.628  19.242  24.963  1.00  0.00     0.049 C 
BRANCH   7   9
ATOM      9  O   UNL A   1      44.610  21.175  23.808  1.00  0.00    -0.359 OA
BRANCH   9  10
ATOM     10  C   UNL A   1      44.547  22.605  23.882  1.00  0.00     0.276 C 
BRANCH  10  11
ATOM     11  C   UNL A   1      45.727  23.320  24.537  1.00  0.00     0.411 C 
ATOM     12  F   UNL A   1      45.520  24.653  24.619  1.00  0.00    -0.168 F 
ATOM     13  F   UNL A   1      45.903  22.868  25.803  1.00  0.00    -0.168 F 
ATOM     14  F   UNL A   1      46.881  23.115  23.870  1.00  0.00    -0.168 F 
ENDBRANCH  10  11
ENDBRANCH   9  10
ENDBRANCH   7   9
ENDBRANCH   4   7
ENDBRANCH   2   3
ENDBRANCH   1   2
BRANCH   1  15
ATOM     15  C   UNL A   1      40.736  22.089  27.852  1.00  0.00     0.023 C 
BRANCH  15  16
ATOM     16  C   UNL A   1      39.909  23.202  27.216  1.00  0.00     0.116 C 
BRANCH  16  17
ATOM     17  N   UNL A   1      40.605  23.881  26.134  1.00  0.00    -0.352 N 
ATOM     18  C   UNL A   1      41.097  25.164  26.095  1.00  0.00     0.251 C 
ATOM     19  H   UNL A   1      40.743  23.349  25.317  1.00  0.00     0.163 HD
ATOM     20  O   UNL A   1      41.549  25.616  25.047  1.00  0.00    -0.269 OA
BRANCH  18  21
ATOM     21  C   UNL A   1      41.046  26.006  27.311  1.00  0.00     0.039 A 
ATOM     22  C   UNL A   1      42.104  26.879  27.572  1.00  0.00     0.014 A 
ATOM     23  C   UNL A   1      39.949  25.949  28.177  1.00  0.00     0.014 A 
ATOM     24  C   UNL A   1      42.030  27.748  28.663  1.00  0.00     0.010 A 
ATOM     25  C   UNL A   1      39.847  26.862  29.223  1.00  0.00     0.010 A 
ATOM     26  C   UNL A   1      40.883  27.773  29.475  1.00  0.00    -0.014 A 
BRANCH  26  27
ATOM     27  C   UNL A   1      40.745  28.751  30.585  1.00  0.00     0.031 A 
ATOM     28  C   UNL A   1      41.595  28.620  31.818  1.00  0.00     0.074 A 
ATOM     29  C   UNL A   1      39.805  29.715  30.512  1.00  0.00     0.049 A 
ATOM     30  N   UNL A   1      41.567  29.323  32.920  1.00  0.00    -0.248 NA
ATOM     31  C   UNL A   1      42.591  27.536  31.824  1.00  0.00     0.031 C 
ATOM     32  C   UNL A   1      38.883  29.912  29.391  1.00  0.00     0.029 A 
ATOM     33  N   UNL A   1      39.459  30.699  31.403  1.00  0.00    -0.354 N 
ATOM     34  C   UNL A   1      42.527  28.763  33.754  1.00  0.00     0.074 A 
ATOM     35  C   UNL A   1      43.084  27.628  33.051  1.00  0.00     0.031 C 
ATOM     36  C   UNL A   1      38.087  30.962  29.656  1.00  0.00     0.029 A 
ATOM     37  C   UNL A   1      38.418  31.489  30.976  1.00  0.00     0.049 A 
ATOM     38  H   UNL A   1      39.913  30.828  32.267  1.00  0.00     0.167 HD
ATOM     39  C   UNL A   1      42.925  29.170  34.983  1.00  0.00     0.037 A 
ATOM     40  C   UNL A   1      37.793  32.517  31.583  1.00  0.00     0.037 A 
ATOM     41  C   UNL A   1      42.383  30.314  35.668  1.00  0.00     0.049 A 
ATOM     42  C   UNL A   1      38.257  32.958  32.944  1.00  0.00     0.074 A 
ATOM     43  C   UNL A   1      42.754  30.839  36.894  1.00  0.00     0.029 A 
ATOM     44  N   UNL A   1      41.351  31.109  35.189  1.00  0.00    -0.354 N 
ATOM     45  N   UNL A   1      39.208  32.453  33.693  1.00  0.00    -0.248 NA
ATOM     46  C   UNL A   1      37.571  34.113  33.541  1.00  0.00     0.031 C 
ATOM     47  C   UNL A   1      41.924  31.931  37.171  1.00  0.00     0.029 A 
ATOM     48  C   UNL A   1      41.065  32.113  36.100  1.00  0.00     0.049 A 
ATOM     49  H   UNL A   1      40.891  30.981  34.329  1.00  0.00     0.167 HD
ATOM     50  C   UNL A   1      39.251  33.242  34.837  1.00  0.00     0.074 A 
ATOM     51  C   UNL A   1      38.238  34.265  34.677  1.00  0.00     0.031 C 
ATOM     52  C   UNL A   1      40.056  33.128  35.923  1.00  0.00     0.037 A 
BRANCH  39  53
ATOM     53  C   UNL A   1      44.008  28.376  35.660  1.00  0.00     0.058 A 
ATOM     54  C   UNL A   1      43.708  27.315  36.530  1.00  0.00     0.135 A 
ATOM     55  C   UNL A   1      45.363  28.662  35.421  1.00  0.00     0.135 A 
ATOM     56  F   UNL A   1      42.429  27.009  36.806  1.00  0.00    -0.206 F 
ATOM     57  C   UNL A   1      44.709  26.589  37.164  1.00  0.00     0.059 A 
ATOM     58  C   UNL A   1      46.382  27.929  36.024  1.00  0.00     0.059 A 
ATOM     59  F   UNL A   1      45.708  29.664  34.598  1.00  0.00    -0.206 F 
ATOM     60  C   UNL A   1      46.043  26.905  36.908  1.00  0.00     0.060 A 
BRANCH  60  61
ATOM     61  S   UNL A   1      47.331  25.955  37.745  1.00  0.00     0.124 S 
ATOM     62  O   UNL A   1      46.963  24.589  37.386  1.00  0.00    -0.237 OA
ATOM     63  O   UNL A   1      48.549  26.467  37.125  1.00  0.00    -0.237 OA
ATOM     64  O   UNL A   1      47.153  26.305  39.150  1.00  0.00    -0.744 OA
ENDBRANCH  60  61
ENDBRANCH  39  53
BRANCH  40  65
ATOM     65  C   UNL A   1      36.673  33.213  30.895  1.00  0.00     0.058 A 
ATOM     66  C   UNL A   1      35.338  32.931  31.221  1.00  0.00     0.135 A 
ATOM     67  C   UNL A   1      36.915  34.190  29.917  1.00  0.00     0.135 A 
ATOM     68  F   UNL A   1      35.057  32.001  32.146  1.00  0.00    -0.206 F 
ATOM     69  C   UNL A   1      34.282  33.582  30.593  1.00  0.00     0.059 A 
ATOM     70  C   UNL A   1      35.876  34.871  29.291  1.00  0.00     0.059 A 
ATOM     71  F   UNL A   1      38.175  34.510  29.581  1.00  0.00    -0.206 F 
ATOM     72  C   UNL A   1      34.561  34.553  29.630  1.00  0.00     0.060 A 
BRANCH  72  73
ATOM     73  S   UNL A   1      33.183  35.434  28.862  1.00  0.00     0.124 S 
ATOM     74  O   UNL A   1      32.503  34.354  28.157  1.00  0.00    -0.237 OA
ATOM     75  O   UNL A   1      32.483  35.979  30.021  1.00  0.00    -0.237 OA
ATOM     76  O   UNL A   1      33.847  36.423  28.018  1.00  0.00    -0.744 OA
ENDBRANCH  72  73
ENDBRANCH  40  65
BRANCH  52  77
ATOM     77  C   UNL A   1      39.899  34.154  37.011  1.00  0.00     0.058 A 
ATOM     78  C   UNL A   1      40.488  35.424  36.917  1.00  0.00     0.135 A 
ATOM     79  C   UNL A   1      39.105  33.880  38.136  1.00  0.00     0.135 A 
ATOM     80  F   UNL A   1      41.262  35.734  35.864  1.00  0.00    -0.206 F 
ATOM     81  C   UNL A   1      40.313  36.381  37.912  1.00  0.00     0.059 A 
ATOM     82  C   UNL A   1      38.895  34.830  39.130  1.00  0.00     0.059 A 
ATOM     83  F   UNL A   1      38.512  32.683  38.269  1.00  0.00    -0.206 F 
ATOM     84  C   UNL A   1      39.512  36.074  39.014  1.00  0.00     0.060 A 
BRANCH  84  85
ATOM     85  S   UNL A   1      39.263  37.337  40.281  1.00  0.00     0.124 S 
ATOM     86  O   UNL A   1      38.527  36.592  41.297  1.00  0.00    -0.237 OA
ATOM     87  O   UNL A   1      40.631  37.705  40.631  1.00  0.00    -0.237 OA
ATOM     88  O   UNL A   1      38.501  38.370  39.584  1.00  0.00    -0.744 OA
ENDBRANCH  84  85
ENDBRANCH  52  77
ENDBRANCH  26  27
ENDBRANCH  18  21
ENDBRANCH  16  17
ENDBRANCH  15  16
ENDBRANCH   1  15
TORSDOF 17
ENDMDL
MODEL 3
REMARK VINA RESULT:      -9.4      4.031      9.854
REMARK SMILES C[C@@H](OCC(F)(F)F)C(=O)NCCCCNC(=O)c1ccc(-c2c3nc(c(-c4c(F)cc(S(=O)(=O)[O-])cc4F)c4ccc([nH]4)c(-c4c(F)cc(S(=O)(=O)[O-])cc4F)c4nc(c(-c5c(F)cc(S(=O)(=O)[O-])cc5F)c5ccc2[nH]5)C=C4)C=C3)cc1
REMARK SMILES IDX 13 1 12 2 11 3 9 4 10 5 2 7 1 8 3 9 4 10 5 11 6 12 7 13 8 14
REMARK SMILES IDX 14 15 15 16 16 17 17 18 18 20 19 21 20 22 84 23 21 24 83 25
REMARK SMILES IDX 22 26 23 27 24 28 77 29 25 30 82 31 76 32 78 33 26 34 81 35
REMARK SMILES IDX 75 36 74 37 27 39 61 40 40 41 60 42 41 43 44 44 59 45 79 46
REMARK SMILES IDX 42 47 43 48 58 50 80 51 45 52 28 53 29 54 38 55 30 56 31 57
REMARK SMILES IDX 37 58 39 59 32 60 33 61 34 62 35 63 36 64 62 65 63 66 72 67
REMARK SMILES IDX 64 68 65 69 71 70 73 71 66 72 67 73 68 74 69 75 70 76 46 77
REMARK SMILES IDX 47 78 56 79 48 80 49 81 55 82 57 83 50 84 51 85 52 86 53 87
REMARK SMILES IDX 54 88
REMARK H PARENT 11 6 16 19 78 38 44 49
REMARK Flexibility Score: inf
ROOT
ATOM      1  C   UNL A   1      32.865  29.545  24.966  1.00  0.00     0.023 C 
ENDROOT
BRANCH   1   2
ATOM      2  C   UNL A   1      31.367  29.839  25.009  1.00  0.00     0.116 C 
BRANCH   2   3
ATOM      3  N   UNL A   1      30.821  30.036  23.679  1.00  0.00    -0.354 N 
ATOM      4  C   UNL A   1      30.192  29.147  22.856  1.00  0.00     0.248 C 
ATOM      5  O   UNL A   1      29.832  29.540  21.743  1.00  0.00    -0.272 OA
ATOM      6  H   UNL A   1      30.921  30.945  23.316  1.00  0.00     0.163 HD
BRANCH   4   7
ATOM      7  C   UNL A   1      29.971  27.683  23.285  1.00  0.00     0.204 C 
ATOM      8  C   UNL A   1      28.485  27.418  23.508  1.00  0.00     0.049 C 
BRANCH   7   9
ATOM      9  O   UNL A   1      30.571  26.801  22.335  1.00  0.00    -0.359 OA
BRANCH   9  10
ATOM     10  C   UNL A   1      31.656  25.990  22.804  1.00  0.00     0.276 C 
BRANCH  10  11
ATOM     11  C   UNL A   1      33.063  26.388  22.362  1.00  0.00     0.411 C 
ATOM     12  F   UNL A   1      33.989  26.054  23.288  1.00  0.00    -0.168 F 
ATOM     13  F   UNL A   1      33.394  25.740  21.219  1.00  0.00    -0.168 F 
ATOM     14  F   UNL A   1      33.166  27.711  22.123  1.00  0.00    -0.168 F 
ENDBRANCH  10  11
ENDBRANCH   9  10
ENDBRANCH   7   9
ENDBRANCH   4   7
ENDBRANCH   2   3
ENDBRANCH   1   2
BRANCH   1  15
ATOM     15  C   UNL A   1      33.286  28.253  25.670  1.00  0.00     0.023 C 
BRANCH  15  16
ATOM     16  C   UNL A   1      33.691  28.408  27.132  1.00  0.00     0.116 C 
BRANCH  16  17
ATOM     17  N   UNL A   1      33.566  29.775  27.616  1.00  0.00    -0.352 N 
ATOM     18  C   UNL A   1      34.496  30.548  28.271  1.00  0.00     0.251 C 
ATOM     19  H   UNL A   1      32.696  30.205  27.452  1.00  0.00     0.163 HD
ATOM     20  O   UNL A   1      34.174  31.644  28.720  1.00  0.00    -0.269 OA
BRANCH  18  21
ATOM     21  C   UNL A   1      35.871  30.036  28.460  1.00  0.00     0.039 A 
ATOM     22  C   UNL A   1      36.760  30.077  27.384  1.00  0.00     0.014 A 
ATOM     23  C   UNL A   1      36.287  29.540  29.699  1.00  0.00     0.014 A 
ATOM     24  C   UNL A   1      38.088  29.687  27.569  1.00  0.00     0.010 A 
ATOM     25  C   UNL A   1      37.626  29.216  29.900  1.00  0.00     0.010 A 
ATOM     26  C   UNL A   1      38.541  29.290  28.839  1.00  0.00    -0.014 A 
BRANCH  26  27
ATOM     27  C   UNL A   1      39.969  28.957  29.079  1.00  0.00     0.031 A 
ATOM     28  C   UNL A   1      40.910  30.001  29.615  1.00  0.00     0.074 A 
ATOM     29  C   UNL A   1      40.434  27.736  28.746  1.00  0.00     0.049 A 
ATOM     30  N   UNL A   1      42.200  29.926  29.816  1.00  0.00    -0.248 NA
ATOM     31  C   UNL A   1      40.327  31.311  29.945  1.00  0.00     0.031 C 
ATOM     32  C   UNL A   1      39.632  26.655  28.168  1.00  0.00     0.029 A 
ATOM     33  N   UNL A   1      41.695  27.202  28.832  1.00  0.00    -0.354 N 
ATOM     34  C   UNL A   1      42.585  31.178  30.281  1.00  0.00     0.074 A 
ATOM     35  C   UNL A   1      41.401  32.009  30.282  1.00  0.00     0.031 C 
ATOM     36  C   UNL A   1      40.418  25.585  27.965  1.00  0.00     0.029 A 
ATOM     37  C   UNL A   1      41.783  25.912  28.366  1.00  0.00     0.049 A 
ATOM     38  H   UNL A   1      42.466  27.697  29.195  1.00  0.00     0.167 HD
ATOM     39  C   UNL A   1      43.809  31.590  30.691  1.00  0.00     0.037 A 
ATOM     40  C   UNL A   1      42.844  25.088  28.264  1.00  0.00     0.037 A 
ATOM     41  C   UNL A   1      44.979  30.751  30.708  1.00  0.00     0.049 A 
ATOM     42  C   UNL A   1      44.191  25.564  28.734  1.00  0.00     0.074 A 
ATOM     43  C   UNL A   1      46.252  31.060  31.154  1.00  0.00     0.029 A 
ATOM     44  N   UNL A   1      45.020  29.439  30.258  1.00  0.00    -0.354 N 
ATOM     45  N   UNL A   1      44.525  26.732  29.227  1.00  0.00    -0.248 NA
ATOM     46  C   UNL A   1      45.304  24.608  28.641  1.00  0.00     0.031 C 
ATOM     47  C   UNL A   1      47.072  29.945  30.941  1.00  0.00     0.029 A 
ATOM     48  C   UNL A   1      46.299  28.928  30.404  1.00  0.00     0.049 A 
ATOM     49  H   UNL A   1      44.253  28.943  29.891  1.00  0.00     0.167 HD
ATOM     50  C   UNL A   1      45.880  26.645  29.526  1.00  0.00     0.074 A 
ATOM     51  C   UNL A   1      46.301  25.306  29.169  1.00  0.00     0.031 C 
ATOM     52  C   UNL A   1      46.701  27.590  30.049  1.00  0.00     0.037 A 
BRANCH  39  53
ATOM     53  C   UNL A   1      43.938  33.011  31.165  1.00  0.00     0.058 A 
ATOM     54  C   UNL A   1      44.184  34.065  30.269  1.00  0.00     0.135 A 
ATOM     55  C   UNL A   1      43.795  33.330  32.525  1.00  0.00     0.135 A 
ATOM     56  F   UNL A   1      44.345  33.815  28.959  1.00  0.00    -0.206 F 
ATOM     57  C   UNL A   1      44.315  35.378  30.708  1.00  0.00     0.059 A 
ATOM     58  C   UNL A   1      43.894  34.641  32.983  1.00  0.00     0.059 A 
ATOM     59  F   UNL A   1      43.558  32.362  33.425  1.00  0.00    -0.206 F 
ATOM     60  C   UNL A   1      44.172  35.655  32.068  1.00  0.00     0.060 A 
BRANCH  60  61
ATOM     61  S   UNL A   1      44.352  37.365  32.623  1.00  0.00     0.124 S 
ATOM     62  O   UNL A   1      44.545  38.062  31.355  1.00  0.00    -0.237 OA
ATOM     63  O   UNL A   1      43.079  37.611  33.293  1.00  0.00    -0.237 OA
ATOM     64  O   UNL A   1      45.519  37.318  33.498  1.00  0.00    -0.744 OA
ENDBRANCH  60  61
ENDBRANCH  39  53
BRANCH  40  65
ATOM     65  C   UNL A   1      42.667  23.718  27.712  1.00  0.00     0.058 A 
ATOM     66  C   UNL A   1      42.764  23.477  26.333  1.00  0.00     0.135 A 
ATOM     67  C   UNL A   1      42.421  22.621  28.551  1.00  0.00     0.135 A 
ATOM     68  F   UNL A   1      42.992  24.495  25.490  1.00  0.00    -0.206 F 
ATOM     69  C   UNL A   1      42.611  22.200  25.805  1.00  0.00     0.059 A 
ATOM     70  C   UNL A   1      42.288  21.331  28.049  1.00  0.00     0.059 A 
ATOM     71  F   UNL A   1      42.338  22.795  29.880  1.00  0.00    -0.206 F 
ATOM     72  C   UNL A   1      42.375  21.132  26.671  1.00  0.00     0.060 A 
BRANCH  72  73
ATOM     73  S   UNL A   1      42.236  19.469  25.980  1.00  0.00     0.124 S 
ATOM     74  O   UNL A   1      40.820  19.413  25.635  1.00  0.00    -0.237 OA
ATOM     75  O   UNL A   1      43.165  19.524  24.856  1.00  0.00    -0.237 OA
ATOM     76  O   UNL A   1      42.652  18.611  27.085  1.00  0.00    -0.744 OA
ENDBRANCH  72  73
ENDBRANCH  40  65
BRANCH  52  77
ATOM     77  C   UNL A   1      48.132  27.201  30.298  1.00  0.00     0.058 A 
ATOM     78  C   UNL A   1      49.141  27.464  29.359  1.00  0.00     0.135 A 
ATOM     79  C   UNL A   1      48.506  26.606  31.514  1.00  0.00     0.135 A 
ATOM     80  F   UNL A   1      48.836  28.025  28.178  1.00  0.00    -0.206 F 
ATOM     81  C   UNL A   1      50.469  27.131  29.609  1.00  0.00     0.059 A 
ATOM     82  C   UNL A   1      49.830  26.289  31.795  1.00  0.00     0.059 A 
ATOM     83  F   UNL A   1      47.579  26.342  32.449  1.00  0.00    -0.206 F 
ATOM     84  C   UNL A   1      50.803  26.545  30.831  1.00  0.00     0.060 A 
BRANCH  84  85
ATOM     85  S   UNL A   1      52.535  26.151  31.158  1.00  0.00     0.124 S 
ATOM     86  O   UNL A   1      52.918  27.234  32.057  1.00  0.00    -0.237 OA
ATOM     87  O   UNL A   1      52.447  24.826  31.762  1.00  0.00    -0.237 OA
ATOM     88  O   UNL A   1      53.148  26.189  29.832  1.00  0.00    -0.744 OA
ENDBRANCH  84  85
ENDBRANCH  52  77
ENDBRANCH  26  27
ENDBRANCH  18  21
ENDBRANCH  16  17
ENDBRANCH  15  16
ENDBRANCH   1  15
TORSDOF 17
ENDMDL
