MODEL 1
REMARK VINA RESULT:     -11.7      0.000      0.000
REMARK SMILES CCN1C(=O)CC[C@H](C(=O)NCCCCNC(=O)c2ccc(-c3c4nc(c(-c5c(F)cc(S(=O)(=O)[O-])cc5F)c5ccc([nH]5)c(-c5c(F)cc(S(=O)(=O)[O-])cc5F)c5nc(c(-c6c(F)cc(S(=O)(=O)[O-])cc6F)c6ccc3[nH]6)C=C5)C=C4)cc2)[C@@H]1c1ccc(OC)cc1
REMARK SMILES IDX 14 1 13 2 12 3 11 4 9 5 10 6 8 8 3 9 4 10 85 11 5 12 6 13
REMARK SMILES IDX 7 14 2 15 1 16 86 17 87 18 93 19 88 20 92 21 89 22 90 23
REMARK SMILES IDX 91 24 15 25 16 26 17 27 18 29 19 30 20 31 84 32 21 33 83 34
REMARK SMILES IDX 22 35 23 36 24 37 77 38 25 39 82 40 76 41 78 42 26 43 81 44
REMARK SMILES IDX 75 45 74 46 27 48 61 49 40 50 60 51 41 52 44 53 59 54 79 55
REMARK SMILES IDX 42 56 43 57 58 59 80 60 45 61 28 62 29 63 38 64 30 65 31 66
REMARK SMILES IDX 37 67 39 68 32 69 33 70 34 71 35 72 36 73 62 74 63 75 72 76
REMARK SMILES IDX 64 77 65 78 71 79 73 80 66 81 67 82 68 83 69 84 70 85 46 86
REMARK SMILES IDX 47 87 56 88 48 89 49 90 55 91 57 92 50 93 51 94 52 95 53 96
REMARK SMILES IDX 54 97
REMARK H PARENT 11 7 16 28 78 47 44 58
REMARK Flexibility Score: inf
ROOT
ATOM      1  C   UNL A   1      39.934  22.543  26.928  1.00  0.00     0.023 C 
ENDROOT
BRANCH   1   2
ATOM      2  C   UNL A   1      38.822  23.210  26.120  1.00  0.00     0.023 C 
BRANCH   2   3
ATOM      3  C   UNL A   1      37.639  22.305  25.819  1.00  0.00     0.116 C 
BRANCH   3   4
ATOM      4  N   UNL A   1      37.292  22.245  24.412  1.00  0.00    -0.356 N 
ATOM      5  C   UNL A   1      36.340  22.923  23.715  1.00  0.00     0.225 C 
ATOM      6  O   UNL A   1      36.449  22.951  22.485  1.00  0.00    -0.275 OA
ATOM      7  H   UNL A   1      37.830  21.616  23.878  1.00  0.00     0.163 HD
BRANCH   5   8
ATOM      8  C   UNL A   1      35.165  23.633  24.381  1.00  0.00     0.106 C 
ATOM      9  N   UNL A   1      33.040  23.488  25.751  1.00  0.00    -0.335 N 
ATOM     10  C   UNL A   1      32.630  24.729  25.285  1.00  0.00     0.223 C 
ATOM     11  C   UNL A   1      34.237  22.757  25.248  1.00  0.00     0.128 C 
ATOM     12  O   UNL A   1      31.634  25.315  25.715  1.00  0.00    -0.275 OA
ATOM     13  C   UNL A   1      33.493  25.461  24.280  1.00  0.00     0.101 C 
ATOM     14  C   UNL A   1      34.424  24.596  23.468  1.00  0.00     0.026 C 
BRANCH   9  15
ATOM     15  C   UNL A   1      32.376  22.910  26.934  1.00  0.00     0.117 C 
ATOM     16  C   UNL A   1      33.283  22.304  27.998  1.00  0.00     0.027 C 
ENDBRANCH   9  15
BRANCH  11  17
ATOM     17  C   UNL A   1      33.877  21.383  24.682  1.00  0.00    -0.024 A 
ATOM     18  C   UNL A   1      34.513  20.204  25.100  1.00  0.00     0.010 A 
ATOM     19  C   UNL A   1      32.862  21.277  23.711  1.00  0.00     0.010 A 
ATOM     20  C   UNL A   1      34.111  18.962  24.599  1.00  0.00     0.047 A 
ATOM     21  C   UNL A   1      32.451  20.030  23.223  1.00  0.00     0.047 A 
ATOM     22  C   UNL A   1      33.058  18.867  23.689  1.00  0.00     0.118 A 
BRANCH  22  23
ATOM     23  O   UNL A   1      32.720  17.597  23.317  1.00  0.00    -0.497 OA
ATOM     24  C   UNL A   1      33.668  16.586  23.647  1.00  0.00     0.278 C 
ENDBRANCH  22  23
ENDBRANCH  11  17
ENDBRANCH   5   8
ENDBRANCH   3   4
ENDBRANCH   2   3
ENDBRANCH   1   2
BRANCH   1  25
ATOM     25  C   UNL A   1      41.258  23.303  26.987  1.00  0.00     0.116 C 
BRANCH  25  26
ATOM     26  N   UNL A   1      41.424  24.280  25.920  1.00  0.00    -0.352 N 
ATOM     27  C   UNL A   1      41.434  25.657  26.005  1.00  0.00     0.251 C 
ATOM     28  H   UNL A   1      41.545  23.909  25.016  1.00  0.00     0.163 HD
ATOM     29  O   UNL A   1      41.490  26.340  24.998  1.00  0.00    -0.269 OA
BRANCH  27  30
ATOM     30  C   UNL A   1      41.349  26.291  27.338  1.00  0.00     0.039 A 
ATOM     31  C   UNL A   1      42.390  27.125  27.754  1.00  0.00     0.014 A 
ATOM     32  C   UNL A   1      40.228  26.095  28.150  1.00  0.00     0.014 A 
ATOM     33  C   UNL A   1      42.265  27.832  28.952  1.00  0.00     0.010 A 
ATOM     34  C   UNL A   1      40.081  26.839  29.312  1.00  0.00     0.010 A 
ATOM     35  C   UNL A   1      41.091  27.723  29.714  1.00  0.00    -0.014 A 
BRANCH  35  36
ATOM     36  C   UNL A   1      40.861  28.562  30.913  1.00  0.00     0.031 A 
ATOM     37  C   UNL A   1      39.817  29.640  30.887  1.00  0.00     0.074 A 
ATOM     38  C   UNL A   1      41.680  28.421  31.972  1.00  0.00     0.049 A 
ATOM     39  N   UNL A   1      39.537  30.538  31.794  1.00  0.00    -0.248 NA
ATOM     40  C   UNL A   1      39.005  29.743  29.664  1.00  0.00     0.031 C 
ATOM     41  C   UNL A   1      42.770  27.448  32.073  1.00  0.00     0.029 A 
ATOM     42  N   UNL A   1      41.741  29.110  33.156  1.00  0.00    -0.354 N 
ATOM     43  C   UNL A   1      38.522  31.317  31.253  1.00  0.00     0.074 A 
ATOM     44  C   UNL A   1      38.274  30.819  29.917  1.00  0.00     0.031 C 
ATOM     45  C   UNL A   1      43.386  27.598  33.256  1.00  0.00     0.029 A 
ATOM     46  C   UNL A   1      42.756  28.695  33.983  1.00  0.00     0.049 A 
ATOM     47  H   UNL A   1      41.116  29.835  33.390  1.00  0.00     0.167 HD
ATOM     48  C   UNL A   1      37.848  32.340  31.829  1.00  0.00     0.037 A 
ATOM     49  C   UNL A   1      43.140  29.154  35.189  1.00  0.00     0.037 A 
ATOM     50  C   UNL A   1      38.105  32.818  33.163  1.00  0.00     0.049 A 
ATOM     51  C   UNL A   1      42.373  30.287  35.812  1.00  0.00     0.074 A 
ATOM     52  C   UNL A   1      37.441  33.805  33.869  1.00  0.00     0.029 A 
ATOM     53  N   UNL A   1      39.116  32.347  33.991  1.00  0.00    -0.354 N 
ATOM     54  N   UNL A   1      41.360  30.962  35.323  1.00  0.00    -0.248 NA
ATOM     55  C   UNL A   1      42.792  30.715  37.153  1.00  0.00     0.031 C 
ATOM     56  C   UNL A   1      38.078  33.962  35.105  1.00  0.00     0.029 A 
ATOM     57  C   UNL A   1      39.107  33.037  35.191  1.00  0.00     0.049 A 
ATOM     58  H   UNL A   1      39.746  31.627  33.758  1.00  0.00     0.167 HD
ATOM     59  C   UNL A   1      41.000  31.875  36.306  1.00  0.00     0.074 A 
ATOM     60  C   UNL A   1      41.900  31.659  37.422  1.00  0.00     0.031 C 
ATOM     61  C   UNL A   1      40.011  32.804  36.291  1.00  0.00     0.037 A 
BRANCH  48  62
ATOM     62  C   UNL A   1      36.770  33.006  31.017  1.00  0.00     0.058 A 
ATOM     63  C   UNL A   1      37.075  33.890  29.969  1.00  0.00     0.135 A 
ATOM     64  C   UNL A   1      35.413  32.748  31.277  1.00  0.00     0.135 A 
ATOM     65  F   UNL A   1      38.355  34.185  29.685  1.00  0.00    -0.206 F 
ATOM     66  C   UNL A   1      36.079  34.523  29.234  1.00  0.00     0.059 A 
ATOM     67  C   UNL A   1      34.399  33.347  30.535  1.00  0.00     0.059 A 
ATOM     68  F   UNL A   1      35.062  31.912  32.266  1.00  0.00    -0.206 F 
ATOM     69  C   UNL A   1      34.742  34.248  29.528  1.00  0.00     0.060 A 
BRANCH  69  70
ATOM     70  S   UNL A   1      33.459  35.089  28.575  1.00  0.00     0.124 S 
ATOM     71  O   UNL A   1      32.984  34.010  27.715  1.00  0.00    -0.237 OA
ATOM     72  O   UNL A   1      32.532  35.525  29.615  1.00  0.00    -0.237 OA
ATOM     73  O   UNL A   1      34.186  36.158  27.899  1.00  0.00    -0.744 OA
ENDBRANCH  69  70
ENDBRANCH  48  62
BRANCH  49  74
ATOM     74  C   UNL A   1      44.278  28.509  35.896  1.00  0.00     0.058 A 
ATOM     75  C   UNL A   1      45.588  28.977  35.721  1.00  0.00     0.135 A 
ATOM     76  C   UNL A   1      44.076  27.447  36.790  1.00  0.00     0.135 A 
ATOM     77  F   UNL A   1      45.830  29.989  34.874  1.00  0.00    -0.206 F 
ATOM     78  C   UNL A   1      46.661  28.410  36.400  1.00  0.00     0.059 A 
ATOM     79  C   UNL A   1      45.130  26.878  37.499  1.00  0.00     0.059 A 
ATOM     80  F   UNL A   1      42.839  26.976  37.008  1.00  0.00    -0.206 F 
ATOM     81  C   UNL A   1      46.421  27.365  37.293  1.00  0.00     0.060 A 
BRANCH  81  82
ATOM     82  S   UNL A   1      47.814  26.682  38.219  1.00  0.00     0.124 S 
ATOM     83  O   UNL A   1      48.603  27.879  38.488  1.00  0.00    -0.237 OA
ATOM     84  O   UNL A   1      47.149  26.083  39.372  1.00  0.00    -0.237 OA
ATOM     85  O   UNL A   1      48.405  25.732  37.282  1.00  0.00    -0.744 OA
ENDBRANCH  81  82
ENDBRANCH  49  74
BRANCH  61  86
ATOM     86  C   UNL A   1      39.830  33.635  37.530  1.00  0.00     0.058 A 
ATOM     87  C   UNL A   1      38.971  33.241  38.566  1.00  0.00     0.135 A 
ATOM     88  C   UNL A   1      40.568  34.818  37.703  1.00  0.00     0.135 A 
ATOM     89  F   UNL A   1      38.237  32.123  38.446  1.00  0.00    -0.206 F 
ATOM     90  C   UNL A   1      38.831  34.001  39.723  1.00  0.00     0.059 A 
ATOM     91  C   UNL A   1      40.465  35.579  38.863  1.00  0.00     0.059 A 
ATOM     92  F   UNL A   1      41.412  35.234  36.745  1.00  0.00    -0.206 F 
ATOM     93  C   UNL A   1      39.585  35.167  39.862  1.00  0.00     0.060 A 
BRANCH  93  94
ATOM     94  S   UNL A   1      39.423  36.127  41.383  1.00  0.00     0.124 S 
ATOM     95  O   UNL A   1      39.582  37.490  40.888  1.00  0.00    -0.237 OA
ATOM     96  O   UNL A   1      38.082  35.769  41.835  1.00  0.00    -0.237 OA
ATOM     97  O   UNL A   1      40.512  35.629  42.217  1.00  0.00    -0.744 OA
ENDBRANCH  93  94
ENDBRANCH  61  86
ENDBRANCH  35  36
ENDBRANCH  27  30
ENDBRANCH  25  26
ENDBRANCH   1  25
TORSDOF 17
ENDMDL
MODEL 2
REMARK VINA RESULT:     -11.7      6.254     10.920
REMARK SMILES CCN1C(=O)CC[C@H](C(=O)NCCCCNC(=O)c2ccc(-c3c4nc(c(-c5c(F)cc(S(=O)(=O)[O-])cc5F)c5ccc([nH]5)c(-c5c(F)cc(S(=O)(=O)[O-])cc5F)c5nc(c(-c6c(F)cc(S(=O)(=O)[O-])cc6F)c6ccc3[nH]6)C=C5)C=C4)cc2)[C@@H]1c1ccc(OC)cc1
REMARK SMILES IDX 14 1 13 2 12 3 11 4 9 5 10 6 8 8 3 9 4 10 85 11 5 12 6 13
REMARK SMILES IDX 7 14 2 15 1 16 86 17 87 18 93 19 88 20 92 21 89 22 90 23
REMARK SMILES IDX 91 24 15 25 16 26 17 27 18 29 19 30 20 31 84 32 21 33 83 34
REMARK SMILES IDX 22 35 23 36 24 37 77 38 25 39 82 40 76 41 78 42 26 43 81 44
REMARK SMILES IDX 75 45 74 46 27 48 61 49 40 50 60 51 41 52 44 53 59 54 79 55
REMARK SMILES IDX 42 56 43 57 58 59 80 60 45 61 28 62 29 63 38 64 30 65 31 66
REMARK SMILES IDX 37 67 39 68 32 69 33 70 34 71 35 72 36 73 62 74 63 75 72 76
REMARK SMILES IDX 64 77 65 78 71 79 73 80 66 81 67 82 68 83 69 84 70 85 46 86
REMARK SMILES IDX 47 87 56 88 48 89 49 90 55 91 57 92 50 93 51 94 52 95 53 96
REMARK SMILES IDX 54 97
REMARK H PARENT 11 7 16 28 78 47 44 58
REMARK Flexibility Score: inf
ROOT
ATOM      1  C   UNL A   1      39.365  21.336  25.779  1.00  0.00     0.023 C 
ENDROOT
BRANCH   1   2
ATOM      2  C   UNL A   1      39.155  22.773  26.255  1.00  0.00     0.023 C 
BRANCH   2   3
ATOM      3  C   UNL A   1      37.849  23.399  25.796  1.00  0.00     0.116 C 
BRANCH   3   4
ATOM      4  N   UNL A   1      37.388  22.917  24.508  1.00  0.00    -0.356 N 
ATOM      5  C   UNL A   1      36.270  23.237  23.802  1.00  0.00     0.225 C 
ATOM      6  O   UNL A   1      36.257  22.953  22.600  1.00  0.00    -0.275 OA
ATOM      7  H   UNL A   1      37.977  22.256  24.078  1.00  0.00     0.163 HD
BRANCH   5   8
ATOM      8  C   UNL A   1      35.055  23.917  24.426  1.00  0.00     0.106 C 
ATOM      9  N   UNL A   1      32.918  23.725  25.772  1.00  0.00    -0.335 N 
ATOM     10  C   UNL A   1      32.460  24.929  25.256  1.00  0.00     0.223 C 
ATOM     11  C   UNL A   1      34.154  23.032  25.312  1.00  0.00     0.128 C 
ATOM     12  O   UNL A   1      31.433  25.485  25.651  1.00  0.00    -0.275 OA
ATOM     13  C   UNL A   1      33.305  25.663  24.237  1.00  0.00     0.101 C 
ATOM     14  C   UNL A   1      34.285  24.812  23.470  1.00  0.00     0.026 C 
BRANCH   9  15
ATOM     15  C   UNL A   1      32.262  23.161  26.966  1.00  0.00     0.117 C 
ATOM     16  C   UNL A   1      33.173  22.514  28.003  1.00  0.00     0.027 C 
ENDBRANCH   9  15
BRANCH  11  17
ATOM     17  C   UNL A   1      33.864  21.623  24.791  1.00  0.00    -0.024 A 
ATOM     18  C   UNL A   1      34.584  20.497  25.218  1.00  0.00     0.010 A 
ATOM     19  C   UNL A   1      32.829  21.429  23.855  1.00  0.00     0.010 A 
ATOM     20  C   UNL A   1      34.245  19.220  24.760  1.00  0.00     0.047 A 
ATOM     21  C   UNL A   1      32.483  20.147  23.410  1.00  0.00     0.047 A 
ATOM     22  C   UNL A   1      33.174  19.037  23.886  1.00  0.00     0.118 A 
BRANCH  22  23
ATOM     23  O   UNL A   1      32.905  17.738  23.556  1.00  0.00    -0.497 OA
ATOM     24  C   UNL A   1      34.023  16.970  23.120  1.00  0.00     0.278 C 
ENDBRANCH  22  23
ENDBRANCH  11  17
ENDBRANCH   5   8
ENDBRANCH   3   4
ENDBRANCH   2   3
ENDBRANCH   1   2
BRANCH   1  25
ATOM     25  C   UNL A   1      39.843  20.349  26.842  1.00  0.00     0.116 C 
BRANCH  25  26
ATOM     26  N   UNL A   1      40.755  19.333  26.335  1.00  0.00    -0.352 N 
ATOM     27  C   UNL A   1      42.075  19.467  25.959  1.00  0.00     0.251 C 
ATOM     28  H   UNL A   1      40.378  18.427  26.249  1.00  0.00     0.163 HD
ATOM     29  O   UNL A   1      42.677  18.532  25.464  1.00  0.00    -0.269 OA
BRANCH  27  30
ATOM     30  C   UNL A   1      42.740  20.775  26.144  1.00  0.00     0.039 A 
ATOM     31  C   UNL A   1      43.097  21.514  25.013  1.00  0.00     0.014 A 
ATOM     32  C   UNL A   1      42.968  21.284  27.426  1.00  0.00     0.014 A 
ATOM     33  C   UNL A   1      43.606  22.805  25.170  1.00  0.00     0.010 A 
ATOM     34  C   UNL A   1      43.424  22.585  27.579  1.00  0.00     0.010 A 
ATOM     35  C   UNL A   1      43.732  23.361  26.453  1.00  0.00    -0.014 A 
BRANCH  35  36
ATOM     36  C   UNL A   1      44.132  24.772  26.654  1.00  0.00     0.031 A 
ATOM     37  C   UNL A   1      45.571  25.174  26.505  1.00  0.00     0.074 A 
ATOM     38  C   UNL A   1      43.212  25.654  27.088  1.00  0.00     0.049 A 
ATOM     39  N   UNL A   1      46.132  26.331  26.737  1.00  0.00    -0.248 NA
ATOM     40  C   UNL A   1      46.507  24.125  26.072  1.00  0.00     0.031 C 
ATOM     41  C   UNL A   1      41.799  25.350  27.330  1.00  0.00     0.029 A 
ATOM     42  N   UNL A   1      43.329  26.977  27.427  1.00  0.00    -0.354 N 
ATOM     43  C   UNL A   1      47.485  26.152  26.484  1.00  0.00     0.074 A 
ATOM     44  C   UNL A   1      47.669  24.759  26.134  1.00  0.00     0.031 C 
ATOM     45  C   UNL A   1      41.180  26.457  27.770  1.00  0.00     0.029 A 
ATOM     46  C   UNL A   1      42.155  27.538  27.871  1.00  0.00     0.049 A 
ATOM     47  H   UNL A   1      44.173  27.479  27.358  1.00  0.00     0.167 HD
ATOM     48  C   UNL A   1      48.479  27.071  26.521  1.00  0.00     0.037 A 
ATOM     49  C   UNL A   1      41.898  28.782  28.317  1.00  0.00     0.037 A 
ATOM     50  C   UNL A   1      48.275  28.455  26.866  1.00  0.00     0.049 A 
ATOM     51  C   UNL A   1      43.015  29.788  28.344  1.00  0.00     0.074 A 
ATOM     52  C   UNL A   1      49.198  29.486  26.874  1.00  0.00     0.029 A 
ATOM     53  N   UNL A   1      47.064  28.999  27.272  1.00  0.00    -0.354 N 
ATOM     54  N   UNL A   1      44.276  29.626  28.024  1.00  0.00    -0.248 NA
ATOM     55  C   UNL A   1      42.673  31.148  28.783  1.00  0.00     0.031 C 
ATOM     56  C   UNL A   1      48.554  30.642  27.329  1.00  0.00     0.029 A 
ATOM     57  C   UNL A   1      47.219  30.346  27.554  1.00  0.00     0.049 A 
ATOM     58  H   UNL A   1      46.218  28.500  27.349  1.00  0.00     0.167 HD
ATOM     59  C   UNL A   1      44.875  30.869  28.193  1.00  0.00     0.074 A 
ATOM     60  C   UNL A   1      43.833  31.773  28.637  1.00  0.00     0.031 C 
ATOM     61  C   UNL A   1      46.167  31.231  27.994  1.00  0.00     0.037 A 
BRANCH  48  62
ATOM     62  C   UNL A   1      49.869  26.607  26.180  1.00  0.00     0.058 A 
ATOM     63  C   UNL A   1      50.697  25.994  27.135  1.00  0.00     0.135 A 
ATOM     64  C   UNL A   1      50.377  26.761  24.880  1.00  0.00     0.135 A 
ATOM     65  F   UNL A   1      50.268  25.833  28.398  1.00  0.00    -0.206 F 
ATOM     66  C   UNL A   1      51.990  25.586  26.826  1.00  0.00     0.059 A 
ATOM     67  C   UNL A   1      51.658  26.334  24.540  1.00  0.00     0.059 A 
ATOM     68  F   UNL A   1      49.631  27.340  23.926  1.00  0.00    -0.206 F 
ATOM     69  C   UNL A   1      52.463  25.765  25.525  1.00  0.00     0.060 A 
BRANCH  69  70
ATOM     70  S   UNL A   1      54.150  25.244  25.142  1.00  0.00     0.124 S 
ATOM     71  O   UNL A   1      54.393  25.950  23.888  1.00  0.00    -0.237 OA
ATOM     72  O   UNL A   1      54.897  25.730  26.298  1.00  0.00    -0.237 OA
ATOM     73  O   UNL A   1      54.040  23.793  25.035  1.00  0.00    -0.744 OA
ENDBRANCH  69  70
ENDBRANCH  48  62
BRANCH  49  74
ATOM     74  C   UNL A   1      40.517  29.147  28.729  1.00  0.00     0.058 A 
ATOM     75  C   UNL A   1      40.184  29.273  30.085  1.00  0.00     0.135 A 
ATOM     76  C   UNL A   1      39.518  29.419  27.782  1.00  0.00     0.135 A 
ATOM     77  F   UNL A   1      41.105  29.020  31.028  1.00  0.00    -0.206 F 
ATOM     78  C   UNL A   1      38.908  29.648  30.491  1.00  0.00     0.059 A 
ATOM     79  C   UNL A   1      38.240  29.819  28.162  1.00  0.00     0.059 A 
ATOM     80  F   UNL A   1      39.793  29.333  26.471  1.00  0.00    -0.206 F 
ATOM     81  C   UNL A   1      37.944  29.925  29.520  1.00  0.00     0.060 A 
BRANCH  81  82
ATOM     82  S   UNL A   1      36.310  30.476  30.059  1.00  0.00     0.124 S 
ATOM     83  O   UNL A   1      36.436  31.925  29.948  1.00  0.00    -0.237 OA
ATOM     84  O   UNL A   1      35.435  29.834  29.082  1.00  0.00    -0.237 OA
ATOM     85  O   UNL A   1      36.211  29.952  31.417  1.00  0.00    -0.744 OA
ENDBRANCH  81  82
ENDBRANCH  49  74
BRANCH  61  86
ATOM     86  C   UNL A   1      46.521  32.673  28.224  1.00  0.00     0.058 A 
ATOM     87  C   UNL A   1      46.380  33.638  27.216  1.00  0.00     0.135 A 
ATOM     88  C   UNL A   1      46.958  33.101  29.488  1.00  0.00     0.135 A 
ATOM     89  F   UNL A   1      45.974  33.279  25.988  1.00  0.00    -0.206 F 
ATOM     90  C   UNL A   1      46.681  34.977  27.446  1.00  0.00     0.059 A 
ATOM     91  C   UNL A   1      47.237  34.438  29.748  1.00  0.00     0.059 A 
ATOM     92  F   UNL A   1      47.100  32.218  30.489  1.00  0.00    -0.206 F 
ATOM     93  C   UNL A   1      47.107  35.367  28.717  1.00  0.00     0.060 A 
BRANCH  93  94
ATOM     94  S   UNL A   1      47.460  37.112  29.014  1.00  0.00     0.124 S 
ATOM     95  O   UNL A   1      47.018  37.718  27.762  1.00  0.00    -0.237 OA
ATOM     96  O   UNL A   1      46.637  37.403  30.184  1.00  0.00    -0.237 OA
ATOM     97  O   UNL A   1      48.900  37.132  29.248  1.00  0.00    -0.744 OA
ENDBRANCH  93  94
ENDBRANCH  61  86
ENDBRANCH  35  36
ENDBRANCH  27  30
ENDBRANCH  25  26
ENDBRANCH   1  25
TORSDOF 17
ENDMDL
MODEL 3
REMARK VINA RESULT:     -11.7      6.274      8.670
REMARK SMILES CCN1C(=O)CC[C@H](C(=O)NCCCCNC(=O)c2ccc(-c3c4nc(c(-c5c(F)cc(S(=O)(=O)[O-])cc5F)c5ccc([nH]5)c(-c5c(F)cc(S(=O)(=O)[O-])cc5F)c5nc(c(-c6c(F)cc(S(=O)(=O)[O-])cc6F)c6ccc3[nH]6)C=C5)C=C4)cc2)[C@@H]1c1ccc(OC)cc1
REMARK SMILES IDX 14 1 13 2 12 3 11 4 9 5 10 6 8 8 3 9 4 10 85 11 5 12 6 13
REMARK SMILES IDX 7 14 2 15 1 16 86 17 87 18 93 19 88 20 92 21 89 22 90 23
REMARK SMILES IDX 91 24 15 25 16 26 17 27 18 29 19 30 20 31 84 32 21 33 83 34
REMARK SMILES IDX 22 35 23 36 24 37 77 38 25 39 82 40 76 41 78 42 26 43 81 44
REMARK SMILES IDX 75 45 74 46 27 48 61 49 40 50 60 51 41 52 44 53 59 54 79 55
REMARK SMILES IDX 42 56 43 57 58 59 80 60 45 61 28 62 29 63 38 64 30 65 31 66
REMARK SMILES IDX 37 67 39 68 32 69 33 70 34 71 35 72 36 73 62 74 63 75 72 76
REMARK SMILES IDX 64 77 65 78 71 79 73 80 66 81 67 82 68 83 69 84 70 85 46 86
REMARK SMILES IDX 47 87 56 88 48 89 49 90 55 91 57 92 50 93 51 94 52 95 53 96
REMARK SMILES IDX 54 97
REMARK H PARENT 11 7 16 28 78 47 44 58
REMARK Flexibility Score: inf
ROOT
ATOM      1  C   UNL A   1      39.334  21.714  25.740  1.00  0.00     0.023 C 
ENDROOT
BRANCH   1   2
ATOM      2  C   UNL A   1      39.024  23.112  26.273  1.00  0.00     0.023 C 
BRANCH   2   3
ATOM      3  C   UNL A   1      37.699  23.683  25.798  1.00  0.00     0.116 C 
BRANCH   3   4
ATOM      4  N   UNL A   1      37.233  23.119  24.546  1.00  0.00    -0.356 N 
ATOM      5  C   UNL A   1      36.079  23.344  23.860  1.00  0.00     0.225 C 
ATOM      6  O   UNL A   1      36.050  23.006  22.672  1.00  0.00    -0.275 OA
ATOM      7  H   UNL A   1      37.847  22.473  24.128  1.00  0.00     0.163 HD
BRANCH   5   8
ATOM      8  C   UNL A   1      34.844  23.982  24.489  1.00  0.00     0.106 C 
ATOM      9  N   UNL A   1      32.698  23.709  25.807  1.00  0.00    -0.335 N 
ATOM     10  C   UNL A   1      32.221  24.918  25.319  1.00  0.00     0.223 C 
ATOM     11  C   UNL A   1      33.953  23.054  25.341  1.00  0.00     0.128 C 
ATOM     12  O   UNL A   1      31.179  25.441  25.718  1.00  0.00    -0.275 OA
ATOM     13  C   UNL A   1      33.061  25.697  24.329  1.00  0.00     0.101 C 
ATOM     14  C   UNL A   1      34.066  24.887  23.549  1.00  0.00     0.026 C 
BRANCH   9  15
ATOM     15  C   UNL A   1      32.042  23.099  26.977  1.00  0.00     0.117 C 
ATOM     16  C   UNL A   1      32.960  22.528  28.053  1.00  0.00     0.027 C 
ENDBRANCH   9  15
BRANCH  11  17
ATOM     17  C   UNL A   1      33.697  21.655  24.778  1.00  0.00    -0.024 A 
ATOM     18  C   UNL A   1      34.385  20.520  25.235  1.00  0.00     0.010 A 
ATOM     19  C   UNL A   1      32.728  21.478  23.771  1.00  0.00     0.010 A 
ATOM     20  C   UNL A   1      34.077  19.251  24.734  1.00  0.00     0.047 A 
ATOM     21  C   UNL A   1      32.411  20.204  23.283  1.00  0.00     0.047 A 
ATOM     22  C   UNL A   1      33.068  19.085  23.786  1.00  0.00     0.118 A 
BRANCH  22  23
ATOM     23  O   UNL A   1      32.820  17.793  23.417  1.00  0.00    -0.497 OA
ATOM     24  C   UNL A   1      33.969  17.014  23.094  1.00  0.00     0.278 C 
ENDBRANCH  22  23
ENDBRANCH  11  17
ENDBRANCH   5   8
ENDBRANCH   3   4
ENDBRANCH   2   3
ENDBRANCH   1   2
BRANCH   1  25
ATOM     25  C   UNL A   1      39.748  20.682  26.788  1.00  0.00     0.116 C 
BRANCH  25  26
ATOM     26  N   UNL A   1      40.612  19.631  26.271  1.00  0.00    -0.352 N 
ATOM     27  C   UNL A   1      41.956  19.691  25.962  1.00  0.00     0.251 C 
ATOM     28  H   UNL A   1      40.180  18.759  26.121  1.00  0.00     0.163 HD
ATOM     29  O   UNL A   1      42.517  18.742  25.446  1.00  0.00    -0.269 OA
BRANCH  27  30
ATOM     30  C   UNL A   1      42.697  20.939  26.245  1.00  0.00     0.039 A 
ATOM     31  C   UNL A   1      43.101  21.740  25.174  1.00  0.00     0.014 A 
ATOM     32  C   UNL A   1      42.952  21.334  27.562  1.00  0.00     0.014 A 
ATOM     33  C   UNL A   1      43.686  22.981  25.428  1.00  0.00     0.010 A 
ATOM     34  C   UNL A   1      43.484  22.591  27.813  1.00  0.00     0.010 A 
ATOM     35  C   UNL A   1      43.841  23.430  26.750  1.00  0.00    -0.014 A 
BRANCH  35  36
ATOM     36  C   UNL A   1      44.325  24.795  27.057  1.00  0.00     0.031 A 
ATOM     37  C   UNL A   1      43.356  25.855  27.493  1.00  0.00     0.074 A 
ATOM     38  C   UNL A   1      45.616  25.096  26.822  1.00  0.00     0.049 A 
ATOM     39  N   UNL A   1      43.568  27.126  27.710  1.00  0.00    -0.248 NA
ATOM     40  C   UNL A   1      41.958  25.436  27.677  1.00  0.00     0.031 C 
ATOM     41  C   UNL A   1      46.627  24.155  26.331  1.00  0.00     0.029 A 
ATOM     42  N   UNL A   1      46.295  26.281  26.938  1.00  0.00    -0.354 N 
ATOM     43  C   UNL A   1      42.333  27.662  28.050  1.00  0.00     0.074 A 
ATOM     44  C   UNL A   1      41.366  26.588  27.957  1.00  0.00     0.031 C 
ATOM     45  C   UNL A   1      47.798  24.798  26.198  1.00  0.00     0.029 A 
ATOM     46  C   UNL A   1      47.614  26.199  26.561  1.00  0.00     0.049 A 
ATOM     47  H   UNL A   1      45.878  27.112  27.262  1.00  0.00     0.167 HD
ATOM     48  C   UNL A   1      42.038  28.930  28.424  1.00  0.00     0.037 A 
ATOM     49  C   UNL A   1      48.566  27.150  26.508  1.00  0.00     0.037 A 
ATOM     50  C   UNL A   1      43.015  29.984  28.516  1.00  0.00     0.049 A 
ATOM     51  C   UNL A   1      48.218  28.549  26.933  1.00  0.00     0.074 A 
ATOM     52  C   UNL A   1      42.839  31.287  28.945  1.00  0.00     0.029 A 
ATOM     53  N   UNL A   1      44.352  29.856  28.165  1.00  0.00    -0.354 N 
ATOM     54  N   UNL A   1      47.062  29.025  27.331  1.00  0.00    -0.248 NA
ATOM     55  C   UNL A   1      49.303  29.539  26.913  1.00  0.00     0.031 C 
ATOM     56  C   UNL A   1      44.059  31.959  28.809  1.00  0.00     0.029 A 
ATOM     57  C   UNL A   1      45.008  31.062  28.347  1.00  0.00     0.049 A 
ATOM     58  H   UNL A   1      44.773  29.029  27.835  1.00  0.00     0.167 HD
ATOM     59  C   UNL A   1      47.285  30.361  27.638  1.00  0.00     0.074 A 
ATOM     60  C   UNL A   1      48.690  30.615  27.386  1.00  0.00     0.031 C 
ATOM     61  C   UNL A   1      46.410  31.293  28.092  1.00  0.00     0.037 A 
BRANCH  48  62
ATOM     62  C   UNL A   1      40.604  29.240  28.760  1.00  0.00     0.058 A 
ATOM     63  C   UNL A   1      39.636  29.428  27.759  1.00  0.00     0.135 A 
ATOM     64  C   UNL A   1      40.186  29.336  30.097  1.00  0.00     0.135 A 
ATOM     65  F   UNL A   1      39.982  29.362  26.463  1.00  0.00    -0.206 F 
ATOM     66  C   UNL A   1      38.317  29.738  28.069  1.00  0.00     0.059 A 
ATOM     67  C   UNL A   1      38.864  29.615  30.432  1.00  0.00     0.059 A 
ATOM     68  F   UNL A   1      41.067  29.165  31.095  1.00  0.00    -0.206 F 
ATOM     69  C   UNL A   1      37.941  29.833  29.411  1.00  0.00     0.060 A 
BRANCH  69  70
ATOM     70  S   UNL A   1      36.227  30.251  29.797  1.00  0.00     0.124 S 
ATOM     71  O   UNL A   1      35.521  29.643  28.674  1.00  0.00    -0.237 OA
ATOM     72  O   UNL A   1      36.032  29.605  31.092  1.00  0.00    -0.237 OA
ATOM     73  O   UNL A   1      36.230  31.709  29.822  1.00  0.00    -0.744 OA
ENDBRANCH  69  70
ENDBRANCH  48  62
BRANCH  49  74
ATOM     74  C   UNL A   1      49.942  26.793  26.074  1.00  0.00     0.058 A 
ATOM     75  C   UNL A   1      50.358  27.017  24.754  1.00  0.00     0.135 A 
ATOM     76  C   UNL A   1      50.879  26.264  26.975  1.00  0.00     0.135 A 
ATOM     77  F   UNL A   1      49.497  27.518  23.856  1.00  0.00    -0.206 F 
ATOM     78  C   UNL A   1      51.652  26.722  24.338  1.00  0.00     0.059 A 
ATOM     79  C   UNL A   1      52.187  25.983  26.589  1.00  0.00     0.059 A 
ATOM     80  F   UNL A   1      50.536  26.051  28.255  1.00  0.00    -0.206 F 
ATOM     81  C   UNL A   1      52.561  26.212  25.265  1.00  0.00     0.060 A 
BRANCH  81  82
ATOM     82  S   UNL A   1      54.258  25.897  24.728  1.00  0.00     0.124 S 
ATOM     83  O   UNL A   1      54.382  24.464  24.971  1.00  0.00    -0.237 OA
ATOM     84  O   UNL A   1      54.215  26.307  23.328  1.00  0.00    -0.237 OA
ATOM     85  O   UNL A   1      55.050  26.758  25.601  1.00  0.00    -0.744 OA
ENDBRANCH  81  82
ENDBRANCH  49  74
BRANCH  61  86
ATOM     86  C   UNL A   1      46.952  32.665  28.376  1.00  0.00     0.058 A 
ATOM     87  C   UNL A   1      47.495  33.002  29.625  1.00  0.00     0.135 A 
ATOM     88  C   UNL A   1      46.975  33.641  27.366  1.00  0.00     0.135 A 
ATOM     89  F   UNL A   1      47.490  32.108  30.627  1.00  0.00    -0.206 F 
ATOM     90  C   UNL A   1      48.023  34.265  29.871  1.00  0.00     0.059 A 
ATOM     91  C   UNL A   1      47.523  34.901  27.580  1.00  0.00     0.059 A 
ATOM     92  F   UNL A   1      46.477  33.366  26.150  1.00  0.00    -0.206 F 
ATOM     93  C   UNL A   1      48.034  35.207  28.840  1.00  0.00     0.060 A 
BRANCH  93  94
ATOM     94  S   UNL A   1      48.753  36.831  29.160  1.00  0.00     0.124 S 
ATOM     95  O   UNL A   1      49.204  36.687  30.540  1.00  0.00    -0.237 OA
ATOM     96  O   UNL A   1      49.808  36.909  28.154  1.00  0.00    -0.237 OA
ATOM     97  O   UNL A   1      47.634  37.745  28.957  1.00  0.00    -0.744 OA
ENDBRANCH  93  94
ENDBRANCH  61  86
ENDBRANCH  35  36
ENDBRANCH  27  30
ENDBRANCH  25  26
ENDBRANCH   1  25
TORSDOF 17
ENDMDL
