MODEL 1
REMARK VINA RESULT:     -12.0      0.000      0.000
REMARK SMILES CC(C)C[C@H](CNC(=O)N[C@@H](C)C1CCCCC1)C(=O)NCCCCNC(=O)c1ccc(-c2c3nc(c(-c4c(F)cc(S(=O)(=O)[O-])cc4F)c4ccc([nH]4)c(-c4c(F)cc(S(=O)(=O)[O-])cc4F)c4nc(c(-c5c(F)cc(S(=O)(=O)[O-])cc5F)c5ccc2[nH]5)C=C4)C=C3)cc1
REMARK SMILES IDX 23 1 22 2 21 3 19 4 20 5 5 7 4 8 2 9 1 10 3 11 6 12 7 13
REMARK SMILES IDX 8 14 9 16 10 17 11 19 12 20 13 21 14 22 18 23 15 24 17 25
REMARK SMILES IDX 16 26 24 27 25 28 26 29 27 30 28 32 29 33 30 34 94 35 31 36
REMARK SMILES IDX 93 37 32 38 33 39 34 40 87 41 35 42 92 43 86 44 88 45 36 46
REMARK SMILES IDX 91 47 85 48 84 49 37 51 71 52 50 53 70 54 51 55 54 56 69 57
REMARK SMILES IDX 89 58 52 59 53 60 68 62 90 63 55 64 38 65 39 66 48 67 40 68
REMARK SMILES IDX 41 69 47 70 49 71 42 72 43 73 44 74 45 75 46 76 72 77 73 78
REMARK SMILES IDX 82 79 74 80 75 81 81 82 83 83 76 84 77 85 78 86 79 87 80 88
REMARK SMILES IDX 56 89 57 90 66 91 58 92 59 93 65 94 67 95 60 96 61 97 62 98
REMARK SMILES IDX 63 99 64 100
REMARK H PARENT 21 6 7 15 10 18 26 31 88 50 54 61
REMARK Flexibility Score: inf
ROOT
ATOM      1  C   UNL A   1      37.524  21.909  25.592  1.00  0.00     0.023 C 
ENDROOT
BRANCH   1   2
ATOM      2  C   UNL A   1      36.140  21.270  25.447  1.00  0.00     0.116 C 
BRANCH   2   3
ATOM      3  N   UNL A   1      35.378  21.875  24.369  1.00  0.00    -0.356 N 
ATOM      4  C   UNL A   1      34.031  21.957  24.178  1.00  0.00     0.224 C 
ATOM      5  O   UNL A   1      33.625  22.460  23.128  1.00  0.00    -0.275 OA
ATOM      6  H   UNL A   1      35.923  22.292  23.663  1.00  0.00     0.163 HD
BRANCH   4   7
ATOM      7  C   UNL A   1      33.042  21.469  25.234  1.00  0.00     0.098 C 
BRANCH   7   8
ATOM      8  C   UNL A   1      32.950  19.928  25.320  1.00  0.00     0.018 C 
BRANCH   8   9
ATOM      9  C   UNL A   1      33.429  19.148  24.078  1.00  0.00    -0.017 C 
ATOM     10  C   UNL A   1      34.459  18.075  24.424  1.00  0.00     0.007 C 
ATOM     11  C   UNL A   1      32.228  18.510  23.374  1.00  0.00     0.007 C 
ENDBRANCH   8   9
ENDBRANCH   7   8
BRANCH   7  12
ATOM     12  C   UNL A   1      31.703  22.206  25.054  1.00  0.00     0.131 C 
BRANCH  12  13
ATOM     13  N   UNL A   1      30.874  22.265  26.240  1.00  0.00    -0.337 N 
ATOM     14  C   UNL A   1      30.151  23.186  26.867  1.00  0.00     0.315 C 
ATOM     15  H   UNL A   1      30.837  21.396  26.702  1.00  0.00     0.165 HD
ATOM     16  O   UNL A   1      29.498  22.821  27.848  1.00  0.00    -0.249 OA
ATOM     17  N   UNL A   1      30.073  24.465  26.517  1.00  0.00    -0.335 N 
ATOM     18  H   UNL A   1      29.465  24.969  27.106  1.00  0.00     0.165 HD
BRANCH  17  19
ATOM     19  C   UNL A   1      30.656  25.315  25.485  1.00  0.00     0.083 C 
ATOM     20  C   UNL A   1      29.521  26.028  24.751  1.00  0.00     0.031 C 
BRANCH  19  21
ATOM     21  C   UNL A   1      31.756  26.228  26.080  1.00  0.00     0.011 C 
ATOM     22  C   UNL A   1      32.714  26.737  24.987  1.00  0.00     0.006 C 
ATOM     23  C   UNL A   1      31.210  27.396  26.917  1.00  0.00     0.006 C 
ATOM     24  C   UNL A   1      33.827  27.609  25.560  1.00  0.00     0.000 C 
ATOM     25  C   UNL A   1      32.336  28.260  27.479  1.00  0.00     0.000 C 
ATOM     26  C   UNL A   1      33.258  28.764  26.376  1.00  0.00     0.000 C 
ENDBRANCH  19  21
ENDBRANCH  17  19
ENDBRANCH  12  13
ENDBRANCH   7  12
ENDBRANCH   4   7
ENDBRANCH   2   3
ENDBRANCH   1   2
BRANCH   1  27
ATOM     27  C   UNL A   1      37.533  23.429  25.524  1.00  0.00     0.023 C 
BRANCH  27  28
ATOM     28  C   UNL A   1      38.453  24.097  26.531  1.00  0.00     0.116 C 
BRANCH  28  29
ATOM     29  N   UNL A   1      39.867  23.928  26.223  1.00  0.00    -0.352 N 
ATOM     30  C   UNL A   1      40.917  24.714  26.639  1.00  0.00     0.251 C 
ATOM     31  H   UNL A   1      40.098  23.162  25.650  1.00  0.00     0.163 HD
ATOM     32  O   UNL A   1      42.051  24.519  26.229  1.00  0.00    -0.269 OA
BRANCH  30  33
ATOM     33  C   UNL A   1      40.619  25.824  27.563  1.00  0.00     0.039 A 
ATOM     34  C   UNL A   1      39.649  25.640  28.548  1.00  0.00     0.014 A 
ATOM     35  C   UNL A   1      41.389  26.988  27.518  1.00  0.00     0.014 A 
ATOM     36  C   UNL A   1      39.499  26.606  29.542  1.00  0.00     0.010 A 
ATOM     37  C   UNL A   1      41.297  27.905  28.555  1.00  0.00     0.010 A 
ATOM     38  C   UNL A   1      40.349  27.724  29.573  1.00  0.00    -0.014 A 
BRANCH  38  39
ATOM     39  C   UNL A   1      40.256  28.733  30.655  1.00  0.00     0.031 A 
ATOM     40  C   UNL A   1      41.136  28.601  31.866  1.00  0.00     0.074 A 
ATOM     41  C   UNL A   1      39.332  29.711  30.580  1.00  0.00     0.049 A 
ATOM     42  N   UNL A   1      41.151  29.321  32.956  1.00  0.00    -0.248 NA
ATOM     43  C   UNL A   1      42.102  27.490  31.865  1.00  0.00     0.031 C 
ATOM     44  C   UNL A   1      38.380  29.898  29.482  1.00  0.00     0.029 A 
ATOM     45  N   UNL A   1      39.034  30.726  31.453  1.00  0.00    -0.354 N 
ATOM     46  C   UNL A   1      42.106  28.736  33.779  1.00  0.00     0.074 A 
ATOM     47  C   UNL A   1      42.610  27.572  33.084  1.00  0.00     0.031 C 
ATOM     48  C   UNL A   1      37.621  30.977  29.737  1.00  0.00     0.029 A 
ATOM     49  C   UNL A   1      38.011  31.539  31.027  1.00  0.00     0.049 A 
ATOM     50  H   UNL A   1      39.508  30.859  32.306  1.00  0.00     0.167 HD
ATOM     51  C   UNL A   1      42.544  29.149  34.991  1.00  0.00     0.037 A 
ATOM     52  C   UNL A   1      37.452  32.616  31.612  1.00  0.00     0.037 A 
ATOM     53  C   UNL A   1      42.070  30.334  35.652  1.00  0.00     0.049 A 
ATOM     54  C   UNL A   1      37.982  33.079  32.942  1.00  0.00     0.074 A 
ATOM     55  C   UNL A   1      42.496  30.883  36.848  1.00  0.00     0.029 A 
ATOM     56  N   UNL A   1      41.064  31.159  35.167  1.00  0.00    -0.354 N 
ATOM     57  N   UNL A   1      38.932  32.552  33.678  1.00  0.00    -0.248 NA
ATOM     58  C   UNL A   1      37.372  34.284  33.517  1.00  0.00     0.031 C 
ATOM     59  C   UNL A   1      41.729  32.025  37.100  1.00  0.00     0.029 A 
ATOM     60  C   UNL A   1      40.849  32.207  36.044  1.00  0.00     0.049 A 
ATOM     61  H   UNL A   1      40.577  31.019  34.324  1.00  0.00     0.167 HD
ATOM     62  C   UNL A   1      39.050  33.375  34.791  1.00  0.00     0.074 A 
ATOM     63  C   UNL A   1      38.082  34.440  34.627  1.00  0.00     0.031 C 
ATOM     64  C   UNL A   1      39.884  33.260  35.854  1.00  0.00     0.037 A 
BRANCH  51  65
ATOM     65  C   UNL A   1      43.597  28.316  35.664  1.00  0.00     0.058 A 
ATOM     66  C   UNL A   1      44.964  28.507  35.403  1.00  0.00     0.135 A 
ATOM     67  C   UNL A   1      43.239  27.320  36.586  1.00  0.00     0.135 A 
ATOM     68  F   UNL A   1      45.359  29.433  34.514  1.00  0.00    -0.206 F 
ATOM     69  C   UNL A   1      45.937  27.717  36.004  1.00  0.00     0.059 A 
ATOM     70  C   UNL A   1      44.198  26.535  37.220  1.00  0.00     0.059 A 
ATOM     71  F   UNL A   1      41.947  27.093  36.869  1.00  0.00    -0.206 F 
ATOM     72  C   UNL A   1      45.544  26.730  36.908  1.00  0.00     0.060 A 
BRANCH  72  73
ATOM     73  S   UNL A   1      46.816  25.705  37.676  1.00  0.00     0.124 S 
ATOM     74  O   UNL A   1      46.220  24.377  37.571  1.00  0.00    -0.237 OA
ATOM     75  O   UNL A   1      47.974  25.949  36.821  1.00  0.00    -0.237 OA
ATOM     76  O   UNL A   1      46.916  26.244  39.028  1.00  0.00    -0.744 OA
ENDBRANCH  72  73
ENDBRANCH  51  65
BRANCH  52  77
ATOM     77  C   UNL A   1      36.357  33.349  30.926  1.00  0.00     0.058 A 
ATOM     78  C   UNL A   1      35.043  33.298  31.413  1.00  0.00     0.135 A 
ATOM     79  C   UNL A   1      36.603  34.133  29.789  1.00  0.00     0.135 A 
ATOM     80  F   UNL A   1      34.759  32.558  32.496  1.00  0.00    -0.206 F 
ATOM     81  C   UNL A   1      34.007  33.984  30.790  1.00  0.00     0.059 A 
ATOM     82  C   UNL A   1      35.587  34.846  29.160  1.00  0.00     0.059 A 
ATOM     83  F   UNL A   1      37.847  34.230  29.296  1.00  0.00    -0.206 F 
ATOM     84  C   UNL A   1      34.289  34.758  29.664  1.00  0.00     0.060 A 
BRANCH  84  85
ATOM     85  S   UNL A   1      32.948  35.693  28.894  1.00  0.00     0.124 S 
ATOM     86  O   UNL A   1      32.346  34.684  28.030  1.00  0.00    -0.237 OA
ATOM     87  O   UNL A   1      32.156  36.102  30.049  1.00  0.00    -0.237 OA
ATOM     88  O   UNL A   1      33.647  36.778  28.210  1.00  0.00    -0.744 OA
ENDBRANCH  84  85
ENDBRANCH  52  77
BRANCH  64  89
ATOM     89  C   UNL A   1      39.807  34.328  36.907  1.00  0.00     0.058 A 
ATOM     90  C   UNL A   1      39.019  34.170  38.056  1.00  0.00     0.135 A 
ATOM     91  C   UNL A   1      40.577  35.497  36.789  1.00  0.00     0.135 A 
ATOM     92  F   UNL A   1      38.261  33.074  38.210  1.00  0.00    -0.206 F 
ATOM     93  C   UNL A   1      38.981  35.144  39.048  1.00  0.00     0.059 A 
ATOM     94  C   UNL A   1      40.572  36.474  37.779  1.00  0.00     0.059 A 
ATOM     95  F   UNL A   1      41.355  35.689  35.712  1.00  0.00    -0.206 F 
ATOM     96  C   UNL A   1      39.763  36.293  38.900  1.00  0.00     0.060 A 
BRANCH  96  97
ATOM     97  S   UNL A   1      39.738  37.533  40.212  1.00  0.00     0.124 S 
ATOM     98  O   UNL A   1      40.030  36.720  41.388  1.00  0.00    -0.237 OA
ATOM     99  O   UNL A   1      40.793  38.451  39.797  1.00  0.00    -0.237 OA
ATOM    100  O   UNL A   1      38.383  38.072  40.141  1.00  0.00    -0.744 OA
ENDBRANCH  96  97
ENDBRANCH  64  89
ENDBRANCH  38  39
ENDBRANCH  30  33
ENDBRANCH  28  29
ENDBRANCH  27  28
ENDBRANCH   1  27
TORSDOF 20
ENDMDL
MODEL 2
REMARK VINA RESULT:     -11.7      6.349     10.901
REMARK SMILES CC(C)C[C@H](CNC(=O)N[C@@H](C)C1CCCCC1)C(=O)NCCCCNC(=O)c1ccc(-c2c3nc(c(-c4c(F)cc(S(=O)(=O)[O-])cc4F)c4ccc([nH]4)c(-c4c(F)cc(S(=O)(=O)[O-])cc4F)c4nc(c(-c5c(F)cc(S(=O)(=O)[O-])cc5F)c5ccc2[nH]5)C=C4)C=C3)cc1
REMARK SMILES IDX 23 1 22 2 21 3 19 4 20 5 5 7 4 8 2 9 1 10 3 11 6 12 7 13
REMARK SMILES IDX 8 14 9 16 10 17 11 19 12 20 13 21 14 22 18 23 15 24 17 25
REMARK SMILES IDX 16 26 24 27 25 28 26 29 27 30 28 32 29 33 30 34 94 35 31 36
REMARK SMILES IDX 93 37 32 38 33 39 34 40 87 41 35 42 92 43 86 44 88 45 36 46
REMARK SMILES IDX 91 47 85 48 84 49 37 51 71 52 50 53 70 54 51 55 54 56 69 57
REMARK SMILES IDX 89 58 52 59 53 60 68 62 90 63 55 64 38 65 39 66 48 67 40 68
REMARK SMILES IDX 41 69 47 70 49 71 42 72 43 73 44 74 45 75 46 76 72 77 73 78
REMARK SMILES IDX 82 79 74 80 75 81 81 82 83 83 76 84 77 85 78 86 79 87 80 88
REMARK SMILES IDX 56 89 57 90 66 91 58 92 59 93 65 94 67 95 60 96 61 97 62 98
REMARK SMILES IDX 63 99 64 100
REMARK H PARENT 21 6 7 15 10 18 26 31 88 50 54 61
REMARK Flexibility Score: inf
ROOT
ATOM      1  C   UNL A   1      37.350  20.205  25.087  1.00  0.00     0.023 C 
ENDROOT
BRANCH   1   2
ATOM      2  C   UNL A   1      36.056  20.936  24.724  1.00  0.00     0.116 C 
BRANCH   2   3
ATOM      3  N   UNL A   1      34.895  20.308  25.330  1.00  0.00    -0.356 N 
ATOM      4  C   UNL A   1      33.650  20.806  25.578  1.00  0.00     0.224 C 
ATOM      5  O   UNL A   1      32.850  20.089  26.182  1.00  0.00    -0.275 OA
ATOM      6  H   UNL A   1      35.029  19.372  25.605  1.00  0.00     0.163 HD
BRANCH   4   7
ATOM      7  C   UNL A   1      33.236  22.198  25.107  1.00  0.00     0.098 C 
BRANCH   7   8
ATOM      8  C   UNL A   1      33.804  23.336  25.986  1.00  0.00     0.018 C 
BRANCH   8   9
ATOM      9  C   UNL A   1      34.812  24.285  25.303  1.00  0.00    -0.017 C 
ATOM     10  C   UNL A   1      34.366  25.745  25.357  1.00  0.00     0.007 C 
ATOM     11  C   UNL A   1      36.188  24.135  25.958  1.00  0.00     0.007 C 
ENDBRANCH   8   9
ENDBRANCH   7   8
BRANCH   7  12
ATOM     12  C   UNL A   1      31.714  22.227  24.883  1.00  0.00     0.131 C 
BRANCH  12  13
ATOM     13  N   UNL A   1      30.921  22.328  26.090  1.00  0.00    -0.337 N 
ATOM     14  C   UNL A   1      30.225  23.273  26.711  1.00  0.00     0.315 C 
ATOM     15  H   UNL A   1      30.890  21.473  26.578  1.00  0.00     0.165 HD
ATOM     16  O   UNL A   1      29.598  22.944  27.721  1.00  0.00    -0.249 OA
ATOM     17  N   UNL A   1      30.148  24.543  26.326  1.00  0.00    -0.335 N 
ATOM     18  H   UNL A   1      29.563  25.069  26.918  1.00  0.00     0.165 HD
BRANCH  17  19
ATOM     19  C   UNL A   1      30.708  25.357  25.254  1.00  0.00     0.083 C 
ATOM     20  C   UNL A   1      29.925  25.071  23.973  1.00  0.00     0.031 C 
BRANCH  19  21
ATOM     21  C   UNL A   1      30.793  26.844  25.677  1.00  0.00     0.011 C 
ATOM     22  C   UNL A   1      31.583  27.011  26.988  1.00  0.00     0.006 C 
ATOM     23  C   UNL A   1      31.347  27.771  24.583  1.00  0.00     0.006 C 
ATOM     24  C   UNL A   1      31.647  28.466  27.439  1.00  0.00     0.000 C 
ATOM     25  C   UNL A   1      31.405  29.223  25.052  1.00  0.00     0.000 C 
ATOM     26  C   UNL A   1      32.207  29.361  26.340  1.00  0.00     0.000 C 
ENDBRANCH  19  21
ENDBRANCH  17  19
ENDBRANCH  12  13
ENDBRANCH   7  12
ENDBRANCH   4   7
ENDBRANCH   2   3
ENDBRANCH   1   2
BRANCH   1  27
ATOM     27  C   UNL A   1      38.591  21.085  25.116  1.00  0.00     0.023 C 
BRANCH  27  28
ATOM     28  C   UNL A   1      39.509  20.838  26.300  1.00  0.00     0.116 C 
BRANCH  28  29
ATOM     29  N   UNL A   1      40.311  19.629  26.167  1.00  0.00    -0.352 N 
ATOM     30  C   UNL A   1      41.682  19.524  26.182  1.00  0.00     0.251 C 
ATOM     31  H   UNL A   1      39.812  18.788  26.053  1.00  0.00     0.163 HD
ATOM     32  O   UNL A   1      42.235  18.457  25.963  1.00  0.00    -0.269 OA
BRANCH  30  33
ATOM     33  C   UNL A   1      42.461  20.751  26.430  1.00  0.00     0.039 A 
ATOM     34  C   UNL A   1      42.919  21.490  25.339  1.00  0.00     0.014 A 
ATOM     35  C   UNL A   1      42.621  21.220  27.736  1.00  0.00     0.014 A 
ATOM     36  C   UNL A   1      43.483  22.747  25.559  1.00  0.00     0.010 A 
ATOM     37  C   UNL A   1      43.103  22.503  27.945  1.00  0.00     0.010 A 
ATOM     38  C   UNL A   1      43.542  23.276  26.858  1.00  0.00    -0.014 A 
BRANCH  38  39
ATOM     39  C   UNL A   1      44.075  24.635  27.114  1.00  0.00     0.031 A 
ATOM     40  C   UNL A   1      43.138  25.729  27.543  1.00  0.00     0.074 A 
ATOM     41  C   UNL A   1      45.377  24.897  26.885  1.00  0.00     0.049 A 
ATOM     42  N   UNL A   1      43.383  26.998  27.732  1.00  0.00    -0.248 NA
ATOM     43  C   UNL A   1      41.730  25.350  27.750  1.00  0.00     0.031 C 
ATOM     44  C   UNL A   1      46.367  23.929  26.405  1.00  0.00     0.029 A 
ATOM     45  N   UNL A   1      46.089  26.062  27.013  1.00  0.00    -0.354 N 
ATOM     46  C   UNL A   1      42.160  27.572  28.056  1.00  0.00     0.074 A 
ATOM     47  C   UNL A   1      41.166  26.524  27.983  1.00  0.00     0.031 C 
ATOM     48  C   UNL A   1      47.562  24.535  26.304  1.00  0.00     0.029 A 
ATOM     49  C   UNL A   1      47.417  25.937  26.681  1.00  0.00     0.049 A 
ATOM     50  H   UNL A   1      45.687  26.908  27.315  1.00  0.00     0.167 HD
ATOM     51  C   UNL A   1      41.895  28.852  28.408  1.00  0.00     0.037 A 
ATOM     52  C   UNL A   1      48.405  26.854  26.681  1.00  0.00     0.037 A 
ATOM     53  C   UNL A   1      42.897  29.875  28.521  1.00  0.00     0.049 A 
ATOM     54  C   UNL A   1      48.093  28.260  27.114  1.00  0.00     0.074 A 
ATOM     55  C   UNL A   1      42.748  31.185  28.939  1.00  0.00     0.029 A 
ATOM     56  N   UNL A   1      44.241  29.700  28.220  1.00  0.00    -0.354 N 
ATOM     57  N   UNL A   1      46.942  28.773  27.481  1.00  0.00    -0.248 NA
ATOM     58  C   UNL A   1      49.213  29.210  27.142  1.00  0.00     0.031 C 
ATOM     59  C   UNL A   1      43.998  31.810  28.865  1.00  0.00     0.029 A 
ATOM     60  C   UNL A   1      44.931  30.880  28.434  1.00  0.00     0.049 A 
ATOM     61  H   UNL A   1      44.643  28.860  27.902  1.00  0.00     0.167 HD
ATOM     62  C   UNL A   1      47.204  30.098  27.805  1.00  0.00     0.074 A 
ATOM     63  C   UNL A   1      48.623  30.305  27.602  1.00  0.00     0.031 C 
ATOM     64  C   UNL A   1      46.347  31.058  28.233  1.00  0.00     0.037 A 
BRANCH  51  65
ATOM     65  C   UNL A   1      40.465  29.202  28.708  1.00  0.00     0.058 A 
ATOM     66  C   UNL A   1      39.993  29.296  30.028  1.00  0.00     0.135 A 
ATOM     67  C   UNL A   1      39.557  29.453  27.668  1.00  0.00     0.135 A 
ATOM     68  F   UNL A   1      40.814  29.045  31.059  1.00  0.00    -0.206 F 
ATOM     69  C   UNL A   1      38.663  29.591  30.305  1.00  0.00     0.059 A 
ATOM     70  C   UNL A   1      38.227  29.777  27.922  1.00  0.00     0.059 A 
ATOM     71  F   UNL A   1      39.955  29.373  26.388  1.00  0.00    -0.206 F 
ATOM     72  C   UNL A   1      37.787  29.826  29.245  1.00  0.00     0.060 A 
BRANCH  72  73
ATOM     73  S   UNL A   1      36.060  30.201  29.618  1.00  0.00     0.124 S 
ATOM     74  O   UNL A   1      36.046  31.654  29.491  1.00  0.00    -0.237 OA
ATOM     75  O   UNL A   1      35.348  29.467  28.576  1.00  0.00    -0.237 OA
ATOM     76  O   UNL A   1      35.886  29.686  30.972  1.00  0.00    -0.744 OA
ENDBRANCH  72  73
ENDBRANCH  51  65
BRANCH  52  77
ATOM     77  C   UNL A   1      49.784  26.458  26.296  1.00  0.00     0.058 A 
ATOM     78  C   UNL A   1      50.643  25.850  27.223  1.00  0.00     0.135 A 
ATOM     79  C   UNL A   1      50.264  26.656  24.992  1.00  0.00     0.135 A 
ATOM     80  F   UNL A   1      50.228  25.644  28.483  1.00  0.00    -0.206 F 
ATOM     81  C   UNL A   1      51.933  25.465  26.879  1.00  0.00     0.059 A 
ATOM     82  C   UNL A   1      51.545  26.260  24.617  1.00  0.00     0.059 A 
ATOM     83  F   UNL A   1      49.475  27.216  24.063  1.00  0.00    -0.206 F 
ATOM     84  C   UNL A   1      52.376  25.673  25.572  1.00  0.00     0.060 A 
BRANCH  84  85
ATOM     85  S   UNL A   1      54.033  25.117  25.117  1.00  0.00     0.124 S 
ATOM     86  O   UNL A   1      53.825  23.684  24.946  1.00  0.00    -0.237 OA
ATOM     87  O   UNL A   1      54.289  25.876  23.897  1.00  0.00    -0.237 OA
ATOM     88  O   UNL A   1      54.843  25.506  26.268  1.00  0.00    -0.744 OA
ENDBRANCH  84  85
ENDBRANCH  52  77
BRANCH  64  89
ATOM     89  C   UNL A   1      46.925  32.410  28.538  1.00  0.00     0.058 A 
ATOM     90  C   UNL A   1      46.995  33.415  27.563  1.00  0.00     0.135 A 
ATOM     91  C   UNL A   1      47.360  32.718  29.838  1.00  0.00     0.135 A 
ATOM     92  F   UNL A   1      46.598  33.166  26.306  1.00  0.00    -0.206 F 
ATOM     93  C   UNL A   1      47.495  34.678  27.860  1.00  0.00     0.059 A 
ATOM     94  C   UNL A   1      47.842  33.981  30.163  1.00  0.00     0.059 A 
ATOM     95  F   UNL A   1      47.303  31.792  30.807  1.00  0.00    -0.206 F 
ATOM     96  C   UNL A   1      47.915  34.952  29.164  1.00  0.00     0.060 A 
BRANCH  96  97
ATOM     97  S   UNL A   1      48.525  36.607  29.549  1.00  0.00     0.124 S 
ATOM     98  O   UNL A   1      49.919  36.335  29.880  1.00  0.00    -0.237 OA
ATOM     99  O   UNL A   1      48.297  37.325  28.300  1.00  0.00    -0.237 OA
ATOM    100  O   UNL A   1      47.684  37.026  30.668  1.00  0.00    -0.744 OA
ENDBRANCH  96  97
ENDBRANCH  64  89
ENDBRANCH  38  39
ENDBRANCH  30  33
ENDBRANCH  28  29
ENDBRANCH  27  28
ENDBRANCH   1  27
TORSDOF 20
ENDMDL
MODEL 3
REMARK VINA RESULT:     -11.6      1.600      2.822
REMARK SMILES CC(C)C[C@H](CNC(=O)N[C@@H](C)C1CCCCC1)C(=O)NCCCCNC(=O)c1ccc(-c2c3nc(c(-c4c(F)cc(S(=O)(=O)[O-])cc4F)c4ccc([nH]4)c(-c4c(F)cc(S(=O)(=O)[O-])cc4F)c4nc(c(-c5c(F)cc(S(=O)(=O)[O-])cc5F)c5ccc2[nH]5)C=C4)C=C3)cc1
REMARK SMILES IDX 23 1 22 2 21 3 19 4 20 5 5 7 4 8 2 9 1 10 3 11 6 12 7 13
REMARK SMILES IDX 8 14 9 16 10 17 11 19 12 20 13 21 14 22 18 23 15 24 17 25
REMARK SMILES IDX 16 26 24 27 25 28 26 29 27 30 28 32 29 33 30 34 94 35 31 36
REMARK SMILES IDX 93 37 32 38 33 39 34 40 87 41 35 42 92 43 86 44 88 45 36 46
REMARK SMILES IDX 91 47 85 48 84 49 37 51 71 52 50 53 70 54 51 55 54 56 69 57
REMARK SMILES IDX 89 58 52 59 53 60 68 62 90 63 55 64 38 65 39 66 48 67 40 68
REMARK SMILES IDX 41 69 47 70 49 71 42 72 43 73 44 74 45 75 46 76 72 77 73 78
REMARK SMILES IDX 82 79 74 80 75 81 81 82 83 83 76 84 77 85 78 86 79 87 80 88
REMARK SMILES IDX 56 89 57 90 66 91 58 92 59 93 65 94 67 95 60 96 61 97 62 98
REMARK SMILES IDX 63 99 64 100
REMARK H PARENT 21 6 7 15 10 18 26 31 88 50 54 61
REMARK Flexibility Score: inf
ROOT
ATOM      1  C   UNL A   1      38.677  22.844  26.370  1.00  0.00     0.023 C 
ENDROOT
BRANCH   1   2
ATOM      2  C   UNL A   1      38.053  22.143  25.161  1.00  0.00     0.116 C 
BRANCH   2   3
ATOM      3  N   UNL A   1      36.830  21.445  25.515  1.00  0.00    -0.356 N 
ATOM      4  C   UNL A   1      35.565  21.918  25.700  1.00  0.00     0.224 C 
ATOM      5  O   UNL A   1      34.701  21.125  26.079  1.00  0.00    -0.275 OA
ATOM      6  H   UNL A   1      36.932  20.474  25.642  1.00  0.00     0.163 HD
BRANCH   4   7
ATOM      7  C   UNL A   1      35.208  23.377  25.426  1.00  0.00     0.098 C 
BRANCH   7   8
ATOM      8  C   UNL A   1      34.239  23.976  26.471  1.00  0.00     0.018 C 
BRANCH   8   9
ATOM      9  C   UNL A   1      33.054  24.792  25.911  1.00  0.00    -0.017 C 
ATOM     10  C   UNL A   1      31.731  24.441  26.589  1.00  0.00     0.007 C 
ATOM     11  C   UNL A   1      33.339  26.288  26.066  1.00  0.00     0.007 C 
ENDBRANCH   8   9
ENDBRANCH   7   8
BRANCH   7  12
ATOM     12  C   UNL A   1      34.777  23.528  23.957  1.00  0.00     0.131 C 
BRANCH  12  13
ATOM     13  N   UNL A   1      33.805  22.555  23.502  1.00  0.00    -0.337 N 
ATOM     14  C   UNL A   1      32.771  22.541  22.669  1.00  0.00     0.315 C 
ATOM     15  H   UNL A   1      33.949  21.674  23.920  1.00  0.00     0.165 HD
ATOM     16  O   UNL A   1      32.211  21.459  22.480  1.00  0.00    -0.249 OA
ATOM     17  N   UNL A   1      32.297  23.601  22.022  1.00  0.00    -0.335 N 
ATOM     18  H   UNL A   1      31.538  23.365  21.441  1.00  0.00     0.165 HD
BRANCH  17  19
ATOM     19  C   UNL A   1      32.612  25.023  21.951  1.00  0.00     0.083 C 
ATOM     20  C   UNL A   1      32.634  25.439  20.480  1.00  0.00     0.031 C 
BRANCH  19  21
ATOM     21  C   UNL A   1      31.675  25.842  22.872  1.00  0.00     0.011 C 
ATOM     22  C   UNL A   1      31.397  27.241  22.290  1.00  0.00     0.006 C 
ATOM     23  C   UNL A   1      30.360  25.123  23.219  1.00  0.00     0.006 C 
ATOM     24  C   UNL A   1      30.504  28.075  23.202  1.00  0.00     0.000 C 
ATOM     25  C   UNL A   1      29.478  25.974  24.130  1.00  0.00     0.000 C 
ATOM     26  C   UNL A   1      29.206  27.344  23.523  1.00  0.00     0.000 C 
ENDBRANCH  19  21
ENDBRANCH  17  19
ENDBRANCH  12  13
ENDBRANCH   7  12
ENDBRANCH   4   7
ENDBRANCH   2   3
ENDBRANCH   1   2
BRANCH   1  27
ATOM     27  C   UNL A   1      39.907  22.153  26.940  1.00  0.00     0.023 C 
BRANCH  27  28
ATOM     28  C   UNL A   1      41.081  23.079  27.207  1.00  0.00     0.116 C 
BRANCH  28  29
ATOM     29  N   UNL A   1      41.454  23.886  26.052  1.00  0.00    -0.352 N 
ATOM     30  C   UNL A   1      41.668  25.244  26.010  1.00  0.00     0.251 C 
ATOM     31  H   UNL A   1      41.566  23.402  25.202  1.00  0.00     0.163 HD
ATOM     32  O   UNL A   1      41.883  25.816  24.952  1.00  0.00    -0.269 OA
BRANCH  30  33
ATOM     33  C   UNL A   1      41.586  25.991  27.279  1.00  0.00     0.039 A 
ATOM     34  C   UNL A   1      42.651  26.813  27.647  1.00  0.00     0.014 A 
ATOM     35  C   UNL A   1      40.406  25.962  28.025  1.00  0.00     0.014 A 
ATOM     36  C   UNL A   1      42.502  27.669  28.738  1.00  0.00     0.010 A 
ATOM     37  C   UNL A   1      40.230  26.873  29.056  1.00  0.00     0.010 A 
ATOM     38  C   UNL A   1      41.278  27.731  29.424  1.00  0.00    -0.014 A 
BRANCH  38  39
ATOM     39  C   UNL A   1      41.070  28.677  30.545  1.00  0.00     0.031 A 
ATOM     40  C   UNL A   1      41.926  28.565  31.775  1.00  0.00     0.074 A 
ATOM     41  C   UNL A   1      40.067  29.576  30.486  1.00  0.00     0.049 A 
ATOM     42  N   UNL A   1      41.851  29.232  32.896  1.00  0.00    -0.248 NA
ATOM     43  C   UNL A   1      42.985  27.542  31.754  1.00  0.00     0.031 C 
ATOM     44  C   UNL A   1      39.131  29.731  29.369  1.00  0.00     0.029 A 
ATOM     45  N   UNL A   1      39.660  30.519  31.394  1.00  0.00    -0.354 N 
ATOM     46  C   UNL A   1      42.832  28.694  33.720  1.00  0.00     0.074 A 
ATOM     47  C   UNL A   1      43.452  27.610  32.990  1.00  0.00     0.031 C 
ATOM     48  C   UNL A   1      38.275  30.729  29.649  1.00  0.00     0.029 A 
ATOM     49  C   UNL A   1      38.581  31.261  30.973  1.00  0.00     0.049 A 
ATOM     50  H   UNL A   1      40.098  30.653  32.265  1.00  0.00     0.167 HD
ATOM     51  C   UNL A   1      43.200  29.086  34.961  1.00  0.00     0.037 A 
ATOM     52  C   UNL A   1      37.916  32.258  31.589  1.00  0.00     0.037 A 
ATOM     53  C   UNL A   1      42.608  30.194  35.660  1.00  0.00     0.049 A 
ATOM     54  C   UNL A   1      38.370  32.702  32.953  1.00  0.00     0.074 A 
ATOM     55  C   UNL A   1      42.954  30.721  36.891  1.00  0.00     0.029 A 
ATOM     56  N   UNL A   1      41.548  30.952  35.182  1.00  0.00    -0.354 N 
ATOM     57  N   UNL A   1      39.343  32.225  33.693  1.00  0.00    -0.248 NA
ATOM     58  C   UNL A   1      37.643  33.823  33.562  1.00  0.00     0.031 C 
ATOM     59  C   UNL A   1      42.085  31.781  37.171  1.00  0.00     0.029 A 
ATOM     60  C   UNL A   1      41.220  31.936  36.098  1.00  0.00     0.049 A 
ATOM     61  H   UNL A   1      41.096  30.810  34.319  1.00  0.00     0.167 HD
ATOM     62  C   UNL A   1      39.359  33.003  34.844  1.00  0.00     0.074 A 
ATOM     63  C   UNL A   1      38.307  33.987  34.698  1.00  0.00     0.031 C 
ATOM     64  C   UNL A   1      40.173  32.911  35.926  1.00  0.00     0.037 A 
BRANCH  51  65
ATOM     65  C   UNL A   1      44.304  28.315  35.629  1.00  0.00     0.058 A 
ATOM     66  C   UNL A   1      44.033  27.227  36.474  1.00  0.00     0.135 A 
ATOM     67  C   UNL A   1      45.647  28.662  35.416  1.00  0.00     0.135 A 
ATOM     68  F   UNL A   1      42.765  26.867  36.728  1.00  0.00    -0.206 F 
ATOM     69  C   UNL A   1      45.052  26.532  37.114  1.00  0.00     0.059 A 
ATOM     70  C   UNL A   1      46.686  27.963  36.024  1.00  0.00     0.059 A 
ATOM     71  F   UNL A   1      45.962  29.695  34.619  1.00  0.00    -0.206 F 
ATOM     72  C   UNL A   1      46.376  26.910  36.887  1.00  0.00     0.060 A 
BRANCH  72  73
ATOM     73  S   UNL A   1      47.691  26.004  37.730  1.00  0.00     0.124 S 
ATOM     74  O   UNL A   1      48.292  25.270  36.622  1.00  0.00    -0.237 OA
ATOM     75  O   UNL A   1      48.503  27.081  38.290  1.00  0.00    -0.237 OA
ATOM     76  O   UNL A   1      46.972  25.194  38.706  1.00  0.00    -0.744 OA
ENDBRANCH  72  73
ENDBRANCH  51  65
BRANCH  52  77
ATOM     77  C   UNL A   1      36.780  32.926  30.904  1.00  0.00     0.058 A 
ATOM     78  C   UNL A   1      35.458  32.695  31.312  1.00  0.00     0.135 A 
ATOM     79  C   UNL A   1      36.990  33.825  29.847  1.00  0.00     0.135 A 
ATOM     80  F   UNL A   1      35.208  31.840  32.316  1.00  0.00    -0.206 F 
ATOM     81  C   UNL A   1      34.383  33.318  30.689  1.00  0.00     0.059 A 
ATOM     82  C   UNL A   1      35.932  34.477  29.221  1.00  0.00     0.059 A 
ATOM     83  F   UNL A   1      38.237  34.095  29.432  1.00  0.00    -0.206 F 
ATOM     84  C   UNL A   1      34.630  34.209  29.644  1.00  0.00     0.060 A 
BRANCH  84  85
ATOM     85  S   UNL A   1      33.231  35.058  28.878  1.00  0.00     0.124 S 
ATOM     86  O   UNL A   1      32.382  35.326  30.034  1.00  0.00    -0.237 OA
ATOM     87  O   UNL A   1      33.871  36.221  28.272  1.00  0.00    -0.237 OA
ATOM     88  O   UNL A   1      32.720  34.071  27.931  1.00  0.00    -0.744 OA
ENDBRANCH  84  85
ENDBRANCH  52  77
BRANCH  64  89
ATOM     89  C   UNL A   1      39.976  33.918  37.021  1.00  0.00     0.058 A 
ATOM     90  C   UNL A   1      40.619  35.164  36.997  1.00  0.00     0.135 A 
ATOM     91  C   UNL A   1      39.088  33.653  38.077  1.00  0.00     0.135 A 
ATOM     92  F   UNL A   1      41.481  35.461  36.012  1.00  0.00    -0.206 F 
ATOM     93  C   UNL A   1      40.402  36.110  37.993  1.00  0.00     0.059 A 
ATOM     94  C   UNL A   1      38.840  34.592  39.071  1.00  0.00     0.059 A 
ATOM     95  F   UNL A   1      38.442  32.479  38.139  1.00  0.00    -0.206 F 
ATOM     96  C   UNL A   1      39.509  35.815  39.026  1.00  0.00     0.060 A 
BRANCH  96  97
ATOM     97  S   UNL A   1      39.205  37.065  40.292  1.00  0.00     0.124 S 
ATOM     98  O   UNL A   1      38.571  38.123  39.512  1.00  0.00    -0.237 OA
ATOM     99  O   UNL A   1      38.337  36.360  41.229  1.00  0.00    -0.237 OA
ATOM    100  O   UNL A   1      40.542  37.370  40.795  1.00  0.00    -0.744 OA
ENDBRANCH  96  97
ENDBRANCH  64  89
ENDBRANCH  38  39
ENDBRANCH  30  33
ENDBRANCH  28  29
ENDBRANCH  27  28
ENDBRANCH   1  27
TORSDOF 20
ENDMDL
