MODEL 1
REMARK VINA RESULT:      -9.7      0.000      0.000
REMARK SMILES CCCCCCNC(=O)Oc1cccc(-c2ccc([C@@H](C)C(=O)NCCCCNC(=O)c3ccc(-c4c5nc(c(-c6c(F)cc(S(=O)(=O)[O-])cc6F)c6ccc([nH]6)c(-c6c(F)cc(S(=O)(=O)[O-])cc6F)c6nc(c(-c7c(F)cc(S(=O)(=O)[O-])cc7F)c7ccc4[nH]7)C=C6)C=C5)cc3)cc2N)c1
REMARK SMILES IDX 20 1 21 2 19 3 16 4 17 5 99 6 18 7 98 8 15 9 11 10 12 11
REMARK SMILES IDX 101 12 13 13 14 14 10 15 8 16 7 17 9 19 6 20 5 21 4 22 3 23
REMARK SMILES IDX 2 24 1 25 100 26 22 29 23 30 24 31 25 33 26 34 27 35 28 36
REMARK SMILES IDX 29 37 30 38 31 40 32 41 33 42 97 43 34 44 96 45 35 46 36 47
REMARK SMILES IDX 37 48 90 49 38 50 95 51 89 52 91 53 39 54 94 55 88 56 87 57
REMARK SMILES IDX 40 59 74 60 53 61 73 62 54 63 57 64 72 65 92 66 55 67 56 68
REMARK SMILES IDX 71 70 93 71 58 72 41 73 42 74 51 75 43 76 44 77 50 78 52 79
REMARK SMILES IDX 45 80 46 81 47 82 48 83 49 84 75 85 76 86 85 87 77 88 78 89
REMARK SMILES IDX 84 90 86 91 79 92 80 93 81 94 82 95 83 96 59 97 60 98 69 99
REMARK SMILES IDX 61 100 62 101 68 102 70 103 63 104 64 105 65 106 66 107
REMARK SMILES IDX 67 108
REMARK H PARENT 7 18 100 27 100 28 24 32 29 39 91 58 57 69
REMARK Flexibility Score: inf
ROOT
ATOM      1  C   UNL A   1      44.029  23.372  34.018  1.00  0.00     0.105 C 
ATOM      2  C   UNL A   1      42.981  24.337  34.572  1.00  0.00     0.023 C 
ENDROOT
BRANCH   1   3
ATOM      3  C   UNL A   1      44.712  22.489  35.051  1.00  0.00    -0.034 A 
ATOM      4  C   UNL A   1      46.154  20.818  36.871  1.00  0.00     0.005 A 
ATOM      5  C   UNL A   1      45.802  22.144  37.188  1.00  0.00     0.011 A 
ATOM      6  C   UNL A   1      45.679  20.301  35.642  1.00  0.00     0.040 A 
ATOM      7  C   UNL A   1      45.043  22.937  36.326  1.00  0.00     0.005 A 
ATOM      8  C   UNL A   1      45.042  21.164  34.727  1.00  0.00     0.030 A 
BRANCH   4   9
ATOM      9  C   UNL A   1      46.970  20.047  37.847  1.00  0.00    -0.013 A 
ATOM     10  C   UNL A   1      47.183  18.489  39.703  1.00  0.00     0.133 A 
ATOM     11  C   UNL A   1      48.569  18.618  39.702  1.00  0.00     0.047 A 
ATOM     12  C   UNL A   1      46.388  19.169  38.778  1.00  0.00     0.056 A 
ATOM     13  C   UNL A   1      49.169  19.445  38.761  1.00  0.00     0.004 A 
ATOM     14  C   UNL A   1      48.376  20.162  37.860  1.00  0.00     0.009 A 
BRANCH  10  15
ATOM     15  O   UNL A   1      46.624  17.789  40.785  1.00  0.00    -0.410 OA
BRANCH  15  16
ATOM     16  C   UNL A   1      45.939  18.475  41.775  1.00  0.00     0.412 C 
ATOM     17  N   UNL A   1      44.653  18.034  41.928  1.00  0.00    -0.321 N 
ATOM     18  H   UNL A   1      44.098  18.509  42.588  1.00  0.00     0.167 HD
ATOM     19  O   UNL A   1      46.385  19.387  42.459  1.00  0.00    -0.224 OA
BRANCH  17  20
ATOM     20  C   UNL A   1      44.024  16.940  41.216  1.00  0.00     0.119 C 
BRANCH  20  21
ATOM     21  C   UNL A   1      43.759  15.742  42.128  1.00  0.00     0.021 C 
BRANCH  21  22
ATOM     22  C   UNL A   1      42.278  15.475  42.423  1.00  0.00     0.002 C 
BRANCH  22  23
ATOM     23  C   UNL A   1      42.000  14.375  43.454  1.00  0.00    -0.000 C 
BRANCH  23  24
ATOM     24  C   UNL A   1      43.056  13.270  43.536  1.00  0.00    -0.003 C 
ATOM     25  C   UNL A   1      42.488  11.879  43.297  1.00  0.00     0.004 C 
ENDBRANCH  23  24
ENDBRANCH  22  23
ENDBRANCH  21  22
ENDBRANCH  20  21
ENDBRANCH  17  20
ENDBRANCH  15  16
ENDBRANCH  10  15
ENDBRANCH   4   9
BRANCH   6  26
ATOM     26  N   UNL A   1      45.892  18.979  35.247  1.00  0.00    -0.398 N 
ATOM     27  H   UNL A   1      45.655  18.240  35.852  1.00  0.00     0.156 HD
ATOM     28  H   UNL A   1      46.278  18.787  34.362  1.00  0.00     0.156 HD
ENDBRANCH   6  26
ENDBRANCH   1   3
BRANCH   1  29
ATOM     29  C   UNL A   1      44.985  24.003  32.992  1.00  0.00     0.227 C 
ATOM     30  O   UNL A   1      46.050  24.501  33.379  1.00  0.00    -0.274 OA
ATOM     31  N   UNL A   1      44.756  24.028  31.651  1.00  0.00    -0.356 N 
ATOM     32  H   UNL A   1      45.501  24.397  31.123  1.00  0.00     0.163 HD
BRANCH  31  33
ATOM     33  C   UNL A   1      43.619  23.611  30.860  1.00  0.00     0.116 C 
BRANCH  33  34
ATOM     34  C   UNL A   1      44.034  22.736  29.675  1.00  0.00     0.023 C 
BRANCH  34  35
ATOM     35  C   UNL A   1      43.232  22.958  28.397  1.00  0.00     0.023 C 
BRANCH  35  36
ATOM     36  C   UNL A   1      43.916  23.829  27.350  1.00  0.00     0.116 C 
BRANCH  36  37
ATOM     37  N   UNL A   1      43.021  24.330  26.315  1.00  0.00    -0.352 N 
ATOM     38  C   UNL A   1      42.152  25.396  26.395  1.00  0.00     0.251 C 
ATOM     39  H   UNL A   1      43.038  23.850  25.457  1.00  0.00     0.163 HD
ATOM     40  O   UNL A   1      41.397  25.658  25.465  1.00  0.00    -0.269 OA
BRANCH  38  41
ATOM     41  C   UNL A   1      42.116  26.186  27.643  1.00  0.00     0.039 A 
ATOM     42  C   UNL A   1      42.969  27.283  27.778  1.00  0.00     0.014 A 
ATOM     43  C   UNL A   1      41.172  25.894  28.630  1.00  0.00     0.014 A 
ATOM     44  C   UNL A   1      42.819  28.138  28.870  1.00  0.00     0.010 A 
ATOM     45  C   UNL A   1      40.965  26.796  29.668  1.00  0.00     0.010 A 
ATOM     46  C   UNL A   1      41.786  27.926  29.799  1.00  0.00    -0.014 A 
BRANCH  46  47
ATOM     47  C   UNL A   1      41.541  28.876  30.914  1.00  0.00     0.031 A 
ATOM     48  C   UNL A   1      42.336  28.764  32.187  1.00  0.00     0.074 A 
ATOM     49  C   UNL A   1      40.541  29.775  30.817  1.00  0.00     0.049 A 
ATOM     50  N   UNL A   1      42.219  29.444  33.296  1.00  0.00    -0.248 NA
ATOM     51  C   UNL A   1      43.374  27.721  32.228  1.00  0.00     0.031 C 
ATOM     52  C   UNL A   1      39.649  29.929  29.666  1.00  0.00     0.029 A 
ATOM     53  N   UNL A   1      40.096  30.720  31.708  1.00  0.00    -0.354 N 
ATOM     54  C   UNL A   1      43.146  28.896  34.175  1.00  0.00     0.074 A 
ATOM     55  C   UNL A   1      43.777  27.791  33.488  1.00  0.00     0.031 C 
ATOM     56  C   UNL A   1      38.775  30.917  29.915  1.00  0.00     0.029 A 
ATOM     57  C   UNL A   1      39.021  31.446  31.253  1.00  0.00     0.049 A 
ATOM     58  H   UNL A   1      40.508  30.864  32.591  1.00  0.00     0.167 HD
ATOM     59  C   UNL A   1      43.459  29.292  35.431  1.00  0.00     0.037 A 
ATOM     60  C   UNL A   1      38.308  32.422  31.847  1.00  0.00     0.037 A 
ATOM     61  C   UNL A   1      42.849  30.416  36.092  1.00  0.00     0.049 A 
ATOM     62  C   UNL A   1      38.701  32.879  33.225  1.00  0.00     0.074 A 
ATOM     63  C   UNL A   1      43.161  30.960  37.325  1.00  0.00     0.029 A 
ATOM     64  N   UNL A   1      41.800  31.164  35.577  1.00  0.00    -0.354 N 
ATOM     65  N   UNL A   1      39.647  32.414  34.008  1.00  0.00    -0.248 NA
ATOM     66  C   UNL A   1      37.941  33.998  33.800  1.00  0.00     0.031 C 
ATOM     67  C   UNL A   1      42.266  32.007  37.578  1.00  0.00     0.029 A 
ATOM     68  C   UNL A   1      41.432  32.148  36.478  1.00  0.00     0.049 A 
ATOM     69  H   UNL A   1      41.378  31.015  34.700  1.00  0.00     0.167 HD
ATOM     70  C   UNL A   1      39.609  33.196  35.157  1.00  0.00     0.074 A 
ATOM     71  C   UNL A   1      38.556  34.171  34.962  1.00  0.00     0.031 C 
ATOM     72  C   UNL A   1      40.379  33.112  36.271  1.00  0.00     0.037 A 
BRANCH  59  73
ATOM     73  C   UNL A   1      44.504  28.499  36.168  1.00  0.00     0.058 A 
ATOM     74  C   UNL A   1      45.854  28.886  36.187  1.00  0.00     0.135 A 
ATOM     75  C   UNL A   1      44.149  27.334  36.868  1.00  0.00     0.135 A 
ATOM     76  F   UNL A   1      46.253  29.982  35.523  1.00  0.00    -0.206 F 
ATOM     77  C   UNL A   1      46.821  28.121  36.831  1.00  0.00     0.059 A 
ATOM     78  C   UNL A   1      45.095  26.572  37.547  1.00  0.00     0.059 A 
ATOM     79  F   UNL A   1      42.873  26.917  36.887  1.00  0.00    -0.206 F 
ATOM     80  C   UNL A   1      46.433  26.962  37.504  1.00  0.00     0.060 A 
BRANCH  80  81
ATOM     81  S   UNL A   1      47.703  25.971  38.316  1.00  0.00     0.124 S 
ATOM     82  O   UNL A   1      48.757  26.960  38.521  1.00  0.00    -0.237 OA
ATOM     83  O   UNL A   1      47.021  25.514  39.523  1.00  0.00    -0.237 OA
ATOM     84  O   UNL A   1      48.001  24.930  37.336  1.00  0.00    -0.744 OA
ENDBRANCH  80  81
ENDBRANCH  59  73
BRANCH  60  85
ATOM     85  C   UNL A   1      37.172  33.047  31.119  1.00  0.00     0.058 A 
ATOM     86  C   UNL A   1      37.392  33.901  30.028  1.00  0.00     0.135 A 
ATOM     87  C   UNL A   1      35.842  32.759  31.465  1.00  0.00     0.135 A 
ATOM     88  F   UNL A   1      38.645  34.213  29.664  1.00  0.00    -0.206 F 
ATOM     89  C   UNL A   1      36.336  34.447  29.306  1.00  0.00     0.059 A 
ATOM     90  C   UNL A   1      34.769  33.273  30.743  1.00  0.00     0.059 A 
ATOM     91  F   UNL A   1      35.578  31.934  32.490  1.00  0.00    -0.206 F 
ATOM     92  C   UNL A   1      35.028  34.120  29.665  1.00  0.00     0.060 A 
BRANCH  92  93
ATOM     93  S   UNL A   1      33.669  34.768  28.667  1.00  0.00     0.124 S 
ATOM     94  O   UNL A   1      32.582  34.810  29.640  1.00  0.00    -0.237 OA
ATOM     95  O   UNL A   1      34.192  36.061  28.239  1.00  0.00    -0.237 OA
ATOM     96  O   UNL A   1      33.528  33.775  27.606  1.00  0.00    -0.744 OA
ENDBRANCH  92  93
ENDBRANCH  60  85
BRANCH  72  97
ATOM     97  C   UNL A   1      40.131  34.118  37.362  1.00  0.00     0.058 A 
ATOM     98  C   UNL A   1      40.722  35.391  37.339  1.00  0.00     0.135 A 
ATOM     99  C   UNL A   1      39.241  33.825  38.408  1.00  0.00     0.135 A 
ATOM    100  F   UNL A   1      41.584  35.719  36.365  1.00  0.00    -0.206 F 
ATOM    101  C   UNL A   1      40.454  36.332  38.329  1.00  0.00     0.059 A 
ATOM    102  C   UNL A   1      38.938  34.760  39.392  1.00  0.00     0.059 A 
ATOM    103  F   UNL A   1      38.640  32.626  38.469  1.00  0.00    -0.206 F 
ATOM    104  C   UNL A   1      39.559  36.007  39.350  1.00  0.00     0.060 A 
BRANCH 104 105
ATOM    105  S   UNL A   1      39.190  37.251  40.606  1.00  0.00     0.124 S 
ATOM    106  O   UNL A   1      38.719  36.422  41.710  1.00  0.00    -0.237 OA
ATOM    107  O   UNL A   1      40.487  37.891  40.802  1.00  0.00    -0.237 OA
ATOM    108  O   UNL A   1      38.177  38.086  39.970  1.00  0.00    -0.744 OA
ENDBRANCH 104 105
ENDBRANCH  72  97
ENDBRANCH  46  47
ENDBRANCH  38  41
ENDBRANCH  36  37
ENDBRANCH  35  36
ENDBRANCH  34  35
ENDBRANCH  33  34
ENDBRANCH  31  33
ENDBRANCH   1  29
TORSDOF 24
ENDMDL
MODEL 2
REMARK VINA RESULT:      -9.2      6.348     12.615
REMARK SMILES CCCCCCNC(=O)Oc1cccc(-c2ccc([C@@H](C)C(=O)NCCCCNC(=O)c3ccc(-c4c5nc(c(-c6c(F)cc(S(=O)(=O)[O-])cc6F)c6ccc([nH]6)c(-c6c(F)cc(S(=O)(=O)[O-])cc6F)c6nc(c(-c7c(F)cc(S(=O)(=O)[O-])cc7F)c7ccc4[nH]7)C=C6)C=C5)cc3)cc2N)c1
REMARK SMILES IDX 20 1 21 2 19 3 16 4 17 5 99 6 18 7 98 8 15 9 11 10 12 11
REMARK SMILES IDX 101 12 13 13 14 14 10 15 8 16 7 17 9 19 6 20 5 21 4 22 3 23
REMARK SMILES IDX 2 24 1 25 100 26 22 29 23 30 24 31 25 33 26 34 27 35 28 36
REMARK SMILES IDX 29 37 30 38 31 40 32 41 33 42 97 43 34 44 96 45 35 46 36 47
REMARK SMILES IDX 37 48 90 49 38 50 95 51 89 52 91 53 39 54 94 55 88 56 87 57
REMARK SMILES IDX 40 59 74 60 53 61 73 62 54 63 57 64 72 65 92 66 55 67 56 68
REMARK SMILES IDX 71 70 93 71 58 72 41 73 42 74 51 75 43 76 44 77 50 78 52 79
REMARK SMILES IDX 45 80 46 81 47 82 48 83 49 84 75 85 76 86 85 87 77 88 78 89
REMARK SMILES IDX 84 90 86 91 79 92 80 93 81 94 82 95 83 96 59 97 60 98 69 99
REMARK SMILES IDX 61 100 62 101 68 102 70 103 63 104 64 105 65 106 66 107
REMARK SMILES IDX 67 108
REMARK H PARENT 7 18 100 27 100 28 24 32 29 39 91 58 57 69
REMARK Flexibility Score: inf
ROOT
ATOM      1  C   UNL A   1      37.513  31.280  32.477  1.00  0.00     0.105 C 
ATOM      2  C   UNL A   1      36.542  30.131  32.207  1.00  0.00     0.023 C 
ENDROOT
BRANCH   1   3
ATOM      3  C   UNL A   1      38.969  30.875  32.642  1.00  0.00    -0.034 A 
ATOM      4  C   UNL A   1      41.711  30.215  33.125  1.00  0.00     0.005 A 
ATOM      5  C   UNL A   1      40.701  29.236  33.077  1.00  0.00     0.011 A 
ATOM      6  C   UNL A   1      41.334  31.546  32.827  1.00  0.00     0.040 A 
ATOM      7  C   UNL A   1      39.375  29.551  32.777  1.00  0.00     0.005 A 
ATOM      8  C   UNL A   1      39.969  31.861  32.673  1.00  0.00     0.030 A 
BRANCH   4   9
ATOM      9  C   UNL A   1      43.097  29.791  33.458  1.00  0.00    -0.013 A 
ATOM     10  C   UNL A   1      45.225  28.770  32.868  1.00  0.00     0.133 A 
ATOM     11  C   UNL A   1      45.723  28.977  34.150  1.00  0.00     0.047 A 
ATOM     12  C   UNL A   1      43.941  29.189  32.509  1.00  0.00     0.056 A 
ATOM     13  C   UNL A   1      44.923  29.610  35.091  1.00  0.00     0.004 A 
ATOM     14  C   UNL A   1      43.622  29.994  34.752  1.00  0.00     0.009 A 
BRANCH  10  15
ATOM     15  O   UNL A   1      46.004  27.967  32.018  1.00  0.00    -0.410 OA
BRANCH  15  16
ATOM     16  C   UNL A   1      47.202  27.436  32.471  1.00  0.00     0.412 C 
ATOM     17  N   UNL A   1      47.086  26.128  32.855  1.00  0.00    -0.321 N 
ATOM     18  H   UNL A   1      47.892  25.703  33.226  1.00  0.00     0.167 HD
ATOM     19  O   UNL A   1      48.268  28.031  32.549  1.00  0.00    -0.224 OA
BRANCH  17  20
ATOM     20  C   UNL A   1      45.897  25.304  32.769  1.00  0.00     0.119 C 
BRANCH  20  21
ATOM     21  C   UNL A   1      45.245  25.096  34.136  1.00  0.00     0.021 C 
BRANCH  21  22
ATOM     22  C   UNL A   1      43.718  24.970  34.107  1.00  0.00     0.002 C 
BRANCH  22  23
ATOM     23  C   UNL A   1      42.946  26.270  34.358  1.00  0.00    -0.000 C 
BRANCH  23  24
ATOM     24  C   UNL A   1      41.807  26.171  35.377  1.00  0.00    -0.003 C 
ATOM     25  C   UNL A   1      41.813  27.302  36.395  1.00  0.00     0.004 C 
ENDBRANCH  23  24
ENDBRANCH  22  23
ENDBRANCH  21  22
ENDBRANCH  20  21
ENDBRANCH  17  20
ENDBRANCH  15  16
ENDBRANCH  10  15
ENDBRANCH   4   9
BRANCH   6  26
ATOM     26  N   UNL A   1      42.253  32.596  32.765  1.00  0.00    -0.398 N 
ATOM     27  H   UNL A   1      43.171  32.427  32.455  1.00  0.00     0.156 HD
ATOM     28  H   UNL A   1      41.981  33.503  33.032  1.00  0.00     0.156 HD
ENDBRANCH   6  26
ENDBRANCH   1   3
BRANCH   1  29
ATOM     29  C   UNL A   1      37.014  32.293  33.521  1.00  0.00     0.227 C 
ATOM     30  O   UNL A   1      37.174  32.054  34.725  1.00  0.00    -0.274 OA
ATOM     31  N   UNL A   1      36.423  33.478  33.212  1.00  0.00    -0.356 N 
ATOM     32  H   UNL A   1      36.234  34.049  33.992  1.00  0.00     0.163 HD
BRANCH  31  33
ATOM     33  C   UNL A   1      36.022  34.054  31.947  1.00  0.00     0.116 C 
BRANCH  33  34
ATOM     34  C   UNL A   1      37.117  33.926  30.885  1.00  0.00     0.023 C 
BRANCH  34  35
ATOM     35  C   UNL A   1      36.628  33.509  29.501  1.00  0.00     0.023 C 
BRANCH  35  36
ATOM     36  C   UNL A   1      37.195  32.191  28.988  1.00  0.00     0.116 C 
BRANCH  36  37
ATOM     37  N   UNL A   1      36.182  31.212  28.615  1.00  0.00    -0.352 N 
ATOM     38  C   UNL A   1      36.376  29.908  28.218  1.00  0.00     0.251 C 
ATOM     39  H   UNL A   1      35.248  31.519  28.651  1.00  0.00     0.163 HD
ATOM     40  O   UNL A   1      35.430  29.217  27.856  1.00  0.00    -0.269 OA
BRANCH  38  41
ATOM     41  C   UNL A   1      37.754  29.375  28.190  1.00  0.00     0.039 A 
ATOM     42  C   UNL A   1      38.526  29.547  27.040  1.00  0.00     0.014 A 
ATOM     43  C   UNL A   1      38.304  28.795  29.336  1.00  0.00     0.014 A 
ATOM     44  C   UNL A   1      39.879  29.209  27.066  1.00  0.00     0.010 A 
ATOM     45  C   UNL A   1      39.670  28.544  29.387  1.00  0.00     0.010 A 
ATOM     46  C   UNL A   1      40.472  28.747  28.253  1.00  0.00    -0.014 A 
BRANCH  46  47
ATOM     47  C   UNL A   1      41.930  28.475  28.337  1.00  0.00     0.031 A 
ATOM     48  C   UNL A   1      42.861  29.528  28.872  1.00  0.00     0.074 A 
ATOM     49  C   UNL A   1      42.422  27.321  27.845  1.00  0.00     0.049 A 
ATOM     50  N   UNL A   1      44.165  29.513  28.955  1.00  0.00    -0.248 NA
ATOM     51  C   UNL A   1      42.245  30.780  29.342  1.00  0.00     0.031 C 
ATOM     52  C   UNL A   1      41.629  26.256  27.228  1.00  0.00     0.029 A 
ATOM     53  N   UNL A   1      43.712  26.858  27.770  1.00  0.00    -0.354 N 
ATOM     54  C   UNL A   1      44.527  30.757  29.457  1.00  0.00     0.074 A 
ATOM     55  C   UNL A   1      43.309  31.522  29.607  1.00  0.00     0.031 C 
ATOM     56  C   UNL A   1      42.446  25.259  26.853  1.00  0.00     0.029 A 
ATOM     57  C   UNL A   1      43.823  25.625  27.171  1.00  0.00     0.049 A 
ATOM     58  H   UNL A   1      44.486  27.361  28.114  1.00  0.00     0.167 HD
ATOM     59  C   UNL A   1      45.759  31.212  29.785  1.00  0.00     0.037 A 
ATOM     60  C   UNL A   1      44.910  24.877  26.900  1.00  0.00     0.037 A 
ATOM     61  C   UNL A   1      46.961  30.429  29.664  1.00  0.00     0.049 A 
ATOM     62  C   UNL A   1      46.266  25.380  27.313  1.00  0.00     0.074 A 
ATOM     63  C   UNL A   1      48.245  30.760  30.057  1.00  0.00     0.029 A 
ATOM     64  N   UNL A   1      47.027  29.162  29.103  1.00  0.00    -0.354 N 
ATOM     65  N   UNL A   1      46.582  26.523  27.879  1.00  0.00    -0.248 NA
ATOM     66  C   UNL A   1      47.411  24.494  27.065  1.00  0.00     0.031 C 
ATOM     67  C   UNL A   1      49.097  29.712  29.689  1.00  0.00     0.029 A 
ATOM     68  C   UNL A   1      48.334  28.706  29.114  1.00  0.00     0.049 A 
ATOM     69  H   UNL A   1      46.257  28.660  28.748  1.00  0.00     0.167 HD
ATOM     70  C   UNL A   1      47.959  26.483  28.071  1.00  0.00     0.074 A 
ATOM     71  C   UNL A   1      48.412  25.200  27.574  1.00  0.00     0.031 C 
ATOM     72  C   UNL A   1      48.771  27.425  28.613  1.00  0.00     0.037 A 
BRANCH  59  73
ATOM     73  C   UNL A   1      45.863  32.623  30.300  1.00  0.00     0.058 A 
ATOM     74  C   UNL A   1      45.752  32.924  31.667  1.00  0.00     0.135 A 
ATOM     75  C   UNL A   1      46.079  33.689  29.412  1.00  0.00     0.135 A 
ATOM     76  F   UNL A   1      45.531  31.946  32.560  1.00  0.00    -0.206 F 
ATOM     77  C   UNL A   1      45.803  34.235  32.130  1.00  0.00     0.059 A 
ATOM     78  C   UNL A   1      46.166  35.005  29.857  1.00  0.00     0.059 A 
ATOM     79  F   UNL A   1      46.195  33.461  28.094  1.00  0.00    -0.206 F 
ATOM     80  C   UNL A   1      46.004  35.270  31.217  1.00  0.00     0.060 A 
BRANCH  80  81
ATOM     81  S   UNL A   1      46.045  36.966  31.831  1.00  0.00     0.124 S 
ATOM     82  O   UNL A   1      46.328  37.710  30.608  1.00  0.00    -0.237 OA
ATOM     83  O   UNL A   1      44.703  37.134  32.379  1.00  0.00    -0.237 OA
ATOM     84  O   UNL A   1      47.123  36.945  32.816  1.00  0.00    -0.744 OA
ENDBRANCH  80  81
ENDBRANCH  59  73
BRANCH  60  85
ATOM     85  C   UNL A   1      44.745  23.561  26.229  1.00  0.00     0.058 A 
ATOM     86  C   UNL A   1      45.146  23.371  24.898  1.00  0.00     0.135 A 
ATOM     87  C   UNL A   1      44.234  22.452  26.921  1.00  0.00     0.135 A 
ATOM     88  F   UNL A   1      45.633  24.402  24.191  1.00  0.00    -0.206 F 
ATOM     89  C   UNL A   1      45.047  22.131  24.276  1.00  0.00     0.059 A 
ATOM     90  C   UNL A   1      44.147  21.195  26.329  1.00  0.00     0.059 A 
ATOM     91  F   UNL A   1      43.852  22.577  28.202  1.00  0.00    -0.206 F 
ATOM     92  C   UNL A   1      44.554  21.046  25.004  1.00  0.00     0.060 A 
BRANCH  92  93
ATOM     93  S   UNL A   1      44.510  19.422  24.213  1.00  0.00     0.124 S 
ATOM     94  O   UNL A   1      43.291  18.853  24.776  1.00  0.00    -0.237 OA
ATOM     95  O   UNL A   1      44.455  19.773  22.797  1.00  0.00    -0.237 OA
ATOM     96  O   UNL A   1      45.757  18.802  24.649  1.00  0.00    -0.744 OA
ENDBRANCH  92  93
ENDBRANCH  60  85
BRANCH  72  97
ATOM     97  C   UNL A   1      50.236  27.098  28.721  1.00  0.00     0.058 A 
ATOM     98  C   UNL A   1      51.151  27.478  27.726  1.00  0.00     0.135 A 
ATOM     99  C   UNL A   1      50.736  26.453  29.863  1.00  0.00     0.135 A 
ATOM    100  F   UNL A   1      50.723  28.092  26.613  1.00  0.00    -0.206 F 
ATOM    101  C   UNL A   1      52.511  27.211  27.853  1.00  0.00     0.059 A 
ATOM    102  C   UNL A   1      52.095  26.202  30.023  1.00  0.00     0.059 A 
ATOM    103  F   UNL A   1      49.903  26.080  30.848  1.00  0.00    -0.206 F 
ATOM    104  C   UNL A   1      52.973  26.574  29.007  1.00  0.00     0.060 A 
BRANCH 104 105
ATOM    105  S   UNL A   1      54.744  26.268  29.176  1.00  0.00     0.124 S 
ATOM    106  O   UNL A   1      54.809  25.634  30.488  1.00  0.00    -0.237 OA
ATOM    107  O   UNL A   1      55.022  25.399  28.037  1.00  0.00    -0.237 OA
ATOM    108  O   UNL A   1      55.329  27.603  29.094  1.00  0.00    -0.744 OA
ENDBRANCH 104 105
ENDBRANCH  72  97
ENDBRANCH  46  47
ENDBRANCH  38  41
ENDBRANCH  36  37
ENDBRANCH  35  36
ENDBRANCH  34  35
ENDBRANCH  33  34
ENDBRANCH  31  33
ENDBRANCH   1  29
TORSDOF 24
ENDMDL
MODEL 3
REMARK VINA RESULT:      -9.1      6.287     12.228
REMARK SMILES CCCCCCNC(=O)Oc1cccc(-c2ccc([C@@H](C)C(=O)NCCCCNC(=O)c3ccc(-c4c5nc(c(-c6c(F)cc(S(=O)(=O)[O-])cc6F)c6ccc([nH]6)c(-c6c(F)cc(S(=O)(=O)[O-])cc6F)c6nc(c(-c7c(F)cc(S(=O)(=O)[O-])cc7F)c7ccc4[nH]7)C=C6)C=C5)cc3)cc2N)c1
REMARK SMILES IDX 20 1 21 2 19 3 16 4 17 5 99 6 18 7 98 8 15 9 11 10 12 11
REMARK SMILES IDX 101 12 13 13 14 14 10 15 8 16 7 17 9 19 6 20 5 21 4 22 3 23
REMARK SMILES IDX 2 24 1 25 100 26 22 29 23 30 24 31 25 33 26 34 27 35 28 36
REMARK SMILES IDX 29 37 30 38 31 40 32 41 33 42 97 43 34 44 96 45 35 46 36 47
REMARK SMILES IDX 37 48 90 49 38 50 95 51 89 52 91 53 39 54 94 55 88 56 87 57
REMARK SMILES IDX 40 59 74 60 53 61 73 62 54 63 57 64 72 65 92 66 55 67 56 68
REMARK SMILES IDX 71 70 93 71 58 72 41 73 42 74 51 75 43 76 44 77 50 78 52 79
REMARK SMILES IDX 45 80 46 81 47 82 48 83 49 84 75 85 76 86 85 87 77 88 78 89
REMARK SMILES IDX 84 90 86 91 79 92 80 93 81 94 82 95 83 96 59 97 60 98 69 99
REMARK SMILES IDX 61 100 62 101 68 102 70 103 63 104 64 105 65 106 66 107
REMARK SMILES IDX 67 108
REMARK H PARENT 7 18 100 27 100 28 24 32 29 39 91 58 57 69
REMARK Flexibility Score: inf
ROOT
ATOM      1  C   UNL A   1      39.941  27.157  27.945  1.00  0.00     0.105 C 
ATOM      2  C   UNL A   1      39.635  26.891  29.418  1.00  0.00     0.023 C 
ENDROOT
BRANCH   1   3
ATOM      3  C   UNL A   1      41.040  26.294  27.343  1.00  0.00    -0.034 A 
ATOM      4  C   UNL A   1      43.017  24.511  26.294  1.00  0.00     0.005 A 
ATOM      5  C   UNL A   1      42.159  25.255  25.461  1.00  0.00     0.011 A 
ATOM      6  C   UNL A   1      42.932  24.752  27.687  1.00  0.00     0.040 A 
ATOM      7  C   UNL A   1      41.240  26.172  25.972  1.00  0.00     0.005 A 
ATOM      8  C   UNL A   1      41.899  25.570  28.186  1.00  0.00     0.030 A 
BRANCH   4   9
ATOM      9  C   UNL A   1      43.963  23.551  25.665  1.00  0.00    -0.013 A 
ATOM     10  C   UNL A   1      44.809  21.298  25.310  1.00  0.00     0.133 A 
ATOM     11  C   UNL A   1      45.807  21.766  24.461  1.00  0.00     0.047 A 
ATOM     12  C   UNL A   1      43.880  22.166  25.890  1.00  0.00     0.056 A 
ATOM     13  C   UNL A   1      45.880  23.125  24.190  1.00  0.00     0.004 A 
ATOM     14  C   UNL A   1      44.980  24.005  24.799  1.00  0.00     0.009 A 
BRANCH  10  15
ATOM     15  O   UNL A   1      44.896  19.948  25.691  1.00  0.00    -0.410 OA
BRANCH  15  16
ATOM     16  C   UNL A   1      44.346  18.964  24.885  1.00  0.00     0.412 C 
ATOM     17  N   UNL A   1      43.163  18.483  25.375  1.00  0.00    -0.321 N 
ATOM     18  H   UNL A   1      42.740  17.751  24.871  1.00  0.00     0.167 HD
ATOM     19  O   UNL A   1      44.829  18.530  23.848  1.00  0.00    -0.224 OA
BRANCH  17  20
ATOM     20  C   UNL A   1      42.468  18.942  26.561  1.00  0.00     0.119 C 
BRANCH  20  21
ATOM     21  C   UNL A   1      41.129  19.598  26.222  1.00  0.00     0.021 C 
BRANCH  21  22
ATOM     22  C   UNL A   1      40.789  20.833  27.063  1.00  0.00     0.002 C 
BRANCH  22  23
ATOM     23  C   UNL A   1      40.307  22.055  26.273  1.00  0.00    -0.000 C 
BRANCH  23  24
ATOM     24  C   UNL A   1      39.498  23.078  27.075  1.00  0.00    -0.003 C 
ATOM     25  C   UNL A   1      38.307  23.634  26.308  1.00  0.00     0.004 C 
ENDBRANCH  23  24
ENDBRANCH  22  23
ENDBRANCH  21  22
ENDBRANCH  20  21
ENDBRANCH  17  20
ENDBRANCH  15  16
ENDBRANCH  10  15
ENDBRANCH   4   9
BRANCH   6  26
ATOM     26  N   UNL A   1      43.778  24.138  28.612  1.00  0.00    -0.398 N 
ATOM     27  H   UNL A   1      44.056  24.623  29.422  1.00  0.00     0.156 HD
ATOM     28  H   UNL A   1      44.096  23.219  28.454  1.00  0.00     0.156 HD
ENDBRANCH   6  26
ENDBRANCH   1   3
BRANCH   1  29
ATOM     29  C   UNL A   1      40.035  28.648  27.582  1.00  0.00     0.227 C 
ATOM     30  O   UNL A   1      41.129  29.127  27.255  1.00  0.00    -0.274 OA
ATOM     31  N   UNL A   1      38.972  29.496  27.561  1.00  0.00    -0.356 N 
ATOM     32  H   UNL A   1      39.184  30.399  27.231  1.00  0.00     0.163 HD
BRANCH  31  33
ATOM     33  C   UNL A   1      37.587  29.313  27.935  1.00  0.00     0.116 C 
BRANCH  33  34
ATOM     34  C   UNL A   1      36.834  30.643  28.019  1.00  0.00     0.023 C 
BRANCH  34  35
ATOM     35  C   UNL A   1      37.303  31.581  29.128  1.00  0.00     0.023 C 
BRANCH  35  36
ATOM     36  C   UNL A   1      37.821  30.887  30.382  1.00  0.00     0.116 C 
BRANCH  36  37
ATOM     37  N   UNL A   1      37.718  31.691  31.593  1.00  0.00    -0.352 N 
ATOM     38  C   UNL A   1      38.625  31.781  32.625  1.00  0.00     0.251 C 
ATOM     39  H   UNL A   1      36.902  32.233  31.685  1.00  0.00     0.163 HD
ATOM     40  O   UNL A   1      38.369  32.442  33.626  1.00  0.00    -0.269 OA
BRANCH  38  41
ATOM     41  C   UNL A   1      39.891  31.026  32.521  1.00  0.00     0.039 A 
ATOM     42  C   UNL A   1      41.095  31.728  32.444  1.00  0.00     0.014 A 
ATOM     43  C   UNL A   1      39.884  29.632  32.599  1.00  0.00     0.014 A 
ATOM     44  C   UNL A   1      42.301  31.031  32.527  1.00  0.00     0.010 A 
ATOM     45  C   UNL A   1      41.082  28.950  32.770  1.00  0.00     0.010 A 
ATOM     46  C   UNL A   1      42.304  29.641  32.736  1.00  0.00    -0.014 A 
BRANCH  46  47
ATOM     47  C   UNL A   1      43.570  28.889  32.927  1.00  0.00     0.031 A 
ATOM     48  C   UNL A   1      44.072  28.603  34.316  1.00  0.00     0.074 A 
ATOM     49  C   UNL A   1      44.311  28.548  31.855  1.00  0.00     0.049 A 
ATOM     50  N   UNL A   1      45.185  28.031  34.690  1.00  0.00    -0.248 NA
ATOM     51  C   UNL A   1      43.226  29.056  35.432  1.00  0.00     0.031 C 
ATOM     52  C   UNL A   1      43.970  28.839  30.461  1.00  0.00     0.029 A 
ATOM     53  N   UNL A   1      45.516  27.895  31.770  1.00  0.00    -0.354 N 
ATOM     54  C   UNL A   1      45.188  28.080  36.079  1.00  0.00     0.074 A 
ATOM     55  C   UNL A   1      43.991  28.787  36.478  1.00  0.00     0.031 C 
ATOM     56  C   UNL A   1      44.933  28.355  29.660  1.00  0.00     0.029 A 
ATOM     57  C   UNL A   1      45.976  27.748  30.482  1.00  0.00     0.049 A 
ATOM     58  H   UNL A   1      46.006  27.563  32.557  1.00  0.00     0.167 HD
ATOM     59  C   UNL A   1      46.092  27.562  36.943  1.00  0.00     0.037 A 
ATOM     60  C   UNL A   1      47.112  27.195  30.015  1.00  0.00     0.037 A 
ATOM     61  C   UNL A   1      47.262  26.830  36.535  1.00  0.00     0.049 A 
ATOM     62  C   UNL A   1      48.082  26.585  30.989  1.00  0.00     0.074 A 
ATOM     63  C   UNL A   1      48.190  26.181  37.330  1.00  0.00     0.029 A 
ATOM     64  N   UNL A   1      47.667  26.653  35.220  1.00  0.00    -0.354 N 
ATOM     65  N   UNL A   1      48.021  26.553  32.300  1.00  0.00    -0.248 NA
ATOM     66  C   UNL A   1      49.269  25.926  30.425  1.00  0.00     0.031 C 
ATOM     67  C   UNL A   1      49.184  25.655  36.497  1.00  0.00     0.029 A 
ATOM     68  C   UNL A   1      48.846  25.929  35.180  1.00  0.00     0.049 A 
ATOM     69  H   UNL A   1      47.186  26.994  34.430  1.00  0.00     0.167 HD
ATOM     70  C   UNL A   1      49.150  25.854  32.716  1.00  0.00     0.074 A 
ATOM     71  C   UNL A   1      49.867  25.471  31.517  1.00  0.00     0.031 C 
ATOM     72  C   UNL A   1      49.551  25.557  33.977  1.00  0.00     0.037 A 
BRANCH  59  73
ATOM     73  C   UNL A   1      45.849  27.778  38.413  1.00  0.00     0.058 A 
ATOM     74  C   UNL A   1      46.258  28.950  39.069  1.00  0.00     0.135 A 
ATOM     75  C   UNL A   1      45.196  26.797  39.176  1.00  0.00     0.135 A 
ATOM     76  F   UNL A   1      46.901  29.916  38.392  1.00  0.00    -0.206 F 
ATOM     77  C   UNL A   1      46.072  29.122  40.437  1.00  0.00     0.059 A 
ATOM     78  C   UNL A   1      44.969  26.961  40.540  1.00  0.00     0.059 A 
ATOM     79  F   UNL A   1      44.780  25.657  38.602  1.00  0.00    -0.206 F 
ATOM     80  C   UNL A   1      45.432  28.119  41.166  1.00  0.00     0.060 A 
BRANCH  80  81
ATOM     81  S   UNL A   1      45.217  28.348  42.942  1.00  0.00     0.124 S 
ATOM     82  O   UNL A   1      46.400  27.672  43.467  1.00  0.00    -0.237 OA
ATOM     83  O   UNL A   1      45.208  29.801  43.073  1.00  0.00    -0.237 OA
ATOM     84  O   UNL A   1      43.944  27.688  43.219  1.00  0.00    -0.744 OA
ENDBRANCH  80  81
ENDBRANCH  59  73
BRANCH  60  85
ATOM     85  C   UNL A   1      47.367  27.171  28.550  1.00  0.00     0.058 A 
ATOM     86  C   UNL A   1      47.118  26.020  27.790  1.00  0.00     0.135 A 
ATOM     87  C   UNL A   1      47.813  28.317  27.873  1.00  0.00     0.135 A 
ATOM     88  F   UNL A   1      46.698  24.896  28.392  1.00  0.00    -0.206 F 
ATOM     89  C   UNL A   1      47.300  26.002  26.411  1.00  0.00     0.059 A 
ATOM     90  C   UNL A   1      47.981  28.332  26.491  1.00  0.00     0.059 A 
ATOM     91  F   UNL A   1      48.050  29.450  28.552  1.00  0.00    -0.206 F 
ATOM     92  C   UNL A   1      47.724  27.167  25.769  1.00  0.00     0.060 A 
BRANCH  92  93
ATOM     93  S   UNL A   1      47.876  27.157  23.969  1.00  0.00     0.124 S 
ATOM     94  O   UNL A   1      49.157  27.828  23.778  1.00  0.00    -0.237 OA
ATOM     95  O   UNL A   1      47.852  25.729  23.668  1.00  0.00    -0.237 OA
ATOM     96  O   UNL A   1      46.701  27.903  23.529  1.00  0.00    -0.744 OA
ENDBRANCH  92  93
ENDBRANCH  60  85
BRANCH  72  97
ATOM     97  C   UNL A   1      50.816  24.756  34.131  1.00  0.00     0.058 A 
ATOM     98  C   UNL A   1      52.064  25.376  34.305  1.00  0.00     0.135 A 
ATOM     99  C   UNL A   1      50.768  23.354  34.168  1.00  0.00     0.135 A 
ATOM    100  F   UNL A   1      52.165  26.713  34.272  1.00  0.00    -0.206 F 
ATOM    101  C   UNL A   1      53.223  24.629  34.491  1.00  0.00     0.059 A 
ATOM    102  C   UNL A   1      51.910  22.589  34.381  1.00  0.00     0.059 A 
ATOM    103  F   UNL A   1      49.597  22.713  34.018  1.00  0.00    -0.206 F 
ATOM    104  C   UNL A   1      53.135  23.236  34.529  1.00  0.00     0.060 A 
BRANCH 104 105
ATOM    105  S   UNL A   1      54.641  22.281  34.809  1.00  0.00     0.124 S 
ATOM    106  O   UNL A   1      54.271  20.981  34.262  1.00  0.00    -0.237 OA
ATOM    107  O   UNL A   1      55.634  23.031  34.046  1.00  0.00    -0.237 OA
ATOM    108  O   UNL A   1      54.809  22.328  36.259  1.00  0.00    -0.744 OA
ENDBRANCH 104 105
ENDBRANCH  72  97
ENDBRANCH  46  47
ENDBRANCH  38  41
ENDBRANCH  36  37
ENDBRANCH  35  36
ENDBRANCH  34  35
ENDBRANCH  33  34
ENDBRANCH  31  33
ENDBRANCH   1  29
TORSDOF 24
ENDMDL
