MODEL 1
REMARK VINA RESULT:     -10.3      0.000      0.000
REMARK SMILES O=C(NCCCCNC(=O)[C@@]12CCC[C@@H](C[NH2+]1)C2)c1ccc(-c2c3nc(c(-c4c(F)cc(S(=O)(=O)[O-])cc4F)c4ccc([nH]4)c(-c4c(F)cc(S(=O)(=O)[O-])cc4F)c4nc(c(-c5c(F)cc(S(=O)(=O)[O-])cc5F)c5ccc2[nH]5)C=C4)C=C3)cc1
REMARK SMILES IDX 4 1 3 2 1 3 2 4 19 6 20 7 84 8 21 9 83 10 22 11 23 12 24 13
REMARK SMILES IDX 77 14 25 15 82 16 76 17 78 18 26 19 81 20 75 21 74 22 27 24
REMARK SMILES IDX 61 25 40 26 60 27 41 28 44 29 59 30 79 31 42 32 43 33 58 35
REMARK SMILES IDX 80 36 45 37 28 38 29 39 38 40 30 41 31 42 37 43 39 44 32 45
REMARK SMILES IDX 33 46 34 47 35 48 36 49 62 50 63 51 72 52 64 53 65 54 71 55
REMARK SMILES IDX 73 56 66 57 67 58 68 59 69 60 70 61 46 62 47 63 56 64 48 65
REMARK SMILES IDX 49 66 55 67 57 68 50 69 51 70 52 71 53 72 54 73 5 74 6 75
REMARK SMILES IDX 7 76 8 77 9 78 10 80 11 81 12 82 17 83 18 84 13 85 16 86
REMARK SMILES IDX 15 89 14 90
REMARK H PARENT 3 5 78 23 44 34 8 79 17 87 17 88
REMARK Flexibility Score: inf
ROOT
ATOM      1  C   UNL A   1      34.572  32.533  28.411  1.00  0.00     0.116 C 
ENDROOT
BRANCH   1   2
ATOM      2  N   UNL A   1      33.898  31.287  28.086  1.00  0.00    -0.352 N 
ATOM      3  O   UNL A   1      33.746  29.104  27.543  1.00  0.00    -0.269 OA
ATOM      4  C   UNL A   1      34.440  30.028  27.937  1.00  0.00     0.251 C 
ATOM      5  H   UNL A   1      32.925  31.351  27.954  1.00  0.00     0.163 HD
BRANCH   4   6
ATOM      6  C   UNL A   1      35.877  29.817  28.230  1.00  0.00     0.039 A 
ATOM      7  C   UNL A   1      36.837  29.995  27.233  1.00  0.00     0.014 A 
ATOM      8  C   UNL A   1      36.265  29.417  29.513  1.00  0.00     0.014 A 
ATOM      9  C   UNL A   1      38.156  29.632  27.475  1.00  0.00     0.010 A 
ATOM     10  C   UNL A   1      37.610  29.136  29.778  1.00  0.00     0.010 A 
ATOM     11  C   UNL A   1      38.563  29.209  28.752  1.00  0.00    -0.014 A 
BRANCH  11  12
ATOM     12  C   UNL A   1      40.003  28.920  28.980  1.00  0.00     0.031 A 
ATOM     13  C   UNL A   1      40.610  27.595  28.604  1.00  0.00     0.074 A 
ATOM     14  C   UNL A   1      40.779  29.907  29.469  1.00  0.00     0.049 A 
ATOM     15  N   UNL A   1      41.865  27.224  28.662  1.00  0.00    -0.248 NA
ATOM     16  C   UNL A   1      39.700  26.552  28.110  1.00  0.00     0.031 C 
ATOM     17  C   UNL A   1      40.292  31.222  29.898  1.00  0.00     0.029 A 
ATOM     18  N   UNL A   1      42.135  29.980  29.657  1.00  0.00    -0.354 N 
ATOM     19  C   UNL A   1      41.896  25.906  28.219  1.00  0.00     0.074 A 
ATOM     20  C   UNL A   1      40.529  25.531  27.926  1.00  0.00     0.031 C 
ATOM     21  C   UNL A   1      41.337  31.989  30.240  1.00  0.00     0.029 A 
ATOM     22  C   UNL A   1      42.560  31.206  30.108  1.00  0.00     0.049 A 
ATOM     23  H   UNL A   1      42.744  29.226  29.485  1.00  0.00     0.167 HD
ATOM     24  C   UNL A   1      42.969  25.091  28.062  1.00  0.00     0.037 A 
ATOM     25  C   UNL A   1      43.797  31.655  30.392  1.00  0.00     0.037 A 
ATOM     26  C   UNL A   1      44.329  25.477  28.347  1.00  0.00     0.049 A 
ATOM     27  C   UNL A   1      44.967  30.737  30.189  1.00  0.00     0.074 A 
ATOM     28  C   UNL A   1      45.484  24.723  28.218  1.00  0.00     0.029 A 
ATOM     29  N   UNL A   1      44.719  26.724  28.815  1.00  0.00    -0.354 N 
ATOM     30  N   UNL A   1      44.974  29.499  29.757  1.00  0.00    -0.248 NA
ATOM     31  C   UNL A   1      46.295  31.276  30.508  1.00  0.00     0.031 C 
ATOM     32  C   UNL A   1      46.569  25.505  28.634  1.00  0.00     0.029 A 
ATOM     33  C   UNL A   1      46.095  26.759  28.985  1.00  0.00     0.049 A 
ATOM     34  H   UNL A   1      44.109  27.474  28.998  1.00  0.00     0.167 HD
ATOM     35  C   UNL A   1      46.307  29.108  29.757  1.00  0.00     0.074 A 
ATOM     36  C   UNL A   1      47.078  30.254  30.195  1.00  0.00     0.031 C 
ATOM     37  C   UNL A   1      46.843  27.904  29.436  1.00  0.00     0.037 A 
BRANCH  24  38
ATOM     38  C   UNL A   1      42.722  23.696  27.556  1.00  0.00     0.058 A 
ATOM     39  C   UNL A   1      42.766  23.393  26.185  1.00  0.00     0.135 A 
ATOM     40  C   UNL A   1      42.500  22.636  28.452  1.00  0.00     0.135 A 
ATOM     41  F   UNL A   1      42.960  24.369  25.284  1.00  0.00    -0.206 F 
ATOM     42  C   UNL A   1      42.585  22.094  25.720  1.00  0.00     0.059 A 
ATOM     43  C   UNL A   1      42.338  21.326  28.009  1.00  0.00     0.059 A 
ATOM     44  F   UNL A   1      42.448  22.869  29.773  1.00  0.00    -0.206 F 
ATOM     45  C   UNL A   1      42.372  21.066  26.640  1.00  0.00     0.060 A 
BRANCH  45  46
ATOM     46  S   UNL A   1      42.157  19.383  26.021  1.00  0.00     0.124 S 
ATOM     47  O   UNL A   1      40.718  19.343  25.782  1.00  0.00    -0.237 OA
ATOM     48  O   UNL A   1      42.998  19.378  24.828  1.00  0.00    -0.237 OA
ATOM     49  O   UNL A   1      42.634  18.552  27.123  1.00  0.00    -0.744 OA
ENDBRANCH  45  46
ENDBRANCH  24  38
BRANCH  25  50
ATOM     50  C   UNL A   1      43.979  33.035  30.911  1.00  0.00     0.058 A 
ATOM     51  C   UNL A   1      44.200  34.116  30.046  1.00  0.00     0.135 A 
ATOM     52  C   UNL A   1      43.903  33.301  32.288  1.00  0.00     0.135 A 
ATOM     53  F   UNL A   1      44.281  33.912  28.722  1.00  0.00    -0.206 F 
ATOM     54  C   UNL A   1      44.359  35.411  30.529  1.00  0.00     0.059 A 
ATOM     55  C   UNL A   1      44.029  34.590  32.791  1.00  0.00     0.059 A 
ATOM     56  F   UNL A   1      43.670  32.302  33.153  1.00  0.00    -0.206 F 
ATOM     57  C   UNL A   1      44.270  35.637  31.903  1.00  0.00     0.060 A 
BRANCH  57  58
ATOM     58  S   UNL A   1      44.425  37.326  32.524  1.00  0.00     0.124 S 
ATOM     59  O   UNL A   1      45.794  37.328  33.023  1.00  0.00    -0.237 OA
ATOM     60  O   UNL A   1      44.181  38.122  31.325  1.00  0.00    -0.237 OA
ATOM     61  O   UNL A   1      43.379  37.404  33.540  1.00  0.00    -0.744 OA
ENDBRANCH  57  58
ENDBRANCH  25  50
BRANCH  37  62
ATOM     62  C   UNL A   1      48.335  27.780  29.551  1.00  0.00     0.058 A 
ATOM     63  C   UNL A   1      48.945  27.369  30.747  1.00  0.00     0.135 A 
ATOM     64  C   UNL A   1      49.165  28.073  28.458  1.00  0.00     0.135 A 
ATOM     65  F   UNL A   1      48.195  27.085  31.824  1.00  0.00    -0.206 F 
ATOM     66  C   UNL A   1      50.327  27.292  30.869  1.00  0.00     0.059 A 
ATOM     67  C   UNL A   1      50.549  27.979  28.549  1.00  0.00     0.059 A 
ATOM     68  F   UNL A   1      48.630  28.461  27.288  1.00  0.00    -0.206 F 
ATOM     69  C   UNL A   1      51.121  27.606  29.764  1.00  0.00     0.060 A 
BRANCH  69  70
ATOM     70  S   UNL A   1      52.917  27.507  29.931  1.00  0.00     0.124 S 
ATOM     71  O   UNL A   1      53.069  27.384  31.377  1.00  0.00    -0.237 OA
ATOM     72  O   UNL A   1      53.241  26.313  29.156  1.00  0.00    -0.237 OA
ATOM     73  O   UNL A   1      53.380  28.766  29.354  1.00  0.00    -0.744 OA
ENDBRANCH  69  70
ENDBRANCH  37  62
ENDBRANCH  11  12
ENDBRANCH   4   6
ENDBRANCH   1   2
BRANCH   1  74
ATOM     74  C   UNL A   1      33.812  33.768  27.944  1.00  0.00     0.023 C 
BRANCH  74  75
ATOM     75  C   UNL A   1      33.195  34.623  29.059  1.00  0.00     0.023 C 
BRANCH  75  76
ATOM     76  C   UNL A   1      34.165  35.009  30.179  1.00  0.00     0.116 C 
BRANCH  76  77
ATOM     77  N   UNL A   1      33.729  34.474  31.452  1.00  0.00    -0.351 N 
ATOM     78  C   UNL A   1      34.298  33.671  32.380  1.00  0.00     0.281 C 
ATOM     79  H   UNL A   1      32.817  34.756  31.695  1.00  0.00     0.163 HD
ATOM     80  O   UNL A   1      33.514  33.215  33.224  1.00  0.00    -0.268 OA
BRANCH  78  81
ATOM     81  C   UNL A   1      35.816  33.358  32.484  1.00  0.00     0.176 C 
ATOM     82  C   UNL A   1      36.554  34.678  32.813  1.00  0.00     0.079 C 
ATOM     83  N   UNL A   1      36.036  32.454  33.669  1.00  0.00    -0.333 N 
ATOM     84  C   UNL A   1      36.557  32.637  31.364  1.00  0.00     0.088 C 
ATOM     85  C   UNL A   1      38.059  34.635  32.517  1.00  0.00     0.008 C 
ATOM     86  C   UNL A   1      37.033  31.454  33.300  1.00  0.00     0.265 C 
ATOM     87  H   UNL A   1      35.161  31.993  33.919  1.00  0.00     0.347 HD
ATOM     88  H   UNL A   1      36.358  32.996  34.471  1.00  0.00     0.347 HD
ATOM     89  C   UNL A   1      37.763  32.100  32.129  1.00  0.00     0.051 C 
ATOM     90  C   UNL A   1      38.686  33.240  32.614  1.00  0.00     0.010 C 
ENDBRANCH  78  81
ENDBRANCH  76  77
ENDBRANCH  75  76
ENDBRANCH  74  75
ENDBRANCH   1  74
TORSDOF 14
ENDMDL
MODEL 2
REMARK VINA RESULT:     -10.2      3.090      5.214
REMARK SMILES O=C(NCCCCNC(=O)[C@@]12CCC[C@@H](C[NH2+]1)C2)c1ccc(-c2c3nc(c(-c4c(F)cc(S(=O)(=O)[O-])cc4F)c4ccc([nH]4)c(-c4c(F)cc(S(=O)(=O)[O-])cc4F)c4nc(c(-c5c(F)cc(S(=O)(=O)[O-])cc5F)c5ccc2[nH]5)C=C4)C=C3)cc1
REMARK SMILES IDX 4 1 3 2 1 3 2 4 19 6 20 7 84 8 21 9 83 10 22 11 23 12 24 13
REMARK SMILES IDX 77 14 25 15 82 16 76 17 78 18 26 19 81 20 75 21 74 22 27 24
REMARK SMILES IDX 61 25 40 26 60 27 41 28 44 29 59 30 79 31 42 32 43 33 58 35
REMARK SMILES IDX 80 36 45 37 28 38 29 39 38 40 30 41 31 42 37 43 39 44 32 45
REMARK SMILES IDX 33 46 34 47 35 48 36 49 62 50 63 51 72 52 64 53 65 54 71 55
REMARK SMILES IDX 73 56 66 57 67 58 68 59 69 60 70 61 46 62 47 63 56 64 48 65
REMARK SMILES IDX 49 66 55 67 57 68 50 69 51 70 52 71 53 72 54 73 5 74 6 75
REMARK SMILES IDX 7 76 8 77 9 78 10 80 11 81 12 82 17 83 18 84 13 85 16 86
REMARK SMILES IDX 15 89 14 90
REMARK H PARENT 3 5 78 23 44 34 8 79 17 87 17 88
REMARK Flexibility Score: inf
ROOT
ATOM      1  C   UNL A   1      34.247  28.012  26.513  1.00  0.00     0.116 C 
ENDROOT
BRANCH   1   2
ATOM      2  N   UNL A   1      33.792  29.307  26.990  1.00  0.00    -0.352 N 
ATOM      3  O   UNL A   1      33.889  31.217  28.183  1.00  0.00    -0.269 OA
ATOM      4  C   UNL A   1      34.465  30.224  27.770  1.00  0.00     0.251 C 
ATOM      5  H   UNL A   1      32.880  29.564  26.721  1.00  0.00     0.163 HD
BRANCH   4   6
ATOM      6  C   UNL A   1      35.882  29.973  28.125  1.00  0.00     0.039 A 
ATOM      7  C   UNL A   1      36.895  30.179  27.187  1.00  0.00     0.014 A 
ATOM      8  C   UNL A   1      36.196  29.507  29.405  1.00  0.00     0.014 A 
ATOM      9  C   UNL A   1      38.193  29.780  27.478  1.00  0.00     0.010 A 
ATOM     10  C   UNL A   1      37.521  29.188  29.725  1.00  0.00     0.010 A 
ATOM     11  C   UNL A   1      38.526  29.291  28.752  1.00  0.00    -0.014 A 
BRANCH  11  12
ATOM     12  C   UNL A   1      39.948  28.964  29.039  1.00  0.00     0.031 A 
ATOM     13  C   UNL A   1      40.541  27.631  28.671  1.00  0.00     0.074 A 
ATOM     14  C   UNL A   1      40.725  29.927  29.576  1.00  0.00     0.049 A 
ATOM     15  N   UNL A   1      41.782  27.229  28.778  1.00  0.00    -0.248 NA
ATOM     16  C   UNL A   1      39.629  26.616  28.122  1.00  0.00     0.031 C 
ATOM     17  C   UNL A   1      40.250  31.247  30.002  1.00  0.00     0.029 A 
ATOM     18  N   UNL A   1      42.072  29.964  29.824  1.00  0.00    -0.354 N 
ATOM     19  C   UNL A   1      41.803  25.917  28.318  1.00  0.00     0.074 A 
ATOM     20  C   UNL A   1      40.442  25.578  27.960  1.00  0.00     0.031 C 
ATOM     21  C   UNL A   1      41.296  31.984  30.401  1.00  0.00     0.029 A 
ATOM     22  C   UNL A   1      42.505  31.174  30.311  1.00  0.00     0.049 A 
ATOM     23  H   UNL A   1      42.671  29.198  29.668  1.00  0.00     0.167 HD
ATOM     24  C   UNL A   1      42.862  25.079  28.196  1.00  0.00     0.037 A 
ATOM     25  C   UNL A   1      43.739  31.589  30.655  1.00  0.00     0.037 A 
ATOM     26  C   UNL A   1      44.217  25.429  28.546  1.00  0.00     0.049 A 
ATOM     27  C   UNL A   1      44.895  30.647  30.490  1.00  0.00     0.074 A 
ATOM     28  C   UNL A   1      45.359  24.650  28.457  1.00  0.00     0.029 A 
ATOM     29  N   UNL A   1      44.615  26.659  29.048  1.00  0.00    -0.354 N 
ATOM     30  N   UNL A   1      44.892  29.415  30.041  1.00  0.00    -0.248 NA
ATOM     31  C   UNL A   1      46.220  31.150  30.875  1.00  0.00     0.031 C 
ATOM     32  C   UNL A   1      46.442  25.400  28.931  1.00  0.00     0.029 A 
ATOM     33  C   UNL A   1      45.982  26.660  29.279  1.00  0.00     0.049 A 
ATOM     34  H   UNL A   1      44.015  27.421  29.216  1.00  0.00     0.167 HD
ATOM     35  C   UNL A   1      46.214  28.992  30.094  1.00  0.00     0.074 A 
ATOM     36  C   UNL A   1      46.992  30.113  30.582  1.00  0.00     0.031 C 
ATOM     37  C   UNL A   1      46.736  27.780  29.779  1.00  0.00     0.037 A 
BRANCH  24  38
ATOM     38  C   UNL A   1      42.605  23.697  27.659  1.00  0.00     0.058 A 
ATOM     39  C   UNL A   1      42.593  23.435  26.280  1.00  0.00     0.135 A 
ATOM     40  C   UNL A   1      42.431  22.609  28.532  1.00  0.00     0.135 A 
ATOM     41  F   UNL A   1      42.740  24.440  25.401  1.00  0.00    -0.206 F 
ATOM     42  C   UNL A   1      42.404  22.149  25.784  1.00  0.00     0.059 A 
ATOM     43  C   UNL A   1      42.262  21.312  28.057  1.00  0.00     0.059 A 
ATOM     44  F   UNL A   1      42.434  22.802  29.860  1.00  0.00    -0.206 F 
ATOM     45  C   UNL A   1      42.239  21.092  26.681  1.00  0.00     0.060 A 
BRANCH  45  46
ATOM     46  S   UNL A   1      42.012  19.426  26.021  1.00  0.00     0.124 S 
ATOM     47  O   UNL A   1      42.494  18.608  27.130  1.00  0.00    -0.237 OA
ATOM     48  O   UNL A   1      40.574  19.379  25.778  1.00  0.00    -0.237 OA
ATOM     49  O   UNL A   1      42.848  19.417  24.825  1.00  0.00    -0.744 OA
ENDBRANCH  45  46
ENDBRANCH  24  38
BRANCH  25  50
ATOM     50  C   UNL A   1      43.929  32.957  31.202  1.00  0.00     0.058 A 
ATOM     51  C   UNL A   1      44.174  34.051  30.360  1.00  0.00     0.135 A 
ATOM     52  C   UNL A   1      43.839  33.199  32.582  1.00  0.00     0.135 A 
ATOM     53  F   UNL A   1      44.268  33.870  29.034  1.00  0.00    -0.206 F 
ATOM     54  C   UNL A   1      44.340  35.335  30.868  1.00  0.00     0.059 A 
ATOM     55  C   UNL A   1      43.973  34.477  33.110  1.00  0.00     0.059 A 
ATOM     56  F   UNL A   1      43.584  32.187  33.426  1.00  0.00    -0.206 F 
ATOM     57  C   UNL A   1      44.237  35.538  32.246  1.00  0.00     0.060 A 
BRANCH  57  58
ATOM     58  S   UNL A   1      44.403  37.212  32.899  1.00  0.00     0.124 S 
ATOM     59  O   UNL A   1      44.292  38.011  31.685  1.00  0.00    -0.237 OA
ATOM     60  O   UNL A   1      43.278  37.298  33.825  1.00  0.00    -0.237 OA
ATOM     61  O   UNL A   1      45.721  37.195  33.529  1.00  0.00    -0.744 OA
ENDBRANCH  57  58
ENDBRANCH  25  50
BRANCH  37  62
ATOM     62  C   UNL A   1      48.218  27.619  29.957  1.00  0.00     0.058 A 
ATOM     63  C   UNL A   1      49.117  27.912  28.919  1.00  0.00     0.135 A 
ATOM     64  C   UNL A   1      48.748  27.167  31.176  1.00  0.00     0.135 A 
ATOM     65  F   UNL A   1      48.659  28.340  27.731  1.00  0.00    -0.206 F 
ATOM     66  C   UNL A   1      50.486  27.725  29.068  1.00  0.00     0.059 A 
ATOM     67  C   UNL A   1      50.116  26.996  31.357  1.00  0.00     0.059 A 
ATOM     68  F   UNL A   1      47.931  26.882  32.204  1.00  0.00    -0.206 F 
ATOM     69  C   UNL A   1      50.975  27.259  30.290  1.00  0.00     0.060 A 
BRANCH  69  70
ATOM     70  S   UNL A   1      52.754  27.015  30.476  1.00  0.00     0.124 S 
ATOM     71  O   UNL A   1      53.155  26.733  29.101  1.00  0.00    -0.237 OA
ATOM     72  O   UNL A   1      53.196  28.298  31.014  1.00  0.00    -0.237 OA
ATOM     73  O   UNL A   1      52.846  25.889  31.401  1.00  0.00    -0.744 OA
ENDBRANCH  69  70
ENDBRANCH  37  62
ENDBRANCH  11  12
ENDBRANCH   4   6
ENDBRANCH   1   2
BRANCH   1  74
ATOM     74  C   UNL A   1      33.166  27.226  25.781  1.00  0.00     0.023 C 
BRANCH  74  75
ATOM     75  C   UNL A   1      31.832  27.090  26.526  1.00  0.00     0.023 C 
BRANCH  75  76
ATOM     76  C   UNL A   1      30.813  26.169  25.849  1.00  0.00     0.116 C 
BRANCH  76  77
ATOM     77  N   UNL A   1      30.467  25.055  26.707  1.00  0.00    -0.351 N 
ATOM     78  C   UNL A   1      30.767  23.736  26.703  1.00  0.00     0.281 C 
ATOM     79  H   UNL A   1      29.885  25.315  27.458  1.00  0.00     0.163 HD
ATOM     80  O   UNL A   1      30.069  23.042  27.457  1.00  0.00    -0.268 OA
BRANCH  78  81
ATOM     81  C   UNL A   1      31.924  23.081  25.899  1.00  0.00     0.176 C 
ATOM     82  C   UNL A   1      33.261  23.594  26.486  1.00  0.00     0.079 C 
ATOM     83  N   UNL A   1      31.901  21.597  26.154  1.00  0.00    -0.333 N 
ATOM     84  C   UNL A   1      31.981  23.165  24.379  1.00  0.00     0.088 C 
ATOM     85  C   UNL A   1      34.461  23.401  25.549  1.00  0.00     0.008 C 
ATOM     86  C   UNL A   1      32.186  20.914  24.895  1.00  0.00     0.265 C 
ATOM     87  H   UNL A   1      30.981  21.319  26.497  1.00  0.00     0.347 HD
ATOM     88  H   UNL A   1      32.598  21.349  26.857  1.00  0.00     0.347 HD
ATOM     89  C   UNL A   1      32.892  21.982  24.069  1.00  0.00     0.051 C 
ATOM     90  C   UNL A   1      34.330  22.219  24.583  1.00  0.00     0.010 C 
ENDBRANCH  78  81
ENDBRANCH  76  77
ENDBRANCH  75  76
ENDBRANCH  74  75
ENDBRANCH   1  74
TORSDOF 14
ENDMDL
MODEL 3
REMARK VINA RESULT:     -10.1      3.003      8.877
REMARK SMILES O=C(NCCCCNC(=O)[C@@]12CCC[C@@H](C[NH2+]1)C2)c1ccc(-c2c3nc(c(-c4c(F)cc(S(=O)(=O)[O-])cc4F)c4ccc([nH]4)c(-c4c(F)cc(S(=O)(=O)[O-])cc4F)c4nc(c(-c5c(F)cc(S(=O)(=O)[O-])cc5F)c5ccc2[nH]5)C=C4)C=C3)cc1
REMARK SMILES IDX 4 1 3 2 1 3 2 4 19 6 20 7 84 8 21 9 83 10 22 11 23 12 24 13
REMARK SMILES IDX 77 14 25 15 82 16 76 17 78 18 26 19 81 20 75 21 74 22 27 24
REMARK SMILES IDX 61 25 40 26 60 27 41 28 44 29 59 30 79 31 42 32 43 33 58 35
REMARK SMILES IDX 80 36 45 37 28 38 29 39 38 40 30 41 31 42 37 43 39 44 32 45
REMARK SMILES IDX 33 46 34 47 35 48 36 49 62 50 63 51 72 52 64 53 65 54 71 55
REMARK SMILES IDX 73 56 66 57 67 58 68 59 69 60 70 61 46 62 47 63 56 64 48 65
REMARK SMILES IDX 49 66 55 67 57 68 50 69 51 70 52 71 53 72 54 73 5 74 6 75
REMARK SMILES IDX 7 76 8 77 9 78 10 80 11 81 12 82 17 83 18 84 13 85 16 86
REMARK SMILES IDX 15 89 14 90
REMARK H PARENT 3 5 78 23 44 34 8 79 17 87 17 88
REMARK Flexibility Score: inf
ROOT
ATOM      1  C   UNL A   1      34.544  32.697  28.279  1.00  0.00     0.116 C 
ENDROOT
BRANCH   1   2
ATOM      2  N   UNL A   1      33.909  31.529  27.688  1.00  0.00    -0.352 N 
ATOM      3  O   UNL A   1      33.797  29.425  26.890  1.00  0.00    -0.269 OA
ATOM      4  C   UNL A   1      34.426  30.262  27.517  1.00  0.00     0.251 C 
ATOM      5  H   UNL A   1      32.988  31.662  27.368  1.00  0.00     0.163 HD
BRANCH   4   6
ATOM      6  C   UNL A   1      35.762  29.941  28.072  1.00  0.00     0.039 A 
ATOM      7  C   UNL A   1      35.893  29.492  29.387  1.00  0.00     0.014 A 
ATOM      8  C   UNL A   1      36.896  30.111  27.273  1.00  0.00     0.014 A 
ATOM      9  C   UNL A   1      37.157  29.358  29.945  1.00  0.00     0.010 A 
ATOM     10  C   UNL A   1      38.168  29.890  27.813  1.00  0.00     0.010 A 
ATOM     11  C   UNL A   1      38.311  29.543  29.165  1.00  0.00    -0.014 A 
BRANCH  11  12
ATOM     12  C   UNL A   1      39.638  29.298  29.788  1.00  0.00     0.031 A 
ATOM     13  C   UNL A   1      40.096  30.068  30.997  1.00  0.00     0.074 A 
ATOM     14  C   UNL A   1      40.403  28.308  29.284  1.00  0.00     0.049 A 
ATOM     15  N   UNL A   1      41.187  29.910  31.703  1.00  0.00    -0.248 NA
ATOM     16  C   UNL A   1      39.230  31.157  31.471  1.00  0.00     0.031 C 
ATOM     17  C   UNL A   1      40.074  27.517  28.095  1.00  0.00     0.029 A 
ATOM     18  N   UNL A   1      41.587  27.773  29.720  1.00  0.00    -0.354 N 
ATOM     19  C   UNL A   1      41.144  30.878  32.700  1.00  0.00     0.074 A 
ATOM     20  C   UNL A   1      39.933  31.643  32.488  1.00  0.00     0.031 C 
ATOM     21  C   UNL A   1      41.000  26.561  27.932  1.00  0.00     0.029 A 
ATOM     22  C   UNL A   1      42.014  26.705  28.968  1.00  0.00     0.049 A 
ATOM     23  H   UNL A   1      42.083  28.121  30.496  1.00  0.00     0.167 HD
ATOM     24  C   UNL A   1      42.028  31.101  33.704  1.00  0.00     0.037 A 
ATOM     25  C   UNL A   1      43.105  25.927  29.093  1.00  0.00     0.037 A 
ATOM     26  C   UNL A   1      43.227  30.328  33.914  1.00  0.00     0.049 A 
ATOM     27  C   UNL A   1      44.055  26.183  30.226  1.00  0.00     0.074 A 
ATOM     28  C   UNL A   1      44.185  30.475  34.904  1.00  0.00     0.029 A 
ATOM     29  N   UNL A   1      43.633  29.262  33.124  1.00  0.00    -0.354 N 
ATOM     30  N   UNL A   1      43.987  27.097  31.163  1.00  0.00    -0.248 NA
ATOM     31  C   UNL A   1      45.227  25.303  30.320  1.00  0.00     0.031 C 
ATOM     32  C   UNL A   1      45.184  29.514  34.696  1.00  0.00     0.029 A 
ATOM     33  C   UNL A   1      44.829  28.744  33.600  1.00  0.00     0.049 A 
ATOM     34  H   UNL A   1      43.144  28.921  32.341  1.00  0.00     0.167 HD
ATOM     35  C   UNL A   1      45.111  26.906  31.958  1.00  0.00     0.074 A 
ATOM     36  C   UNL A   1      45.819  25.765  31.412  1.00  0.00     0.031 C 
ATOM     37  C   UNL A   1      45.526  27.618  33.035  1.00  0.00     0.037 A 
BRANCH  24  38
ATOM     38  C   UNL A   1      41.736  32.225  34.660  1.00  0.00     0.058 A 
ATOM     39  C   UNL A   1      42.243  33.518  34.450  1.00  0.00     0.135 A 
ATOM     40  C   UNL A   1      40.890  32.027  35.765  1.00  0.00     0.135 A 
ATOM     41  F   UNL A   1      43.067  33.760  33.419  1.00  0.00    -0.206 F 
ATOM     42  C   UNL A   1      41.934  34.570  35.307  1.00  0.00     0.059 A 
ATOM     43  C   UNL A   1      40.551  33.070  36.622  1.00  0.00     0.059 A 
ATOM     44  F   UNL A   1      40.377  30.813  36.013  1.00  0.00    -0.206 F 
ATOM     45  C   UNL A   1      41.087  34.337  36.392  1.00  0.00     0.060 A 
BRANCH  45  46
ATOM     46  S   UNL A   1      40.682  35.717  37.484  1.00  0.00     0.124 S 
ATOM     47  O   UNL A   1      42.004  36.274  37.750  1.00  0.00    -0.237 OA
ATOM     48  O   UNL A   1      39.807  36.532  36.648  1.00  0.00    -0.237 OA
ATOM     49  O   UNL A   1      40.033  35.071  38.622  1.00  0.00    -0.744 OA
ENDBRANCH  45  46
ENDBRANCH  24  38
BRANCH  25  50
ATOM     50  C   UNL A   1      43.355  24.845  28.105  1.00  0.00     0.058 A 
ATOM     51  C   UNL A   1      44.045  25.094  26.911  1.00  0.00     0.135 A 
ATOM     52  C   UNL A   1      42.931  23.531  28.357  1.00  0.00     0.135 A 
ATOM     53  F   UNL A   1      44.470  26.334  26.626  1.00  0.00    -0.206 F 
ATOM     54  C   UNL A   1      44.290  24.080  25.990  1.00  0.00     0.059 A 
ATOM     55  C   UNL A   1      43.190  22.496  27.466  1.00  0.00     0.059 A 
ATOM     56  F   UNL A   1      42.286  23.239  29.497  1.00  0.00    -0.206 F 
ATOM     57  C   UNL A   1      43.859  22.784  26.278  1.00  0.00     0.060 A 
BRANCH  57  58
ATOM     58  S   UNL A   1      44.223  21.460  25.106  1.00  0.00     0.124 S 
ATOM     59  O   UNL A   1      44.150  22.168  23.834  1.00  0.00    -0.237 OA
ATOM     60  O   UNL A   1      45.556  21.033  25.523  1.00  0.00    -0.237 OA
ATOM     61  O   UNL A   1      43.159  20.492  25.355  1.00  0.00    -0.744 OA
ENDBRANCH  57  58
ENDBRANCH  25  50
BRANCH  37  62
ATOM     62  C   UNL A   1      46.805  27.174  33.683  1.00  0.00     0.058 A 
ATOM     63  C   UNL A   1      48.045  27.704  33.294  1.00  0.00     0.135 A 
ATOM     64  C   UNL A   1      46.794  26.210  34.703  1.00  0.00     0.135 A 
ATOM     65  F   UNL A   1      48.110  28.624  32.317  1.00  0.00    -0.206 F 
ATOM     66  C   UNL A   1      49.235  27.266  33.864  1.00  0.00     0.059 A 
ATOM     67  C   UNL A   1      47.969  25.774  35.306  1.00  0.00     0.059 A 
ATOM     68  F   UNL A   1      45.632  25.679  35.119  1.00  0.00    -0.206 F 
ATOM     69  C   UNL A   1      49.186  26.294  34.866  1.00  0.00     0.060 A 
BRANCH  69  70
ATOM     70  S   UNL A   1      50.735  25.726  35.600  1.00  0.00     0.124 S 
ATOM     71  O   UNL A   1      51.082  26.855  36.457  1.00  0.00    -0.237 OA
ATOM     72  O   UNL A   1      50.329  24.507  36.291  1.00  0.00    -0.237 OA
ATOM     73  O   UNL A   1      51.603  25.525  34.443  1.00  0.00    -0.744 OA
ENDBRANCH  69  70
ENDBRANCH  37  62
ENDBRANCH  11  12
ENDBRANCH   4   6
ENDBRANCH   1   2
BRANCH   1  74
ATOM     74  C   UNL A   1      33.692  33.956  28.187  1.00  0.00     0.023 C 
BRANCH  74  75
ATOM     75  C   UNL A   1      34.099  35.098  29.128  1.00  0.00     0.023 C 
BRANCH  75  76
ATOM     76  C   UNL A   1      33.046  35.467  30.177  1.00  0.00     0.116 C 
BRANCH  76  77
ATOM     77  N   UNL A   1      33.622  36.281  31.227  1.00  0.00    -0.351 N 
ATOM     78  C   UNL A   1      34.306  36.007  32.362  1.00  0.00     0.281 C 
ATOM     79  H   UNL A   1      33.485  37.246  31.084  1.00  0.00     0.163 HD
ATOM     80  O   UNL A   1      34.409  36.959  33.149  1.00  0.00    -0.268 OA
BRANCH  78  81
ATOM     81  C   UNL A   1      34.994  34.653  32.690  1.00  0.00     0.176 C 
ATOM     82  C   UNL A   1      35.318  34.638  34.203  1.00  0.00     0.079 C 
ATOM     83  N   UNL A   1      33.998  33.546  32.467  1.00  0.00    -0.333 N 
ATOM     84  C   UNL A   1      36.215  34.175  31.913  1.00  0.00     0.088 C 
ATOM     85  C   UNL A   1      36.371  33.594  34.599  1.00  0.00     0.008 C 
ATOM     86  C   UNL A   1      34.695  32.426  31.840  1.00  0.00     0.265 C 
ATOM     87  H   UNL A   1      33.249  33.873  31.856  1.00  0.00     0.347 HD
ATOM     88  H   UNL A   1      33.589  33.255  33.355  1.00  0.00     0.347 HD
ATOM     89  C   UNL A   1      36.155  32.678  32.196  1.00  0.00     0.051 C 
ATOM     90  C   UNL A   1      36.423  32.366  33.685  1.00  0.00     0.010 C 
ENDBRANCH  78  81
ENDBRANCH  76  77
ENDBRANCH  75  76
ENDBRANCH  74  75
ENDBRANCH   1  74
TORSDOF 14
ENDMDL
