MODEL 1
REMARK VINA RESULT:     -12.1      0.000      0.000
REMARK SMILES O=C1CC[C@H](CNC(=O)N[C@@H]2C=C[C@@H](C(=O)NCCCCNC(=O)c3ccc(-c4c5nc(c(-c6c(F)cc(S(=O)(=O)[O-])cc6F)c6ccc([nH]6)c(-c6c(F)cc(S(=O)(=O)[O-])cc6F)c6nc(c(-c7c(F)cc(S(=O)(=O)[O-])cc7F)c7ccc4[nH]7)C=C6)C=C5)cc3)C2)N1
REMARK SMILES IDX 19 1 18 2 17 3 15 4 16 5 14 7 11 8 12 9 91 10 13 11 10 12
REMARK SMILES IDX 7 13 8 14 9 16 6 18 5 19 1 20 2 21 3 22 92 23 4 24 20 26
REMARK SMILES IDX 21 27 22 28 23 29 24 31 25 32 26 33 90 34 27 35 89 36 28 37
REMARK SMILES IDX 29 38 30 39 83 40 31 41 88 42 82 43 84 44 32 45 87 46 81 47
REMARK SMILES IDX 80 48 33 50 67 51 46 52 66 53 47 54 50 55 65 56 85 57 48 58
REMARK SMILES IDX 49 59 64 61 86 62 51 63 34 64 35 65 44 66 36 67 37 68 43 69
REMARK SMILES IDX 45 70 38 71 39 72 40 73 41 74 42 75 68 76 69 77 78 78 70 79
REMARK SMILES IDX 71 80 77 81 79 82 72 83 73 84 74 85 75 86 76 87 52 88 53 89
REMARK SMILES IDX 62 90 54 91 55 92 61 93 63 94 56 95 57 96 58 97 59 98 60 99
REMARK H PARENT 17 6 7 15 10 17 92 25 22 30 84 49 50 60
REMARK Flexibility Score: inf
ROOT
ATOM      1  C   UNL A   1      40.335  21.928  26.378  1.00  0.00     0.023 C 
ENDROOT
BRANCH   1   2
ATOM      2  C   UNL A   1      38.846  22.266  26.429  1.00  0.00     0.116 C 
BRANCH   2   3
ATOM      3  N   UNL A   1      38.258  22.433  25.115  1.00  0.00    -0.356 N 
ATOM      4  C   UNL A   1      36.961  22.464  24.704  1.00  0.00     0.227 C 
ATOM      5  O   UNL A   1      36.753  22.759  23.522  1.00  0.00    -0.274 OA
ATOM      6  H   UNL A   1      38.914  22.543  24.389  1.00  0.00     0.163 HD
BRANCH   4   7
ATOM      7  C   UNL A   1      35.779  22.072  25.603  1.00  0.00     0.103 C 
ATOM      8  C   UNL A   1      33.414  22.715  25.303  1.00  0.00     0.107 C 
ATOM      9  C   UNL A   1      33.633  21.247  25.109  1.00  0.00    -0.006 C 
ATOM     10  C   UNL A   1      34.785  23.217  25.775  1.00  0.00     0.047 C 
ATOM     11  C   UNL A   1      34.926  20.910  25.205  1.00  0.00    -0.016 C 
BRANCH   8  12
ATOM     12  N   UNL A   1      32.363  22.950  26.266  1.00  0.00    -0.332 N 
ATOM     13  N   UNL A   1      30.651  24.049  25.045  1.00  0.00    -0.336 N 
ATOM     14  C   UNL A   1      31.153  23.527  26.180  1.00  0.00     0.315 C 
ATOM     15  H   UNL A   1      29.737  24.405  25.133  1.00  0.00     0.165 HD
ATOM     16  O   UNL A   1      30.464  23.595  27.199  1.00  0.00    -0.249 OA
ATOM     17  H   UNL A   1      32.577  22.618  27.168  1.00  0.00     0.165 HD
BRANCH  13  18
ATOM     18  C   UNL A   1      31.213  24.182  23.720  1.00  0.00     0.142 C 
BRANCH  18  19
ATOM     19  C   UNL A   1      31.392  25.617  23.196  1.00  0.00     0.101 C 
ATOM     20  O   UNL A   1      32.998  25.299  20.091  1.00  0.00    -0.275 OA
ATOM     21  C   UNL A   1      32.711  25.526  21.258  1.00  0.00     0.220 C 
ATOM     22  C   UNL A   1      33.668  25.685  22.407  1.00  0.00     0.102 C 
ATOM     23  N   UNL A   1      31.428  25.598  21.753  1.00  0.00    -0.352 N 
ATOM     24  C   UNL A   1      32.760  26.204  23.528  1.00  0.00     0.036 C 
ATOM     25  H   UNL A   1      30.624  25.634  21.184  1.00  0.00     0.163 HD
ENDBRANCH  18  19
ENDBRANCH  13  18
ENDBRANCH   8  12
ENDBRANCH   4   7
ENDBRANCH   2   3
ENDBRANCH   1   2
BRANCH   1  26
ATOM     26  C   UNL A   1      41.105  22.128  27.686  1.00  0.00     0.023 C 
BRANCH  26  27
ATOM     27  C   UNL A   1      42.272  23.107  27.626  1.00  0.00     0.116 C 
BRANCH  27  28
ATOM     28  N   UNL A   1      42.357  23.827  26.366  1.00  0.00    -0.352 N 
ATOM     29  C   UNL A   1      42.135  25.159  26.109  1.00  0.00     0.251 C 
ATOM     30  H   UNL A   1      42.610  23.283  25.585  1.00  0.00     0.163 HD
ATOM     31  O   UNL A   1      42.147  25.557  24.947  1.00  0.00    -0.269 OA
BRANCH  29  32
ATOM     32  C   UNL A   1      41.853  26.102  27.217  1.00  0.00     0.039 A 
ATOM     33  C   UNL A   1      40.724  25.883  28.013  1.00  0.00     0.014 A 
ATOM     34  C   UNL A   1      42.677  27.201  27.470  1.00  0.00     0.014 A 
ATOM     35  C   UNL A   1      40.453  26.736  29.085  1.00  0.00     0.010 A 
ATOM     36  C   UNL A   1      42.454  27.999  28.589  1.00  0.00     0.010 A 
ATOM     37  C   UNL A   1      41.330  27.788  29.398  1.00  0.00    -0.014 A 
BRANCH  37  38
ATOM     38  C   UNL A   1      41.067  28.680  30.558  1.00  0.00     0.031 A 
ATOM     39  C   UNL A   1      41.878  28.550  31.821  1.00  0.00     0.074 A 
ATOM     40  C   UNL A   1      40.061  29.575  30.496  1.00  0.00     0.049 A 
ATOM     41  N   UNL A   1      41.797  29.239  32.930  1.00  0.00    -0.248 NA
ATOM     42  C   UNL A   1      42.888  27.481  31.854  1.00  0.00     0.031 C 
ATOM     43  C   UNL A   1      39.146  29.739  29.365  1.00  0.00     0.029 A 
ATOM     44  N   UNL A   1      39.633  30.507  31.407  1.00  0.00    -0.354 N 
ATOM     45  C   UNL A   1      42.729  28.676  33.796  1.00  0.00     0.074 A 
ATOM     46  C   UNL A   1      43.319  27.551  33.104  1.00  0.00     0.031 C 
ATOM     47  C   UNL A   1      38.280  30.727  29.639  1.00  0.00     0.029 A 
ATOM     48  C   UNL A   1      38.560  31.250  30.973  1.00  0.00     0.049 A 
ATOM     49  H   UNL A   1      40.053  30.632  32.289  1.00  0.00     0.167 HD
ATOM     50  C   UNL A   1      43.080  29.074  35.043  1.00  0.00     0.037 A 
ATOM     51  C   UNL A   1      37.881  32.244  31.578  1.00  0.00     0.037 A 
ATOM     52  C   UNL A   1      42.505  30.211  35.715  1.00  0.00     0.049 A 
ATOM     53  C   UNL A   1      38.326  32.715  32.935  1.00  0.00     0.074 A 
ATOM     54  C   UNL A   1      42.848  30.752  36.942  1.00  0.00     0.029 A 
ATOM     55  N   UNL A   1      41.459  30.978  35.219  1.00  0.00    -0.354 N 
ATOM     56  N   UNL A   1      39.280  32.237  33.700  1.00  0.00    -0.248 NA
ATOM     57  C   UNL A   1      37.622  33.872  33.500  1.00  0.00     0.031 C 
ATOM     58  C   UNL A   1      41.978  31.815  37.209  1.00  0.00     0.029 A 
ATOM     59  C   UNL A   1      41.129  31.973  36.125  1.00  0.00     0.049 A 
ATOM     60  H   UNL A   1      41.017  30.834  34.352  1.00  0.00     0.167 HD
ATOM     61  C   UNL A   1      39.302  33.047  34.830  1.00  0.00     0.074 A 
ATOM     62  C   UNL A   1      38.279  34.056  34.637  1.00  0.00     0.031 C 
ATOM     63  C   UNL A   1      40.101  32.966  35.925  1.00  0.00     0.037 A 
BRANCH  50  64
ATOM     64  C   UNL A   1      44.130  28.263  35.758  1.00  0.00     0.058 A 
ATOM     65  C   UNL A   1      45.503  28.498  35.575  1.00  0.00     0.135 A 
ATOM     66  C   UNL A   1      43.759  27.230  36.633  1.00  0.00     0.135 A 
ATOM     67  F   UNL A   1      45.919  29.466  34.741  1.00  0.00    -0.206 F 
ATOM     68  C   UNL A   1      46.468  27.705  36.188  1.00  0.00     0.059 A 
ATOM     69  C   UNL A   1      44.707  26.445  37.284  1.00  0.00     0.059 A 
ATOM     70  F   UNL A   1      42.462  26.962  36.853  1.00  0.00    -0.206 F 
ATOM     71  C   UNL A   1      46.059  26.673  37.034  1.00  0.00     0.060 A 
BRANCH  71  72
ATOM     72  S   UNL A   1      47.320  25.630  37.795  1.00  0.00     0.124 S 
ATOM     73  O   UNL A   1      48.169  26.627  38.442  1.00  0.00    -0.237 OA
ATOM     74  O   UNL A   1      46.535  24.791  38.692  1.00  0.00    -0.237 OA
ATOM     75  O   UNL A   1      47.920  24.939  36.659  1.00  0.00    -0.744 OA
ENDBRANCH  71  72
ENDBRANCH  50  64
BRANCH  51  76
ATOM     76  C   UNL A   1      36.737  32.880  30.872  1.00  0.00     0.058 A 
ATOM     77  C   UNL A   1      35.414  32.647  31.275  1.00  0.00     0.135 A 
ATOM     78  C   UNL A   1      36.950  33.782  29.818  1.00  0.00     0.135 A 
ATOM     79  F   UNL A   1      35.159  31.788  32.275  1.00  0.00    -0.206 F 
ATOM     80  C   UNL A   1      34.342  33.287  30.662  1.00  0.00     0.059 A 
ATOM     81  C   UNL A   1      35.896  34.452  29.204  1.00  0.00     0.059 A 
ATOM     82  F   UNL A   1      38.199  34.051  29.406  1.00  0.00    -0.206 F 
ATOM     83  C   UNL A   1      34.594  34.196  29.633  1.00  0.00     0.060 A 
BRANCH  83  84
ATOM     84  S   UNL A   1      33.202  35.089  28.905  1.00  0.00     0.124 S 
ATOM     85  O   UNL A   1      32.684  34.107  27.959  1.00  0.00    -0.237 OA
ATOM     86  O   UNL A   1      32.366  35.355  30.072  1.00  0.00    -0.237 OA
ATOM     87  O   UNL A   1      33.831  36.266  28.313  1.00  0.00    -0.744 OA
ENDBRANCH  83  84
ENDBRANCH  51  76
BRANCH  63  88
ATOM     88  C   UNL A   1      39.915  34.014  36.989  1.00  0.00     0.058 A 
ATOM     89  C   UNL A   1      39.017  33.839  38.054  1.00  0.00     0.135 A 
ATOM     90  C   UNL A   1      40.664  35.201  36.952  1.00  0.00     0.135 A 
ATOM     91  F   UNL A   1      38.276  32.723  38.137  1.00  0.00    -0.206 F 
ATOM     92  C   UNL A   1      38.836  34.823  39.021  1.00  0.00     0.059 A 
ATOM     93  C   UNL A   1      40.520  36.186  37.926  1.00  0.00     0.059 A 
ATOM     94  F   UNL A   1      41.548  35.415  35.966  1.00  0.00    -0.206 F 
ATOM     95  C   UNL A   1      39.588  35.996  38.945  1.00  0.00     0.060 A 
BRANCH  95  96
ATOM     96  S   UNL A   1      39.342  37.269  40.201  1.00  0.00     0.124 S 
ATOM     97  O   UNL A   1      38.492  38.220  39.491  1.00  0.00    -0.237 OA
ATOM     98  O   UNL A   1      38.699  36.526  41.280  1.00  0.00    -0.237 OA
ATOM     99  O   UNL A   1      40.697  37.731  40.487  1.00  0.00    -0.744 OA
ENDBRANCH  95  96
ENDBRANCH  63  88
ENDBRANCH  37  38
ENDBRANCH  29  32
ENDBRANCH  27  28
ENDBRANCH  26  27
ENDBRANCH   1  26
TORSDOF 17
ENDMDL
MODEL 2
REMARK VINA RESULT:     -12.1      6.448     12.194
REMARK SMILES O=C1CC[C@H](CNC(=O)N[C@@H]2C=C[C@@H](C(=O)NCCCCNC(=O)c3ccc(-c4c5nc(c(-c6c(F)cc(S(=O)(=O)[O-])cc6F)c6ccc([nH]6)c(-c6c(F)cc(S(=O)(=O)[O-])cc6F)c6nc(c(-c7c(F)cc(S(=O)(=O)[O-])cc7F)c7ccc4[nH]7)C=C6)C=C5)cc3)C2)N1
REMARK SMILES IDX 19 1 18 2 17 3 15 4 16 5 14 7 11 8 12 9 91 10 13 11 10 12
REMARK SMILES IDX 7 13 8 14 9 16 6 18 5 19 1 20 2 21 3 22 92 23 4 24 20 26
REMARK SMILES IDX 21 27 22 28 23 29 24 31 25 32 26 33 90 34 27 35 89 36 28 37
REMARK SMILES IDX 29 38 30 39 83 40 31 41 88 42 82 43 84 44 32 45 87 46 81 47
REMARK SMILES IDX 80 48 33 50 67 51 46 52 66 53 47 54 50 55 65 56 85 57 48 58
REMARK SMILES IDX 49 59 64 61 86 62 51 63 34 64 35 65 44 66 36 67 37 68 43 69
REMARK SMILES IDX 45 70 38 71 39 72 40 73 41 74 42 75 68 76 69 77 78 78 70 79
REMARK SMILES IDX 71 80 77 81 79 82 72 83 73 84 74 85 75 86 76 87 52 88 53 89
REMARK SMILES IDX 62 90 54 91 55 92 61 93 63 94 56 95 57 96 58 97 59 98 60 99
REMARK H PARENT 17 6 7 15 10 17 92 25 22 30 84 49 50 60
REMARK Flexibility Score: inf
ROOT
ATOM      1  C   UNL A   1      34.635  33.548  28.569  1.00  0.00     0.023 C 
ENDROOT
BRANCH   1   2
ATOM      2  C   UNL A   1      33.733  32.467  27.975  1.00  0.00     0.116 C 
BRANCH   2   3
ATOM      3  N   UNL A   1      34.324  31.144  28.028  1.00  0.00    -0.356 N 
ATOM      4  C   UNL A   1      33.900  29.947  27.541  1.00  0.00     0.227 C 
ATOM      5  O   UNL A   1      34.687  28.997  27.621  1.00  0.00    -0.274 OA
ATOM      6  H   UNL A   1      35.186  31.106  28.502  1.00  0.00     0.163 HD
BRANCH   4   7
ATOM      7  C   UNL A   1      32.487  29.709  26.989  1.00  0.00     0.103 C 
ATOM      8  C   UNL A   1      31.883  28.437  24.961  1.00  0.00     0.107 C 
ATOM      9  C   UNL A   1      31.406  27.771  26.214  1.00  0.00    -0.006 C 
ATOM     10  C   UNL A   1      32.449  29.771  25.465  1.00  0.00     0.047 C 
ATOM     11  C   UNL A   1      31.791  28.427  27.316  1.00  0.00    -0.016 C 
BRANCH   8  12
ATOM     12  N   UNL A   1      30.795  28.600  24.025  1.00  0.00    -0.332 N 
ATOM     13  N   UNL A   1      31.581  27.638  22.003  1.00  0.00    -0.336 N 
ATOM     14  C   UNL A   1      30.638  28.262  22.734  1.00  0.00     0.315 C 
ATOM     15  H   UNL A   1      31.303  27.425  21.082  1.00  0.00     0.165 HD
ATOM     16  O   UNL A   1      29.575  28.548  22.180  1.00  0.00    -0.249 OA
ATOM     17  H   UNL A   1      30.010  29.050  24.412  1.00  0.00     0.165 HD
BRANCH  13  18
ATOM     18  C   UNL A   1      32.927  27.225  22.327  1.00  0.00     0.142 C 
BRANCH  18  19
ATOM     19  C   UNL A   1      33.240  25.728  22.158  1.00  0.00     0.101 C 
ATOM     20  O   UNL A   1      30.385  24.031  23.297  1.00  0.00    -0.275 OA
ATOM     21  C   UNL A   1      31.504  24.505  23.157  1.00  0.00     0.220 C 
ATOM     22  C   UNL A   1      32.528  24.733  24.235  1.00  0.00     0.102 C 
ATOM     23  N   UNL A   1      32.006  25.000  21.974  1.00  0.00    -0.352 N 
ATOM     24  C   UNL A   1      33.784  25.088  23.432  1.00  0.00     0.036 C 
ATOM     25  H   UNL A   1      31.572  24.870  21.099  1.00  0.00     0.163 HD
ENDBRANCH  18  19
ENDBRANCH  13  18
ENDBRANCH   8  12
ENDBRANCH   4   7
ENDBRANCH   2   3
ENDBRANCH   1   2
BRANCH   1  26
ATOM     26  C   UNL A   1      36.139  33.273  28.493  1.00  0.00     0.023 C 
BRANCH  26  27
ATOM     27  C   UNL A   1      36.845  33.077  29.829  1.00  0.00     0.116 C 
BRANCH  27  28
ATOM     28  N   UNL A   1      36.225  32.064  30.668  1.00  0.00    -0.352 N 
ATOM     29  C   UNL A   1      36.650  30.787  30.946  1.00  0.00     0.251 C 
ATOM     30  H   UNL A   1      35.380  32.331  31.098  1.00  0.00     0.163 HD
ATOM     31  O   UNL A   1      35.921  30.039  31.593  1.00  0.00    -0.269 OA
BRANCH  29  32
ATOM     32  C   UNL A   1      37.958  30.303  30.446  1.00  0.00     0.039 A 
ATOM     33  C   UNL A   1      38.131  30.141  29.068  1.00  0.00     0.014 A 
ATOM     34  C   UNL A   1      39.006  29.997  31.317  1.00  0.00     0.014 A 
ATOM     35  C   UNL A   1      39.365  29.720  28.567  1.00  0.00     0.010 A 
ATOM     36  C   UNL A   1      40.260  29.660  30.811  1.00  0.00     0.010 A 
ATOM     37  C   UNL A   1      40.449  29.499  29.433  1.00  0.00    -0.014 A 
BRANCH  37  38
ATOM     38  C   UNL A   1      41.775  29.083  28.904  1.00  0.00     0.031 A 
ATOM     39  C   UNL A   1      42.892  30.085  28.770  1.00  0.00     0.074 A 
ATOM     40  C   UNL A   1      41.960  27.813  28.493  1.00  0.00     0.049 A 
ATOM     41  N   UNL A   1      44.113  29.908  28.337  1.00  0.00    -0.248 NA
ATOM     42  C   UNL A   1      42.584  31.476  29.140  1.00  0.00     0.031 C 
ATOM     43  C   UNL A   1      40.932  26.770  28.488  1.00  0.00     0.029 A 
ATOM     44  N   UNL A   1      43.072  27.186  27.992  1.00  0.00    -0.354 N 
ATOM     45  C   UNL A   1      44.711  31.164  28.362  1.00  0.00     0.074 A 
ATOM     46  C   UNL A   1      43.699  32.102  28.796  1.00  0.00     0.031 C 
ATOM     47  C   UNL A   1      41.467  25.628  28.029  1.00  0.00     0.029 A 
ATOM     48  C   UNL A   1      42.867  25.861  27.685  1.00  0.00     0.049 A 
ATOM     49  H   UNL A   1      43.936  27.641  27.865  1.00  0.00     0.167 HD
ATOM     50  C   UNL A   1      45.992  31.501  28.075  1.00  0.00     0.037 A 
ATOM     51  C   UNL A   1      43.711  24.937  27.186  1.00  0.00     0.037 A 
ATOM     52  C   UNL A   1      47.000  30.557  27.668  1.00  0.00     0.049 A 
ATOM     53  C   UNL A   1      45.144  25.315  26.935  1.00  0.00     0.074 A 
ATOM     54  C   UNL A   1      48.346  30.778  27.436  1.00  0.00     0.029 A 
ATOM     55  N   UNL A   1      46.770  29.210  27.423  1.00  0.00    -0.354 N 
ATOM     56  N   UNL A   1      45.722  26.486  27.062  1.00  0.00    -0.248 NA
ATOM     57  C   UNL A   1      46.046  24.243  26.496  1.00  0.00     0.031 C 
ATOM     58  C   UNL A   1      48.919  29.576  27.005  1.00  0.00     0.029 A 
ATOM     59  C   UNL A   1      47.943  28.592  27.021  1.00  0.00     0.049 A 
ATOM     60  H   UNL A   1      45.899  28.760  27.520  1.00  0.00     0.167 HD
ATOM     61  C   UNL A   1      47.060  26.289  26.737  1.00  0.00     0.074 A 
ATOM     62  C   UNL A   1      47.206  24.880  26.427  1.00  0.00     0.031 C 
ATOM     63  C   UNL A   1      48.074  27.190  26.704  1.00  0.00     0.037 A 
BRANCH  50  64
ATOM     64  C   UNL A   1      46.364  32.957  28.187  1.00  0.00     0.058 A 
ATOM     65  C   UNL A   1      46.853  33.510  29.383  1.00  0.00     0.135 A 
ATOM     66  C   UNL A   1      46.224  33.816  27.084  1.00  0.00     0.135 A 
ATOM     67  F   UNL A   1      46.999  32.741  30.474  1.00  0.00    -0.206 F 
ATOM     68  C   UNL A   1      47.135  34.868  29.498  1.00  0.00     0.059 A 
ATOM     69  C   UNL A   1      46.531  35.171  27.166  1.00  0.00     0.059 A 
ATOM     70  F   UNL A   1      45.767  33.344  25.913  1.00  0.00    -0.206 F 
ATOM     71  C   UNL A   1      46.962  35.693  28.385  1.00  0.00     0.060 A 
BRANCH  71  72
ATOM     72  S   UNL A   1      47.297  37.458  28.559  1.00  0.00     0.124 S 
ATOM     73  O   UNL A   1      48.684  37.445  29.015  1.00  0.00    -0.237 OA
ATOM     74  O   UNL A   1      47.083  37.953  27.204  1.00  0.00    -0.237 OA
ATOM     75  O   UNL A   1      46.317  37.895  29.547  1.00  0.00    -0.744 OA
ENDBRANCH  71  72
ENDBRANCH  50  64
BRANCH  51  76
ATOM     76  C   UNL A   1      43.216  23.558  26.937  1.00  0.00     0.058 A 
ATOM     77  C   UNL A   1      42.969  23.098  25.635  1.00  0.00     0.135 A 
ATOM     78  C   UNL A   1      43.039  22.652  27.995  1.00  0.00     0.135 A 
ATOM     79  F   UNL A   1      43.118  23.928  24.591  1.00  0.00    -0.206 F 
ATOM     80  C   UNL A   1      42.567  21.788  25.388  1.00  0.00     0.059 A 
ATOM     81  C   UNL A   1      42.660  21.331  27.772  1.00  0.00     0.059 A 
ATOM     82  F   UNL A   1      43.279  23.039  29.257  1.00  0.00    -0.206 F 
ATOM     83  C   UNL A   1      42.425  20.909  26.464  1.00  0.00     0.060 A 
BRANCH  83  84
ATOM     84  S   UNL A   1      41.991  19.189  26.125  1.00  0.00     0.124 S 
ATOM     85  O   UNL A   1      42.282  18.553  27.404  1.00  0.00    -0.237 OA
ATOM     86  O   UNL A   1      40.578  19.295  25.771  1.00  0.00    -0.237 OA
ATOM     87  O   UNL A   1      42.879  18.830  25.024  1.00  0.00    -0.744 OA
ENDBRANCH  83  84
ENDBRANCH  51  76
BRANCH  63  88
ATOM     88  C   UNL A   1      49.440  26.673  26.342  1.00  0.00     0.058 A 
ATOM     89  C   UNL A   1      50.266  26.037  27.282  1.00  0.00     0.135 A 
ATOM     90  C   UNL A   1      49.918  26.798  25.027  1.00  0.00     0.135 A 
ATOM     91  F   UNL A   1      49.858  25.892  28.552  1.00  0.00    -0.206 F 
ATOM     92  C   UNL A   1      51.537  25.582  26.942  1.00  0.00     0.059 A 
ATOM     93  C   UNL A   1      51.174  26.324  24.658  1.00  0.00     0.059 A 
ATOM     94  F   UNL A   1      49.164  27.384  24.084  1.00  0.00    -0.206 F 
ATOM     95  C   UNL A   1      51.984  25.735  25.628  1.00  0.00     0.060 A 
BRANCH  95  96
ATOM     96  S   UNL A   1      53.636  25.147  25.199  1.00  0.00     0.124 S 
ATOM     97  O   UNL A   1      53.759  25.606  23.819  1.00  0.00    -0.237 OA
ATOM     98  O   UNL A   1      54.477  25.834  26.173  1.00  0.00    -0.237 OA
ATOM     99  O   UNL A   1      53.538  23.701  25.374  1.00  0.00    -0.744 OA
ENDBRANCH  95  96
ENDBRANCH  63  88
ENDBRANCH  37  38
ENDBRANCH  29  32
ENDBRANCH  27  28
ENDBRANCH  26  27
ENDBRANCH   1  26
TORSDOF 17
ENDMDL
MODEL 3
REMARK VINA RESULT:     -11.9      6.354     12.142
REMARK SMILES O=C1CC[C@H](CNC(=O)N[C@@H]2C=C[C@@H](C(=O)NCCCCNC(=O)c3ccc(-c4c5nc(c(-c6c(F)cc(S(=O)(=O)[O-])cc6F)c6ccc([nH]6)c(-c6c(F)cc(S(=O)(=O)[O-])cc6F)c6nc(c(-c7c(F)cc(S(=O)(=O)[O-])cc7F)c7ccc4[nH]7)C=C6)C=C5)cc3)C2)N1
REMARK SMILES IDX 19 1 18 2 17 3 15 4 16 5 14 7 11 8 12 9 91 10 13 11 10 12
REMARK SMILES IDX 7 13 8 14 9 16 6 18 5 19 1 20 2 21 3 22 92 23 4 24 20 26
REMARK SMILES IDX 21 27 22 28 23 29 24 31 25 32 26 33 90 34 27 35 89 36 28 37
REMARK SMILES IDX 29 38 30 39 83 40 31 41 88 42 82 43 84 44 32 45 87 46 81 47
REMARK SMILES IDX 80 48 33 50 67 51 46 52 66 53 47 54 50 55 65 56 85 57 48 58
REMARK SMILES IDX 49 59 64 61 86 62 51 63 34 64 35 65 44 66 36 67 37 68 43 69
REMARK SMILES IDX 45 70 38 71 39 72 40 73 41 74 42 75 68 76 69 77 78 78 70 79
REMARK SMILES IDX 71 80 77 81 79 82 72 83 73 84 74 85 75 86 76 87 52 88 53 89
REMARK SMILES IDX 62 90 54 91 55 92 61 93 63 94 56 95 57 96 58 97 59 98 60 99
REMARK H PARENT 17 6 7 15 10 17 92 25 22 30 84 49 50 60
REMARK Flexibility Score: inf
ROOT
ATOM      1  C   UNL A   1      33.939  32.218  27.833  1.00  0.00     0.023 C 
ENDROOT
BRANCH   1   2
ATOM      2  C   UNL A   1      34.309  30.790  27.436  1.00  0.00     0.116 C 
BRANCH   2   3
ATOM      3  N   UNL A   1      33.247  29.837  27.691  1.00  0.00    -0.356 N 
ATOM      4  C   UNL A   1      32.629  28.936  26.880  1.00  0.00     0.227 C 
ATOM      5  O   UNL A   1      31.838  28.151  27.413  1.00  0.00    -0.274 OA
ATOM      6  H   UNL A   1      32.912  29.844  28.617  1.00  0.00     0.163 HD
BRANCH   4   7
ATOM      7  C   UNL A   1      32.803  28.911  25.354  1.00  0.00     0.103 C 
ATOM      8  C   UNL A   1      32.071  27.130  23.809  1.00  0.00     0.107 C 
ATOM      9  C   UNL A   1      31.312  28.404  23.609  1.00  0.00    -0.006 C 
ATOM     10  C   UNL A   1      33.142  27.515  24.839  1.00  0.00     0.047 C 
ATOM     11  C   UNL A   1      31.663  29.348  24.492  1.00  0.00    -0.016 C 
BRANCH   8  12
ATOM     12  N   UNL A   1      32.628  26.667  22.559  1.00  0.00    -0.332 N 
ATOM     13  N   UNL A   1      31.798  24.459  22.301  1.00  0.00    -0.336 N 
ATOM     14  C   UNL A   1      32.526  25.512  21.882  1.00  0.00     0.315 C 
ATOM     15  H   UNL A   1      31.793  23.697  21.677  1.00  0.00     0.165 HD
ATOM     16  O   UNL A   1      33.140  25.400  20.819  1.00  0.00    -0.249 OA
ATOM     17  H   UNL A   1      33.198  27.335  22.114  1.00  0.00     0.165 HD
BRANCH  13  18
ATOM     18  C   UNL A   1      31.024  24.247  23.503  1.00  0.00     0.142 C 
BRANCH  18  19
ATOM     19  C   UNL A   1      31.586  23.222  24.503  1.00  0.00     0.101 C 
ATOM     20  O   UNL A   1      29.643  23.568  27.407  1.00  0.00    -0.275 OA
ATOM     21  C   UNL A   1      30.538  23.574  26.573  1.00  0.00     0.220 C 
ATOM     22  C   UNL A   1      31.764  24.445  26.573  1.00  0.00     0.102 C 
ATOM     23  N   UNL A   1      30.542  22.825  25.418  1.00  0.00    -0.352 N 
ATOM     24  C   UNL A   1      32.613  23.825  25.457  1.00  0.00     0.036 C 
ATOM     25  H   UNL A   1      29.903  22.097  25.237  1.00  0.00     0.163 HD
ENDBRANCH  18  19
ENDBRANCH  13  18
ENDBRANCH   8  12
ENDBRANCH   4   7
ENDBRANCH   2   3
ENDBRANCH   1   2
BRANCH   1  26
ATOM     26  C   UNL A   1      35.046  33.024  28.518  1.00  0.00     0.023 C 
BRANCH  26  27
ATOM     27  C   UNL A   1      36.204  32.210  29.084  1.00  0.00     0.116 C 
BRANCH  27  28
ATOM     28  N   UNL A   1      35.894  31.567  30.350  1.00  0.00    -0.352 N 
ATOM     29  C   UNL A   1      36.593  30.595  31.025  1.00  0.00     0.251 C 
ATOM     30  H   UNL A   1      35.065  31.871  30.787  1.00  0.00     0.163 HD
ATOM     31  O   UNL A   1      36.103  30.095  32.035  1.00  0.00    -0.269 OA
BRANCH  29  32
ATOM     32  C   UNL A   1      37.909  30.130  30.527  1.00  0.00     0.039 A 
ATOM     33  C   UNL A   1      38.108  30.041  29.146  1.00  0.00     0.014 A 
ATOM     34  C   UNL A   1      38.938  29.772  31.401  1.00  0.00     0.014 A 
ATOM     35  C   UNL A   1      39.350  29.639  28.648  1.00  0.00     0.010 A 
ATOM     36  C   UNL A   1      40.199  29.455  30.903  1.00  0.00     0.010 A 
ATOM     37  C   UNL A   1      40.415  29.366  29.522  1.00  0.00    -0.014 A 
BRANCH  37  38
ATOM     38  C   UNL A   1      41.750  28.971  28.999  1.00  0.00     0.031 A 
ATOM     39  C   UNL A   1      42.856  29.986  28.884  1.00  0.00     0.074 A 
ATOM     40  C   UNL A   1      41.952  27.707  28.575  1.00  0.00     0.049 A 
ATOM     41  N   UNL A   1      44.083  29.828  28.457  1.00  0.00    -0.248 NA
ATOM     42  C   UNL A   1      42.531  31.369  29.266  1.00  0.00     0.031 C 
ATOM     43  C   UNL A   1      40.936  26.653  28.551  1.00  0.00     0.029 A 
ATOM     44  N   UNL A   1      43.075  27.098  28.076  1.00  0.00    -0.354 N 
ATOM     45  C   UNL A   1      44.666  31.090  28.500  1.00  0.00     0.074 A 
ATOM     46  C   UNL A   1      43.640  32.012  28.937  1.00  0.00     0.031 C 
ATOM     47  C   UNL A   1      41.487  25.522  28.083  1.00  0.00     0.029 A 
ATOM     48  C   UNL A   1      42.887  25.775  27.752  1.00  0.00     0.049 A 
ATOM     49  H   UNL A   1      43.934  27.564  27.959  1.00  0.00     0.167 HD
ATOM     50  C   UNL A   1      45.945  31.445  28.227  1.00  0.00     0.037 A 
ATOM     51  C   UNL A   1      43.744  24.865  27.249  1.00  0.00     0.037 A 
ATOM     52  C   UNL A   1      46.966  30.516  27.817  1.00  0.00     0.049 A 
ATOM     53  C   UNL A   1      45.175  25.262  27.013  1.00  0.00     0.074 A 
ATOM     54  C   UNL A   1      48.312  30.755  27.597  1.00  0.00     0.029 A 
ATOM     55  N   UNL A   1      46.753  29.169  27.555  1.00  0.00    -0.354 N 
ATOM     56  N   UNL A   1      45.739  26.439  27.157  1.00  0.00    -0.248 NA
ATOM     57  C   UNL A   1      46.092  24.205  26.569  1.00  0.00     0.031 C 
ATOM     58  C   UNL A   1      48.901  29.564  27.157  1.00  0.00     0.029 A 
ATOM     59  C   UNL A   1      47.936  28.569  27.155  1.00  0.00     0.049 A 
ATOM     60  H   UNL A   1      45.887  28.709  27.641  1.00  0.00     0.167 HD
ATOM     61  C   UNL A   1      47.081  26.260  26.840  1.00  0.00     0.074 A 
ATOM     62  C   UNL A   1      47.245  24.856  26.515  1.00  0.00     0.031 C 
ATOM     63  C   UNL A   1      48.085  27.173  26.824  1.00  0.00     0.037 A 
BRANCH  50  64
ATOM     64  C   UNL A   1      46.300  32.903  28.356  1.00  0.00     0.058 A 
ATOM     65  C   UNL A   1      46.204  33.791  27.272  1.00  0.00     0.135 A 
ATOM     66  C   UNL A   1      46.752  33.421  29.581  1.00  0.00     0.135 A 
ATOM     67  F   UNL A   1      45.789  33.352  26.073  1.00  0.00    -0.206 F 
ATOM     68  C   UNL A   1      46.594  35.123  27.381  1.00  0.00     0.059 A 
ATOM     69  C   UNL A   1      47.116  34.757  29.723  1.00  0.00     0.059 A 
ATOM     70  F   UNL A   1      46.860  32.623  30.655  1.00  0.00    -0.206 F 
ATOM     71  C   UNL A   1      47.058  35.594  28.610  1.00  0.00     0.060 A 
BRANCH  71  72
ATOM     72  S   UNL A   1      47.594  37.314  28.728  1.00  0.00     0.124 S 
ATOM     73  O   UNL A   1      49.028  37.188  28.484  1.00  0.00    -0.237 OA
ATOM     74  O   UNL A   1      46.826  37.956  27.667  1.00  0.00    -0.237 OA
ATOM     75  O   UNL A   1      47.220  37.693  30.087  1.00  0.00    -0.744 OA
ENDBRANCH  71  72
ENDBRANCH  50  64
BRANCH  51  76
ATOM     76  C   UNL A   1      43.267  23.484  26.982  1.00  0.00     0.058 A 
ATOM     77  C   UNL A   1      43.093  23.015  25.672  1.00  0.00     0.135 A 
ATOM     78  C   UNL A   1      43.034  22.584  28.034  1.00  0.00     0.135 A 
ATOM     79  F   UNL A   1      43.298  23.840  24.632  1.00  0.00    -0.206 F 
ATOM     80  C   UNL A   1      42.708  21.704  25.411  1.00  0.00     0.059 A 
ATOM     81  C   UNL A   1      42.671  21.261  27.798  1.00  0.00     0.059 A 
ATOM     82  F   UNL A   1      43.203  22.979  29.305  1.00  0.00    -0.206 F 
ATOM     83  C   UNL A   1      42.509  20.831  26.482  1.00  0.00     0.060 A 
BRANCH  83  84
ATOM     84  S   UNL A   1      42.097  19.107  26.130  1.00  0.00     0.124 S 
ATOM     85  O   UNL A   1      43.010  18.803  25.035  1.00  0.00    -0.237 OA
ATOM     86  O   UNL A   1      42.389  18.457  27.405  1.00  0.00    -0.237 OA
ATOM     87  O   UNL A   1      40.682  19.166  25.776  1.00  0.00    -0.744 OA
ENDBRANCH  83  84
ENDBRANCH  51  76
BRANCH  63  88
ATOM     88  C   UNL A   1      49.459  26.675  26.466  1.00  0.00     0.058 A 
ATOM     89  C   UNL A   1      49.953  26.739  25.153  1.00  0.00     0.135 A 
ATOM     90  C   UNL A   1      50.301  26.145  27.457  1.00  0.00     0.135 A 
ATOM     91  F   UNL A   1      49.190  27.235  24.167  1.00  0.00    -0.206 F 
ATOM     92  C   UNL A   1      51.217  26.256  24.828  1.00  0.00     0.059 A 
ATOM     93  C   UNL A   1      51.581  25.683  27.159  1.00  0.00     0.059 A 
ATOM     94  F   UNL A   1      49.887  26.074  28.732  1.00  0.00    -0.206 F 
ATOM     95  C   UNL A   1      52.021  25.724  25.838  1.00  0.00     0.060 A 
BRANCH  95  96
ATOM     96  S   UNL A   1      53.657  25.095  25.405  1.00  0.00     0.124 S 
ATOM     97  O   UNL A   1      54.436  25.475  26.579  1.00  0.00    -0.237 OA
ATOM     98  O   UNL A   1      53.410  23.665  25.243  1.00  0.00    -0.237 OA
ATOM     99  O   UNL A   1      53.982  25.811  24.176  1.00  0.00    -0.744 OA
ENDBRANCH  95  96
ENDBRANCH  63  88
ENDBRANCH  37  38
ENDBRANCH  29  32
ENDBRANCH  27  28
ENDBRANCH  26  27
ENDBRANCH   1  26
TORSDOF 17
ENDMDL
