MODEL 1
REMARK VINA RESULT:     -12.0      0.000      0.000
REMARK SMILES CC(C)CCc1cc2c(cc1Cl)C=C(C(=O)NCCCCNC(=O)c1ccc(-c3c4nc(c(-c5c(F)cc(S(=O)(=O)[O-])cc5F)c5ccc([nH]5)c(-c5c(F)cc(S(=O)(=O)[O-])cc5F)c5nc(c(-c6c(F)cc(S(=O)(=O)[O-])cc6F)c6ccc3[nH]6)C=C5)C=C4)cc1)[C@@H](C(F)(F)F)O2
REMARK SMILES IDX 19 1 18 2 17 3 15 4 16 5 14 7 6 8 7 9 11 10 8 11 10 12 12 13
REMARK SMILES IDX 9 14 96 15 13 16 91 17 5 18 4 19 2 20 1 21 3 22 92 23 93 24
REMARK SMILES IDX 94 25 95 26 20 27 21 28 22 29 23 30 24 32 25 33 26 34 90 35
REMARK SMILES IDX 27 36 89 37 28 38 29 39 30 40 83 41 31 42 88 43 82 44 84 45
REMARK SMILES IDX 32 46 87 47 81 48 80 49 33 51 67 52 46 53 66 54 47 55 50 56
REMARK SMILES IDX 65 57 85 58 48 59 49 60 64 62 86 63 51 64 34 65 35 66 44 67
REMARK SMILES IDX 36 68 37 69 43 70 45 71 38 72 39 73 40 74 41 75 42 76 68 77
REMARK SMILES IDX 69 78 78 79 70 80 71 81 77 82 79 83 72 84 73 85 74 86 75 87
REMARK SMILES IDX 76 88 52 89 53 90 62 91 54 92 55 93 61 94 63 95 56 96 57 97
REMARK SMILES IDX 58 98 59 99 60 100
REMARK H PARENT 17 6 22 31 84 50 50 61
REMARK Flexibility Score: inf
ROOT
ATOM      1  C   UNL A   1      33.448  28.667  24.724  1.00  0.00     0.023 C 
ENDROOT
BRANCH   1   2
ATOM      2  C   UNL A   1      32.831  28.894  23.348  1.00  0.00     0.116 C 
BRANCH   2   3
ATOM      3  N   UNL A   1      31.405  28.619  23.331  1.00  0.00    -0.352 N 
ATOM      4  C   UNL A   1      30.611  27.532  23.470  1.00  0.00     0.251 C 
ATOM      5  O   UNL A   1      29.398  27.757  23.418  1.00  0.00    -0.270 OA
ATOM      6  H   UNL A   1      30.880  29.436  23.179  1.00  0.00     0.163 HD
BRANCH   4   7
ATOM      7  C   UNL A   1      31.087  26.133  23.674  1.00  0.00     0.067 C 
ATOM      8  C   UNL A   1      32.648  21.750  25.665  1.00  0.00    -0.026 A 
ATOM      9  C   UNL A   1      32.050  22.133  24.445  1.00  0.00     0.052 A 
ATOM     10  C   UNL A   1      32.819  22.750  26.641  1.00  0.00     0.045 A 
ATOM     11  C   UNL A   1      31.645  23.447  24.218  1.00  0.00     0.128 A 
ATOM     12  C   UNL A   1      32.337  24.054  26.433  1.00  0.00     0.032 A 
ATOM     13  Cl  UNL A   1      33.672  22.507  28.122  1.00  0.00    -0.084 Cl
ATOM     14  C   UNL A   1      31.756  24.408  25.217  1.00  0.00     0.019 A 
ATOM     15  O   UNL A   1      31.153  23.755  22.977  1.00  0.00    -0.475 OA
ATOM     16  C   UNL A   1      31.276  25.760  24.955  1.00  0.00     0.025 C 
ATOM     17  C   UNL A   1      31.376  25.145  22.578  1.00  0.00     0.314 C 
BRANCH   8  18
ATOM     18  C   UNL A   1      33.153  20.321  25.739  1.00  0.00     0.037 C 
BRANCH  18  19
ATOM     19  C   UNL A   1      33.441  19.513  24.466  1.00  0.00     0.008 C 
BRANCH  19  20
ATOM     20  C   UNL A   1      32.383  18.463  24.083  1.00  0.00    -0.017 C 
ATOM     21  C   UNL A   1      32.459  18.091  22.603  1.00  0.00     0.007 C 
ATOM     22  C   UNL A   1      32.570  17.211  24.945  1.00  0.00     0.007 C 
ENDBRANCH  19  20
ENDBRANCH  18  19
ENDBRANCH   8  18
BRANCH  17  23
ATOM     23  C   UNL A   1      32.798  25.304  21.997  1.00  0.00     0.429 C 
ATOM     24  F   UNL A   1      33.261  24.112  21.545  1.00  0.00    -0.167 F 
ATOM     25  F   UNL A   1      32.836  26.157  20.945  1.00  0.00    -0.167 F 
ATOM     26  F   UNL A   1      33.692  25.764  22.900  1.00  0.00    -0.167 F 
ENDBRANCH  17  23
ENDBRANCH   4   7
ENDBRANCH   2   3
ENDBRANCH   1   2
BRANCH   1  27
ATOM     27  C   UNL A   1      32.661  29.282  25.886  1.00  0.00     0.023 C 
BRANCH  27  28
ATOM     28  C   UNL A   1      33.336  29.209  27.255  1.00  0.00     0.116 C 
BRANCH  28  29
ATOM     29  N   UNL A   1      33.414  30.485  27.956  1.00  0.00    -0.352 N 
ATOM     30  C   UNL A   1      34.513  31.020  28.590  1.00  0.00     0.251 C 
ATOM     31  H   UNL A   1      32.589  31.022  27.980  1.00  0.00     0.163 HD
ATOM     32  O   UNL A   1      34.445  32.090  29.186  1.00  0.00    -0.269 OA
BRANCH  30  33
ATOM     33  C   UNL A   1      35.760  30.233  28.586  1.00  0.00     0.039 A 
ATOM     34  C   UNL A   1      36.253  29.706  29.783  1.00  0.00     0.014 A 
ATOM     35  C   UNL A   1      36.511  30.173  27.411  1.00  0.00     0.014 A 
ATOM     36  C   UNL A   1      37.572  29.270  29.839  1.00  0.00     0.010 A 
ATOM     37  C   UNL A   1      37.817  29.686  27.460  1.00  0.00     0.010 A 
ATOM     38  C   UNL A   1      38.376  29.297  28.688  1.00  0.00    -0.014 A 
BRANCH  38  39
ATOM     39  C   UNL A   1      39.828  29.016  28.803  1.00  0.00     0.031 A 
ATOM     40  C   UNL A   1      40.749  30.055  29.390  1.00  0.00     0.074 A 
ATOM     41  C   UNL A   1      40.307  27.810  28.449  1.00  0.00     0.049 A 
ATOM     42  N   UNL A   1      42.047  30.016  29.542  1.00  0.00    -0.248 NA
ATOM     43  C   UNL A   1      40.128  31.302  29.870  1.00  0.00     0.031 C 
ATOM     44  C   UNL A   1      39.507  26.709  27.910  1.00  0.00     0.029 A 
ATOM     45  N   UNL A   1      41.578  27.303  28.515  1.00  0.00    -0.354 N 
ATOM     46  C   UNL A   1      42.403  31.235  30.106  1.00  0.00     0.074 A 
ATOM     47  C   UNL A   1      41.184  32.000  30.263  1.00  0.00     0.031 C 
ATOM     48  C   UNL A   1      40.301  25.641  27.732  1.00  0.00     0.029 A 
ATOM     49  C   UNL A   1      41.669  25.998  28.097  1.00  0.00     0.049 A 
ATOM     50  H   UNL A   1      42.352  27.823  28.830  1.00  0.00     0.167 HD
ATOM     51  C   UNL A   1      43.632  31.676  30.465  1.00  0.00     0.037 A 
ATOM     52  C   UNL A   1      42.737  25.185  28.006  1.00  0.00     0.037 A 
ATOM     53  C   UNL A   1      44.839  30.903  30.340  1.00  0.00     0.049 A 
ATOM     54  C   UNL A   1      44.093  25.705  28.386  1.00  0.00     0.074 A 
ATOM     55  C   UNL A   1      46.133  31.263  30.673  1.00  0.00     0.029 A 
ATOM     56  N   UNL A   1      44.897  29.606  29.854  1.00  0.00    -0.354 N 
ATOM     57  N   UNL A   1      44.419  26.883  28.861  1.00  0.00    -0.248 NA
ATOM     58  C   UNL A   1      45.230  24.793  28.194  1.00  0.00     0.031 C 
ATOM     59  C   UNL A   1      46.977  30.187  30.372  1.00  0.00     0.029 A 
ATOM     60  C   UNL A   1      46.204  29.151  29.872  1.00  0.00     0.049 A 
ATOM     61  H   UNL A   1      44.122  29.084  29.543  1.00  0.00     0.167 HD
ATOM     62  C   UNL A   1      45.799  26.860  29.012  1.00  0.00     0.074 A 
ATOM     63  C   UNL A   1      46.244  25.542  28.604  1.00  0.00     0.031 C 
ATOM     64  C   UNL A   1      46.627  27.845  29.439  1.00  0.00     0.037 A 
BRANCH  51  65
ATOM     65  C   UNL A   1      43.735  33.069  31.014  1.00  0.00     0.058 A 
ATOM     66  C   UNL A   1      43.692  33.319  32.394  1.00  0.00     0.135 A 
ATOM     67  C   UNL A   1      43.909  34.163  30.153  1.00  0.00     0.135 A 
ATOM     68  F   UNL A   1      43.505  32.308  33.259  1.00  0.00    -0.206 F 
ATOM     69  C   UNL A   1      43.804  34.609  32.902  1.00  0.00     0.059 A 
ATOM     70  C   UNL A   1      44.038  35.460  30.639  1.00  0.00     0.059 A 
ATOM     71  F   UNL A   1      43.949  33.976  28.825  1.00  0.00    -0.206 F 
ATOM     72  C   UNL A   1      43.973  35.675  32.015  1.00  0.00     0.060 A 
BRANCH  72  73
ATOM     73  S   UNL A   1      44.115  37.346  32.684  1.00  0.00     0.124 S 
ATOM     74  O   UNL A   1      45.478  37.333  33.206  1.00  0.00    -0.237 OA
ATOM     75  O   UNL A   1      43.897  38.178  31.506  1.00  0.00    -0.237 OA
ATOM     76  O   UNL A   1      43.059  37.399  33.689  1.00  0.00    -0.744 OA
ENDBRANCH  72  73
ENDBRANCH  51  65
BRANCH  52  77
ATOM     77  C   UNL A   1      42.558  23.797  27.518  1.00  0.00     0.058 A 
ATOM     78  C   UNL A   1      42.569  23.511  26.146  1.00  0.00     0.135 A 
ATOM     79  C   UNL A   1      42.422  22.727  28.415  1.00  0.00     0.135 A 
ATOM     80  F   UNL A   1      42.691  24.507  25.255  1.00  0.00    -0.206 F 
ATOM     81  C   UNL A   1      42.456  22.208  25.677  1.00  0.00     0.059 A 
ATOM     82  C   UNL A   1      42.324  21.413  27.970  1.00  0.00     0.059 A 
ATOM     83  F   UNL A   1      42.418  22.955  29.737  1.00  0.00    -0.206 F 
ATOM     84  C   UNL A   1      42.339  21.164  26.598  1.00  0.00     0.060 A 
BRANCH  84  85
ATOM     85  S   UNL A   1      42.281  19.464  25.991  1.00  0.00     0.124 S 
ATOM     86  O   UNL A   1      40.879  19.337  25.613  1.00  0.00    -0.237 OA
ATOM     87  O   UNL A   1      43.239  19.493  24.890  1.00  0.00    -0.237 OA
ATOM     88  O   UNL A   1      42.699  18.684  27.151  1.00  0.00    -0.744 OA
ENDBRANCH  84  85
ENDBRANCH  52  77
BRANCH  64  89
ATOM     89  C   UNL A   1      48.093  27.537  29.461  1.00  0.00     0.058 A 
ATOM     90  C   UNL A   1      48.939  27.988  28.438  1.00  0.00     0.135 A 
ATOM     91  C   UNL A   1      48.660  26.815  30.522  1.00  0.00     0.135 A 
ATOM     92  F   UNL A   1      48.438  28.677  27.401  1.00  0.00    -0.206 F 
ATOM     93  C   UNL A   1      50.303  27.717  28.455  1.00  0.00     0.059 A 
ATOM     94  C   UNL A   1      50.024  26.544  30.566  1.00  0.00     0.059 A 
ATOM     95  F   UNL A   1      47.889  26.370  31.525  1.00  0.00    -0.206 F 
ATOM     96  C   UNL A   1      50.835  26.990  29.522  1.00  0.00     0.060 A 
BRANCH  96  97
ATOM     97  S   UNL A   1      52.610  26.657  29.548  1.00  0.00     0.124 S 
ATOM     98  O   UNL A   1      53.161  28.007  29.556  1.00  0.00    -0.237 OA
ATOM     99  O   UNL A   1      52.772  25.898  30.784  1.00  0.00    -0.237 OA
ATOM    100  O   UNL A   1      52.827  25.895  28.321  1.00  0.00    -0.744 OA
ENDBRANCH  96  97
ENDBRANCH  64  89
ENDBRANCH  38  39
ENDBRANCH  30  33
ENDBRANCH  28  29
ENDBRANCH  27  28
ENDBRANCH   1  27
TORSDOF 18
ENDMDL
MODEL 2
REMARK VINA RESULT:     -11.9      1.028      2.006
REMARK SMILES CC(C)CCc1cc2c(cc1Cl)C=C(C(=O)NCCCCNC(=O)c1ccc(-c3c4nc(c(-c5c(F)cc(S(=O)(=O)[O-])cc5F)c5ccc([nH]5)c(-c5c(F)cc(S(=O)(=O)[O-])cc5F)c5nc(c(-c6c(F)cc(S(=O)(=O)[O-])cc6F)c6ccc3[nH]6)C=C5)C=C4)cc1)[C@@H](C(F)(F)F)O2
REMARK SMILES IDX 19 1 18 2 17 3 15 4 16 5 14 7 6 8 7 9 11 10 8 11 10 12 12 13
REMARK SMILES IDX 9 14 96 15 13 16 91 17 5 18 4 19 2 20 1 21 3 22 92 23 93 24
REMARK SMILES IDX 94 25 95 26 20 27 21 28 22 29 23 30 24 32 25 33 26 34 90 35
REMARK SMILES IDX 27 36 89 37 28 38 29 39 30 40 83 41 31 42 88 43 82 44 84 45
REMARK SMILES IDX 32 46 87 47 81 48 80 49 33 51 67 52 46 53 66 54 47 55 50 56
REMARK SMILES IDX 65 57 85 58 48 59 49 60 64 62 86 63 51 64 34 65 35 66 44 67
REMARK SMILES IDX 36 68 37 69 43 70 45 71 38 72 39 73 40 74 41 75 42 76 68 77
REMARK SMILES IDX 69 78 78 79 70 80 71 81 77 82 79 83 72 84 73 85 74 86 75 87
REMARK SMILES IDX 76 88 52 89 53 90 62 91 54 92 55 93 61 94 63 95 56 96 57 97
REMARK SMILES IDX 58 98 59 99 60 100
REMARK H PARENT 17 6 22 31 84 50 50 61
REMARK Flexibility Score: inf
ROOT
ATOM      1  C   UNL A   1      32.552  30.038  25.347  1.00  0.00     0.023 C 
ENDROOT
BRANCH   1   2
ATOM      2  C   UNL A   1      31.033  30.103  25.236  1.00  0.00     0.116 C 
BRANCH   2   3
ATOM      3  N   UNL A   1      30.578  30.042  23.858  1.00  0.00    -0.352 N 
ATOM      4  C   UNL A   1      30.466  29.094  22.899  1.00  0.00     0.251 C 
ATOM      5  O   UNL A   1      29.979  29.479  21.831  1.00  0.00    -0.270 OA
ATOM      6  H   UNL A   1      30.271  30.920  23.539  1.00  0.00     0.163 HD
BRANCH   4   7
ATOM      7  C   UNL A   1      30.878  27.667  23.041  1.00  0.00     0.067 C 
ATOM      8  C   UNL A   1      31.476  22.893  24.611  1.00  0.00    -0.026 A 
ATOM      9  C   UNL A   1      31.623  23.562  23.376  1.00  0.00     0.052 A 
ATOM     10  C   UNL A   1      30.983  23.643  25.695  1.00  0.00     0.045 A 
ATOM     11  C   UNL A   1      31.290  24.907  23.238  1.00  0.00     0.128 A 
ATOM     12  C   UNL A   1      30.578  24.978  25.526  1.00  0.00     0.032 A 
ATOM     13  Cl  UNL A   1      30.891  23.042  27.311  1.00  0.00    -0.084 Cl
ATOM     14  C   UNL A   1      30.738  25.616  24.299  1.00  0.00     0.019 A 
ATOM     15  O   UNL A   1      31.542  25.503  22.030  1.00  0.00    -0.475 OA
ATOM     16  C   UNL A   1      30.359  27.010  24.098  1.00  0.00     0.025 C 
ATOM     17  C   UNL A   1      31.817  26.937  22.121  1.00  0.00     0.314 C 
BRANCH   8  18
ATOM     18  C   UNL A   1      31.988  21.464  24.659  1.00  0.00     0.037 C 
BRANCH  18  19
ATOM     19  C   UNL A   1      33.372  21.098  24.108  1.00  0.00     0.008 C 
BRANCH  19  20
ATOM     20  C   UNL A   1      34.571  21.771  24.800  1.00  0.00    -0.017 C 
ATOM     21  C   UNL A   1      35.634  20.756  25.217  1.00  0.00     0.007 C 
ATOM     22  C   UNL A   1      35.186  22.811  23.858  1.00  0.00     0.007 C 
ENDBRANCH  19  20
ENDBRANCH  18  19
ENDBRANCH   8  18
BRANCH  17  23
ATOM     23  C   UNL A   1      33.301  27.167  22.486  1.00  0.00     0.429 C 
ATOM     24  F   UNL A   1      33.636  28.469  22.304  1.00  0.00    -0.167 F 
ATOM     25  F   UNL A   1      33.567  26.877  23.782  1.00  0.00    -0.167 F 
ATOM     26  F   UNL A   1      34.152  26.427  21.741  1.00  0.00    -0.167 F 
ENDBRANCH  17  23
ENDBRANCH   4   7
ENDBRANCH   2   3
ENDBRANCH   1   2
BRANCH   1  27
ATOM     27  C   UNL A   1      33.091  28.758  25.992  1.00  0.00     0.023 C 
BRANCH  27  28
ATOM     28  C   UNL A   1      33.413  28.852  27.483  1.00  0.00     0.116 C 
BRANCH  28  29
ATOM     29  N   UNL A   1      33.500  30.214  27.995  1.00  0.00    -0.352 N 
ATOM     30  C   UNL A   1      34.616  30.845  28.500  1.00  0.00     0.251 C 
ATOM     31  H   UNL A   1      32.668  30.741  27.980  1.00  0.00     0.163 HD
ATOM     32  O   UNL A   1      34.555  31.986  28.942  1.00  0.00    -0.269 OA
BRANCH  30  33
ATOM     33  C   UNL A   1      35.874  30.077  28.552  1.00  0.00     0.039 A 
ATOM     34  C   UNL A   1      36.376  29.647  29.783  1.00  0.00     0.014 A 
ATOM     35  C   UNL A   1      36.624  29.941  27.382  1.00  0.00     0.014 A 
ATOM     36  C   UNL A   1      37.701  29.236  29.868  1.00  0.00     0.010 A 
ATOM     37  C   UNL A   1      37.937  29.478  27.464  1.00  0.00     0.010 A 
ATOM     38  C   UNL A   1      38.504  29.189  28.716  1.00  0.00    -0.014 A 
BRANCH  38  39
ATOM     39  C   UNL A   1      39.960  28.938  28.849  1.00  0.00     0.031 A 
ATOM     40  C   UNL A   1      40.850  29.994  29.452  1.00  0.00     0.074 A 
ATOM     41  C   UNL A   1      40.469  27.745  28.496  1.00  0.00     0.049 A 
ATOM     42  N   UNL A   1      42.147  29.982  29.620  1.00  0.00    -0.248 NA
ATOM     43  C   UNL A   1      40.197  31.226  29.930  1.00  0.00     0.031 C 
ATOM     44  C   UNL A   1      39.699  26.630  27.941  1.00  0.00     0.029 A 
ATOM     45  N   UNL A   1      41.749  27.264  28.575  1.00  0.00    -0.354 N 
ATOM     46  C   UNL A   1      42.470  31.206  30.194  1.00  0.00     0.074 A 
ATOM     47  C   UNL A   1      41.233  31.943  30.340  1.00  0.00     0.031 C 
ATOM     48  C   UNL A   1      40.518  25.580  27.768  1.00  0.00     0.029 A 
ATOM     49  C   UNL A   1      41.873  25.964  28.153  1.00  0.00     0.049 A 
ATOM     50  H   UNL A   1      42.507  27.800  28.903  1.00  0.00     0.167 HD
ATOM     51  C   UNL A   1      43.685  31.670  30.572  1.00  0.00     0.037 A 
ATOM     52  C   UNL A   1      42.960  25.174  28.072  1.00  0.00     0.037 A 
ATOM     53  C   UNL A   1      44.909  30.924  30.459  1.00  0.00     0.049 A 
ATOM     54  C   UNL A   1      44.299  25.721  28.471  1.00  0.00     0.074 A 
ATOM     55  C   UNL A   1      46.191  31.310  30.810  1.00  0.00     0.029 A 
ATOM     56  N   UNL A   1      45.001  29.631  29.968  1.00  0.00    -0.354 N 
ATOM     57  N   UNL A   1      44.594  26.903  28.955  1.00  0.00    -0.248 NA
ATOM     58  C   UNL A   1      45.457  24.834  28.289  1.00  0.00     0.031 C 
ATOM     59  C   UNL A   1      47.062  30.254  30.515  1.00  0.00     0.029 A 
ATOM     60  C   UNL A   1      46.317  29.204  30.000  1.00  0.00     0.049 A 
ATOM     61  H   UNL A   1      44.241  29.094  29.644  1.00  0.00     0.167 HD
ATOM     62  C   UNL A   1      45.972  26.909  29.124  1.00  0.00     0.074 A 
ATOM     63  C   UNL A   1      46.450  25.603  28.715  1.00  0.00     0.031 C 
ATOM     64  C   UNL A   1      46.773  27.909  29.566  1.00  0.00     0.037 A 
BRANCH  51  65
ATOM     65  C   UNL A   1      43.751  33.062  31.129  1.00  0.00     0.058 A 
ATOM     66  C   UNL A   1      43.699  33.304  32.510  1.00  0.00     0.135 A 
ATOM     67  C   UNL A   1      43.898  34.165  30.274  1.00  0.00     0.135 A 
ATOM     68  F   UNL A   1      43.537  32.284  33.368  1.00  0.00    -0.206 F 
ATOM     69  C   UNL A   1      43.777  34.593  33.025  1.00  0.00     0.059 A 
ATOM     70  C   UNL A   1      43.993  35.463  30.767  1.00  0.00     0.059 A 
ATOM     71  F   UNL A   1      43.945  33.987  28.944  1.00  0.00    -0.206 F 
ATOM     72  C   UNL A   1      43.920  35.668  32.144  1.00  0.00     0.060 A 
BRANCH  72  73
ATOM     73  S   UNL A   1      44.018  37.339  32.823  1.00  0.00     0.124 S 
ATOM     74  O   UNL A   1      43.635  38.143  31.667  1.00  0.00    -0.237 OA
ATOM     75  O   UNL A   1      43.048  37.295  33.912  1.00  0.00    -0.237 OA
ATOM     76  O   UNL A   1      45.413  37.455  33.234  1.00  0.00    -0.744 OA
ENDBRANCH  72  73
ENDBRANCH  51  65
BRANCH  52  77
ATOM     77  C   UNL A   1      42.816  23.785  27.575  1.00  0.00     0.058 A 
ATOM     78  C   UNL A   1      42.646  22.718  28.467  1.00  0.00     0.135 A 
ATOM     79  C   UNL A   1      42.798  23.507  26.201  1.00  0.00     0.135 A 
ATOM     80  F   UNL A   1      42.664  22.940  29.790  1.00  0.00    -0.206 F 
ATOM     81  C   UNL A   1      42.457  21.417  28.013  1.00  0.00     0.059 A 
ATOM     82  C   UNL A   1      42.593  22.218  25.722  1.00  0.00     0.059 A 
ATOM     83  F   UNL A   1      42.945  24.501  25.311  1.00  0.00    -0.206 F 
ATOM     84  C   UNL A   1      42.426  21.178  26.638  1.00  0.00     0.060 A 
BRANCH  84  85
ATOM     85  S   UNL A   1      42.092  19.504  26.048  1.00  0.00     0.124 S 
ATOM     86  O   UNL A   1      42.467  18.706  27.209  1.00  0.00    -0.237 OA
ATOM     87  O   UNL A   1      40.665  19.559  25.745  1.00  0.00    -0.237 OA
ATOM     88  O   UNL A   1      42.966  19.382  24.885  1.00  0.00    -0.744 OA
ENDBRANCH  84  85
ENDBRANCH  52  77
BRANCH  64  89
ATOM     89  C   UNL A   1      48.245  27.633  29.606  1.00  0.00     0.058 A 
ATOM     90  C   UNL A   1      48.817  26.929  30.676  1.00  0.00     0.135 A 
ATOM     91  C   UNL A   1      49.083  28.046  28.559  1.00  0.00     0.135 A 
ATOM     92  F   UNL A   1      48.054  26.520  31.701  1.00  0.00    -0.206 F 
ATOM     93  C   UNL A   1      50.180  26.657  30.717  1.00  0.00     0.059 A 
ATOM     94  C   UNL A   1      50.447  27.773  28.573  1.00  0.00     0.059 A 
ATOM     95  F   UNL A   1      48.577  28.716  27.513  1.00  0.00    -0.206 F 
ATOM     96  C   UNL A   1      50.988  27.088  29.662  1.00  0.00     0.060 A 
BRANCH  96  97
ATOM     97  S   UNL A   1      52.755  26.717  29.711  1.00  0.00     0.124 S 
ATOM     98  O   UNL A   1      52.929  25.962  28.476  1.00  0.00    -0.237 OA
ATOM     99  O   UNL A   1      53.358  28.047  29.733  1.00  0.00    -0.237 OA
ATOM    100  O   UNL A   1      52.902  25.950  30.945  1.00  0.00    -0.744 OA
ENDBRANCH  96  97
ENDBRANCH  64  89
ENDBRANCH  38  39
ENDBRANCH  30  33
ENDBRANCH  28  29
ENDBRANCH  27  28
ENDBRANCH   1  27
TORSDOF 18
ENDMDL
MODEL 3
REMARK VINA RESULT:     -11.7      2.245      3.043
REMARK SMILES CC(C)CCc1cc2c(cc1Cl)C=C(C(=O)NCCCCNC(=O)c1ccc(-c3c4nc(c(-c5c(F)cc(S(=O)(=O)[O-])cc5F)c5ccc([nH]5)c(-c5c(F)cc(S(=O)(=O)[O-])cc5F)c5nc(c(-c6c(F)cc(S(=O)(=O)[O-])cc6F)c6ccc3[nH]6)C=C5)C=C4)cc1)[C@@H](C(F)(F)F)O2
REMARK SMILES IDX 19 1 18 2 17 3 15 4 16 5 14 7 6 8 7 9 11 10 8 11 10 12 12 13
REMARK SMILES IDX 9 14 96 15 13 16 91 17 5 18 4 19 2 20 1 21 3 22 92 23 93 24
REMARK SMILES IDX 94 25 95 26 20 27 21 28 22 29 23 30 24 32 25 33 26 34 90 35
REMARK SMILES IDX 27 36 89 37 28 38 29 39 30 40 83 41 31 42 88 43 82 44 84 45
REMARK SMILES IDX 32 46 87 47 81 48 80 49 33 51 67 52 46 53 66 54 47 55 50 56
REMARK SMILES IDX 65 57 85 58 48 59 49 60 64 62 86 63 51 64 34 65 35 66 44 67
REMARK SMILES IDX 36 68 37 69 43 70 45 71 38 72 39 73 40 74 41 75 42 76 68 77
REMARK SMILES IDX 69 78 78 79 70 80 71 81 77 82 79 83 72 84 73 85 74 86 75 87
REMARK SMILES IDX 76 88 52 89 53 90 62 91 54 92 55 93 61 94 63 95 56 96 57 97
REMARK SMILES IDX 58 98 59 99 60 100
REMARK H PARENT 17 6 22 31 84 50 50 61
REMARK Flexibility Score: inf
ROOT
ATOM      1  C   UNL A   1      33.281  30.272  26.740  1.00  0.00     0.023 C 
ENDROOT
BRANCH   1   2
ATOM      2  C   UNL A   1      31.782  30.428  26.505  1.00  0.00     0.116 C 
BRANCH   2   3
ATOM      3  N   UNL A   1      31.399  30.086  25.147  1.00  0.00    -0.352 N 
ATOM      4  C   UNL A   1      31.272  28.955  24.415  1.00  0.00     0.251 C 
ATOM      5  O   UNL A   1      30.872  29.119  23.258  1.00  0.00    -0.270 OA
ATOM      6  H   UNL A   1      31.174  30.887  24.622  1.00  0.00     0.163 HD
BRANCH   4   7
ATOM      7  C   UNL A   1      31.572  27.575  24.895  1.00  0.00     0.067 C 
ATOM      8  C   UNL A   1      33.866  23.316  26.383  1.00  0.00    -0.026 A 
ATOM      9  C   UNL A   1      32.589  23.884  26.586  1.00  0.00     0.052 A 
ATOM     10  C   UNL A   1      34.806  24.083  25.669  1.00  0.00     0.045 A 
ATOM     11  C   UNL A   1      32.276  25.152  26.102  1.00  0.00     0.128 A 
ATOM     12  C   UNL A   1      34.505  25.391  25.251  1.00  0.00     0.032 A 
ATOM     13  Cl  UNL A   1      36.354  23.492  25.185  1.00  0.00    -0.084 Cl
ATOM     14  C   UNL A   1      33.236  25.926  25.460  1.00  0.00     0.019 A 
ATOM     15  O   UNL A   1      30.989  25.595  26.267  1.00  0.00    -0.475 OA
ATOM     16  C   UNL A   1      32.880  27.267  25.011  1.00  0.00     0.025 C 
ATOM     17  C   UNL A   1      30.546  26.530  25.233  1.00  0.00     0.314 C 
BRANCH   8  18
ATOM     18  C   UNL A   1      34.040  21.883  26.853  1.00  0.00     0.037 C 
BRANCH  18  19
ATOM     19  C   UNL A   1      34.142  20.725  25.851  1.00  0.00     0.008 C 
BRANCH  19  20
ATOM     20  C   UNL A   1      32.804  20.164  25.335  1.00  0.00    -0.017 C 
ATOM     21  C   UNL A   1      32.555  20.537  23.875  1.00  0.00     0.007 C 
ATOM     22  C   UNL A   1      32.795  18.641  25.492  1.00  0.00     0.007 C 
ENDBRANCH  19  20
ENDBRANCH  18  19
ENDBRANCH   8  18
BRANCH  17  23
ATOM     23  C   UNL A   1      30.063  25.750  23.990  1.00  0.00     0.429 C 
ATOM     24  F   UNL A   1      30.820  26.067  22.910  1.00  0.00    -0.167 F 
ATOM     25  F   UNL A   1      30.159  24.409  24.149  1.00  0.00    -0.167 F 
ATOM     26  F   UNL A   1      28.776  26.010  23.667  1.00  0.00    -0.167 F 
ENDBRANCH  17  23
ENDBRANCH   4   7
ENDBRANCH   2   3
ENDBRANCH   1   2
BRANCH   1  27
ATOM     27  C   UNL A   1      33.905  31.357  27.623  1.00  0.00     0.023 C 
BRANCH  27  28
ATOM     28  C   UNL A   1      35.250  31.004  28.256  1.00  0.00     0.116 C 
BRANCH  28  29
ATOM     29  N   UNL A   1      35.332  31.272  29.686  1.00  0.00    -0.352 N 
ATOM     30  C   UNL A   1      36.318  30.859  30.556  1.00  0.00     0.251 C 
ATOM     31  H   UNL A   1      34.603  31.808  30.073  1.00  0.00     0.163 HD
ATOM     32  O   UNL A   1      36.256  31.114  31.753  1.00  0.00    -0.269 OA
BRANCH  30  33
ATOM     33  C   UNL A   1      37.418  30.042  30.010  1.00  0.00     0.039 A 
ATOM     34  C   UNL A   1      38.167  29.227  30.863  1.00  0.00     0.014 A 
ATOM     35  C   UNL A   1      37.793  30.228  28.678  1.00  0.00     0.014 A 
ATOM     36  C   UNL A   1      39.391  28.734  30.426  1.00  0.00     0.010 A 
ATOM     37  C   UNL A   1      38.998  29.688  28.228  1.00  0.00     0.010 A 
ATOM     38  C   UNL A   1      39.835  28.997  29.119  1.00  0.00    -0.014 A 
BRANCH  38  39
ATOM     39  C   UNL A   1      41.220  28.634  28.731  1.00  0.00     0.031 A 
ATOM     40  C   UNL A   1      42.324  29.651  28.856  1.00  0.00     0.074 A 
ATOM     41  C   UNL A   1      41.498  27.380  28.334  1.00  0.00     0.049 A 
ATOM     42  N   UNL A   1      43.588  29.542  28.535  1.00  0.00    -0.248 NA
ATOM     43  C   UNL A   1      41.962  30.965  29.417  1.00  0.00     0.031 C 
ATOM     44  C   UNL A   1      40.520  26.297  28.214  1.00  0.00     0.029 A 
ATOM     45  N   UNL A   1      42.688  26.800  27.983  1.00  0.00    -0.354 N 
ATOM     46  C   UNL A   1      44.164  30.773  28.827  1.00  0.00     0.074 A 
ATOM     47  C   UNL A   1      43.112  31.621  29.344  1.00  0.00     0.031 C 
ATOM     48  C   UNL A   1      41.159  25.172  27.856  1.00  0.00     0.029 A 
ATOM     49  C   UNL A   1      42.578  25.466  27.675  1.00  0.00     0.049 A 
ATOM     50  H   UNL A   1      43.540  27.292  27.954  1.00  0.00     0.167 HD
ATOM     51  C   UNL A   1      45.454  31.159  28.683  1.00  0.00     0.037 A 
ATOM     52  C   UNL A   1      43.513  24.584  27.277  1.00  0.00     0.037 A 
ATOM     53  C   UNL A   1      46.507  30.306  28.201  1.00  0.00     0.049 A 
ATOM     54  C   UNL A   1      44.930  25.043  27.100  1.00  0.00     0.074 A 
ATOM     55  C   UNL A   1      47.845  30.607  28.015  1.00  0.00     0.029 A 
ATOM     56  N   UNL A   1      46.342  28.977  27.840  1.00  0.00    -0.354 N 
ATOM     57  N   UNL A   1      45.446  26.228  27.322  1.00  0.00    -0.248 NA
ATOM     58  C   UNL A   1      45.889  24.051  26.592  1.00  0.00     0.031 C 
ATOM     59  C   UNL A   1      48.487  29.462  27.526  1.00  0.00     0.029 A 
ATOM     60  C   UNL A   1      47.551  28.445  27.427  1.00  0.00     0.049 A 
ATOM     61  H   UNL A   1      45.490  28.485  27.874  1.00  0.00     0.167 HD
ATOM     62  C   UNL A   1      46.785  26.130  26.970  1.00  0.00     0.074 A 
ATOM     63  C   UNL A   1      47.008  24.762  26.545  1.00  0.00     0.031 C 
ATOM     64  C   UNL A   1      47.744  27.088  26.986  1.00  0.00     0.037 A 
BRANCH  51  65
ATOM     65  C   UNL A   1      45.795  32.577  29.036  1.00  0.00     0.058 A 
ATOM     66  C   UNL A   1      45.713  33.609  28.089  1.00  0.00     0.135 A 
ATOM     67  C   UNL A   1      46.178  32.914  30.343  1.00  0.00     0.135 A 
ATOM     68  F   UNL A   1      45.372  33.336  26.819  1.00  0.00    -0.206 F 
ATOM     69  C   UNL A   1      46.013  34.926  28.422  1.00  0.00     0.059 A 
ATOM     70  C   UNL A   1      46.469  34.226  30.703  1.00  0.00     0.059 A 
ATOM     71  F   UNL A   1      46.279  31.961  31.283  1.00  0.00    -0.206 F 
ATOM     72  C   UNL A   1      46.395  35.224  29.733  1.00  0.00     0.060 A 
BRANCH  72  73
ATOM     73  S   UNL A   1      46.785  36.936  30.155  1.00  0.00     0.124 S 
ATOM     74  O   UNL A   1      46.439  36.970  31.572  1.00  0.00    -0.237 OA
ATOM     75  O   UNL A   1      48.209  37.021  29.849  1.00  0.00    -0.237 OA
ATOM     76  O   UNL A   1      45.911  37.708  29.277  1.00  0.00    -0.744 OA
ENDBRANCH  72  73
ENDBRANCH  51  65
BRANCH  52  77
ATOM     77  C   UNL A   1      43.123  23.180  27.008  1.00  0.00     0.058 A 
ATOM     78  C   UNL A   1      43.030  22.700  25.694  1.00  0.00     0.135 A 
ATOM     79  C   UNL A   1      42.884  22.281  28.058  1.00  0.00     0.135 A 
ATOM     80  F   UNL A   1      43.244  23.529  24.661  1.00  0.00    -0.206 F 
ATOM     81  C   UNL A   1      42.717  21.372  25.428  1.00  0.00     0.059 A 
ATOM     82  C   UNL A   1      42.587  20.944  27.818  1.00  0.00     0.059 A 
ATOM     83  F   UNL A   1      42.974  22.696  29.331  1.00  0.00    -0.206 F 
ATOM     84  C   UNL A   1      42.503  20.500  26.498  1.00  0.00     0.060 A 
BRANCH  84  85
ATOM     85  S   UNL A   1      42.184  18.756  26.154  1.00  0.00     0.124 S 
ATOM     86  O   UNL A   1      42.487  18.145  27.443  1.00  0.00    -0.237 OA
ATOM     87  O   UNL A   1      40.777  18.765  25.766  1.00  0.00    -0.237 OA
ATOM     88  O   UNL A   1      43.120  18.455  25.074  1.00  0.00    -0.744 OA
ENDBRANCH  84  85
ENDBRANCH  52  77
BRANCH  64  89
ATOM     89  C   UNL A   1      49.107  26.692  26.508  1.00  0.00     0.058 A 
ATOM     90  C   UNL A   1      50.021  26.070  27.371  1.00  0.00     0.135 A 
ATOM     91  C   UNL A   1      49.493  26.908  25.176  1.00  0.00     0.135 A 
ATOM     92  F   UNL A   1      49.696  25.849  28.654  1.00  0.00    -0.206 F 
ATOM     93  C   UNL A   1      51.284  25.688  26.934  1.00  0.00     0.059 A 
ATOM     94  C   UNL A   1      50.748  26.521  24.715  1.00  0.00     0.059 A 
ATOM     95  F   UNL A   1      48.649  27.494  24.314  1.00  0.00    -0.206 F 
ATOM     96  C   UNL A   1      51.640  25.923  25.604  1.00  0.00     0.060 A 
BRANCH  96  97
ATOM     97  S   UNL A   1      53.276  25.409  25.037  1.00  0.00     0.124 S 
ATOM     98  O   UNL A   1      54.145  26.253  25.849  1.00  0.00    -0.237 OA
ATOM     99  O   UNL A   1      53.291  23.985  25.361  1.00  0.00    -0.237 OA
ATOM    100  O   UNL A   1      53.250  25.719  23.611  1.00  0.00    -0.744 OA
ENDBRANCH  96  97
ENDBRANCH  64  89
ENDBRANCH  38  39
ENDBRANCH  30  33
ENDBRANCH  28  29
ENDBRANCH  27  28
ENDBRANCH   1  27
TORSDOF 18
ENDMDL
