MODEL 1
REMARK VINA RESULT:     -11.5      0.000      0.000
REMARK SMILES CC1=C(C(=O)OCC(C)C)[C@@H](c2ccc(C(=O)NCCCCNC(=O)c3ccc(-c4c5nc(c(-c6c(F)cc(S(=O)(=O)[O-])cc6F)c6ccc([nH]6)c(-c6c(F)cc(S(=O)(=O)[O-])cc6F)c6nc(c(-c7c(F)cc(S(=O)(=O)[O-])cc7F)c7ccc4[nH]7)C=C6)C=C5)cc3)cc2)c2c(n(C)c(=O)n(C)c2=O)N1
REMARK SMILES IDX 19 1 18 2 16 3 17 4 15 6 12 7 13 8 93 9 14 10 92 11 11 12
REMARK SMILES IDX 1 13 2 14 3 15 104 16 95 17 94 19 96 20 102 21 97 22 98 23
REMARK SMILES IDX 100 24 103 25 99 26 101 27 4 28 5 29 6 30 7 31 8 32 9 33
REMARK SMILES IDX 10 34 20 35 21 36 22 37 23 38 24 39 25 41 26 42 27 43 91 44
REMARK SMILES IDX 28 45 90 46 29 47 30 48 31 49 84 50 32 51 89 52 83 53 85 54
REMARK SMILES IDX 33 55 88 56 82 57 81 58 34 60 68 61 47 62 67 63 48 64 51 65
REMARK SMILES IDX 66 66 86 67 49 68 50 69 65 71 87 72 52 73 35 74 36 75 45 76
REMARK SMILES IDX 37 77 38 78 44 79 46 80 39 81 40 82 41 83 42 84 43 85 69 86
REMARK SMILES IDX 70 87 79 88 71 89 72 90 78 91 80 92 73 93 74 94 75 95 76 96
REMARK SMILES IDX 77 97 53 98 54 99 63 100 55 101 56 102 62 103 64 104 57 105
REMARK SMILES IDX 58 106 59 107 60 108 61 109
REMARK H PARENT 18 5 104 18 23 40 85 59 51 70
REMARK Flexibility Score: inf
ROOT
ATOM      1  C   UNL A   1      33.402  32.167  27.674  1.00  0.00     0.116 C 
ENDROOT
BRANCH   1   2
ATOM      2  N   UNL A   1      34.445  31.332  28.233  1.00  0.00    -0.352 N 
ATOM      3  C   UNL A   1      34.806  30.033  27.994  1.00  0.00     0.251 C 
ATOM      4  O   UNL A   1      35.753  29.582  28.640  1.00  0.00    -0.269 OA
ATOM      5  H   UNL A   1      34.998  31.783  28.911  1.00  0.00     0.163 HD
BRANCH   3   6
ATOM      6  C   UNL A   1      34.155  29.164  26.968  1.00  0.00     0.039 A 
ATOM      7  C   UNL A   1      32.852  27.372  25.207  1.00  0.00    -0.035 A 
ATOM      8  C   UNL A   1      32.425  27.504  26.538  1.00  0.00     0.005 A 
ATOM      9  C   UNL A   1      33.894  28.185  24.757  1.00  0.00     0.005 A 
ATOM     10  C   UNL A   1      33.078  28.381  27.407  1.00  0.00     0.014 A 
ATOM     11  C   UNL A   1      34.515  29.090  25.621  1.00  0.00     0.014 A 
BRANCH   7  12
ATOM     12  C   UNL A   1      32.186  26.389  24.242  1.00  0.00     0.098 C 
ATOM     13  C   UNL A   1      28.268  26.405  24.254  1.00  0.00     0.065 C 
ATOM     14  C   UNL A   1      29.720  26.046  24.426  1.00  0.00     0.025 C 
ATOM     15  C   UNL A   1      30.745  26.814  23.994  1.00  0.00     0.068 C 
ATOM     16  N   UNL A   1      29.989  24.826  25.034  1.00  0.00    -0.344 N 
ATOM     17  C   UNL A   1      31.244  24.246  25.157  1.00  0.00     0.123 A 
ATOM     18  H   UNL A   1      29.225  24.331  25.410  1.00  0.00     0.168 HD
ATOM     19  C   UNL A   1      32.309  24.965  24.761  1.00  0.00     0.071 A 
ATOM     20  N   UNL A   1      31.436  22.968  25.664  1.00  0.00    -0.282 N 
ATOM     21  C   UNL A   1      33.664  24.383  24.816  1.00  0.00     0.262 A 
ATOM     22  C   UNL A   1      30.281  22.154  26.019  1.00  0.00     0.157 C 
ATOM     23  C   UNL A   1      32.699  22.415  25.876  1.00  0.00     0.332 A 
ATOM     24  N   UNL A   1      33.781  23.194  25.499  1.00  0.00    -0.263 N 
ATOM     25  O   UNL A   1      34.603  24.948  24.259  1.00  0.00    -0.269 OA
ATOM     26  O   UNL A   1      32.852  21.289  26.353  1.00  0.00    -0.247 OA
ATOM     27  C   UNL A   1      35.106  22.649  25.725  1.00  0.00     0.158 C 
BRANCH  15  28
ATOM     28  C   UNL A   1      30.610  28.075  23.221  1.00  0.00     0.336 C 
ATOM     29  O   UNL A   1      30.864  28.143  22.030  1.00  0.00    -0.246 OA
BRANCH  28  30
ATOM     30  O   UNL A   1      30.239  29.107  24.017  1.00  0.00    -0.462 OA
BRANCH  30  31
ATOM     31  C   UNL A   1      29.832  30.316  23.351  1.00  0.00     0.236 C 
BRANCH  31  32
ATOM     32  C   UNL A   1      28.319  30.306  23.093  1.00  0.00     0.021 C 
ATOM     33  C   UNL A   1      27.649  31.585  23.594  1.00  0.00     0.011 C 
ATOM     34  C   UNL A   1      28.035  30.114  21.605  1.00  0.00     0.011 C 
ENDBRANCH  31  32
ENDBRANCH  30  31
ENDBRANCH  28  30
ENDBRANCH  15  28
ENDBRANCH   7  12
ENDBRANCH   3   6
ENDBRANCH   1   2
BRANCH   1  35
ATOM     35  C   UNL A   1      33.841  33.633  27.670  1.00  0.00     0.023 C 
BRANCH  35  36
ATOM     36  C   UNL A   1      32.892  34.565  28.423  1.00  0.00     0.023 C 
BRANCH  36  37
ATOM     37  C   UNL A   1      33.531  35.319  29.581  1.00  0.00     0.116 C 
BRANCH  37  38
ATOM     38  N   UNL A   1      32.565  35.780  30.567  1.00  0.00    -0.352 N 
ATOM     39  C   UNL A   1      32.613  35.614  31.931  1.00  0.00     0.251 C 
ATOM     40  H   UNL A   1      31.785  36.268  30.217  1.00  0.00     0.163 HD
ATOM     41  O   UNL A   1      31.674  35.958  32.639  1.00  0.00    -0.269 OA
BRANCH  39  42
ATOM     42  C   UNL A   1      33.807  34.975  32.512  1.00  0.00     0.039 A 
ATOM     43  C   UNL A   1      33.709  33.668  32.988  1.00  0.00     0.014 A 
ATOM     44  C   UNL A   1      35.036  35.642  32.492  1.00  0.00     0.014 A 
ATOM     45  C   UNL A   1      34.866  33.002  33.391  1.00  0.00     0.010 A 
ATOM     46  C   UNL A   1      36.195  34.952  32.822  1.00  0.00     0.010 A 
ATOM     47  C   UNL A   1      36.120  33.627  33.278  1.00  0.00    -0.014 A 
BRANCH  47  48
ATOM     48  C   UNL A   1      37.363  32.915  33.661  1.00  0.00     0.031 A 
ATOM     49  C   UNL A   1      38.060  33.280  34.943  1.00  0.00     0.074 A 
ATOM     50  C   UNL A   1      37.871  31.964  32.851  1.00  0.00     0.049 A 
ATOM     51  N   UNL A   1      39.173  32.809  35.438  1.00  0.00    -0.248 NA
ATOM     52  C   UNL A   1      37.431  34.325  35.771  1.00  0.00     0.031 C 
ATOM     53  C   UNL A   1      37.294  31.545  31.571  1.00  0.00     0.029 A 
ATOM     54  N   UNL A   1      38.983  31.172  32.986  1.00  0.00    -0.354 N 
ATOM     55  C   UNL A   1      39.370  33.486  36.635  1.00  0.00     0.074 A 
ATOM     56  C   UNL A   1      38.304  34.455  36.758  1.00  0.00     0.031 C 
ATOM     57  C   UNL A   1      38.031  30.543  31.062  1.00  0.00     0.029 A 
ATOM     58  C   UNL A   1      39.154  30.276  31.956  1.00  0.00     0.049 A 
ATOM     59  H   UNL A   1      39.601  31.239  33.749  1.00  0.00     0.167 HD
ATOM     60  C   UNL A   1      40.328  33.288  37.569  1.00  0.00     0.037 A 
ATOM     61  C   UNL A   1      40.108  29.345  31.760  1.00  0.00     0.037 A 
ATOM     62  C   UNL A   1      41.372  32.306  37.454  1.00  0.00     0.049 A 
ATOM     63  C   UNL A   1      41.199  29.193  32.789  1.00  0.00     0.074 A 
ATOM     64  C   UNL A   1      42.385  32.022  38.351  1.00  0.00     0.029 A 
ATOM     65  N   UNL A   1      41.528  31.440  36.383  1.00  0.00    -0.354 N 
ATOM     66  N   UNL A   1      41.353  29.824  33.929  1.00  0.00    -0.248 NA
ATOM     67  C   UNL A   1      42.249  28.204  32.505  1.00  0.00     0.031 C 
ATOM     68  C   UNL A   1      43.176  31.007  37.808  1.00  0.00     0.029 A 
ATOM     69  C   UNL A   1      42.629  30.628  36.592  1.00  0.00     0.049 A 
ATOM     70  H   UNL A   1      40.944  31.407  35.591  1.00  0.00     0.167 HD
ATOM     71  C   UNL A   1      42.494  29.285  34.512  1.00  0.00     0.074 A 
ATOM     72  C   UNL A   1      42.984  28.267  33.606  1.00  0.00     0.031 C 
ATOM     73  C   UNL A   1      43.087  29.603  35.688  1.00  0.00     0.037 A 
BRANCH  60  74
ATOM     74  C   UNL A   1      40.269  34.114  38.823  1.00  0.00     0.058 A 
ATOM     75  C   UNL A   1      39.562  33.668  39.950  1.00  0.00     0.135 A 
ATOM     76  C   UNL A   1      40.991  35.313  38.931  1.00  0.00     0.135 A 
ATOM     77  F   UNL A   1      38.837  32.540  39.891  1.00  0.00    -0.206 F 
ATOM     78  C   UNL A   1      39.574  34.380  41.143  1.00  0.00     0.059 A 
ATOM     79  C   UNL A   1      41.038  36.030  40.124  1.00  0.00     0.059 A 
ATOM     80  F   UNL A   1      41.676  35.788  37.879  1.00  0.00    -0.206 F 
ATOM     81  C   UNL A   1      40.324  35.554  41.224  1.00  0.00     0.060 A 
BRANCH  81  82
ATOM     82  S   UNL A   1      40.374  36.430  42.802  1.00  0.00     0.124 S 
ATOM     83  O   UNL A   1      39.668  37.665  42.472  1.00  0.00    -0.237 OA
ATOM     84  O   UNL A   1      39.664  35.511  43.686  1.00  0.00    -0.237 OA
ATOM     85  O   UNL A   1      41.801  36.577  43.066  1.00  0.00    -0.744 OA
ENDBRANCH  81  82
ENDBRANCH  60  74
BRANCH  61  86
ATOM     86  C   UNL A   1      40.073  28.457  30.565  1.00  0.00     0.058 A 
ATOM     87  C   UNL A   1      39.274  27.303  30.554  1.00  0.00     0.135 A 
ATOM     88  C   UNL A   1      40.858  28.716  29.431  1.00  0.00     0.135 A 
ATOM     89  F   UNL A   1      38.508  27.008  31.615  1.00  0.00    -0.206 F 
ATOM     90  C   UNL A   1      39.281  26.419  29.480  1.00  0.00     0.059 A 
ATOM     91  C   UNL A   1      40.862  27.862  28.332  1.00  0.00     0.059 A 
ATOM     92  F   UNL A   1      41.630  29.813  29.383  1.00  0.00    -0.206 F 
ATOM     93  C   UNL A   1      40.083  26.706  28.374  1.00  0.00     0.060 A 
BRANCH  93  94
ATOM     94  S   UNL A   1      40.087  25.548  26.987  1.00  0.00     0.124 S 
ATOM     95  O   UNL A   1      38.663  25.271  26.833  1.00  0.00    -0.237 OA
ATOM     96  O   UNL A   1      40.702  26.344  25.929  1.00  0.00    -0.237 OA
ATOM     97  O   UNL A   1      40.897  24.438  27.478  1.00  0.00    -0.744 OA
ENDBRANCH  93  94
ENDBRANCH  61  86
BRANCH  73  98
ATOM     98  C   UNL A   1      44.310  28.827  36.088  1.00  0.00     0.058 A 
ATOM     99  C   UNL A   1      44.213  27.606  36.771  1.00  0.00     0.135 A 
ATOM    100  C   UNL A   1      45.588  29.269  35.707  1.00  0.00     0.135 A 
ATOM    101  F   UNL A   1      43.015  27.142  37.160  1.00  0.00    -0.206 F 
ATOM    102  C   UNL A   1      45.343  26.854  37.075  1.00  0.00     0.059 A 
ATOM    103  C   UNL A   1      46.729  28.520  35.976  1.00  0.00     0.059 A 
ATOM    104  F   UNL A   1      45.734  30.426  35.042  1.00  0.00    -0.206 F 
ATOM    105  C   UNL A   1      46.596  27.316  36.666  1.00  0.00     0.060 A 
BRANCH 105 106
ATOM    106  S   UNL A   1      48.044  26.299  37.021  1.00  0.00     0.124 S 
ATOM    107  O   UNL A   1      47.746  25.088  36.264  1.00  0.00    -0.237 OA
ATOM    108  O   UNL A   1      49.133  27.119  36.503  1.00  0.00    -0.237 OA
ATOM    109  O   UNL A   1      48.011  26.154  38.474  1.00  0.00    -0.744 OA
ENDBRANCH 105 106
ENDBRANCH  73  98
ENDBRANCH  47  48
ENDBRANCH  39  42
ENDBRANCH  37  38
ENDBRANCH  36  37
ENDBRANCH  35  36
ENDBRANCH   1  35
TORSDOF 19
ENDMDL
MODEL 2
REMARK VINA RESULT:     -11.4      3.073      9.275
REMARK SMILES CC1=C(C(=O)OCC(C)C)[C@@H](c2ccc(C(=O)NCCCCNC(=O)c3ccc(-c4c5nc(c(-c6c(F)cc(S(=O)(=O)[O-])cc6F)c6ccc([nH]6)c(-c6c(F)cc(S(=O)(=O)[O-])cc6F)c6nc(c(-c7c(F)cc(S(=O)(=O)[O-])cc7F)c7ccc4[nH]7)C=C6)C=C5)cc3)cc2)c2c(n(C)c(=O)n(C)c2=O)N1
REMARK SMILES IDX 19 1 18 2 16 3 17 4 15 6 12 7 13 8 93 9 14 10 92 11 11 12
REMARK SMILES IDX 1 13 2 14 3 15 104 16 95 17 94 19 96 20 102 21 97 22 98 23
REMARK SMILES IDX 100 24 103 25 99 26 101 27 4 28 5 29 6 30 7 31 8 32 9 33
REMARK SMILES IDX 10 34 20 35 21 36 22 37 23 38 24 39 25 41 26 42 27 43 91 44
REMARK SMILES IDX 28 45 90 46 29 47 30 48 31 49 84 50 32 51 89 52 83 53 85 54
REMARK SMILES IDX 33 55 88 56 82 57 81 58 34 60 68 61 47 62 67 63 48 64 51 65
REMARK SMILES IDX 66 66 86 67 49 68 50 69 65 71 87 72 52 73 35 74 36 75 45 76
REMARK SMILES IDX 37 77 38 78 44 79 46 80 39 81 40 82 41 83 42 84 43 85 69 86
REMARK SMILES IDX 70 87 79 88 71 89 72 90 78 91 80 92 73 93 74 94 75 95 76 96
REMARK SMILES IDX 77 97 53 98 54 99 63 100 55 101 56 102 62 103 64 104 57 105
REMARK SMILES IDX 58 106 59 107 60 108 61 109
REMARK H PARENT 18 5 104 18 23 40 85 59 51 70
REMARK Flexibility Score: inf
ROOT
ATOM      1  C   UNL A   1      39.843  23.606  26.458  1.00  0.00     0.116 C 
ENDROOT
BRANCH   1   2
ATOM      2  N   UNL A   1      39.852  22.191  26.156  1.00  0.00    -0.352 N 
ATOM      3  C   UNL A   1      38.879  21.346  25.690  1.00  0.00     0.251 C 
ATOM      4  O   UNL A   1      39.187  20.164  25.530  1.00  0.00    -0.269 OA
ATOM      5  H   UNL A   1      40.719  21.753  26.314  1.00  0.00     0.163 HD
BRANCH   3   6
ATOM      6  C   UNL A   1      37.501  21.789  25.321  1.00  0.00     0.039 A 
ATOM      7  C   UNL A   1      34.808  22.487  24.804  1.00  0.00    -0.035 A 
ATOM      8  C   UNL A   1      35.214  22.116  26.095  1.00  0.00     0.005 A 
ATOM      9  C   UNL A   1      35.771  22.560  23.795  1.00  0.00     0.005 A 
ATOM     10  C   UNL A   1      36.542  21.761  26.343  1.00  0.00     0.014 A 
ATOM     11  C   UNL A   1      37.105  22.243  24.061  1.00  0.00     0.014 A 
BRANCH   7  12
ATOM     12  C   UNL A   1      33.353  22.840  24.489  1.00  0.00     0.098 C 
ATOM     13  C   UNL A   1      31.731  20.840  21.536  1.00  0.00     0.065 C 
ATOM     14  C   UNL A   1      32.338  21.908  22.407  1.00  0.00     0.025 C 
ATOM     15  C   UNL A   1      32.714  21.711  23.691  1.00  0.00     0.068 C 
ATOM     16  N   UNL A   1      32.470  23.170  21.841  1.00  0.00    -0.344 N 
ATOM     17  C   UNL A   1      32.868  24.317  22.514  1.00  0.00     0.123 A 
ATOM     18  H   UNL A   1      32.264  23.258  20.882  1.00  0.00     0.168 HD
ATOM     19  C   UNL A   1      33.270  24.188  23.790  1.00  0.00     0.071 A 
ATOM     20  N   UNL A   1      32.862  25.574  21.925  1.00  0.00    -0.282 N 
ATOM     21  C   UNL A   1      33.654  25.379  24.574  1.00  0.00     0.262 A 
ATOM     22  C   UNL A   1      32.351  25.732  20.570  1.00  0.00     0.157 C 
ATOM     23  C   UNL A   1      33.346  26.716  22.564  1.00  0.00     0.332 A 
ATOM     24  N   UNL A   1      33.795  26.548  23.863  1.00  0.00    -0.263 N 
ATOM     25  O   UNL A   1      33.812  25.293  25.791  1.00  0.00    -0.269 OA
ATOM     26  O   UNL A   1      33.360  27.821  22.016  1.00  0.00    -0.247 OA
ATOM     27  C   UNL A   1      34.321  27.716  24.544  1.00  0.00     0.158 C 
BRANCH  15  28
ATOM     28  C   UNL A   1      32.519  20.459  24.464  1.00  0.00     0.336 C 
ATOM     29  O   UNL A   1      31.723  20.375  25.384  1.00  0.00    -0.246 OA
BRANCH  28  30
ATOM     30  O   UNL A   1      33.367  19.485  24.051  1.00  0.00    -0.462 OA
BRANCH  30  31
ATOM     31  C   UNL A   1      33.474  18.327  24.900  1.00  0.00     0.236 C 
BRANCH  31  32
ATOM     32  C   UNL A   1      34.420  17.290  24.279  1.00  0.00     0.021 C 
ATOM     33  C   UNL A   1      34.482  16.009  25.109  1.00  0.00     0.011 C 
ATOM     34  C   UNL A   1      33.990  16.967  22.849  1.00  0.00     0.011 C 
ENDBRANCH  31  32
ENDBRANCH  30  31
ENDBRANCH  28  30
ENDBRANCH  15  28
ENDBRANCH   7  12
ENDBRANCH   3   6
ENDBRANCH   1   2
BRANCH   1  35
ATOM     35  C   UNL A   1      41.169  24.020  27.102  1.00  0.00     0.023 C 
BRANCH  35  36
ATOM     36  C   UNL A   1      42.401  23.611  26.296  1.00  0.00     0.023 C 
BRANCH  36  37
ATOM     37  C   UNL A   1      43.504  24.660  26.249  1.00  0.00     0.116 C 
BRANCH  37  38
ATOM     38  N   UNL A   1      43.336  25.619  25.168  1.00  0.00    -0.352 N 
ATOM     39  C   UNL A   1      42.904  26.921  25.259  1.00  0.00     0.251 C 
ATOM     40  H   UNL A   1      43.557  25.298  24.263  1.00  0.00     0.163 HD
ATOM     41  O   UNL A   1      42.702  27.589  24.252  1.00  0.00    -0.269 OA
BRANCH  39  42
ATOM     42  C   UNL A   1      42.653  27.477  26.600  1.00  0.00     0.039 A 
ATOM     43  C   UNL A   1      43.357  28.610  27.005  1.00  0.00     0.014 A 
ATOM     44  C   UNL A   1      41.651  26.928  27.407  1.00  0.00     0.014 A 
ATOM     45  C   UNL A   1      43.012  29.235  28.202  1.00  0.00     0.010 A 
ATOM     46  C   UNL A   1      41.260  27.595  28.561  1.00  0.00     0.010 A 
ATOM     47  C   UNL A   1      41.939  28.752  28.971  1.00  0.00    -0.014 A 
BRANCH  47  48
ATOM     48  C   UNL A   1      41.533  29.432  30.225  1.00  0.00     0.031 A 
ATOM     49  C   UNL A   1      42.359  29.248  31.468  1.00  0.00     0.074 A 
ATOM     50  C   UNL A   1      40.418  30.190  30.248  1.00  0.00     0.049 A 
ATOM     51  N   UNL A   1      42.156  29.720  32.669  1.00  0.00    -0.248 NA
ATOM     52  C   UNL A   1      43.565  28.408  31.350  1.00  0.00     0.031 C 
ATOM     53  C   UNL A   1      39.525  30.420  29.109  1.00  0.00     0.029 A 
ATOM     54  N   UNL A   1      39.848  30.915  31.264  1.00  0.00    -0.354 N 
ATOM     55  C   UNL A   1      43.209  29.249  33.442  1.00  0.00     0.074 A 
ATOM     56  C   UNL A   1      44.010  28.392  32.597  1.00  0.00     0.031 C 
ATOM     57  C   UNL A   1      38.547  31.264  29.478  1.00  0.00     0.029 A 
ATOM     58  C   UNL A   1      38.718  31.604  30.887  1.00  0.00     0.049 A 
ATOM     59  H   UNL A   1      40.213  30.939  32.177  1.00  0.00     0.167 HD
ATOM     60  C   UNL A   1      43.507  29.540  34.729  1.00  0.00     0.037 A 
ATOM     61  C   UNL A   1      37.917  32.420  31.600  1.00  0.00     0.037 A 
ATOM     62  C   UNL A   1      42.721  30.412  35.559  1.00  0.00     0.049 A 
ATOM     63  C   UNL A   1      38.240  32.672  33.050  1.00  0.00     0.074 A 
ATOM     64  C   UNL A   1      42.945  30.778  36.874  1.00  0.00     0.029 A 
ATOM     65  N   UNL A   1      41.569  31.066  35.150  1.00  0.00    -0.354 N 
ATOM     66  N   UNL A   1      39.257  32.239  33.757  1.00  0.00    -0.248 NA
ATOM     67  C   UNL A   1      37.305  33.522  33.802  1.00  0.00     0.031 C 
ATOM     68  C   UNL A   1      41.909  31.626  37.272  1.00  0.00     0.029 A 
ATOM     69  C   UNL A   1      41.064  31.824  36.192  1.00  0.00     0.049 A 
ATOM     70  H   UNL A   1      41.169  31.002  34.252  1.00  0.00     0.167 HD
ATOM     71  C   UNL A   1      39.102  32.792  35.024  1.00  0.00     0.074 A 
ATOM     72  C   UNL A   1      37.902  33.601  34.983  1.00  0.00     0.031 C 
ATOM     73  C   UNL A   1      39.880  32.642  36.124  1.00  0.00     0.037 A 
BRANCH  60  74
ATOM     74  C   UNL A   1      44.761  28.950  35.311  1.00  0.00     0.058 A 
ATOM     75  C   UNL A   1      45.974  29.656  35.281  1.00  0.00     0.135 A 
ATOM     76  C   UNL A   1      44.735  27.716  35.979  1.00  0.00     0.135 A 
ATOM     77  F   UNL A   1      46.057  30.830  34.634  1.00  0.00    -0.206 F 
ATOM     78  C   UNL A   1      47.118  29.160  35.893  1.00  0.00     0.059 A 
ATOM     79  C   UNL A   1      45.862  27.212  36.621  1.00  0.00     0.059 A 
ATOM     80  F   UNL A   1      43.602  26.997  36.029  1.00  0.00    -0.206 F 
ATOM     81  C   UNL A   1      47.049  27.943  36.572  1.00  0.00     0.060 A 
BRANCH  81  82
ATOM     82  S   UNL A   1      48.532  27.347  37.412  1.00  0.00     0.124 S 
ATOM     83  O   UNL A   1      49.562  27.617  36.411  1.00  0.00    -0.237 OA
ATOM     84  O   UNL A   1      48.570  28.190  38.603  1.00  0.00    -0.237 OA
ATOM     85  O   UNL A   1      48.247  25.937  37.651  1.00  0.00    -0.744 OA
ENDBRANCH  81  82
ENDBRANCH  60  74
BRANCH  61  86
ATOM     86  C   UNL A   1      36.747  33.086  30.963  1.00  0.00     0.058 A 
ATOM     87  C   UNL A   1      36.930  34.149  30.064  1.00  0.00     0.135 A 
ATOM     88  C   UNL A   1      35.429  32.708  31.263  1.00  0.00     0.135 A 
ATOM     89  F   UNL A   1      38.171  34.552  29.747  1.00  0.00    -0.206 F 
ATOM     90  C   UNL A   1      35.854  34.836  29.514  1.00  0.00     0.059 A 
ATOM     91  C   UNL A   1      34.335  33.361  30.704  1.00  0.00     0.059 A 
ATOM     92  F   UNL A   1      35.197  31.689  32.105  1.00  0.00    -0.206 F 
ATOM     93  C   UNL A   1      34.558  34.437  29.844  1.00  0.00     0.060 A 
BRANCH  93  94
ATOM     94  S   UNL A   1      33.167  35.339  29.126  1.00  0.00     0.124 S 
ATOM     95  O   UNL A   1      33.853  36.364  28.349  1.00  0.00    -0.237 OA
ATOM     96  O   UNL A   1      32.493  34.297  28.358  1.00  0.00    -0.237 OA
ATOM     97  O   UNL A   1      32.437  35.817  30.297  1.00  0.00    -0.744 OA
ENDBRANCH  93  94
ENDBRANCH  61  86
BRANCH  73  98
ATOM     98  C   UNL A   1      39.485  33.390  37.366  1.00  0.00     0.058 A 
ATOM     99  C   UNL A   1      38.554  32.864  38.273  1.00  0.00     0.135 A 
ATOM    100  C   UNL A   1      40.111  34.604  37.694  1.00  0.00     0.135 A 
ATOM    101  F   UNL A   1      37.926  31.709  38.004  1.00  0.00    -0.206 F 
ATOM    102  C   UNL A   1      38.245  33.523  39.459  1.00  0.00     0.059 A 
ATOM    103  C   UNL A   1      39.838  35.266  38.887  1.00  0.00     0.059 A 
ATOM    104  F   UNL A   1      41.018  35.144  36.865  1.00  0.00    -0.206 F 
ATOM    105  C   UNL A   1      38.898  34.720  39.760  1.00  0.00     0.060 A 
BRANCH 105 106
ATOM    106  S   UNL A   1      38.525  35.531  41.328  1.00  0.00     0.124 S 
ATOM    107  O   UNL A   1      39.653  35.113  42.153  1.00  0.00    -0.237 OA
ATOM    108  O   UNL A   1      38.503  36.940  40.950  1.00  0.00    -0.237 OA
ATOM    109  O   UNL A   1      37.231  34.968  41.704  1.00  0.00    -0.744 OA
ENDBRANCH 105 106
ENDBRANCH  73  98
ENDBRANCH  47  48
ENDBRANCH  39  42
ENDBRANCH  37  38
ENDBRANCH  36  37
ENDBRANCH  35  36
ENDBRANCH   1  35
TORSDOF 19
ENDMDL
MODEL 3
REMARK VINA RESULT:     -11.4      3.031      9.671
REMARK SMILES CC1=C(C(=O)OCC(C)C)[C@@H](c2ccc(C(=O)NCCCCNC(=O)c3ccc(-c4c5nc(c(-c6c(F)cc(S(=O)(=O)[O-])cc6F)c6ccc([nH]6)c(-c6c(F)cc(S(=O)(=O)[O-])cc6F)c6nc(c(-c7c(F)cc(S(=O)(=O)[O-])cc7F)c7ccc4[nH]7)C=C6)C=C5)cc3)cc2)c2c(n(C)c(=O)n(C)c2=O)N1
REMARK SMILES IDX 19 1 18 2 16 3 17 4 15 6 12 7 13 8 93 9 14 10 92 11 11 12
REMARK SMILES IDX 1 13 2 14 3 15 104 16 95 17 94 19 96 20 102 21 97 22 98 23
REMARK SMILES IDX 100 24 103 25 99 26 101 27 4 28 5 29 6 30 7 31 8 32 9 33
REMARK SMILES IDX 10 34 20 35 21 36 22 37 23 38 24 39 25 41 26 42 27 43 91 44
REMARK SMILES IDX 28 45 90 46 29 47 30 48 31 49 84 50 32 51 89 52 83 53 85 54
REMARK SMILES IDX 33 55 88 56 82 57 81 58 34 60 68 61 47 62 67 63 48 64 51 65
REMARK SMILES IDX 66 66 86 67 49 68 50 69 65 71 87 72 52 73 35 74 36 75 45 76
REMARK SMILES IDX 37 77 38 78 44 79 46 80 39 81 40 82 41 83 42 84 43 85 69 86
REMARK SMILES IDX 70 87 79 88 71 89 72 90 78 91 80 92 73 93 74 94 75 95 76 96
REMARK SMILES IDX 77 97 53 98 54 99 63 100 55 101 56 102 62 103 64 104 57 105
REMARK SMILES IDX 58 106 59 107 60 108 61 109
REMARK H PARENT 18 5 104 18 23 40 85 59 51 70
REMARK Flexibility Score: inf
ROOT
ATOM      1  C   UNL A   1      39.471  23.390  27.123  1.00  0.00     0.116 C 
ENDROOT
BRANCH   1   2
ATOM      2  N   UNL A   1      39.618  22.073  26.539  1.00  0.00    -0.352 N 
ATOM      3  C   UNL A   1      38.760  21.293  25.810  1.00  0.00     0.251 C 
ATOM      4  O   UNL A   1      39.172  20.191  25.444  1.00  0.00    -0.269 OA
ATOM      5  H   UNL A   1      40.498  21.662  26.695  1.00  0.00     0.163 HD
BRANCH   3   6
ATOM      6  C   UNL A   1      37.392  21.725  25.396  1.00  0.00     0.039 A 
ATOM      7  C   UNL A   1      34.710  22.396  24.786  1.00  0.00    -0.035 A 
ATOM      8  C   UNL A   1      35.069  21.992  26.081  1.00  0.00     0.005 A 
ATOM      9  C   UNL A   1      35.714  22.516  23.822  1.00  0.00     0.005 A 
ATOM     10  C   UNL A   1      36.391  21.650  26.375  1.00  0.00     0.014 A 
ATOM     11  C   UNL A   1      37.041  22.212  24.135  1.00  0.00     0.014 A 
BRANCH   7  12
ATOM     12  C   UNL A   1      33.264  22.736  24.420  1.00  0.00     0.098 C 
ATOM     13  C   UNL A   1      31.781  20.755  21.382  1.00  0.00     0.065 C 
ATOM     14  C   UNL A   1      32.341  21.819  22.290  1.00  0.00     0.025 C 
ATOM     15  C   UNL A   1      32.671  21.610  23.584  1.00  0.00     0.068 C 
ATOM     16  N   UNL A   1      32.479  23.089  21.745  1.00  0.00    -0.344 N 
ATOM     17  C   UNL A   1      32.836  24.233  22.447  1.00  0.00     0.123 A 
ATOM     18  H   UNL A   1      32.309  23.188  20.780  1.00  0.00     0.168 HD
ATOM     19  C   UNL A   1      33.192  24.092  23.736  1.00  0.00     0.071 A 
ATOM     20  N   UNL A   1      32.837  25.497  21.874  1.00  0.00    -0.282 N 
ATOM     21  C   UNL A   1      33.530  25.277  24.549  1.00  0.00     0.262 A 
ATOM     22  C   UNL A   1      32.376  25.667  20.503  1.00  0.00     0.157 C 
ATOM     23  C   UNL A   1      33.282  26.636  22.546  1.00  0.00     0.332 A 
ATOM     24  N   UNL A   1      33.683  26.457  23.859  1.00  0.00    -0.263 N 
ATOM     25  O   UNL A   1      33.642  25.177  25.769  1.00  0.00    -0.269 OA
ATOM     26  O   UNL A   1      33.302  27.748  22.013  1.00  0.00    -0.247 OA
ATOM     27  C   UNL A   1      34.168  27.622  24.574  1.00  0.00     0.158 C 
BRANCH  15  28
ATOM     28  C   UNL A   1      32.462  20.345  24.333  1.00  0.00     0.336 C 
ATOM     29  O   UNL A   1      31.823  20.297  25.371  1.00  0.00    -0.246 OA
BRANCH  28  30
ATOM     30  O   UNL A   1      33.114  19.310  23.749  1.00  0.00    -0.462 OA
BRANCH  30  31
ATOM     31  C   UNL A   1      34.048  18.593  24.576  1.00  0.00     0.236 C 
BRANCH  31  32
ATOM     32  C   UNL A   1      33.973  17.086  24.293  1.00  0.00     0.021 C 
ATOM     33  C   UNL A   1      34.151  16.777  22.807  1.00  0.00     0.011 C 
ATOM     34  C   UNL A   1      35.020  16.337  25.114  1.00  0.00     0.011 C 
ENDBRANCH  31  32
ENDBRANCH  30  31
ENDBRANCH  28  30
ENDBRANCH  15  28
ENDBRANCH   7  12
ENDBRANCH   3   6
ENDBRANCH   1   2
BRANCH   1  35
ATOM     35  C   UNL A   1      40.842  23.959  27.499  1.00  0.00     0.023 C 
BRANCH  35  36
ATOM     36  C   UNL A   1      41.925  23.704  26.452  1.00  0.00     0.023 C 
BRANCH  36  37
ATOM     37  C   UNL A   1      43.082  24.692  26.483  1.00  0.00     0.116 C 
BRANCH  37  38
ATOM     38  N   UNL A   1      43.026  25.675  25.412  1.00  0.00    -0.352 N 
ATOM     39  C   UNL A   1      42.746  27.017  25.516  1.00  0.00     0.251 C 
ATOM     40  H   UNL A   1      43.211  25.340  24.504  1.00  0.00     0.163 HD
ATOM     41  O   UNL A   1      42.623  27.713  24.516  1.00  0.00    -0.269 OA
BRANCH  39  42
ATOM     42  C   UNL A   1      42.558  27.585  26.863  1.00  0.00     0.039 A 
ATOM     43  C   UNL A   1      43.358  28.656  27.262  1.00  0.00     0.014 A 
ATOM     44  C   UNL A   1      41.527  27.114  27.682  1.00  0.00     0.014 A 
ATOM     45  C   UNL A   1      43.080  29.300  28.466  1.00  0.00     0.010 A 
ATOM     46  C   UNL A   1      41.206  27.804  28.843  1.00  0.00     0.010 A 
ATOM     47  C   UNL A   1      41.982  28.901  29.248  1.00  0.00    -0.014 A 
BRANCH  47  48
ATOM     48  C   UNL A   1      41.648  29.605  30.510  1.00  0.00     0.031 A 
ATOM     49  C   UNL A   1      40.453  30.518  30.554  1.00  0.00     0.074 A 
ATOM     50  C   UNL A   1      42.426  29.440  31.599  1.00  0.00     0.049 A 
ATOM     51  N   UNL A   1      40.015  31.253  31.541  1.00  0.00    -0.248 NA
ATOM     52  C   UNL A   1      39.655  30.633  29.320  1.00  0.00     0.031 C 
ATOM     53  C   UNL A   1      43.624  28.599  31.665  1.00  0.00     0.029 A 
ATOM     54  N   UNL A   1      42.322  29.965  32.862  1.00  0.00    -0.354 N 
ATOM     55  C   UNL A   1      38.888  31.903  31.054  1.00  0.00     0.074 A 
ATOM     56  C   UNL A   1      38.751  31.538  29.663  1.00  0.00     0.031 C 
ATOM     57  C   UNL A   1      44.117  28.631  32.915  1.00  0.00     0.029 A 
ATOM     58  C   UNL A   1      43.296  29.524  33.728  1.00  0.00     0.049 A 
ATOM     59  H   UNL A   1      41.617  30.599  33.125  1.00  0.00     0.167 HD
ATOM     60  C   UNL A   1      38.020  32.699  31.720  1.00  0.00     0.037 A 
ATOM     61  C   UNL A   1      43.499  29.807  35.030  1.00  0.00     0.037 A 
ATOM     62  C   UNL A   1      38.146  33.040  33.111  1.00  0.00     0.049 A 
ATOM     63  C   UNL A   1      42.551  30.750  35.726  1.00  0.00     0.074 A 
ATOM     64  C   UNL A   1      37.313  33.832  33.879  1.00  0.00     0.029 A 
ATOM     65  N   UNL A   1      39.162  32.598  33.944  1.00  0.00    -0.354 N 
ATOM     66  N   UNL A   1      41.474  31.334  35.256  1.00  0.00    -0.248 NA
ATOM     67  C   UNL A   1      42.846  31.074  37.129  1.00  0.00     0.031 C 
ATOM     68  C   UNL A   1      37.843  33.898  35.170  1.00  0.00     0.029 A 
ATOM     69  C   UNL A   1      38.982  33.111  35.217  1.00  0.00     0.049 A 
ATOM     70  H   UNL A   1      39.902  32.007  33.672  1.00  0.00     0.167 HD
ATOM     71  C   UNL A   1      40.945  32.065  36.314  1.00  0.00     0.074 A 
ATOM     72  C   UNL A   1      41.812  31.839  37.452  1.00  0.00     0.031 C 
ATOM     73  C   UNL A   1      39.844  32.854  36.343  1.00  0.00     0.037 A 
BRANCH  60  74
ATOM     74  C   UNL A   1      36.827  33.221  30.969  1.00  0.00     0.058 A 
ATOM     75  C   UNL A   1      35.537  32.737  31.237  1.00  0.00     0.135 A 
ATOM     76  C   UNL A   1      36.958  34.267  30.043  1.00  0.00     0.135 A 
ATOM     77  F   UNL A   1      35.360  31.722  32.097  1.00  0.00    -0.206 F 
ATOM     78  C   UNL A   1      34.417  33.273  30.613  1.00  0.00     0.059 A 
ATOM     79  C   UNL A   1      35.849  34.836  29.425  1.00  0.00     0.059 A 
ATOM     80  F   UNL A   1      38.172  34.758  29.745  1.00  0.00    -0.206 F 
ATOM     81  C   UNL A   1      34.582  34.331  29.718  1.00  0.00     0.060 A 
BRANCH  81  82
ATOM     82  S   UNL A   1      33.107  35.052  28.966  1.00  0.00     0.124 S 
ATOM     83  O   UNL A   1      32.709  33.999  28.037  1.00  0.00    -0.237 OA
ATOM     84  O   UNL A   1      32.235  35.242  30.121  1.00  0.00    -0.237 OA
ATOM     85  O   UNL A   1      33.604  36.277  28.348  1.00  0.00    -0.744 OA
ENDBRANCH  81  82
ENDBRANCH  60  74
BRANCH  61  86
ATOM     86  C   UNL A   1      44.622  29.180  35.780  1.00  0.00     0.058 A 
ATOM     87  C   UNL A   1      45.899  29.762  35.777  1.00  0.00     0.135 A 
ATOM     88  C   UNL A   1      44.459  27.974  36.479  1.00  0.00     0.135 A 
ATOM     89  F   UNL A   1      46.109  30.913  35.119  1.00  0.00    -0.206 F 
ATOM     90  C   UNL A   1      46.981  29.157  36.408  1.00  0.00     0.059 A 
ATOM     91  C   UNL A   1      45.519  27.362  37.142  1.00  0.00     0.059 A 
ATOM     92  F   UNL A   1      43.256  27.381  36.527  1.00  0.00    -0.206 F 
ATOM     93  C   UNL A   1      46.781  27.953  37.085  1.00  0.00     0.060 A 
BRANCH  93  94
ATOM     94  S   UNL A   1      48.194  27.174  37.897  1.00  0.00     0.124 S 
ATOM     95  O   UNL A   1      47.659  25.856  38.217  1.00  0.00    -0.237 OA
ATOM     96  O   UNL A   1      49.209  27.216  36.848  1.00  0.00    -0.237 OA
ATOM     97  O   UNL A   1      48.448  28.048  39.040  1.00  0.00    -0.744 OA
ENDBRANCH  93  94
ENDBRANCH  61  86
BRANCH  73  98
ATOM     98  C   UNL A   1      39.487  33.509  37.648  1.00  0.00     0.058 A 
ATOM     99  C   UNL A   1      38.592  32.911  38.547  1.00  0.00     0.135 A 
ATOM    100  C   UNL A   1      40.114  34.703  38.038  1.00  0.00     0.135 A 
ATOM    101  F   UNL A   1      37.964  31.771  38.219  1.00  0.00    -0.206 F 
ATOM    102  C   UNL A   1      38.320  33.483  39.786  1.00  0.00     0.059 A 
ATOM    103  C   UNL A   1      39.878  35.278  39.284  1.00  0.00     0.059 A 
ATOM    104  F   UNL A   1      40.987  35.310  37.218  1.00  0.00    -0.206 F 
ATOM    105  C   UNL A   1      38.974  34.662  40.148  1.00  0.00     0.060 A 
BRANCH 105 106
ATOM    106  S   UNL A   1      38.649  35.358  41.781  1.00  0.00     0.124 S 
ATOM    107  O   UNL A   1      39.062  36.746  41.597  1.00  0.00    -0.237 OA
ATOM    108  O   UNL A   1      37.215  35.138  41.932  1.00  0.00    -0.237 OA
ATOM    109  O   UNL A   1      39.497  34.564  42.665  1.00  0.00    -0.744 OA
ENDBRANCH 105 106
ENDBRANCH  73  98
ENDBRANCH  47  48
ENDBRANCH  39  42
ENDBRANCH  37  38
ENDBRANCH  36  37
ENDBRANCH  35  36
ENDBRANCH   1  35
TORSDOF 19
ENDMDL
