MODEL 1
REMARK VINA RESULT:     -13.3      0.000      0.000
REMARK SMILES CCn1ncc(NC(=O)[C@@H]2CCCC[C@@H]2C(=O)NCCCCNC(=O)c2ccc(-c3c4nc(c(-c5c(F)cc(S(=O)(=O)[O-])cc5F)c5ccc([nH]5)c(-c5c(F)cc(S(=O)(=O)[O-])cc5F)c5nc(c(-c6c(F)cc(S(=O)(=O)[O-])cc6F)c6ccc3[nH]6)C=C5)C=C4)cc2)c1C(=O)Nc1cnn(C)c1C
REMARK SMILES IDX 20 1 19 2 18 3 16 4 17 5 15 7 10 8 11 9 12 10 14 11 13 12
REMARK SMILES IDX 8 13 7 14 9 16 6 17 3 18 4 19 92 20 5 21 2 22 1 23 93 24
REMARK SMILES IDX 94 25 95 26 96 28 97 29 101 30 98 31 99 32 102 33 100 34
REMARK SMILES IDX 21 35 22 36 23 37 24 38 25 40 26 41 27 42 91 43 28 44 90 45
REMARK SMILES IDX 29 46 30 47 31 48 84 49 32 50 89 51 83 52 85 53 33 54 88 55
REMARK SMILES IDX 82 56 81 57 34 59 68 60 47 61 67 62 48 63 51 64 66 65 86 66
REMARK SMILES IDX 49 67 50 68 65 70 87 71 52 72 35 73 36 74 45 75 37 76 38 77
REMARK SMILES IDX 44 78 46 79 39 80 40 81 41 82 42 83 43 84 69 85 70 86 79 87
REMARK SMILES IDX 71 88 72 89 78 90 80 91 73 92 74 93 75 94 76 95 77 96 53 97
REMARK SMILES IDX 54 98 63 99 55 100 56 101 62 102 64 103 57 104 58 105 59 106
REMARK SMILES IDX 60 107 61 108
REMARK H PARENT 18 6 7 15 95 27 23 39 85 58 51 69
REMARK Flexibility Score: inf
ROOT
ATOM      1  C   UNL A   1      32.298  27.336  26.818  1.00  0.00     0.023 C 
ENDROOT
BRANCH   1   2
ATOM      2  C   UNL A   1      33.364  26.482  26.133  1.00  0.00     0.116 C 
BRANCH   2   3
ATOM      3  N   UNL A   1      33.234  25.093  26.506  1.00  0.00    -0.356 N 
ATOM      4  C   UNL A   1      33.238  23.991  25.714  1.00  0.00     0.223 C 
ATOM      5  O   UNL A   1      32.608  23.019  26.137  1.00  0.00    -0.275 OA
ATOM      6  H   UNL A   1      33.126  24.922  27.469  1.00  0.00     0.163 HD
BRANCH   4   7
ATOM      7  C   UNL A   1      34.008  23.973  24.380  1.00  0.00     0.091 C 
ATOM      8  C   UNL A   1      33.806  22.599  23.666  1.00  0.00     0.091 C 
ATOM      9  C   UNL A   1      34.276  21.484  24.620  1.00  0.00     0.014 C 
ATOM     10  C   UNL A   1      35.762  21.650  24.908  1.00  0.00     0.001 C 
ATOM     11  C   UNL A   1      35.539  24.130  24.534  1.00  0.00     0.014 C 
ATOM     12  C   UNL A   1      36.146  23.032  25.406  1.00  0.00     0.001 C 
BRANCH   8  13
ATOM     13  C   UNL A   1      32.442  22.442  23.002  1.00  0.00     0.228 C 
ATOM     14  N   UNL A   1      31.811  23.476  22.366  1.00  0.00    -0.322 N 
ATOM     15  H   UNL A   1      30.939  23.227  21.982  1.00  0.00     0.170 HD
ATOM     16  O   UNL A   1      31.828  21.369  23.057  1.00  0.00    -0.274 OA
BRANCH  14  17
ATOM     17  C   UNL A   1      32.149  24.805  22.151  1.00  0.00     0.092 A 
ATOM     18  N   UNL A   1      32.881  26.822  22.397  1.00  0.00    -0.258 N 
ATOM     19  N   UNL A   1      33.325  26.478  21.162  1.00  0.00    -0.178 NA
ATOM     20  C   UNL A   1      31.828  26.008  22.803  1.00  0.00     0.150 A 
ATOM     21  C   UNL A   1      32.968  25.203  21.069  1.00  0.00     0.162 A 
BRANCH  18  22
ATOM     22  C   UNL A   1      33.829  27.565  23.220  1.00  0.00     0.142 C 
ATOM     23  C   UNL A   1      33.611  29.065  23.150  1.00  0.00     0.029 C 
ENDBRANCH  18  22
BRANCH  20  24
ATOM     24  C   UNL A   1      30.686  26.272  23.675  1.00  0.00     0.276 C 
ATOM     25  O   UNL A   1      30.269  25.396  24.440  1.00  0.00    -0.267 OA
ATOM     26  N   UNL A   1      30.147  27.527  23.870  1.00  0.00    -0.318 N 
ATOM     27  H   UNL A   1      29.989  27.762  24.812  1.00  0.00     0.170 HD
BRANCH  26  28
ATOM     28  C   UNL A   1      29.792  28.504  22.973  1.00  0.00     0.082 A 
ATOM     29  C   UNL A   1      30.605  29.245  22.099  1.00  0.00     0.161 A 
ATOM     30  C   UNL A   1      28.497  28.918  22.700  1.00  0.00     0.059 A 
ATOM     31  N   UNL A   1      29.904  30.131  21.388  1.00  0.00    -0.179 NA
ATOM     32  N   UNL A   1      28.649  30.011  21.875  1.00  0.00    -0.271 N 
ATOM     33  C   UNL A   1      27.172  28.536  23.257  1.00  0.00     0.068 C 
ATOM     34  C   UNL A   1      27.688  31.066  21.613  1.00  0.00     0.174 C 
ENDBRANCH  26  28
ENDBRANCH  20  24
ENDBRANCH  14  17
ENDBRANCH   8  13
ENDBRANCH   4   7
ENDBRANCH   2   3
ENDBRANCH   1   2
BRANCH   1  35
ATOM     35  C   UNL A   1      32.783  28.649  27.444  1.00  0.00     0.023 C 
BRANCH  35  36
ATOM     36  C   UNL A   1      34.035  29.215  26.801  1.00  0.00     0.116 C 
BRANCH  36  37
ATOM     37  N   UNL A   1      34.155  30.667  26.957  1.00  0.00    -0.352 N 
ATOM     38  C   UNL A   1      35.060  31.359  27.752  1.00  0.00     0.251 C 
ATOM     39  H   UNL A   1      33.522  31.216  26.439  1.00  0.00     0.163 HD
ATOM     40  O   UNL A   1      34.875  32.518  28.074  1.00  0.00    -0.269 OA
BRANCH  38  41
ATOM     41  C   UNL A   1      36.277  30.636  28.163  1.00  0.00     0.039 A 
ATOM     42  C   UNL A   1      36.497  29.284  27.889  1.00  0.00     0.014 A 
ATOM     43  C   UNL A   1      37.251  31.416  28.770  1.00  0.00     0.014 A 
ATOM     44  C   UNL A   1      37.747  28.746  28.191  1.00  0.00     0.010 A 
ATOM     45  C   UNL A   1      38.531  30.960  28.806  1.00  0.00     0.010 A 
ATOM     46  C   UNL A   1      38.758  29.602  28.650  1.00  0.00    -0.014 A 
BRANCH  46  47
ATOM     47  C   UNL A   1      40.107  29.152  28.955  1.00  0.00     0.031 A 
ATOM     48  C   UNL A   1      40.400  28.997  30.403  1.00  0.00     0.074 A 
ATOM     49  C   UNL A   1      40.896  28.640  27.981  1.00  0.00     0.049 A 
ATOM     50  N   UNL A   1      41.210  29.695  31.127  1.00  0.00    -0.248 NA
ATOM     51  C   UNL A   1      39.576  28.055  31.180  1.00  0.00     0.031 C 
ATOM     52  C   UNL A   1      40.583  28.423  26.557  1.00  0.00     0.029 A 
ATOM     53  N   UNL A   1      42.128  28.084  28.087  1.00  0.00    -0.354 N 
ATOM     54  C   UNL A   1      41.188  29.108  32.390  1.00  0.00     0.074 A 
ATOM     55  C   UNL A   1      40.016  28.274  32.420  1.00  0.00     0.031 C 
ATOM     56  C   UNL A   1      41.480  27.572  26.013  1.00  0.00     0.029 A 
ATOM     57  C   UNL A   1      42.533  27.343  26.980  1.00  0.00     0.049 A 
ATOM     58  H   UNL A   1      42.693  28.195  28.886  1.00  0.00     0.167 HD
ATOM     59  C   UNL A   1      42.281  29.144  33.205  1.00  0.00     0.037 A 
ATOM     60  C   UNL A   1      43.649  26.576  26.889  1.00  0.00     0.037 A 
ATOM     61  C   UNL A   1      43.232  30.129  32.746  1.00  0.00     0.049 A 
ATOM     62  C   UNL A   1      44.574  27.057  27.951  1.00  0.00     0.074 A 
ATOM     63  C   UNL A   1      43.186  31.492  32.525  1.00  0.00     0.029 A 
ATOM     64  N   UNL A   1      44.324  29.680  32.040  1.00  0.00    -0.354 N 
ATOM     65  N   UNL A   1      45.088  28.260  27.968  1.00  0.00    -0.248 NA
ATOM     66  C   UNL A   1      44.512  26.390  29.243  1.00  0.00     0.031 C 
ATOM     67  C   UNL A   1      43.916  31.693  31.316  1.00  0.00     0.029 A 
ATOM     68  C   UNL A   1      44.439  30.462  30.917  1.00  0.00     0.049 A 
ATOM     69  H   UNL A   1      44.916  28.934  32.293  1.00  0.00     0.167 HD
ATOM     70  C   UNL A   1      45.025  28.661  29.297  1.00  0.00     0.074 A 
ATOM     71  C   UNL A   1      44.719  27.440  30.043  1.00  0.00     0.031 C 
ATOM     72  C   UNL A   1      44.930  29.981  29.641  1.00  0.00     0.037 A 
BRANCH  59  73
ATOM     73  C   UNL A   1      42.666  28.047  34.173  1.00  0.00     0.058 A 
ATOM     74  C   UNL A   1      42.685  28.327  35.556  1.00  0.00     0.135 A 
ATOM     75  C   UNL A   1      43.280  26.832  33.794  1.00  0.00     0.135 A 
ATOM     76  F   UNL A   1      42.129  29.452  36.034  1.00  0.00    -0.206 F 
ATOM     77  C   UNL A   1      43.341  27.508  36.477  1.00  0.00     0.059 A 
ATOM     78  C   UNL A   1      43.891  25.975  34.702  1.00  0.00     0.059 A 
ATOM     79  F   UNL A   1      43.414  26.461  32.516  1.00  0.00    -0.206 F 
ATOM     80  C   UNL A   1      43.959  26.344  36.034  1.00  0.00     0.060 A 
BRANCH  80  81
ATOM     81  S   UNL A   1      44.917  25.352  37.192  1.00  0.00     0.124 S 
ATOM     82  O   UNL A   1      44.348  25.770  38.468  1.00  0.00    -0.237 OA
ATOM     83  O   UNL A   1      44.599  23.995  36.761  1.00  0.00    -0.237 OA
ATOM     84  O   UNL A   1      46.291  25.779  36.943  1.00  0.00    -0.744 OA
ENDBRANCH  80  81
ENDBRANCH  59  73
BRANCH  60  85
ATOM     85  C   UNL A   1      43.763  25.238  26.247  1.00  0.00     0.058 A 
ATOM     86  C   UNL A   1      44.750  24.960  25.286  1.00  0.00     0.135 A 
ATOM     87  C   UNL A   1      43.073  24.122  26.766  1.00  0.00     0.135 A 
ATOM     88  F   UNL A   1      45.474  25.959  24.759  1.00  0.00    -0.206 F 
ATOM     89  C   UNL A   1      45.054  23.651  24.881  1.00  0.00     0.059 A 
ATOM     90  C   UNL A   1      43.355  22.813  26.377  1.00  0.00     0.059 A 
ATOM     91  F   UNL A   1      42.151  24.264  27.730  1.00  0.00    -0.206 F 
ATOM     92  C   UNL A   1      44.356  22.581  25.443  1.00  0.00     0.060 A 
BRANCH  92  93
ATOM     93  S   UNL A   1      44.799  20.881  25.012  1.00  0.00     0.124 S 
ATOM     94  O   UNL A   1      43.837  20.113  25.796  1.00  0.00    -0.237 OA
ATOM     95  O   UNL A   1      44.611  20.868  23.566  1.00  0.00    -0.237 OA
ATOM     96  O   UNL A   1      46.182  20.766  25.468  1.00  0.00    -0.744 OA
ENDBRANCH  92  93
ENDBRANCH  60  85
BRANCH  72  97
ATOM     97  C   UNL A   1      45.146  31.023  28.565  1.00  0.00     0.058 A 
ATOM     98  C   UNL A   1      44.131  31.560  27.753  1.00  0.00     0.135 A 
ATOM     99  C   UNL A   1      46.411  31.620  28.472  1.00  0.00     0.135 A 
ATOM    100  F   UNL A   1      42.870  31.123  27.847  1.00  0.00    -0.206 F 
ATOM    101  C   UNL A   1      44.369  32.612  26.863  1.00  0.00     0.059 A 
ATOM    102  C   UNL A   1      46.666  32.688  27.614  1.00  0.00     0.059 A 
ATOM    103  F   UNL A   1      47.410  31.201  29.265  1.00  0.00    -0.206 F 
ATOM    104  C   UNL A   1      45.644  33.171  26.802  1.00  0.00     0.060 A 
BRANCH 104 105
ATOM    105  S   UNL A   1      45.941  34.568  25.696  1.00  0.00     0.124 S 
ATOM    106  O   UNL A   1      45.062  34.264  24.573  1.00  0.00    -0.237 OA
ATOM    107  O   UNL A   1      45.549  35.712  26.516  1.00  0.00    -0.237 OA
ATOM    108  O   UNL A   1      47.372  34.479  25.411  1.00  0.00    -0.744 OA
ENDBRANCH 104 105
ENDBRANCH  72  97
ENDBRANCH  46  47
ENDBRANCH  38  41
ENDBRANCH  36  37
ENDBRANCH  35  36
ENDBRANCH   1  35
TORSDOF 19
ENDMDL
MODEL 2
REMARK VINA RESULT:     -13.1      2.679      8.552
REMARK SMILES CCn1ncc(NC(=O)[C@@H]2CCCC[C@@H]2C(=O)NCCCCNC(=O)c2ccc(-c3c4nc(c(-c5c(F)cc(S(=O)(=O)[O-])cc5F)c5ccc([nH]5)c(-c5c(F)cc(S(=O)(=O)[O-])cc5F)c5nc(c(-c6c(F)cc(S(=O)(=O)[O-])cc6F)c6ccc3[nH]6)C=C5)C=C4)cc2)c1C(=O)Nc1cnn(C)c1C
REMARK SMILES IDX 20 1 19 2 18 3 16 4 17 5 15 7 10 8 11 9 12 10 14 11 13 12
REMARK SMILES IDX 8 13 7 14 9 16 6 17 3 18 4 19 92 20 5 21 2 22 1 23 93 24
REMARK SMILES IDX 94 25 95 26 96 28 97 29 101 30 98 31 99 32 102 33 100 34
REMARK SMILES IDX 21 35 22 36 23 37 24 38 25 40 26 41 27 42 91 43 28 44 90 45
REMARK SMILES IDX 29 46 30 47 31 48 84 49 32 50 89 51 83 52 85 53 33 54 88 55
REMARK SMILES IDX 82 56 81 57 34 59 68 60 47 61 67 62 48 63 51 64 66 65 86 66
REMARK SMILES IDX 49 67 50 68 65 70 87 71 52 72 35 73 36 74 45 75 37 76 38 77
REMARK SMILES IDX 44 78 46 79 39 80 40 81 41 82 42 83 43 84 69 85 70 86 79 87
REMARK SMILES IDX 71 88 72 89 78 90 80 91 73 92 74 93 75 94 76 95 77 96 53 97
REMARK SMILES IDX 54 98 63 99 55 100 56 101 62 102 64 103 57 104 58 105 59 106
REMARK SMILES IDX 60 107 61 108
REMARK H PARENT 18 6 7 15 95 27 23 39 85 58 51 69
REMARK Flexibility Score: inf
ROOT
ATOM      1  C   UNL A   1      38.257  23.913  26.057  1.00  0.00     0.023 C 
ENDROOT
BRANCH   1   2
ATOM      2  C   UNL A   1      36.742  24.111  26.076  1.00  0.00     0.116 C 
BRANCH   2   3
ATOM      3  N   UNL A   1      36.059  22.868  26.346  1.00  0.00    -0.356 N 
ATOM      4  C   UNL A   1      34.735  22.585  26.270  1.00  0.00     0.223 C 
ATOM      5  O   UNL A   1      34.329  21.692  27.018  1.00  0.00    -0.275 OA
ATOM      6  H   UNL A   1      36.637  22.122  26.626  1.00  0.00     0.163 HD
BRANCH   4   7
ATOM      7  C   UNL A   1      33.816  23.335  25.287  1.00  0.00     0.091 C 
ATOM      8  C   UNL A   1      32.327  22.943  25.544  1.00  0.00     0.091 C 
ATOM      9  C   UNL A   1      32.197  21.414  25.404  1.00  0.00     0.014 C 
ATOM     10  C   UNL A   1      32.554  20.998  23.984  1.00  0.00     0.001 C 
ATOM     11  C   UNL A   1      34.076  22.996  23.800  1.00  0.00     0.014 C 
ATOM     12  C   UNL A   1      33.905  21.505  23.511  1.00  0.00     0.001 C 
BRANCH   8  13
ATOM     13  C   UNL A   1      31.719  23.602  26.778  1.00  0.00     0.228 C 
ATOM     14  N   UNL A   1      31.607  24.959  26.908  1.00  0.00    -0.322 N 
ATOM     15  H   UNL A   1      31.193  25.239  27.756  1.00  0.00     0.170 HD
ATOM     16  O   UNL A   1      31.341  22.921  27.741  1.00  0.00    -0.274 OA
BRANCH  14  17
ATOM     17  C   UNL A   1      31.960  26.022  26.087  1.00  0.00     0.092 A 
ATOM     18  N   UNL A   1      31.996  27.917  25.053  1.00  0.00    -0.258 N 
ATOM     19  N   UNL A   1      33.286  27.750  25.441  1.00  0.00    -0.178 NA
ATOM     20  C   UNL A   1      31.307  26.709  25.050  1.00  0.00     0.150 A 
ATOM     21  C   UNL A   1      33.228  26.642  26.171  1.00  0.00     0.162 A 
BRANCH  18  22
ATOM     22  C   UNL A   1      31.468  29.269  25.197  1.00  0.00     0.142 C 
ATOM     23  C   UNL A   1      31.851  29.907  26.518  1.00  0.00     0.029 C 
ENDBRANCH  18  22
BRANCH  20  24
ATOM     24  C   UNL A   1      30.193  26.236  24.231  1.00  0.00     0.276 C 
ATOM     25  O   UNL A   1      29.919  25.032  24.184  1.00  0.00    -0.267 OA
ATOM     26  N   UNL A   1      29.264  27.072  23.648  1.00  0.00    -0.318 N 
ATOM     27  H   UNL A   1      28.328  26.798  23.779  1.00  0.00     0.170 HD
BRANCH  26  28
ATOM     28  C   UNL A   1      29.421  28.223  22.915  1.00  0.00     0.082 A 
ATOM     29  C   UNL A   1      30.521  28.644  22.150  1.00  0.00     0.161 A 
ATOM     30  C   UNL A   1      28.456  29.200  22.729  1.00  0.00     0.059 A 
ATOM     31  N   UNL A   1      30.318  29.840  21.593  1.00  0.00    -0.179 NA
ATOM     32  N   UNL A   1      29.115  30.219  22.076  1.00  0.00    -0.271 N 
ATOM     33  C   UNL A   1      27.070  29.369  23.243  1.00  0.00     0.068 C 
ATOM     34  C   UNL A   1      28.730  31.616  21.992  1.00  0.00     0.174 C 
ENDBRANCH  26  28
ENDBRANCH  20  24
ENDBRANCH  14  17
ENDBRANCH   8  13
ENDBRANCH   4   7
ENDBRANCH   2   3
ENDBRANCH   1   2
BRANCH   1  35
ATOM     35  C   UNL A   1      38.755  22.482  26.285  1.00  0.00     0.023 C 
BRANCH  35  36
ATOM     36  C   UNL A   1      39.980  22.388  27.174  1.00  0.00     0.116 C 
BRANCH  36  37
ATOM     37  N   UNL A   1      41.207  22.083  26.432  1.00  0.00    -0.352 N 
ATOM     38  C   UNL A   1      42.106  22.986  25.880  1.00  0.00     0.251 C 
ATOM     39  H   UNL A   1      41.418  21.129  26.310  1.00  0.00     0.163 HD
ATOM     40  O   UNL A   1      42.896  22.657  25.014  1.00  0.00    -0.269 OA
BRANCH  38  41
ATOM     41  C   UNL A   1      42.087  24.360  26.415  1.00  0.00     0.039 A 
ATOM     42  C   UNL A   1      41.386  25.408  25.813  1.00  0.00     0.014 A 
ATOM     43  C   UNL A   1      42.743  24.533  27.625  1.00  0.00     0.014 A 
ATOM     44  C   UNL A   1      41.315  26.626  26.490  1.00  0.00     0.010 A 
ATOM     45  C   UNL A   1      42.441  25.616  28.389  1.00  0.00     0.010 A 
ATOM     46  C   UNL A   1      41.849  26.713  27.783  1.00  0.00    -0.014 A 
BRANCH  46  47
ATOM     47  C   UNL A   1      41.791  27.921  28.590  1.00  0.00     0.031 A 
ATOM     48  C   UNL A   1      42.900  28.882  28.354  1.00  0.00     0.074 A 
ATOM     49  C   UNL A   1      40.660  28.244  29.260  1.00  0.00     0.049 A 
ATOM     50  N   UNL A   1      43.849  29.212  29.164  1.00  0.00    -0.248 NA
ATOM     51  C   UNL A   1      43.067  29.425  26.995  1.00  0.00     0.031 C 
ATOM     52  C   UNL A   1      39.369  27.535  29.290  1.00  0.00     0.029 A 
ATOM     53  N   UNL A   1      40.384  29.364  29.975  1.00  0.00    -0.354 N 
ATOM     54  C   UNL A   1      44.579  30.199  28.507  1.00  0.00     0.074 A 
ATOM     55  C   UNL A   1      44.200  30.117  27.121  1.00  0.00     0.031 C 
ATOM     56  C   UNL A   1      38.404  28.354  29.764  1.00  0.00     0.029 A 
ATOM     57  C   UNL A   1      39.034  29.563  30.251  1.00  0.00     0.049 A 
ATOM     58  H   UNL A   1      41.084  29.988  30.273  1.00  0.00     0.167 HD
ATOM     59  C   UNL A   1      45.226  31.179  29.200  1.00  0.00     0.037 A 
ATOM     60  C   UNL A   1      38.484  30.665  30.821  1.00  0.00     0.037 A 
ATOM     61  C   UNL A   1      45.341  30.831  30.597  1.00  0.00     0.049 A 
ATOM     62  C   UNL A   1      39.590  31.368  31.526  1.00  0.00     0.074 A 
ATOM     63  C   UNL A   1      45.910  29.779  31.290  1.00  0.00     0.029 A 
ATOM     64  N   UNL A   1      44.453  31.411  31.474  1.00  0.00    -0.354 N 
ATOM     65  N   UNL A   1      40.242  30.854  32.536  1.00  0.00    -0.248 NA
ATOM     66  C   UNL A   1      40.302  32.400  30.788  1.00  0.00     0.031 C 
ATOM     67  C   UNL A   1      44.978  29.477  32.328  1.00  0.00     0.029 A 
ATOM     68  C   UNL A   1      43.942  30.411  32.265  1.00  0.00     0.049 A 
ATOM     69  H   UNL A   1      44.226  32.368  31.525  1.00  0.00     0.167 HD
ATOM     70  C   UNL A   1      41.573  31.182  32.313  1.00  0.00     0.074 A 
ATOM     71  C   UNL A   1      41.537  32.190  31.253  1.00  0.00     0.031 C 
ATOM     72  C   UNL A   1      42.591  30.403  32.788  1.00  0.00     0.037 A 
BRANCH  59  73
ATOM     73  C   UNL A   1      45.411  32.599  28.709  1.00  0.00     0.058 A 
ATOM     74  C   UNL A   1      46.705  33.161  28.705  1.00  0.00     0.135 A 
ATOM     75  C   UNL A   1      44.353  33.514  28.512  1.00  0.00     0.135 A 
ATOM     76  F   UNL A   1      47.788  32.386  28.882  1.00  0.00    -0.206 F 
ATOM     77  C   UNL A   1      46.924  34.536  28.603  1.00  0.00     0.059 A 
ATOM     78  C   UNL A   1      44.553  34.881  28.352  1.00  0.00     0.059 A 
ATOM     79  F   UNL A   1      43.067  33.152  28.566  1.00  0.00    -0.206 F 
ATOM     80  C   UNL A   1      45.837  35.389  28.447  1.00  0.00     0.060 A 
BRANCH  80  81
ATOM     81  S   UNL A   1      46.100  37.170  28.443  1.00  0.00     0.124 S 
ATOM     82  O   UNL A   1      47.519  37.251  28.116  1.00  0.00    -0.237 OA
ATOM     83  O   UNL A   1      45.176  37.610  27.404  1.00  0.00    -0.237 OA
ATOM     84  O   UNL A   1      45.741  37.564  29.803  1.00  0.00    -0.744 OA
ENDBRANCH  80  81
ENDBRANCH  59  73
BRANCH  60  85
ATOM     85  C   UNL A   1      37.207  31.325  30.436  1.00  0.00     0.058 A 
ATOM     86  C   UNL A   1      36.294  31.791  31.398  1.00  0.00     0.135 A 
ATOM     87  C   UNL A   1      36.982  31.756  29.110  1.00  0.00     0.135 A 
ATOM     88  F   UNL A   1      36.447  31.453  32.687  1.00  0.00    -0.206 F 
ATOM     89  C   UNL A   1      35.237  32.654  31.072  1.00  0.00     0.059 A 
ATOM     90  C   UNL A   1      35.938  32.611  28.762  1.00  0.00     0.059 A 
ATOM     91  F   UNL A   1      37.823  31.420  28.121  1.00  0.00    -0.206 F 
ATOM     92  C   UNL A   1      35.074  33.068  29.749  1.00  0.00     0.060 A 
BRANCH  92  93
ATOM     93  S   UNL A   1      33.781  34.259  29.323  1.00  0.00     0.124 S 
ATOM     94  O   UNL A   1      33.297  34.658  30.641  1.00  0.00    -0.237 OA
ATOM     95  O   UNL A   1      34.520  35.267  28.573  1.00  0.00    -0.237 OA
ATOM     96  O   UNL A   1      32.832  33.465  28.545  1.00  0.00    -0.744 OA
ENDBRANCH  92  93
ENDBRANCH  60  85
BRANCH  72  97
ATOM     97  C   UNL A   1      42.258  29.308  33.778  1.00  0.00     0.058 A 
ATOM     98  C   UNL A   1      41.805  28.022  33.429  1.00  0.00     0.135 A 
ATOM     99  C   UNL A   1      42.572  29.521  35.127  1.00  0.00     0.135 A 
ATOM    100  F   UNL A   1      41.576  27.695  32.152  1.00  0.00    -0.206 F 
ATOM    101  C   UNL A   1      41.634  27.011  34.379  1.00  0.00     0.059 A 
ATOM    102  C   UNL A   1      42.438  28.521  36.088  1.00  0.00     0.059 A 
ATOM    103  F   UNL A   1      43.071  30.704  35.519  1.00  0.00    -0.206 F 
ATOM    104  C   UNL A   1      41.955  27.271  35.709  1.00  0.00     0.060 A 
BRANCH 104 105
ATOM    105  S   UNL A   1      41.793  25.950  36.931  1.00  0.00     0.124 S 
ATOM    106  O   UNL A   1      42.678  26.406  37.996  1.00  0.00    -0.237 OA
ATOM    107  O   UNL A   1      40.365  25.975  37.239  1.00  0.00    -0.237 OA
ATOM    108  O   UNL A   1      42.244  24.762  36.210  1.00  0.00    -0.744 OA
ENDBRANCH 104 105
ENDBRANCH  72  97
ENDBRANCH  46  47
ENDBRANCH  38  41
ENDBRANCH  36  37
ENDBRANCH  35  36
ENDBRANCH   1  35
TORSDOF 19
ENDMDL
MODEL 3
REMARK VINA RESULT:     -13.0      2.180      4.620
REMARK SMILES CCn1ncc(NC(=O)[C@@H]2CCCC[C@@H]2C(=O)NCCCCNC(=O)c2ccc(-c3c4nc(c(-c5c(F)cc(S(=O)(=O)[O-])cc5F)c5ccc([nH]5)c(-c5c(F)cc(S(=O)(=O)[O-])cc5F)c5nc(c(-c6c(F)cc(S(=O)(=O)[O-])cc6F)c6ccc3[nH]6)C=C5)C=C4)cc2)c1C(=O)Nc1cnn(C)c1C
REMARK SMILES IDX 20 1 19 2 18 3 16 4 17 5 15 7 10 8 11 9 12 10 14 11 13 12
REMARK SMILES IDX 8 13 7 14 9 16 6 17 3 18 4 19 92 20 5 21 2 22 1 23 93 24
REMARK SMILES IDX 94 25 95 26 96 28 97 29 101 30 98 31 99 32 102 33 100 34
REMARK SMILES IDX 21 35 22 36 23 37 24 38 25 40 26 41 27 42 91 43 28 44 90 45
REMARK SMILES IDX 29 46 30 47 31 48 84 49 32 50 89 51 83 52 85 53 33 54 88 55
REMARK SMILES IDX 82 56 81 57 34 59 68 60 47 61 67 62 48 63 51 64 66 65 86 66
REMARK SMILES IDX 49 67 50 68 65 70 87 71 52 72 35 73 36 74 45 75 37 76 38 77
REMARK SMILES IDX 44 78 46 79 39 80 40 81 41 82 42 83 43 84 69 85 70 86 79 87
REMARK SMILES IDX 71 88 72 89 78 90 80 91 73 92 74 93 75 94 76 95 77 96 53 97
REMARK SMILES IDX 54 98 63 99 55 100 56 101 62 102 64 103 57 104 58 105 59 106
REMARK SMILES IDX 60 107 61 108
REMARK H PARENT 18 6 7 15 95 27 23 39 85 58 51 69
REMARK Flexibility Score: inf
ROOT
ATOM      1  C   UNL A   1      33.723  29.465  27.375  1.00  0.00     0.023 C 
ENDROOT
BRANCH   1   2
ATOM      2  C   UNL A   1      34.454  28.892  26.162  1.00  0.00     0.116 C 
BRANCH   2   3
ATOM      3  N   UNL A   1      33.655  29.019  24.967  1.00  0.00    -0.356 N 
ATOM      4  C   UNL A   1      33.206  28.050  24.130  1.00  0.00     0.223 C 
ATOM      5  O   UNL A   1      33.026  28.388  22.958  1.00  0.00    -0.275 OA
ATOM      6  H   UNL A   1      33.402  29.938  24.724  1.00  0.00     0.163 HD
BRANCH   4   7
ATOM      7  C   UNL A   1      32.928  26.624  24.642  1.00  0.00     0.091 C 
ATOM      8  C   UNL A   1      32.382  25.737  23.479  1.00  0.00     0.091 C 
ATOM      9  C   UNL A   1      31.114  26.405  22.914  1.00  0.00     0.014 C 
ATOM     10  C   UNL A   1      30.045  26.472  23.996  1.00  0.00     0.001 C 
ATOM     11  C   UNL A   1      31.851  26.551  25.750  1.00  0.00     0.014 C 
ATOM     12  C   UNL A   1      30.510  27.121  25.288  1.00  0.00     0.001 C 
BRANCH   8  13
ATOM     13  C   UNL A   1      33.453  25.286  22.490  1.00  0.00     0.228 C 
ATOM     14  N   UNL A   1      34.279  24.224  22.735  1.00  0.00    -0.322 N 
ATOM     15  H   UNL A   1      34.918  24.048  22.007  1.00  0.00     0.170 HD
ATOM     16  O   UNL A   1      33.645  25.904  21.436  1.00  0.00    -0.274 OA
BRANCH  14  17
ATOM     17  C   UNL A   1      34.400  23.343  23.802  1.00  0.00     0.092 A 
ATOM     18  N   UNL A   1      34.786  21.597  25.012  1.00  0.00    -0.258 N 
ATOM     19  N   UNL A   1      35.309  22.609  25.750  1.00  0.00    -0.178 NA
ATOM     20  C   UNL A   1      33.871  22.071  24.078  1.00  0.00     0.150 A 
ATOM     21  C   UNL A   1      35.167  23.657  24.947  1.00  0.00     0.162 A 
BRANCH  18  22
ATOM     22  C   UNL A   1      35.579  20.374  24.974  1.00  0.00     0.142 C 
ATOM     23  C   UNL A   1      37.071  20.648  24.940  1.00  0.00     0.029 C 
ENDBRANCH  18  22
BRANCH  20  24
ATOM     24  C   UNL A   1      32.681  21.455  23.496  1.00  0.00     0.276 C 
ATOM     25  O   UNL A   1      31.836  22.149  22.919  1.00  0.00    -0.267 OA
ATOM     26  N   UNL A   1      32.518  20.093  23.351  1.00  0.00    -0.318 N 
ATOM     27  H   UNL A   1      32.205  19.811  22.462  1.00  0.00     0.170 HD
BRANCH  26  28
ATOM     28  C   UNL A   1      32.717  19.062  24.237  1.00  0.00     0.082 A 
ATOM     29  C   UNL A   1      32.433  19.006  25.611  1.00  0.00     0.161 A 
ATOM     30  C   UNL A   1      33.196  17.802  23.915  1.00  0.00     0.059 A 
ATOM     31  N   UNL A   1      32.789  17.839  26.152  1.00  0.00    -0.179 NA
ATOM     32  N   UNL A   1      33.380  17.180  25.131  1.00  0.00    -0.271 N 
ATOM     33  C   UNL A   1      33.671  17.190  22.645  1.00  0.00     0.068 C 
ATOM     34  C   UNL A   1      34.221  16.035  25.425  1.00  0.00     0.174 C 
ENDBRANCH  26  28
ENDBRANCH  20  24
ENDBRANCH  14  17
ENDBRANCH   8  13
ENDBRANCH   4   7
ENDBRANCH   2   3
ENDBRANCH   1   2
BRANCH   1  35
ATOM     35  C   UNL A   1      33.707  30.993  27.496  1.00  0.00     0.023 C 
BRANCH  35  36
ATOM     36  C   UNL A   1      34.939  31.573  28.164  1.00  0.00     0.116 C 
BRANCH  36  37
ATOM     37  N   UNL A   1      34.633  32.313  29.392  1.00  0.00    -0.352 N 
ATOM     38  C   UNL A   1      35.072  32.030  30.679  1.00  0.00     0.251 C 
ATOM     39  H   UNL A   1      34.049  33.099  29.294  1.00  0.00     0.163 HD
ATOM     40  O   UNL A   1      34.514  32.482  31.661  1.00  0.00    -0.269 OA
BRANCH  38  41
ATOM     41  C   UNL A   1      36.271  31.182  30.804  1.00  0.00     0.039 A 
ATOM     42  C   UNL A   1      36.233  29.786  30.759  1.00  0.00     0.014 A 
ATOM     43  C   UNL A   1      37.475  31.868  30.879  1.00  0.00     0.014 A 
ATOM     44  C   UNL A   1      37.444  29.095  30.735  1.00  0.00     0.010 A 
ATOM     45  C   UNL A   1      38.627  31.209  30.583  1.00  0.00     0.010 A 
ATOM     46  C   UNL A   1      38.637  29.825  30.646  1.00  0.00    -0.014 A 
BRANCH  46  47
ATOM     47  C   UNL A   1      39.950  29.203  30.573  1.00  0.00     0.031 A 
ATOM     48  C   UNL A   1      40.641  29.051  31.879  1.00  0.00     0.074 A 
ATOM     49  C   UNL A   1      40.343  28.560  29.448  1.00  0.00     0.049 A 
ATOM     50  N   UNL A   1      41.709  29.652  32.286  1.00  0.00    -0.248 NA
ATOM     51  C   UNL A   1      39.977  28.253  32.925  1.00  0.00     0.031 C 
ATOM     52  C   UNL A   1      39.595  28.347  28.196  1.00  0.00     0.029 A 
ATOM     53  N   UNL A   1      41.473  27.843  29.227  1.00  0.00    -0.354 N 
ATOM     54  C   UNL A   1      41.993  29.109  33.538  1.00  0.00     0.074 A 
ATOM     55  C   UNL A   1      40.791  28.445  33.965  1.00  0.00     0.031 C 
ATOM     56  C   UNL A   1      40.178  27.366  27.472  1.00  0.00     0.029 A 
ATOM     57  C   UNL A   1      41.434  27.022  28.104  1.00  0.00     0.049 A 
ATOM     58  H   UNL A   1      42.259  27.899  29.817  1.00  0.00     0.167 HD
ATOM     59  C   UNL A   1      43.275  29.018  33.993  1.00  0.00     0.037 A 
ATOM     60  C   UNL A   1      42.370  26.107  27.743  1.00  0.00     0.037 A 
ATOM     61  C   UNL A   1      44.159  29.849  33.210  1.00  0.00     0.049 A 
ATOM     62  C   UNL A   1      43.621  26.487  28.454  1.00  0.00     0.074 A 
ATOM     63  C   UNL A   1      44.217  31.200  32.921  1.00  0.00     0.029 A 
ATOM     64  N   UNL A   1      44.927  29.235  32.248  1.00  0.00    -0.354 N 
ATOM     65  N   UNL A   1      44.260  27.607  28.238  1.00  0.00    -0.248 NA
ATOM     66  C   UNL A   1      43.866  25.872  29.749  1.00  0.00     0.031 C 
ATOM     67  C   UNL A   1      44.572  31.264  31.540  1.00  0.00     0.029 A 
ATOM     68  C   UNL A   1      44.796  29.961  31.090  1.00  0.00     0.049 A 
ATOM     69  H   UNL A   1      45.471  28.422  32.368  1.00  0.00     0.167 HD
ATOM     70  C   UNL A   1      44.646  28.052  29.496  1.00  0.00     0.074 A 
ATOM     71  C   UNL A   1      44.429  26.906  30.381  1.00  0.00     0.031 C 
ATOM     72  C   UNL A   1      44.821  29.381  29.762  1.00  0.00     0.037 A 
BRANCH  59  73
ATOM     73  C   UNL A   1      43.794  27.906  34.879  1.00  0.00     0.058 A 
ATOM     74  C   UNL A   1      44.455  28.238  36.081  1.00  0.00     0.135 A 
ATOM     75  C   UNL A   1      43.919  26.559  34.472  1.00  0.00     0.135 A 
ATOM     76  F   UNL A   1      44.404  29.489  36.567  1.00  0.00    -0.206 F 
ATOM     77  C   UNL A   1      45.252  27.324  36.773  1.00  0.00     0.059 A 
ATOM     78  C   UNL A   1      44.662  25.620  35.177  1.00  0.00     0.059 A 
ATOM     79  F   UNL A   1      43.417  26.106  33.318  1.00  0.00    -0.206 F 
ATOM     80  C   UNL A   1      45.364  26.021  36.300  1.00  0.00     0.060 A 
BRANCH  80  81
ATOM     81  S   UNL A   1      46.489  24.876  37.113  1.00  0.00     0.124 S 
ATOM     82  O   UNL A   1      47.432  25.795  37.741  1.00  0.00    -0.237 OA
ATOM     83  O   UNL A   1      45.593  24.161  38.014  1.00  0.00    -0.237 OA
ATOM     84  O   UNL A   1      47.020  24.084  36.006  1.00  0.00    -0.744 OA
ENDBRANCH  80  81
ENDBRANCH  59  73
BRANCH  60  85
ATOM     85  C   UNL A   1      42.122  24.749  27.188  1.00  0.00     0.058 A 
ATOM     86  C   UNL A   1      43.010  24.146  26.281  1.00  0.00     0.135 A 
ATOM     87  C   UNL A   1      41.143  23.902  27.750  1.00  0.00     0.135 A 
ATOM     88  F   UNL A   1      43.989  24.871  25.718  1.00  0.00    -0.206 F 
ATOM     89  C   UNL A   1      42.948  22.780  25.967  1.00  0.00     0.059 A 
ATOM     90  C   UNL A   1      41.060  22.543  27.452  1.00  0.00     0.059 A 
ATOM     91  F   UNL A   1      40.280  24.356  28.671  1.00  0.00    -0.206 F 
ATOM     92  C   UNL A   1      41.974  21.983  26.569  1.00  0.00     0.060 A 
BRANCH  92  93
ATOM     93  S   UNL A   1      41.939  20.201  26.258  1.00  0.00     0.124 S 
ATOM     94  O   UNL A   1      42.354  19.664  27.550  1.00  0.00    -0.237 OA
ATOM     95  O   UNL A   1      40.549  19.977  25.881  1.00  0.00    -0.237 OA
ATOM     96  O   UNL A   1      42.918  20.026  25.187  1.00  0.00    -0.744 OA
ENDBRANCH  92  93
ENDBRANCH  60  85
BRANCH  72  97
ATOM     97  C   UNL A   1      44.833  30.353  28.603  1.00  0.00     0.058 A 
ATOM     98  C   UNL A   1      43.686  30.938  28.035  1.00  0.00     0.135 A 
ATOM     99  C   UNL A   1      46.072  30.836  28.160  1.00  0.00     0.135 A 
ATOM    100  F   UNL A   1      42.462  30.613  28.466  1.00  0.00    -0.206 F 
ATOM    101  C   UNL A   1      43.766  31.925  27.048  1.00  0.00     0.059 A 
ATOM    102  C   UNL A   1      46.178  31.839  27.199  1.00  0.00     0.059 A 
ATOM    103  F   UNL A   1      47.207  30.369  28.706  1.00  0.00    -0.206 F 
ATOM    104  C   UNL A   1      45.021  32.370  26.637  1.00  0.00     0.060 A 
BRANCH 104 105
ATOM    105  S   UNL A   1      45.128  33.687  25.405  1.00  0.00     0.124 S 
ATOM    106  O   UNL A   1      44.343  34.750  26.022  1.00  0.00    -0.237 OA
ATOM    107  O   UNL A   1      46.566  33.929  25.322  1.00  0.00    -0.237 OA
ATOM    108  O   UNL A   1      44.537  33.087  24.211  1.00  0.00    -0.744 OA
ENDBRANCH 104 105
ENDBRANCH  72  97
ENDBRANCH  46  47
ENDBRANCH  38  41
ENDBRANCH  36  37
ENDBRANCH  35  36
ENDBRANCH   1  35
TORSDOF 19
ENDMDL
