MODEL 1
REMARK VINA RESULT:     -12.7      0.000      0.000
REMARK SMILES Cc1ccc(-c2c[nH]c(=O)cc2C(=O)NCCCCNC(=O)c2ccc(-c3c4nc(c(-c5c(F)cc(S(=O)(=O)[O-])cc5F)c5ccc([nH]5)c(-c5c(F)cc(S(=O)(=O)[O-])cc5F)c5nc(c(-c6c(F)cc(S(=O)(=O)[O-])cc6F)c6ccc3[nH]6)C=C5)C=C4)cc2)cc1Cl
REMARK SMILES IDX 18 1 17 2 16 3 15 4 13 5 14 6 12 8 6 9 7 10 8 11 11 12 9 13
REMARK SMILES IDX 10 15 5 16 1 17 2 18 3 19 90 20 4 21 89 22 91 23 19 24 20 25
REMARK SMILES IDX 21 26 22 28 23 29 24 30 88 31 25 32 87 33 26 34 27 35 28 36
REMARK SMILES IDX 81 37 29 38 86 39 80 40 82 41 30 42 85 43 79 44 78 45 31 47
REMARK SMILES IDX 65 48 44 49 64 50 45 51 48 52 63 53 83 54 46 55 47 56 62 58
REMARK SMILES IDX 84 59 49 60 32 61 33 62 42 63 34 64 35 65 41 66 43 67 36 68
REMARK SMILES IDX 37 69 38 70 39 71 40 72 66 73 67 74 76 75 68 76 69 77 75 78
REMARK SMILES IDX 77 79 70 80 71 81 72 82 73 83 74 84 50 85 51 86 60 87 52 88
REMARK SMILES IDX 53 89 59 90 61 91 54 92 55 93 56 94 57 95 58 96
REMARK H PARENT 15 7 8 14 20 27 82 46 48 57
REMARK Flexibility Score: inf
ROOT
ATOM      1  C   UNL A   1      33.718  29.894  27.281  1.00  0.00     0.023 C 
ENDROOT
BRANCH   1   2
ATOM      2  C   UNL A   1      33.113  28.485  27.212  1.00  0.00     0.023 C 
BRANCH   2   3
ATOM      3  C   UNL A   1      31.588  28.460  27.331  1.00  0.00     0.116 C 
BRANCH   3   4
ATOM      4  N   UNL A   1      31.083  27.117  27.134  1.00  0.00    -0.352 N 
ATOM      5  C   UNL A   1      30.808  26.320  26.072  1.00  0.00     0.252 C 
ATOM      6  O   UNL A   1      30.382  25.208  26.395  1.00  0.00    -0.269 OA
ATOM      7  H   UNL A   1      30.891  26.668  27.988  1.00  0.00     0.163 HD
BRANCH   5   8
ATOM      8  C   UNL A   1      31.028  26.677  24.616  1.00  0.00     0.054 A 
ATOM      9  C   UNL A   1      32.204  26.123  23.888  1.00  0.00     0.011 A 
ATOM     10  C   UNL A   1      32.458  26.552  22.635  1.00  0.00     0.095 A 
ATOM     11  N   UNL A   1      31.649  27.462  22.015  1.00  0.00    -0.328 N 
ATOM     12  C   UNL A   1      30.182  27.468  23.932  1.00  0.00     0.086 A 
ATOM     13  C   UNL A   1      30.501  27.952  22.568  1.00  0.00     0.248 A 
ATOM     14  H   UNL A   1      31.907  27.781  21.121  1.00  0.00     0.169 HD
ATOM     15  O   UNL A   1      29.778  28.754  21.994  1.00  0.00    -0.270 OA
BRANCH   9  16
ATOM     16  C   UNL A   1      33.105  25.048  24.367  1.00  0.00    -0.015 A 
ATOM     17  C   UNL A   1      35.820  21.967  25.735  1.00  0.00     0.046 C 
ATOM     18  C   UNL A   1      34.853  23.019  25.271  1.00  0.00    -0.032 A 
ATOM     19  C   UNL A   1      35.129  24.369  25.530  1.00  0.00     0.005 A 
ATOM     20  C   UNL A   1      33.676  22.697  24.579  1.00  0.00     0.044 A 
ATOM     21  C   UNL A   1      34.255  25.369  25.098  1.00  0.00     0.009 A 
ATOM     22  C   UNL A   1      32.816  23.700  24.121  1.00  0.00     0.029 A 
ATOM     23  Cl  UNL A   1      33.234  21.054  24.268  1.00  0.00    -0.084 Cl
ENDBRANCH   9  16
ENDBRANCH   5   8
ENDBRANCH   3   4
ENDBRANCH   2   3
ENDBRANCH   1   2
BRANCH   1  24
ATOM     24  C   UNL A   1      35.142  29.964  27.827  1.00  0.00     0.116 C 
BRANCH  24  25
ATOM     25  N   UNL A   1      35.237  30.687  29.088  1.00  0.00    -0.352 N 
ATOM     26  C   UNL A   1      36.293  30.735  29.966  1.00  0.00     0.251 C 
ATOM     27  H   UNL A   1      34.442  31.207  29.344  1.00  0.00     0.163 HD
ATOM     28  O   UNL A   1      36.174  31.295  31.051  1.00  0.00    -0.269 OA
BRANCH  26  29
ATOM     29  C   UNL A   1      37.557  30.070  29.598  1.00  0.00     0.039 A 
ATOM     30  C   UNL A   1      37.952  30.063  28.260  1.00  0.00     0.014 A 
ATOM     31  C   UNL A   1      38.377  29.520  30.587  1.00  0.00     0.014 A 
ATOM     32  C   UNL A   1      39.214  29.574  27.921  1.00  0.00     0.010 A 
ATOM     33  C   UNL A   1      39.659  29.097  30.256  1.00  0.00     0.010 A 
ATOM     34  C   UNL A   1      40.096  29.133  28.923  1.00  0.00    -0.014 A 
BRANCH  34  35
ATOM     35  C   UNL A   1      41.488  28.725  28.604  1.00  0.00     0.031 A 
ATOM     36  C   UNL A   1      42.583  29.755  28.574  1.00  0.00     0.074 A 
ATOM     37  C   UNL A   1      41.747  27.443  28.273  1.00  0.00     0.049 A 
ATOM     38  N   UNL A   1      43.831  29.621  28.207  1.00  0.00    -0.248 NA
ATOM     39  C   UNL A   1      42.222  31.121  28.989  1.00  0.00     0.031 C 
ATOM     40  C   UNL A   1      40.760  26.361  28.237  1.00  0.00     0.029 A 
ATOM     41  N   UNL A   1      42.916  26.835  27.890  1.00  0.00    -0.354 N 
ATOM     42  C   UNL A   1      44.404  30.879  28.350  1.00  0.00     0.074 A 
ATOM     43  C   UNL A   1      43.354  31.777  28.777  1.00  0.00     0.031 C 
ATOM     44  C   UNL A   1      41.368  25.220  27.871  1.00  0.00     0.029 A 
ATOM     45  C   UNL A   1      42.774  25.497  27.598  1.00  0.00     0.049 A 
ATOM     46  H   UNL A   1      43.775  27.311  27.829  1.00  0.00     0.167 HD
ATOM     47  C   UNL A   1      45.695  31.244  28.171  1.00  0.00     0.037 A 
ATOM     48  C   UNL A   1      43.673  24.603  27.143  1.00  0.00     0.037 A 
ATOM     49  C   UNL A   1      46.738  30.341  27.756  1.00  0.00     0.049 A 
ATOM     50  C   UNL A   1      45.090  25.052  26.895  1.00  0.00     0.074 A 
ATOM     51  C   UNL A   1      48.082  30.610  27.566  1.00  0.00     0.029 A 
ATOM     52  N   UNL A   1      46.555  28.996  27.471  1.00  0.00    -0.354 N 
ATOM     53  N   UNL A   1      45.623  26.236  27.079  1.00  0.00    -0.248 NA
ATOM     54  C   UNL A   1      46.027  24.045  26.377  1.00  0.00     0.031 C 
ATOM     55  C   UNL A   1      48.704  29.440  27.124  1.00  0.00     0.029 A 
ATOM     56  C   UNL A   1      47.760  28.427  27.089  1.00  0.00     0.049 A 
ATOM     57  H   UNL A   1      45.698  28.517  27.531  1.00  0.00     0.167 HD
ATOM     58  C   UNL A   1      46.964  26.106  26.731  1.00  0.00     0.074 A 
ATOM     59  C   UNL A   1      47.163  24.725  26.344  1.00  0.00     0.031 C 
ATOM     60  C   UNL A   1      47.943  27.044  26.726  1.00  0.00     0.037 A 
BRANCH  47  61
ATOM     61  C   UNL A   1      46.063  32.677  28.441  1.00  0.00     0.058 A 
ATOM     62  C   UNL A   1      46.506  33.089  29.708  1.00  0.00     0.135 A 
ATOM     63  C   UNL A   1      46.043  33.632  27.412  1.00  0.00     0.135 A 
ATOM     64  F   UNL A   1      46.527  32.221  30.733  1.00  0.00    -0.206 F 
ATOM     65  C   UNL A   1      46.904  34.399  29.950  1.00  0.00     0.059 A 
ATOM     66  C   UNL A   1      46.464  34.942  27.624  1.00  0.00     0.059 A 
ATOM     67  F   UNL A   1      45.625  33.293  26.182  1.00  0.00    -0.206 F 
ATOM     68  C   UNL A   1      46.887  35.317  28.898  1.00  0.00     0.060 A 
BRANCH  68  69
ATOM     69  S   UNL A   1      47.448  37.002  29.223  1.00  0.00     0.124 S 
ATOM     70  O   UNL A   1      46.191  37.742  29.171  1.00  0.00    -0.237 OA
ATOM     71  O   UNL A   1      48.056  36.877  30.544  1.00  0.00    -0.237 OA
ATOM     72  O   UNL A   1      48.377  37.269  28.129  1.00  0.00    -0.744 OA
ENDBRANCH  68  69
ENDBRANCH  47  61
BRANCH  48  73
ATOM     73  C   UNL A   1      43.274  23.191  26.881  1.00  0.00     0.058 A 
ATOM     74  C   UNL A   1      43.040  22.299  27.938  1.00  0.00     0.135 A 
ATOM     75  C   UNL A   1      43.167  22.692  25.573  1.00  0.00     0.135 A 
ATOM     76  F   UNL A   1      43.135  22.724  29.207  1.00  0.00    -0.206 F 
ATOM     77  C   UNL A   1      42.757  20.956  27.712  1.00  0.00     0.059 A 
ATOM     78  C   UNL A   1      42.851  21.360  25.321  1.00  0.00     0.059 A 
ATOM     79  F   UNL A   1      43.361  23.505  24.522  1.00  0.00    -0.206 F 
ATOM     80  C   UNL A   1      42.670  20.495  26.397  1.00  0.00     0.060 A 
BRANCH  80  81
ATOM     81  S   UNL A   1      42.309  18.748  26.115  1.00  0.00     0.124 S 
ATOM     82  O   UNL A   1      40.898  18.796  25.751  1.00  0.00    -0.237 OA
ATOM     83  O   UNL A   1      43.237  18.412  25.039  1.00  0.00    -0.237 OA
ATOM     84  O   UNL A   1      42.608  18.133  27.406  1.00  0.00    -0.744 OA
ENDBRANCH  80  81
ENDBRANCH  48  73
BRANCH  60  85
ATOM     85  C   UNL A   1      49.326  26.603  26.332  1.00  0.00     0.058 A 
ATOM     86  C   UNL A   1      50.152  25.887  27.212  1.00  0.00     0.135 A 
ATOM     87  C   UNL A   1      49.811  26.857  25.038  1.00  0.00     0.135 A 
ATOM     88  F   UNL A   1      49.741  25.625  28.462  1.00  0.00    -0.206 F 
ATOM     89  C   UNL A   1      51.421  25.460  26.832  1.00  0.00     0.059 A 
ATOM     90  C   UNL A   1      51.063  26.411  24.626  1.00  0.00     0.059 A 
ATOM     91  F   UNL A   1      49.057  27.529  24.153  1.00  0.00    -0.206 F 
ATOM     92  C   UNL A   1      51.865  25.724  25.535  1.00  0.00     0.060 A 
BRANCH  92  93
ATOM     93  S   UNL A   1      53.497  25.127  25.045  1.00  0.00     0.124 S 
ATOM     94  O   UNL A   1      54.370  25.932  25.893  1.00  0.00    -0.237 OA
ATOM     95  O   UNL A   1      53.422  23.708  25.377  1.00  0.00    -0.237 OA
ATOM     96  O   UNL A   1      53.556  25.429  23.618  1.00  0.00    -0.744 OA
ENDBRANCH  92  93
ENDBRANCH  60  85
ENDBRANCH  34  35
ENDBRANCH  26  29
ENDBRANCH  24  25
ENDBRANCH   1  24
TORSDOF 15
ENDMDL
MODEL 2
REMARK VINA RESULT:     -12.5      6.515     11.942
REMARK SMILES Cc1ccc(-c2c[nH]c(=O)cc2C(=O)NCCCCNC(=O)c2ccc(-c3c4nc(c(-c5c(F)cc(S(=O)(=O)[O-])cc5F)c5ccc([nH]5)c(-c5c(F)cc(S(=O)(=O)[O-])cc5F)c5nc(c(-c6c(F)cc(S(=O)(=O)[O-])cc6F)c6ccc3[nH]6)C=C5)C=C4)cc2)cc1Cl
REMARK SMILES IDX 18 1 17 2 16 3 15 4 13 5 14 6 12 8 6 9 7 10 8 11 11 12 9 13
REMARK SMILES IDX 10 15 5 16 1 17 2 18 3 19 90 20 4 21 89 22 91 23 19 24 20 25
REMARK SMILES IDX 21 26 22 28 23 29 24 30 88 31 25 32 87 33 26 34 27 35 28 36
REMARK SMILES IDX 81 37 29 38 86 39 80 40 82 41 30 42 85 43 79 44 78 45 31 47
REMARK SMILES IDX 65 48 44 49 64 50 45 51 48 52 63 53 83 54 46 55 47 56 62 58
REMARK SMILES IDX 84 59 49 60 32 61 33 62 42 63 34 64 35 65 41 66 43 67 36 68
REMARK SMILES IDX 37 69 38 70 39 71 40 72 66 73 67 74 76 75 68 76 69 77 75 78
REMARK SMILES IDX 77 79 70 80 71 81 72 82 73 83 74 84 50 85 51 86 60 87 52 88
REMARK SMILES IDX 53 89 59 90 61 91 54 92 55 93 56 94 57 95 58 96
REMARK H PARENT 15 7 8 14 20 27 82 46 48 57
REMARK Flexibility Score: inf
ROOT
ATOM      1  C   UNL A   1      37.681  23.917  25.573  1.00  0.00     0.023 C 
ENDROOT
BRANCH   1   2
ATOM      2  C   UNL A   1      36.286  23.314  25.792  1.00  0.00     0.023 C 
BRANCH   2   3
ATOM      3  C   UNL A   1      35.702  22.638  24.549  1.00  0.00     0.116 C 
BRANCH   3   4
ATOM      4  N   UNL A   1      35.163  23.625  23.638  1.00  0.00    -0.352 N 
ATOM      5  C   UNL A   1      34.074  24.432  23.600  1.00  0.00     0.252 C 
ATOM      6  O   UNL A   1      34.024  25.138  22.590  1.00  0.00    -0.269 OA
ATOM      7  H   UNL A   1      35.731  23.741  22.843  1.00  0.00     0.163 HD
BRANCH   5   8
ATOM      8  C   UNL A   1      33.015  24.543  24.680  1.00  0.00     0.054 A 
ATOM      9  C   UNL A   1      32.059  23.421  24.896  1.00  0.00     0.011 A 
ATOM     10  C   UNL A   1      31.044  23.588  25.769  1.00  0.00     0.095 A 
ATOM     11  N   UNL A   1      30.892  24.749  26.473  1.00  0.00    -0.328 N 
ATOM     12  C   UNL A   1      32.914  25.618  25.481  1.00  0.00     0.086 A 
ATOM     13  C   UNL A   1      31.771  25.792  26.409  1.00  0.00     0.248 A 
ATOM     14  H   UNL A   1      30.106  24.838  27.058  1.00  0.00     0.169 HD
ATOM     15  O   UNL A   1      31.630  26.819  27.056  1.00  0.00    -0.270 OA
BRANCH   9  16
ATOM     16  C   UNL A   1      32.152  22.064  24.310  1.00  0.00    -0.015 A 
ATOM     17  C   UNL A   1      32.340  18.121  22.532  1.00  0.00     0.046 C 
ATOM     18  C   UNL A   1      32.301  19.482  23.166  1.00  0.00    -0.032 A 
ATOM     19  C   UNL A   1      32.087  20.610  22.362  1.00  0.00     0.005 A 
ATOM     20  C   UNL A   1      32.468  19.667  24.547  1.00  0.00     0.044 A 
ATOM     21  C   UNL A   1      32.032  21.887  22.925  1.00  0.00     0.009 A 
ATOM     22  C   UNL A   1      32.384  20.942  25.116  1.00  0.00     0.029 A 
ATOM     23  Cl  UNL A   1      32.791  18.336  25.602  1.00  0.00    -0.084 Cl
ENDBRANCH   9  16
ENDBRANCH   5   8
ENDBRANCH   3   4
ENDBRANCH   2   3
ENDBRANCH   1   2
BRANCH   1  24
ATOM     24  C   UNL A   1      38.669  23.701  26.717  1.00  0.00     0.116 C 
BRANCH  24  25
ATOM     25  N   UNL A   1      40.056  23.657  26.275  1.00  0.00    -0.352 N 
ATOM     26  C   UNL A   1      41.061  24.560  26.528  1.00  0.00     0.251 C 
ATOM     27  H   UNL A   1      40.305  22.881  25.724  1.00  0.00     0.163 HD
ATOM     28  O   UNL A   1      42.153  24.444  25.981  1.00  0.00    -0.269 OA
BRANCH  26  29
ATOM     29  C   UNL A   1      40.792  25.691  27.436  1.00  0.00     0.039 A 
ATOM     30  C   UNL A   1      39.823  25.543  28.430  1.00  0.00     0.014 A 
ATOM     31  C   UNL A   1      41.546  26.863  27.343  1.00  0.00     0.014 A 
ATOM     32  C   UNL A   1      39.667  26.546  29.388  1.00  0.00     0.010 A 
ATOM     33  C   UNL A   1      41.436  27.828  28.338  1.00  0.00     0.010 A 
ATOM     34  C   UNL A   1      40.506  27.673  29.378  1.00  0.00    -0.014 A 
BRANCH  34  35
ATOM     35  C   UNL A   1      40.447  28.692  30.456  1.00  0.00     0.031 A 
ATOM     36  C   UNL A   1      41.352  28.576  31.650  1.00  0.00     0.074 A 
ATOM     37  C   UNL A   1      39.528  29.679  30.389  1.00  0.00     0.049 A 
ATOM     38  N   UNL A   1      41.372  29.293  32.743  1.00  0.00    -0.248 NA
ATOM     39  C   UNL A   1      42.352  27.496  31.622  1.00  0.00     0.031 C 
ATOM     40  C   UNL A   1      38.574  29.876  29.294  1.00  0.00     0.029 A 
ATOM     41  N   UNL A   1      39.235  30.692  31.267  1.00  0.00    -0.354 N 
ATOM     42  C   UNL A   1      42.384  28.756  33.529  1.00  0.00     0.074 A 
ATOM     43  C   UNL A   1      42.914  27.614  32.817  1.00  0.00     0.031 C 
ATOM     44  C   UNL A   1      37.816  30.954  29.558  1.00  0.00     0.029 A 
ATOM     45  C   UNL A   1      38.193  31.494  30.859  1.00  0.00     0.049 A 
ATOM     46  H   UNL A   1      39.724  30.832  32.109  1.00  0.00     0.167 HD
ATOM     47  C   UNL A   1      42.849  29.194  34.723  1.00  0.00     0.037 A 
ATOM     48  C   UNL A   1      37.599  32.533  31.476  1.00  0.00     0.037 A 
ATOM     49  C   UNL A   1      42.323  30.339  35.421  1.00  0.00     0.049 A 
ATOM     50  C   UNL A   1      38.099  32.961  32.832  1.00  0.00     0.074 A 
ATOM     51  C   UNL A   1      42.740  30.875  36.627  1.00  0.00     0.029 A 
ATOM     52  N   UNL A   1      41.270  31.124  34.977  1.00  0.00    -0.354 N 
ATOM     53  N   UNL A   1      39.087  32.469  33.540  1.00  0.00    -0.248 NA
ATOM     54  C   UNL A   1      37.402  34.086  33.473  1.00  0.00     0.031 C 
ATOM     55  C   UNL A   1      41.911  31.958  36.934  1.00  0.00     0.029 A 
ATOM     56  C   UNL A   1      41.011  32.130  35.894  1.00  0.00     0.049 A 
ATOM     57  H   UNL A   1      40.779  30.988  34.135  1.00  0.00     0.167 HD
ATOM     58  C   UNL A   1      39.151  33.245  34.693  1.00  0.00     0.074 A 
ATOM     59  C   UNL A   1      38.114  34.249  34.578  1.00  0.00     0.031 C 
ATOM     60  C   UNL A   1      39.987  33.135  35.754  1.00  0.00     0.037 A 
BRANCH  47  61
ATOM     61  C   UNL A   1      43.998  28.450  35.345  1.00  0.00     0.058 A 
ATOM     62  C   UNL A   1      43.780  27.381  36.230  1.00  0.00     0.135 A 
ATOM     63  C   UNL A   1      45.324  28.756  35.002  1.00  0.00     0.135 A 
ATOM     64  F   UNL A   1      42.533  27.059  36.607  1.00  0.00    -0.206 F 
ATOM     65  C   UNL A   1      44.836  26.651  36.763  1.00  0.00     0.059 A 
ATOM     66  C   UNL A   1      46.396  28.020  35.501  1.00  0.00     0.059 A 
ATOM     67  F   UNL A   1      45.589  29.770  34.163  1.00  0.00    -0.206 F 
ATOM     68  C   UNL A   1      46.141  26.973  36.386  1.00  0.00     0.060 A 
BRANCH  68  69
ATOM     69  S   UNL A   1      47.495  25.985  37.057  1.00  0.00     0.124 S 
ATOM     70  O   UNL A   1      48.161  26.954  37.922  1.00  0.00    -0.237 OA
ATOM     71  O   UNL A   1      46.785  24.909  37.740  1.00  0.00    -0.237 OA
ATOM     72  O   UNL A   1      48.245  25.585  35.870  1.00  0.00    -0.744 OA
ENDBRANCH  68  69
ENDBRANCH  47  61
BRANCH  48  73
ATOM     73  C   UNL A   1      36.459  33.247  30.835  1.00  0.00     0.058 A 
ATOM     74  C   UNL A   1      36.663  34.082  29.725  1.00  0.00     0.135 A 
ATOM     75  C   UNL A   1      35.154  33.149  31.343  1.00  0.00     0.135 A 
ATOM     76  F   UNL A   1      37.892  34.215  29.203  1.00  0.00    -0.206 F 
ATOM     77  C   UNL A   1      35.627  34.827  29.170  1.00  0.00     0.059 A 
ATOM     78  C   UNL A   1      34.095  33.858  30.784  1.00  0.00     0.059 A 
ATOM     79  F   UNL A   1      34.897  32.350  32.390  1.00  0.00    -0.206 F 
ATOM     80  C   UNL A   1      34.346  34.712  29.712  1.00  0.00     0.060 A 
BRANCH  80  81
ATOM     81  S   UNL A   1      33.010  35.688  28.989  1.00  0.00     0.124 S 
ATOM     82  O   UNL A   1      33.752  36.748  28.318  1.00  0.00    -0.237 OA
ATOM     83  O   UNL A   1      32.354  34.716  28.120  1.00  0.00    -0.237 OA
ATOM     84  O   UNL A   1      32.232  36.102  30.154  1.00  0.00    -0.744 OA
ENDBRANCH  80  81
ENDBRANCH  48  73
BRANCH  60  85
ATOM     85  C   UNL A   1      39.847  34.149  36.857  1.00  0.00     0.058 A 
ATOM     86  C   UNL A   1      40.480  35.400  36.793  1.00  0.00     0.135 A 
ATOM     87  C   UNL A   1      39.030  33.883  37.967  1.00  0.00     0.135 A 
ATOM     88  F   UNL A   1      41.278  35.702  35.759  1.00  0.00    -0.206 F 
ATOM     89  C   UNL A   1      40.326  36.343  37.805  1.00  0.00     0.059 A 
ATOM     90  C   UNL A   1      38.836  34.823  38.974  1.00  0.00     0.059 A 
ATOM     91  F   UNL A   1      38.393  32.705  38.072  1.00  0.00    -0.206 F 
ATOM     92  C   UNL A   1      39.498  36.046  38.890  1.00  0.00     0.060 A 
BRANCH  92  93
ATOM     93  S   UNL A   1      39.277  37.296  40.173  1.00  0.00     0.124 S 
ATOM     94  O   UNL A   1      38.472  38.294  39.476  1.00  0.00    -0.237 OA
ATOM     95  O   UNL A   1      38.590  36.548  41.221  1.00  0.00    -0.237 OA
ATOM     96  O   UNL A   1      40.642  37.703  40.492  1.00  0.00    -0.744 OA
ENDBRANCH  92  93
ENDBRANCH  60  85
ENDBRANCH  34  35
ENDBRANCH  26  29
ENDBRANCH  24  25
ENDBRANCH   1  24
TORSDOF 15
ENDMDL
MODEL 3
REMARK VINA RESULT:     -12.4      4.732     10.232
REMARK SMILES Cc1ccc(-c2c[nH]c(=O)cc2C(=O)NCCCCNC(=O)c2ccc(-c3c4nc(c(-c5c(F)cc(S(=O)(=O)[O-])cc5F)c5ccc([nH]5)c(-c5c(F)cc(S(=O)(=O)[O-])cc5F)c5nc(c(-c6c(F)cc(S(=O)(=O)[O-])cc6F)c6ccc3[nH]6)C=C5)C=C4)cc2)cc1Cl
REMARK SMILES IDX 18 1 17 2 16 3 15 4 13 5 14 6 12 8 6 9 7 10 8 11 11 12 9 13
REMARK SMILES IDX 10 15 5 16 1 17 2 18 3 19 90 20 4 21 89 22 91 23 19 24 20 25
REMARK SMILES IDX 21 26 22 28 23 29 24 30 88 31 25 32 87 33 26 34 27 35 28 36
REMARK SMILES IDX 81 37 29 38 86 39 80 40 82 41 30 42 85 43 79 44 78 45 31 47
REMARK SMILES IDX 65 48 44 49 64 50 45 51 48 52 63 53 83 54 46 55 47 56 62 58
REMARK SMILES IDX 84 59 49 60 32 61 33 62 42 63 34 64 35 65 41 66 43 67 36 68
REMARK SMILES IDX 37 69 38 70 39 71 40 72 66 73 67 74 76 75 68 76 69 77 75 78
REMARK SMILES IDX 77 79 70 80 71 81 72 82 73 83 74 84 50 85 51 86 60 87 52 88
REMARK SMILES IDX 53 89 59 90 61 91 54 92 55 93 56 94 57 95 58 96
REMARK H PARENT 15 7 8 14 20 27 82 46 48 57
REMARK Flexibility Score: inf
ROOT
ATOM      1  C   UNL A   1      35.571  22.785  25.487  1.00  0.00     0.023 C 
ENDROOT
BRANCH   1   2
ATOM      2  C   UNL A   1      35.091  23.140  26.902  1.00  0.00     0.023 C 
BRANCH   2   3
ATOM      3  C   UNL A   1      34.173  22.087  27.526  1.00  0.00     0.116 C 
BRANCH   3   4
ATOM      4  N   UNL A   1      32.819  22.590  27.631  1.00  0.00    -0.352 N 
ATOM      5  C   UNL A   1      31.875  23.050  26.773  1.00  0.00     0.252 C 
ATOM      6  O   UNL A   1      30.826  23.378  27.333  1.00  0.00    -0.269 OA
ATOM      7  H   UNL A   1      32.503  22.599  28.563  1.00  0.00     0.163 HD
BRANCH   5   8
ATOM      8  C   UNL A   1      32.012  23.129  25.265  1.00  0.00     0.054 A 
ATOM      9  C   UNL A   1      32.323  24.434  24.618  1.00  0.00     0.011 A 
ATOM     10  C   UNL A   1      32.312  24.514  23.272  1.00  0.00     0.095 A 
ATOM     11  N   UNL A   1      32.046  23.422  22.495  1.00  0.00    -0.328 N 
ATOM     12  C   UNL A   1      31.884  22.049  24.473  1.00  0.00     0.086 A 
ATOM     13  C   UNL A   1      31.843  22.169  22.997  1.00  0.00     0.248 A 
ATOM     14  H   UNL A   1      32.000  23.546  21.520  1.00  0.00     0.169 HD
ATOM     15  O   UNL A   1      31.622  21.198  22.288  1.00  0.00    -0.270 OA
BRANCH   9  16
ATOM     16  C   UNL A   1      32.748  25.675  25.307  1.00  0.00    -0.015 A 
ATOM     17  C   UNL A   1      34.085  29.257  27.337  1.00  0.00     0.046 C 
ATOM     18  C   UNL A   1      33.593  28.029  26.626  1.00  0.00    -0.032 A 
ATOM     19  C   UNL A   1      34.443  27.366  25.730  1.00  0.00     0.005 A 
ATOM     20  C   UNL A   1      32.304  27.514  26.831  1.00  0.00     0.044 A 
ATOM     21  C   UNL A   1      34.018  26.213  25.065  1.00  0.00     0.009 A 
ATOM     22  C   UNL A   1      31.888  26.344  26.187  1.00  0.00     0.029 A 
ATOM     23  Cl  UNL A   1      31.174  28.302  27.877  1.00  0.00    -0.084 Cl
ENDBRANCH   9  16
ENDBRANCH   5   8
ENDBRANCH   3   4
ENDBRANCH   2   3
ENDBRANCH   1   2
BRANCH   1  24
ATOM     24  C   UNL A   1      36.929  23.364  25.098  1.00  0.00     0.116 C 
BRANCH  24  25
ATOM     25  N   UNL A   1      38.034  22.446  25.342  1.00  0.00    -0.352 N 
ATOM     26  C   UNL A   1      39.210  22.685  26.010  1.00  0.00     0.251 C 
ATOM     27  H   UNL A   1      37.923  21.538  24.980  1.00  0.00     0.163 HD
ATOM     28  O   UNL A   1      40.099  21.840  26.027  1.00  0.00    -0.269 OA
BRANCH  26  29
ATOM     29  C   UNL A   1      39.401  23.990  26.674  1.00  0.00     0.039 A 
ATOM     30  C   UNL A   1      38.884  24.176  27.956  1.00  0.00     0.014 A 
ATOM     31  C   UNL A   1      40.147  24.994  26.051  1.00  0.00     0.014 A 
ATOM     32  C   UNL A   1      39.188  25.348  28.652  1.00  0.00     0.010 A 
ATOM     33  C   UNL A   1      40.504  26.127  26.772  1.00  0.00     0.010 A 
ATOM     34  C   UNL A   1      40.041  26.309  28.084  1.00  0.00    -0.014 A 
BRANCH  34  35
ATOM     35  C   UNL A   1      40.481  27.503  28.850  1.00  0.00     0.031 A 
ATOM     36  C   UNL A   1      41.812  27.497  29.549  1.00  0.00     0.074 A 
ATOM     37  C   UNL A   1      39.650  28.559  28.972  1.00  0.00     0.049 A 
ATOM     38  N   UNL A   1      42.322  28.390  30.358  1.00  0.00    -0.248 NA
ATOM     39  C   UNL A   1      42.673  26.324  29.329  1.00  0.00     0.031 C 
ATOM     40  C   UNL A   1      38.320  28.666  28.365  1.00  0.00     0.029 A 
ATOM     41  N   UNL A   1      39.792  29.738  29.661  1.00  0.00    -0.354 N 
ATOM     42  C   UNL A   1      43.561  27.889  30.738  1.00  0.00     0.074 A 
ATOM     43  C   UNL A   1      43.700  26.587  30.124  1.00  0.00     0.031 C 
ATOM     44  C   UNL A   1      37.780  29.852  28.692  1.00  0.00     0.029 A 
ATOM     45  C   UNL A   1      38.698  30.567  29.571  1.00  0.00     0.049 A 
ATOM     46  H   UNL A   1      40.602  29.968  30.170  1.00  0.00     0.167 HD
ATOM     47  C   UNL A   1      44.509  28.476  31.507  1.00  0.00     0.037 A 
ATOM     48  C   UNL A   1      38.457  31.759  30.150  1.00  0.00     0.037 A 
ATOM     49  C   UNL A   1      44.368  29.777  32.107  1.00  0.00     0.049 A 
ATOM     50  C   UNL A   1      39.506  32.361  31.049  1.00  0.00     0.074 A 
ATOM     51  C   UNL A   1      45.280  30.467  32.886  1.00  0.00     0.029 A 
ATOM     52  N   UNL A   1      43.246  30.586  31.994  1.00  0.00    -0.354 N 
ATOM     53  N   UNL A   1      40.691  31.893  31.362  1.00  0.00    -0.248 NA
ATOM     54  C   UNL A   1      39.186  33.652  31.675  1.00  0.00     0.031 C 
ATOM     55  C   UNL A   1      44.694  31.674  33.280  1.00  0.00     0.029 A 
ATOM     56  C   UNL A   1      43.437  31.760  32.704  1.00  0.00     0.049 A 
ATOM     57  H   UNL A   1      42.435  30.359  31.485  1.00  0.00     0.167 HD
ATOM     58  C   UNL A   1      41.269  32.848  32.193  1.00  0.00     0.074 A 
ATOM     59  C   UNL A   1      40.311  33.926  32.318  1.00  0.00     0.031 C 
ATOM     60  C   UNL A   1      42.480  32.833  32.802  1.00  0.00     0.037 A 
BRANCH  47  61
ATOM     61  C   UNL A   1      45.795  27.728  31.729  1.00  0.00     0.058 A 
ATOM     62  C   UNL A   1      46.899  27.909  30.881  1.00  0.00     0.135 A 
ATOM     63  C   UNL A   1      45.952  26.878  32.836  1.00  0.00     0.135 A 
ATOM     64  F   UNL A   1      46.797  28.695  29.797  1.00  0.00    -0.206 F 
ATOM     65  C   UNL A   1      48.109  27.266  31.114  1.00  0.00     0.059 A 
ATOM     66  C   UNL A   1      47.163  26.247  33.105  1.00  0.00     0.059 A 
ATOM     67  F   UNL A   1      44.927  26.666  33.677  1.00  0.00    -0.206 F 
ATOM     68  C   UNL A   1      48.234  26.442  32.234  1.00  0.00     0.060 A 
BRANCH  68  69
ATOM     69  S   UNL A   1      49.827  25.650  32.542  1.00  0.00     0.124 S 
ATOM     70  O   UNL A   1      49.478  24.691  33.586  1.00  0.00    -0.237 OA
ATOM     71  O   UNL A   1      50.146  25.079  31.238  1.00  0.00    -0.237 OA
ATOM     72  O   UNL A   1      50.681  26.756  32.966  1.00  0.00    -0.744 OA
ENDBRANCH  68  69
ENDBRANCH  47  61
BRANCH  48  73
ATOM     73  C   UNL A   1      37.170  32.472  29.914  1.00  0.00     0.058 A 
ATOM     74  C   UNL A   1      37.102  33.567  29.038  1.00  0.00     0.135 A 
ATOM     75  C   UNL A   1      35.995  32.107  30.591  1.00  0.00     0.135 A 
ATOM     76  F   UNL A   1      38.197  33.960  28.370  1.00  0.00    -0.206 F 
ATOM     77  C   UNL A   1      35.931  34.301  28.875  1.00  0.00     0.059 A 
ATOM     78  C   UNL A   1      34.804  32.805  30.419  1.00  0.00     0.059 A 
ATOM     79  F   UNL A   1      35.997  31.056  31.426  1.00  0.00    -0.206 F 
ATOM     80  C   UNL A   1      34.787  33.914  29.576  1.00  0.00     0.060 A 
BRANCH  80  81
ATOM     81  S   UNL A   1      33.275  34.878  29.362  1.00  0.00     0.124 S 
ATOM     82  O   UNL A   1      33.790  36.101  28.758  1.00  0.00    -0.237 OA
ATOM     83  O   UNL A   1      32.483  34.017  28.489  1.00  0.00    -0.237 OA
ATOM     84  O   UNL A   1      32.770  35.011  30.726  1.00  0.00    -0.744 OA
ENDBRANCH  80  81
ENDBRANCH  48  73
BRANCH  60  85
ATOM     85  C   UNL A   1      42.858  34.034  33.624  1.00  0.00     0.058 A 
ATOM     86  C   UNL A   1      42.488  34.152  34.973  1.00  0.00     0.135 A 
ATOM     87  C   UNL A   1      43.643  35.058  33.068  1.00  0.00     0.135 A 
ATOM     88  F   UNL A   1      41.732  33.207  35.551  1.00  0.00    -0.206 F 
ATOM     89  C   UNL A   1      42.863  35.255  35.735  1.00  0.00     0.059 A 
ATOM     90  C   UNL A   1      44.057  36.153  33.820  1.00  0.00     0.059 A 
ATOM     91  F   UNL A   1      44.033  34.989  31.785  1.00  0.00    -0.206 F 
ATOM     92  C   UNL A   1      43.651  36.248  35.150  1.00  0.00     0.060 A 
BRANCH  92  93
ATOM     93  S   UNL A   1      44.163  37.651  36.163  1.00  0.00     0.124 S 
ATOM     94  O   UNL A   1      43.769  38.778  35.325  1.00  0.00    -0.237 OA
ATOM     95  O   UNL A   1      43.378  37.460  37.378  1.00  0.00    -0.237 OA
ATOM     96  O   UNL A   1      45.601  37.455  36.315  1.00  0.00    -0.744 OA
ENDBRANCH  92  93
ENDBRANCH  60  85
ENDBRANCH  34  35
ENDBRANCH  26  29
ENDBRANCH  24  25
ENDBRANCH   1  24
TORSDOF 15
ENDMDL
