MODEL 1
REMARK VINA RESULT:     -12.5      0.000      0.000
REMARK SMILES CCOC(=O)[C@@]1(C)C/C(=N/c2cccc(C(=O)NCCCCNC(=O)c3ccc(-c4c5nc(c(-c6c(F)cc(S(=O)(=O)[O-])cc6F)c6ccc([nH]6)c(-c6c(F)cc(S(=O)(=O)[O-])cc6F)c6nc(c(-c7c(F)cc(S(=O)(=O)[O-])cc7F)c7ccc4[nH]7)C=C6)C=C5)cc3)c2)C(=O)N1c1ccccc1
REMARK SMILES IDX 20 1 19 2 18 3 16 4 17 5 15 7 11 8 12 9 92 10 13 11 14 12
REMARK SMILES IDX 10 13 6 14 7 15 8 16 95 17 9 18 93 19 94 20 4 21 5 22 3 23
REMARK SMILES IDX 2 24 1 25 96 26 97 27 101 28 98 29 100 30 99 31 21 32 22 33
REMARK SMILES IDX 23 34 24 35 25 37 26 38 27 39 91 40 28 41 90 42 29 43 30 44
REMARK SMILES IDX 31 45 84 46 32 47 89 48 83 49 85 50 33 51 88 52 82 53 81 54
REMARK SMILES IDX 34 56 68 57 47 58 67 59 48 60 51 61 66 62 86 63 49 64 50 65
REMARK SMILES IDX 65 67 87 68 52 69 35 70 36 71 45 72 37 73 38 74 44 75 46 76
REMARK SMILES IDX 39 77 40 78 41 79 42 80 43 81 69 82 70 83 79 84 71 85 72 86
REMARK SMILES IDX 78 87 80 88 73 89 74 90 75 91 76 92 77 93 53 94 54 95 63 96
REMARK SMILES IDX 55 97 56 98 62 99 64 100 57 101 58 102 59 103 60 104 61 105
REMARK H PARENT 18 6 23 36 85 55 51 66
REMARK Flexibility Score: inf
ROOT
ATOM      1  C   UNL A   1      38.392  23.745  26.480  1.00  0.00     0.023 C 
ENDROOT
BRANCH   1   2
ATOM      2  C   UNL A   1      37.303  23.314  25.504  1.00  0.00     0.116 C 
BRANCH   2   3
ATOM      3  N   UNL A   1      37.238  21.889  25.244  1.00  0.00    -0.352 N 
ATOM      4  C   UNL A   1      36.153  21.057  25.080  1.00  0.00     0.251 C 
ATOM      5  O   UNL A   1      36.361  19.862  24.874  1.00  0.00    -0.269 OA
ATOM      6  H   UNL A   1      38.114  21.443  25.172  1.00  0.00     0.163 HD
BRANCH   4   7
ATOM      7  C   UNL A   1      34.747  21.534  25.197  1.00  0.00     0.041 A 
ATOM      8  C   UNL A   1      32.732  22.572  24.291  1.00  0.00     0.064 A 
ATOM      9  C   UNL A   1      32.149  22.528  25.556  1.00  0.00     0.028 A 
ATOM     10  C   UNL A   1      34.018  22.043  24.121  1.00  0.00     0.042 A 
ATOM     11  C   UNL A   1      32.833  21.956  26.631  1.00  0.00     0.003 A 
ATOM     12  C   UNL A   1      34.130  21.467  26.452  1.00  0.00     0.014 A 
BRANCH   8  13
ATOM     13  N   UNL A   1      32.127  23.328  23.276  1.00  0.00    -0.248 NA
ATOM     14  C   UNL A   1      30.621  26.414  23.536  1.00  0.00     0.148 C 
ATOM     15  C   UNL A   1      29.446  25.797  24.325  1.00  0.00     0.048 C 
ATOM     16  C   UNL A   1      31.122  25.387  22.487  1.00  0.00     0.103 C 
ATOM     17  N   UNL A   1      31.794  26.635  24.419  1.00  0.00    -0.290 N 
ATOM     18  C   UNL A   1      32.067  24.619  23.337  1.00  0.00     0.109 C 
ATOM     19  C   UNL A   1      32.693  25.574  24.318  1.00  0.00     0.273 C 
ATOM     20  O   UNL A   1      33.762  25.352  24.844  1.00  0.00    -0.267 OA
BRANCH  14  21
ATOM     21  C   UNL A   1      30.140  27.600  22.679  1.00  0.00     0.332 C 
ATOM     22  O   UNL A   1      30.814  28.104  21.787  1.00  0.00    -0.249 OA
BRANCH  21  23
ATOM     23  O   UNL A   1      28.960  28.110  23.128  1.00  0.00    -0.464 OA
BRANCH  23  24
ATOM     24  C   UNL A   1      28.574  29.373  22.567  1.00  0.00     0.229 C 
ATOM     25  C   UNL A   1      29.079  30.520  23.424  1.00  0.00     0.049 C 
ENDBRANCH  23  24
ENDBRANCH  21  23
ENDBRANCH  14  21
BRANCH  17  26
ATOM     26  C   UNL A   1      31.928  27.723  25.337  1.00  0.00     0.045 A 
ATOM     27  C   UNL A   1      31.632  27.563  26.701  1.00  0.00     0.026 A 
ATOM     28  C   UNL A   1      32.350  28.996  24.923  1.00  0.00     0.026 A 
ATOM     29  C   UNL A   1      31.745  28.625  27.607  1.00  0.00     0.002 A 
ATOM     30  C   UNL A   1      32.455  30.062  25.826  1.00  0.00     0.002 A 
ATOM     31  C   UNL A   1      32.154  29.878  27.169  1.00  0.00     0.000 A 
ENDBRANCH  17  26
ENDBRANCH   8  13
ENDBRANCH   4   7
ENDBRANCH   2   3
ENDBRANCH   1   2
BRANCH   1  32
ATOM     32  C   UNL A   1      39.573  22.791  26.670  1.00  0.00     0.023 C 
BRANCH  32  33
ATOM     33  C   UNL A   1      40.950  23.418  26.877  1.00  0.00     0.116 C 
BRANCH  33  34
ATOM     34  N   UNL A   1      41.279  24.452  25.909  1.00  0.00    -0.352 N 
ATOM     35  C   UNL A   1      41.443  25.810  26.047  1.00  0.00     0.251 C 
ATOM     36  H   UNL A   1      41.406  24.121  24.991  1.00  0.00     0.163 HD
ATOM     37  O   UNL A   1      41.662  26.482  25.040  1.00  0.00    -0.269 OA
BRANCH  35  38
ATOM     38  C   UNL A   1      41.318  26.479  27.364  1.00  0.00     0.039 A 
ATOM     39  C   UNL A   1      42.229  27.493  27.679  1.00  0.00     0.014 A 
ATOM     40  C   UNL A   1      40.347  26.110  28.299  1.00  0.00     0.014 A 
ATOM     41  C   UNL A   1      42.107  28.199  28.880  1.00  0.00     0.010 A 
ATOM     42  C   UNL A   1      40.192  26.849  29.474  1.00  0.00     0.010 A 
ATOM     43  C   UNL A   1      41.056  27.915  29.765  1.00  0.00    -0.014 A 
BRANCH  43  44
ATOM     44  C   UNL A   1      40.812  28.755  30.967  1.00  0.00     0.031 A 
ATOM     45  C   UNL A   1      39.698  29.760  30.993  1.00  0.00     0.074 A 
ATOM     46  C   UNL A   1      41.652  28.668  32.017  1.00  0.00     0.049 A 
ATOM     47  N   UNL A   1      39.447  30.689  31.880  1.00  0.00    -0.248 NA
ATOM     48  C   UNL A   1      38.756  29.731  29.864  1.00  0.00     0.031 C 
ATOM     49  C   UNL A   1      42.799  27.763  32.114  1.00  0.00     0.029 A 
ATOM     50  N   UNL A   1      41.677  29.365  33.199  1.00  0.00    -0.354 N 
ATOM     51  C   UNL A   1      38.359  31.397  31.389  1.00  0.00     0.074 A 
ATOM     52  C   UNL A   1      37.977  30.769  30.140  1.00  0.00     0.031 C 
ATOM     53  C   UNL A   1      43.406  27.947  33.298  1.00  0.00     0.029 A 
ATOM     54  C   UNL A   1      42.710  29.004  34.028  1.00  0.00     0.049 A 
ATOM     55  H   UNL A   1      41.017  30.057  33.431  1.00  0.00     0.167 HD
ATOM     56  C   UNL A   1      37.744  32.481  31.921  1.00  0.00     0.037 A 
ATOM     57  C   UNL A   1      43.071  29.476  35.236  1.00  0.00     0.037 A 
ATOM     58  C   UNL A   1      38.080  33.082  33.185  1.00  0.00     0.049 A 
ATOM     59  C   UNL A   1      42.297  30.594  35.863  1.00  0.00     0.074 A 
ATOM     60  C   UNL A   1      37.509  34.183  33.799  1.00  0.00     0.029 A 
ATOM     61  N   UNL A   1      39.066  32.615  34.040  1.00  0.00    -0.354 N 
ATOM     62  N   UNL A   1      41.290  31.271  35.370  1.00  0.00    -0.248 NA
ATOM     63  C   UNL A   1      42.711  31.016  37.209  1.00  0.00     0.031 C 
ATOM     64  C   UNL A   1      38.142  34.373  35.036  1.00  0.00     0.029 A 
ATOM     65  C   UNL A   1      39.106  33.390  35.187  1.00  0.00     0.049 A 
ATOM     66  H   UNL A   1      39.651  31.843  33.859  1.00  0.00     0.167 HD
ATOM     67  C   UNL A   1      40.954  32.208  36.339  1.00  0.00     0.074 A 
ATOM     68  C   UNL A   1      41.854  31.999  37.455  1.00  0.00     0.031 C 
ATOM     69  C   UNL A   1      39.995  33.164  36.296  1.00  0.00     0.037 A 
BRANCH  56  70
ATOM     70  C   UNL A   1      36.656  33.101  31.100  1.00  0.00     0.058 A 
ATOM     71  C   UNL A   1      36.944  33.884  29.973  1.00  0.00     0.135 A 
ATOM     72  C   UNL A   1      35.311  32.937  31.468  1.00  0.00     0.135 A 
ATOM     73  F   UNL A   1      38.216  34.083  29.597  1.00  0.00    -0.206 F 
ATOM     74  C   UNL A   1      35.934  34.510  29.250  1.00  0.00     0.059 A 
ATOM     75  C   UNL A   1      34.286  33.547  30.755  1.00  0.00     0.059 A 
ATOM     76  F   UNL A   1      34.990  32.204  32.545  1.00  0.00    -0.206 F 
ATOM     77  C   UNL A   1      34.608  34.349  29.660  1.00  0.00     0.060 A 
BRANCH  77  78
ATOM     78  S   UNL A   1      33.285  35.194  28.768  1.00  0.00     0.124 S 
ATOM     79  O   UNL A   1      32.480  35.711  29.870  1.00  0.00    -0.237 OA
ATOM     80  O   UNL A   1      34.002  36.197  27.986  1.00  0.00    -0.237 OA
ATOM     81  O   UNL A   1      32.678  34.118  27.991  1.00  0.00    -0.744 OA
ENDBRANCH  77  78
ENDBRANCH  56  70
BRANCH  57  82
ATOM     82  C   UNL A   1      44.234  28.874  35.928  1.00  0.00     0.058 A 
ATOM     83  C   UNL A   1      45.516  29.417  35.771  1.00  0.00     0.135 A 
ATOM     84  C   UNL A   1      44.073  27.793  36.805  1.00  0.00     0.135 A 
ATOM     85  F   UNL A   1      45.708  30.454  34.942  1.00  0.00    -0.206 F 
ATOM     86  C   UNL A   1      46.607  28.914  36.470  1.00  0.00     0.059 A 
ATOM     87  C   UNL A   1      45.147  27.275  37.519  1.00  0.00     0.059 A 
ATOM     88  F   UNL A   1      42.859  27.254  36.991  1.00  0.00    -0.206 F 
ATOM     89  C   UNL A   1      46.412  27.843  37.344  1.00  0.00     0.060 A 
BRANCH  89  90
ATOM     90  S   UNL A   1      47.797  27.239  38.334  1.00  0.00     0.124 S 
ATOM     91  O   UNL A   1      47.649  28.025  39.553  1.00  0.00    -0.237 OA
ATOM     92  O   UNL A   1      47.510  25.813  38.456  1.00  0.00    -0.237 OA
ATOM     93  O   UNL A   1      48.952  27.564  37.501  1.00  0.00    -0.744 OA
ENDBRANCH  89  90
ENDBRANCH  57  82
BRANCH  69  94
ATOM     94  C   UNL A   1      39.869  34.048  37.497  1.00  0.00     0.058 A 
ATOM     95  C   UNL A   1      40.600  35.242  37.594  1.00  0.00     0.135 A 
ATOM     96  C   UNL A   1      39.008  33.711  38.551  1.00  0.00     0.135 A 
ATOM     97  F   UNL A   1      41.441  35.600  36.611  1.00  0.00    -0.206 F 
ATOM     98  C   UNL A   1      40.488  36.072  38.705  1.00  0.00     0.059 A 
ATOM     99  C   UNL A   1      38.878  34.528  39.670  1.00  0.00     0.059 A 
ATOM    100  F   UNL A   1      38.294  32.576  38.503  1.00  0.00    -0.206 F 
ATOM    101  C   UNL A   1      39.631  35.702  39.743  1.00  0.00     0.060 A 
BRANCH 101 102
ATOM    102  S   UNL A   1      39.462  36.778  41.183  1.00  0.00     0.124 S 
ATOM    103  O   UNL A   1      38.566  35.995  42.028  1.00  0.00    -0.237 OA
ATOM    104  O   UNL A   1      40.834  36.902  41.662  1.00  0.00    -0.237 OA
ATOM    105  O   UNL A   1      38.892  37.996  40.617  1.00  0.00    -0.744 OA
ENDBRANCH 101 102
ENDBRANCH  69  94
ENDBRANCH  43  44
ENDBRANCH  35  38
ENDBRANCH  33  34
ENDBRANCH  32  33
ENDBRANCH   1  32
TORSDOF 19
ENDMDL
MODEL 2
REMARK VINA RESULT:     -11.6      4.528      8.754
REMARK SMILES CCOC(=O)[C@@]1(C)C/C(=N/c2cccc(C(=O)NCCCCNC(=O)c3ccc(-c4c5nc(c(-c6c(F)cc(S(=O)(=O)[O-])cc6F)c6ccc([nH]6)c(-c6c(F)cc(S(=O)(=O)[O-])cc6F)c6nc(c(-c7c(F)cc(S(=O)(=O)[O-])cc7F)c7ccc4[nH]7)C=C6)C=C5)cc3)c2)C(=O)N1c1ccccc1
REMARK SMILES IDX 20 1 19 2 18 3 16 4 17 5 15 7 11 8 12 9 92 10 13 11 14 12
REMARK SMILES IDX 10 13 6 14 7 15 8 16 95 17 9 18 93 19 94 20 4 21 5 22 3 23
REMARK SMILES IDX 2 24 1 25 96 26 97 27 101 28 98 29 100 30 99 31 21 32 22 33
REMARK SMILES IDX 23 34 24 35 25 37 26 38 27 39 91 40 28 41 90 42 29 43 30 44
REMARK SMILES IDX 31 45 84 46 32 47 89 48 83 49 85 50 33 51 88 52 82 53 81 54
REMARK SMILES IDX 34 56 68 57 47 58 67 59 48 60 51 61 66 62 86 63 49 64 50 65
REMARK SMILES IDX 65 67 87 68 52 69 35 70 36 71 45 72 37 73 38 74 44 75 46 76
REMARK SMILES IDX 39 77 40 78 41 79 42 80 43 81 69 82 70 83 79 84 71 85 72 86
REMARK SMILES IDX 78 87 80 88 73 89 74 90 75 91 76 92 77 93 53 94 54 95 63 96
REMARK SMILES IDX 55 97 56 98 62 99 64 100 57 101 58 102 59 103 60 104 61 105
REMARK H PARENT 18 6 23 36 85 55 51 66
REMARK Flexibility Score: inf
ROOT
ATOM      1  C   UNL A   1      34.873  22.126  27.201  1.00  0.00     0.023 C 
ENDROOT
BRANCH   1   2
ATOM      2  C   UNL A   1      33.383  21.935  27.462  1.00  0.00     0.116 C 
BRANCH   2   3
ATOM      3  N   UNL A   1      32.741  20.919  26.649  1.00  0.00    -0.352 N 
ATOM      4  C   UNL A   1      32.671  20.781  25.280  1.00  0.00     0.251 C 
ATOM      5  O   UNL A   1      32.050  19.822  24.823  1.00  0.00    -0.269 OA
ATOM      6  H   UNL A   1      32.281  20.214  27.159  1.00  0.00     0.163 HD
BRANCH   4   7
ATOM      7  C   UNL A   1      33.268  21.769  24.339  1.00  0.00     0.041 A 
ATOM      8  C   UNL A   1      33.119  23.673  22.820  1.00  0.00     0.064 A 
ATOM      9  C   UNL A   1      34.458  23.494  22.476  1.00  0.00     0.028 A 
ATOM     10  C   UNL A   1      32.547  22.822  23.775  1.00  0.00     0.042 A 
ATOM     11  C   UNL A   1      35.217  22.492  23.084  1.00  0.00     0.003 A 
ATOM     12  C   UNL A   1      34.621  21.628  24.007  1.00  0.00     0.014 A 
BRANCH   8  13
ATOM     13  N   UNL A   1      32.318  24.538  22.059  1.00  0.00    -0.248 NA
ATOM     14  C   UNL A   1      30.455  27.221  23.152  1.00  0.00     0.148 C 
ATOM     15  C   UNL A   1      29.459  26.270  23.852  1.00  0.00     0.048 C 
ATOM     16  C   UNL A   1      30.975  26.544  21.855  1.00  0.00     0.103 C 
ATOM     17  N   UNL A   1      31.674  27.412  23.976  1.00  0.00    -0.290 N 
ATOM     18  C   UNL A   1      32.096  25.758  22.430  1.00  0.00     0.109 C 
ATOM     19  C   UNL A   1      32.689  26.550  23.563  1.00  0.00     0.273 C 
ATOM     20  O   UNL A   1      33.827  26.381  23.944  1.00  0.00    -0.267 OA
BRANCH  14  21
ATOM     21  C   UNL A   1      29.736  28.482  22.637  1.00  0.00     0.332 C 
ATOM     22  O   UNL A   1      30.224  29.247  21.812  1.00  0.00    -0.249 OA
BRANCH  21  23
ATOM     23  O   UNL A   1      28.579  28.722  23.313  1.00  0.00    -0.464 OA
BRANCH  23  24
ATOM     24  C   UNL A   1      27.694  29.680  22.713  1.00  0.00     0.229 C 
ATOM     25  C   UNL A   1      27.712  30.987  23.485  1.00  0.00     0.049 C 
ENDBRANCH  23  24
ENDBRANCH  21  23
ENDBRANCH  14  21
BRANCH  17  26
ATOM     26  C   UNL A   1      31.758  28.272  25.116  1.00  0.00     0.045 A 
ATOM     27  C   UNL A   1      31.635  27.766  26.419  1.00  0.00     0.026 A 
ATOM     28  C   UNL A   1      31.959  29.656  24.987  1.00  0.00     0.026 A 
ATOM     29  C   UNL A   1      31.701  28.600  27.542  1.00  0.00     0.002 A 
ATOM     30  C   UNL A   1      32.016  30.495  26.109  1.00  0.00     0.002 A 
ATOM     31  C   UNL A   1      31.888  29.968  27.387  1.00  0.00     0.000 A 
ENDBRANCH  17  26
ENDBRANCH   8  13
ENDBRANCH   4   7
ENDBRANCH   2   3
ENDBRANCH   1   2
BRANCH   1  32
ATOM     32  C   UNL A   1      35.346  23.546  26.878  1.00  0.00     0.023 C 
BRANCH  32  33
ATOM     33  C   UNL A   1      36.509  23.688  25.900  1.00  0.00     0.116 C 
BRANCH  33  34
ATOM     34  N   UNL A   1      37.595  22.749  26.134  1.00  0.00    -0.352 N 
ATOM     35  C   UNL A   1      38.875  22.933  26.599  1.00  0.00     0.251 C 
ATOM     36  H   UNL A   1      37.374  21.814  25.920  1.00  0.00     0.163 HD
ATOM     37  O   UNL A   1      39.630  21.964  26.646  1.00  0.00    -0.269 OA
BRANCH  35  38
ATOM     38  C   UNL A   1      39.372  24.272  26.998  1.00  0.00     0.039 A 
ATOM     39  C   UNL A   1      39.185  24.678  28.324  1.00  0.00     0.014 A 
ATOM     40  C   UNL A   1      39.987  25.140  26.092  1.00  0.00     0.014 A 
ATOM     41  C   UNL A   1      39.699  25.902  28.763  1.00  0.00     0.010 A 
ATOM     42  C   UNL A   1      40.546  26.338  26.541  1.00  0.00     0.010 A 
ATOM     43  C   UNL A   1      40.427  26.721  27.886  1.00  0.00    -0.014 A 
BRANCH  43  44
ATOM     44  C   UNL A   1      41.116  27.947  28.368  1.00  0.00     0.031 A 
ATOM     45  C   UNL A   1      42.614  28.044  28.357  1.00  0.00     0.074 A 
ATOM     46  C   UNL A   1      40.389  28.950  28.895  1.00  0.00     0.049 A 
ATOM     47  N   UNL A   1      43.383  28.958  28.893  1.00  0.00    -0.248 NA
ATOM     48  C   UNL A   1      43.342  26.965  27.673  1.00  0.00     0.031 C 
ATOM     49  C   UNL A   1      38.929  28.975  29.004  1.00  0.00     0.029 A 
ATOM     50  N   UNL A   1      40.785  30.141  29.453  1.00  0.00    -0.354 N 
ATOM     51  C   UNL A   1      44.686  28.534  28.669  1.00  0.00     0.074 A 
ATOM     52  C   UNL A   1      44.603  27.296  27.920  1.00  0.00     0.031 C 
ATOM     53  C   UNL A   1      38.550  30.129  29.577  1.00  0.00     0.029 A 
ATOM     54  C   UNL A   1      39.741  30.910  29.903  1.00  0.00     0.049 A 
ATOM     55  H   UNL A   1      41.726  30.416  29.523  1.00  0.00     0.167 HD
ATOM     56  C   UNL A   1      45.845  29.113  29.065  1.00  0.00     0.037 A 
ATOM     57  C   UNL A   1      39.736  32.105  30.523  1.00  0.00     0.037 A 
ATOM     58  C   UNL A   1      45.943  30.367  29.764  1.00  0.00     0.049 A 
ATOM     59  C   UNL A   1      41.031  32.789  30.839  1.00  0.00     0.074 A 
ATOM     60  C   UNL A   1      47.077  31.027  30.204  1.00  0.00     0.029 A 
ATOM     61  N   UNL A   1      44.861  31.164  30.105  1.00  0.00    -0.354 N 
ATOM     62  N   UNL A   1      42.253  32.358  30.647  1.00  0.00    -0.248 NA
ATOM     63  C   UNL A   1      40.947  34.118  31.460  1.00  0.00     0.031 C 
ATOM     64  C   UNL A   1      46.681  32.232  30.800  1.00  0.00     0.029 A 
ATOM     65  C   UNL A   1      45.300  32.319  30.730  1.00  0.00     0.049 A 
ATOM     66  H   UNL A   1      43.918  30.942  29.927  1.00  0.00     0.167 HD
ATOM     67  C   UNL A   1      43.086  33.357  31.133  1.00  0.00     0.074 A 
ATOM     68  C   UNL A   1      42.229  34.423  31.612  1.00  0.00     0.031 C 
ATOM     69  C   UNL A   1      44.440  33.378  31.189  1.00  0.00     0.037 A 
BRANCH  56  70
ATOM     70  C   UNL A   1      47.104  28.358  28.768  1.00  0.00     0.058 A 
ATOM     71  C   UNL A   1      47.735  28.448  27.520  1.00  0.00     0.135 A 
ATOM     72  C   UNL A   1      47.664  27.509  29.735  1.00  0.00     0.135 A 
ATOM     73  F   UNL A   1      47.222  29.233  26.560  1.00  0.00    -0.206 F 
ATOM     74  C   UNL A   1      48.869  27.697  27.226  1.00  0.00     0.059 A 
ATOM     75  C   UNL A   1      48.801  26.755  29.466  1.00  0.00     0.059 A 
ATOM     76  F   UNL A   1      47.088  27.384  30.941  1.00  0.00    -0.206 F 
ATOM     77  C   UNL A   1      49.384  26.841  28.202  1.00  0.00     0.060 A 
BRANCH  77  78
ATOM     78  S   UNL A   1      50.824  25.818  27.826  1.00  0.00     0.124 S 
ATOM     79  O   UNL A   1      51.433  26.568  26.733  1.00  0.00    -0.237 OA
ATOM     80  O   UNL A   1      51.567  25.819  29.083  1.00  0.00    -0.237 OA
ATOM     81  O   UNL A   1      50.227  24.537  27.460  1.00  0.00    -0.744 OA
ENDBRANCH  77  78
ENDBRANCH  56  70
BRANCH  57  82
ATOM     82  C   UNL A   1      38.441  32.728  30.880  1.00  0.00     0.058 A 
ATOM     83  C   UNL A   1      37.644  33.329  29.897  1.00  0.00     0.135 A 
ATOM     84  C   UNL A   1      37.952  32.676  32.192  1.00  0.00     0.135 A 
ATOM     85  F   UNL A   1      38.078  33.397  28.630  1.00  0.00    -0.206 F 
ATOM     86  C   UNL A   1      36.392  33.853  30.200  1.00  0.00     0.059 A 
ATOM     87  C   UNL A   1      36.701  33.188  32.519  1.00  0.00     0.059 A 
ATOM     88  F   UNL A   1      38.680  32.098  33.159  1.00  0.00    -0.206 F 
ATOM     89  C   UNL A   1      35.928  33.776  31.514  1.00  0.00     0.060 A 
BRANCH  89  90
ATOM     90  S   UNL A   1      34.265  34.362  31.907  1.00  0.00     0.124 S 
ATOM     91  O   UNL A   1      34.555  35.540  32.716  1.00  0.00    -0.237 OA
ATOM     92  O   UNL A   1      33.694  34.619  30.589  1.00  0.00    -0.237 OA
ATOM     93  O   UNL A   1      33.684  33.226  32.618  1.00  0.00    -0.744 OA
ENDBRANCH  89  90
ENDBRANCH  57  82
BRANCH  69  94
ATOM     94  C   UNL A   1      45.072  34.598  31.783  1.00  0.00     0.058 A 
ATOM     95  C   UNL A   1      45.418  35.695  30.980  1.00  0.00     0.135 A 
ATOM     96  C   UNL A   1      45.322  34.680  33.160  1.00  0.00     0.135 A 
ATOM     97  F   UNL A   1      45.203  35.657  29.656  1.00  0.00    -0.206 F 
ATOM     98  C   UNL A   1      46.002  36.834  31.523  1.00  0.00     0.059 A 
ATOM     99  C   UNL A   1      45.902  35.811  33.725  1.00  0.00     0.059 A 
ATOM    100  F   UNL A   1      45.011  33.651  33.965  1.00  0.00    -0.206 F 
ATOM    101  C   UNL A   1      46.249  36.880  32.896  1.00  0.00     0.060 A 
BRANCH 101 102
ATOM    102  S   UNL A   1      46.992  38.359  33.618  1.00  0.00     0.124 S 
ATOM    103  O   UNL A   1      47.859  38.808  32.534  1.00  0.00    -0.237 OA
ATOM    104  O   UNL A   1      45.835  39.205  33.895  1.00  0.00    -0.237 OA
ATOM    105  O   UNL A   1      47.674  37.840  34.799  1.00  0.00    -0.744 OA
ENDBRANCH 101 102
ENDBRANCH  69  94
ENDBRANCH  43  44
ENDBRANCH  35  38
ENDBRANCH  33  34
ENDBRANCH  32  33
ENDBRANCH   1  32
TORSDOF 19
ENDMDL
MODEL 3
REMARK VINA RESULT:     -11.3      4.601     11.639
REMARK SMILES CCOC(=O)[C@@]1(C)C/C(=N/c2cccc(C(=O)NCCCCNC(=O)c3ccc(-c4c5nc(c(-c6c(F)cc(S(=O)(=O)[O-])cc6F)c6ccc([nH]6)c(-c6c(F)cc(S(=O)(=O)[O-])cc6F)c6nc(c(-c7c(F)cc(S(=O)(=O)[O-])cc7F)c7ccc4[nH]7)C=C6)C=C5)cc3)c2)C(=O)N1c1ccccc1
REMARK SMILES IDX 20 1 19 2 18 3 16 4 17 5 15 7 11 8 12 9 92 10 13 11 14 12
REMARK SMILES IDX 10 13 6 14 7 15 8 16 95 17 9 18 93 19 94 20 4 21 5 22 3 23
REMARK SMILES IDX 2 24 1 25 96 26 97 27 101 28 98 29 100 30 99 31 21 32 22 33
REMARK SMILES IDX 23 34 24 35 25 37 26 38 27 39 91 40 28 41 90 42 29 43 30 44
REMARK SMILES IDX 31 45 84 46 32 47 89 48 83 49 85 50 33 51 88 52 82 53 81 54
REMARK SMILES IDX 34 56 68 57 47 58 67 59 48 60 51 61 66 62 86 63 49 64 50 65
REMARK SMILES IDX 65 67 87 68 52 69 35 70 36 71 45 72 37 73 38 74 44 75 46 76
REMARK SMILES IDX 39 77 40 78 41 79 42 80 43 81 69 82 70 83 79 84 71 85 72 86
REMARK SMILES IDX 78 87 80 88 73 89 74 90 75 91 76 92 77 93 53 94 54 95 63 96
REMARK SMILES IDX 55 97 56 98 62 99 64 100 57 101 58 102 59 103 60 104 61 105
REMARK H PARENT 18 6 23 36 85 55 51 66
REMARK Flexibility Score: inf
ROOT
ATOM      1  C   UNL A   1      43.694  22.845  26.349  1.00  0.00     0.023 C 
ENDROOT
BRANCH   1   2
ATOM      2  C   UNL A   1      43.694  24.357  26.540  1.00  0.00     0.116 C 
BRANCH   2   3
ATOM      3  N   UNL A   1      44.995  24.990  26.439  1.00  0.00    -0.352 N 
ATOM      4  C   UNL A   1      45.339  26.321  26.347  1.00  0.00     0.251 C 
ATOM      5  O   UNL A   1      46.532  26.609  26.262  1.00  0.00    -0.269 OA
ATOM      6  H   UNL A   1      45.757  24.366  26.436  1.00  0.00     0.163 HD
BRANCH   4   7
ATOM      7  C   UNL A   1      44.326  27.412  26.291  1.00  0.00     0.041 A 
ATOM      8  C   UNL A   1      43.318  29.473  27.124  1.00  0.00     0.064 A 
ATOM      9  C   UNL A   1      42.295  29.343  26.186  1.00  0.00     0.028 A 
ATOM     10  C   UNL A   1      44.342  28.517  27.144  1.00  0.00     0.042 A 
ATOM     11  C   UNL A   1      42.300  28.284  25.275  1.00  0.00     0.003 A 
ATOM     12  C   UNL A   1      43.309  27.319  25.333  1.00  0.00     0.014 A 
BRANCH   8  13
ATOM     13  N   UNL A   1      43.194  30.412  28.159  1.00  0.00    -0.248 NA
ATOM     14  C   UNL A   1      45.468  32.803  29.143  1.00  0.00     0.148 C 
ATOM     15  C   UNL A   1      46.403  31.712  29.707  1.00  0.00     0.048 C 
ATOM     16  C   UNL A   1      43.994  32.364  29.350  1.00  0.00     0.103 C 
ATOM     17  N   UNL A   1      45.612  32.915  27.670  1.00  0.00    -0.290 N 
ATOM     18  C   UNL A   1      43.815  31.546  28.124  1.00  0.00     0.109 C 
ATOM     19  C   UNL A   1      44.625  32.174  27.021  1.00  0.00     0.273 C 
ATOM     20  O   UNL A   1      44.369  31.996  25.850  1.00  0.00    -0.267 OA
BRANCH  14  21
ATOM     21  C   UNL A   1      45.579  34.098  29.971  1.00  0.00     0.332 C 
ATOM     22  O   UNL A   1      44.882  35.087  29.771  1.00  0.00    -0.249 OA
BRANCH  21  23
ATOM     23  O   UNL A   1      46.631  34.064  30.833  1.00  0.00    -0.464 OA
BRANCH  23  24
ATOM     24  C   UNL A   1      47.435  35.252  30.882  1.00  0.00     0.229 C 
ATOM     25  C   UNL A   1      48.502  35.225  29.802  1.00  0.00     0.049 C 
ENDBRANCH  23  24
ENDBRANCH  21  23
ENDBRANCH  14  21
BRANCH  17  26
ATOM     26  C   UNL A   1      46.685  33.586  27.006  1.00  0.00     0.045 A 
ATOM     27  C   UNL A   1      47.909  32.941  26.767  1.00  0.00     0.026 A 
ATOM     28  C   UNL A   1      46.572  34.916  26.570  1.00  0.00     0.026 A 
ATOM     29  C   UNL A   1      48.973  33.594  26.130  1.00  0.00     0.002 A 
ATOM     30  C   UNL A   1      47.638  35.574  25.941  1.00  0.00     0.002 A 
ATOM     31  C   UNL A   1      48.839  34.914  25.721  1.00  0.00     0.000 A 
ENDBRANCH  17  26
ENDBRANCH   8  13
ENDBRANCH   4   7
ENDBRANCH   2   3
ENDBRANCH   1   2
BRANCH   1  32
ATOM     32  C   UNL A   1      42.485  22.233  25.636  1.00  0.00     0.023 C 
BRANCH  32  33
ATOM     33  C   UNL A   1      41.381  21.648  26.513  1.00  0.00     0.116 C 
BRANCH  33  34
ATOM     34  N   UNL A   1      40.051  21.755  25.936  1.00  0.00    -0.352 N 
ATOM     35  C   UNL A   1      39.113  22.759  25.988  1.00  0.00     0.251 C 
ATOM     36  H   UNL A   1      39.770  20.968  25.416  1.00  0.00     0.163 HD
ATOM     37  O   UNL A   1      38.020  22.573  25.457  1.00  0.00    -0.269 OA
BRANCH  35  38
ATOM     38  C   UNL A   1      39.375  24.031  26.703  1.00  0.00     0.039 A 
ATOM     39  C   UNL A   1      38.870  24.176  28.001  1.00  0.00     0.014 A 
ATOM     40  C   UNL A   1      40.077  25.087  26.116  1.00  0.00     0.014 A 
ATOM     41  C   UNL A   1      39.151  25.329  28.740  1.00  0.00     0.010 A 
ATOM     42  C   UNL A   1      40.402  26.216  26.871  1.00  0.00     0.010 A 
ATOM     43  C   UNL A   1      39.961  26.338  28.197  1.00  0.00    -0.014 A 
BRANCH  43  44
ATOM     44  C   UNL A   1      40.403  27.497  29.018  1.00  0.00     0.031 A 
ATOM     45  C   UNL A   1      41.712  27.467  29.751  1.00  0.00     0.074 A 
ATOM     46  C   UNL A   1      39.580  28.553  29.169  1.00  0.00     0.049 A 
ATOM     47  N   UNL A   1      42.175  28.307  30.643  1.00  0.00    -0.248 NA
ATOM     48  C   UNL A   1      42.607  26.338  29.461  1.00  0.00     0.031 C 
ATOM     49  C   UNL A   1      38.263  28.699  28.546  1.00  0.00     0.029 A 
ATOM     50  N   UNL A   1      39.728  29.699  29.909  1.00  0.00    -0.354 N 
ATOM     51  C   UNL A   1      43.385  27.777  31.068  1.00  0.00     0.074 A 
ATOM     52  C   UNL A   1      43.600  26.559  30.313  1.00  0.00     0.031 C 
ATOM     53  C   UNL A   1      37.730  29.875  28.916  1.00  0.00     0.029 A 
ATOM     54  C   UNL A   1      38.653  30.550  29.826  1.00  0.00     0.049 A 
ATOM     55  H   UNL A   1      40.528  29.893  30.448  1.00  0.00     0.167 HD
ATOM     56  C   UNL A   1      44.233  28.252  32.012  1.00  0.00     0.037 A 
ATOM     57  C   UNL A   1      38.424  31.734  30.422  1.00  0.00     0.037 A 
ATOM     58  C   UNL A   1      44.058  29.486  32.731  1.00  0.00     0.049 A 
ATOM     59  C   UNL A   1      39.436  32.302  31.370  1.00  0.00     0.074 A 
ATOM     60  C   UNL A   1      44.867  30.043  33.706  1.00  0.00     0.029 A 
ATOM     61  N   UNL A   1      43.006  30.368  32.535  1.00  0.00    -0.354 N 
ATOM     62  N   UNL A   1      40.560  31.772  31.783  1.00  0.00    -0.248 NA
ATOM     63  C   UNL A   1      39.146  33.627  31.936  1.00  0.00     0.031 C 
ATOM     64  C   UNL A   1      44.311  31.271  34.090  1.00  0.00     0.029 A 
ATOM     65  C   UNL A   1      43.156  31.475  33.354  1.00  0.00     0.049 A 
ATOM     66  H   UNL A   1      42.262  30.228  31.905  1.00  0.00     0.167 HD
ATOM     67  C   UNL A   1      41.109  32.692  32.666  1.00  0.00     0.074 A 
ATOM     68  C   UNL A   1      40.202  33.821  32.715  1.00  0.00     0.031 C 
ATOM     69  C   UNL A   1      42.256  32.597  33.383  1.00  0.00     0.037 A 
BRANCH  56  70
ATOM     70  C   UNL A   1      45.419  27.397  32.336  1.00  0.00     0.058 A 
ATOM     71  C   UNL A   1      45.410  26.513  33.425  1.00  0.00     0.135 A 
ATOM     72  C   UNL A   1      46.589  27.490  31.567  1.00  0.00     0.135 A 
ATOM     73  F   UNL A   1      44.318  26.407  34.198  1.00  0.00    -0.206 F 
ATOM     74  C   UNL A   1      46.535  25.767  33.760  1.00  0.00     0.059 A 
ATOM     75  C   UNL A   1      47.723  26.748  31.880  1.00  0.00     0.059 A 
ATOM     76  F   UNL A   1      46.647  28.329  30.521  1.00  0.00    -0.206 F 
ATOM     77  C   UNL A   1      47.692  25.905  32.991  1.00  0.00     0.060 A 
BRANCH  77  78
ATOM     78  S   UNL A   1      49.181  24.986  33.438  1.00  0.00     0.124 S 
ATOM     79  O   UNL A   1      48.610  23.740  33.940  1.00  0.00    -0.237 OA
ATOM     80  O   UNL A   1      49.900  24.885  32.172  1.00  0.00    -0.237 OA
ATOM     81  O   UNL A   1      49.805  25.844  34.440  1.00  0.00    -0.744 OA
ENDBRANCH  77  78
ENDBRANCH  56  70
BRANCH  57  82
ATOM     82  C   UNL A   1      37.168  32.460  30.127  1.00  0.00     0.058 A 
ATOM     83  C   UNL A   1      36.012  32.222  30.883  1.00  0.00     0.135 A 
ATOM     84  C   UNL A   1      37.119  33.446  29.133  1.00  0.00     0.135 A 
ATOM     85  F   UNL A   1      36.021  31.287  31.845  1.00  0.00    -0.206 F 
ATOM     86  C   UNL A   1      34.845  32.946  30.670  1.00  0.00     0.059 A 
ATOM     87  C   UNL A   1      35.966  34.187  28.904  1.00  0.00     0.059 A 
ATOM     88  F   UNL A   1      38.208  33.711  28.396  1.00  0.00    -0.206 F 
ATOM     89  C   UNL A   1      34.832  33.929  29.679  1.00  0.00     0.060 A 
BRANCH  89  90
ATOM     90  S   UNL A   1      33.357  34.946  29.454  1.00  0.00     0.124 S 
ATOM     91  O   UNL A   1      33.937  36.208  29.011  1.00  0.00    -0.237 OA
ATOM     92  O   UNL A   1      32.602  34.204  28.450  1.00  0.00    -0.237 OA
ATOM     93  O   UNL A   1      32.764  34.951  30.789  1.00  0.00    -0.744 OA
ENDBRANCH  89  90
ENDBRANCH  57  82
BRANCH  69  94
ATOM     94  C   UNL A   1      42.592  33.753  34.273  1.00  0.00     0.058 A 
ATOM     95  C   UNL A   1      43.186  34.914  33.754  1.00  0.00     0.135 A 
ATOM     96  C   UNL A   1      42.309  33.711  35.645  1.00  0.00     0.135 A 
ATOM     97  F   UNL A   1      43.480  34.996  32.447  1.00  0.00    -0.206 F 
ATOM     98  C   UNL A   1      43.499  35.995  34.572  1.00  0.00     0.059 A 
ATOM     99  C   UNL A   1      42.611  34.780  36.481  1.00  0.00     0.059 A 
ATOM    100  F   UNL A   1      41.746  32.618  36.184  1.00  0.00    -0.206 F 
ATOM    101  C   UNL A   1      43.216  35.915  35.937  1.00  0.00     0.060 A 
BRANCH 101 102
ATOM    102  S   UNL A   1      43.601  37.318  37.008  1.00  0.00     0.124 S 
ATOM    103  O   UNL A   1      42.350  37.476  37.741  1.00  0.00    -0.237 OA
ATOM    104  O   UNL A   1      44.735  36.832  37.788  1.00  0.00    -0.237 OA
ATOM    105  O   UNL A   1      43.914  38.380  36.057  1.00  0.00    -0.744 OA
ENDBRANCH 101 102
ENDBRANCH  69  94
ENDBRANCH  43  44
ENDBRANCH  35  38
ENDBRANCH  33  34
ENDBRANCH  32  33
ENDBRANCH   1  32
TORSDOF 19
ENDMDL
