MODEL 1
REMARK VINA RESULT:     -10.7      0.000      0.000
REMARK SMILES C[C@H](C(=O)NCCCCNC(=O)c1ccc(-c2c3nc(c(-c4c(F)cc(S(=O)(=O)[O-])cc4F)c4ccc([nH]4)c(-c4c(F)cc(S(=O)(=O)[O-])cc4F)c4nc(c(-c5c(F)cc(S(=O)(=O)[O-])cc5F)c5ccc2[nH]5)C=C4)C=C3)cc1)[C@H](C)[S@@](=O)c1cccs1
REMARK SMILES IDX 7 1 6 2 5 3 3 4 4 5 2 7 1 8 79 9 80 10 81 11 82 12 83 13
REMARK SMILES IDX 84 14 87 15 85 16 86 17 8 18 9 19 10 20 11 21 12 23 13 24
REMARK SMILES IDX 14 25 78 26 15 27 77 28 16 29 17 30 18 31 71 32 19 33 76 34
REMARK SMILES IDX 70 35 72 36 20 37 75 38 69 39 68 40 21 42 55 43 34 44 54 45
REMARK SMILES IDX 35 46 38 47 53 48 73 49 36 50 37 51 52 53 74 54 39 55 22 56
REMARK SMILES IDX 23 57 32 58 24 59 25 60 31 61 33 62 26 63 27 64 28 65 29 66
REMARK SMILES IDX 30 67 56 68 57 69 66 70 58 71 59 72 65 73 67 74 60 75 61 76
REMARK SMILES IDX 62 77 63 78 64 79 40 80 41 81 50 82 42 83 43 84 49 85 51 86
REMARK SMILES IDX 44 87 45 88 46 89 47 90 48 91
REMARK H PARENT 5 6 10 22 72 41 38 52
REMARK Flexibility Score: inf
ROOT
ATOM      1  C   UNL A   1      33.230  29.491  24.955  1.00  0.00     0.023 C 
ENDROOT
BRANCH   1   2
ATOM      2  C   UNL A   1      31.717  29.440  24.750  1.00  0.00     0.116 C 
BRANCH   2   3
ATOM      3  N   UNL A   1      31.372  28.842  23.477  1.00  0.00    -0.356 N 
ATOM      4  C   UNL A   1      30.716  27.690  23.188  1.00  0.00     0.224 C 
ATOM      5  O   UNL A   1      30.590  27.394  21.999  1.00  0.00    -0.275 OA
ATOM      6  H   UNL A   1      31.662  29.358  22.691  1.00  0.00     0.163 HD
BRANCH   4   7
ATOM      7  C   UNL A   1      30.199  26.787  24.304  1.00  0.00     0.091 C 
ATOM      8  C   UNL A   1      28.737  26.470  23.980  1.00  0.00     0.019 C 
BRANCH   7   9
ATOM      9  C   UNL A   1      31.152  25.583  24.519  1.00  0.00     0.094 C 
ATOM     10  C   UNL A   1      30.754  24.279  23.834  1.00  0.00     0.023 C 
BRANCH   9  11
ATOM     11  S   UNL A   1      31.720  25.339  26.257  1.00  0.00     0.067 S 
ATOM     12  O   UNL A   1      30.761  24.388  26.915  1.00  0.00    -0.253 OA
BRANCH  11  13
ATOM     13  C   UNL A   1      33.243  24.507  26.069  1.00  0.00     0.091 A 
ATOM     14  C   UNL A   1      34.319  25.006  25.364  1.00  0.00     0.029 A 
ATOM     15  S   UNL A   1      33.531  22.917  26.613  1.00  0.00    -0.135 S 
ATOM     16  C   UNL A   1      35.449  24.138  25.432  1.00  0.00     0.013 A 
ATOM     17  C   UNL A   1      35.160  22.967  26.097  1.00  0.00     0.066 A 
ENDBRANCH  11  13
ENDBRANCH   9  11
ENDBRANCH   7   9
ENDBRANCH   4   7
ENDBRANCH   2   3
ENDBRANCH   1   2
BRANCH   1  18
ATOM     18  C   UNL A   1      33.790  28.453  25.934  1.00  0.00     0.023 C 
BRANCH  18  19
ATOM     19  C   UNL A   1      33.479  28.699  27.408  1.00  0.00     0.116 C 
BRANCH  19  20
ATOM     20  N   UNL A   1      33.528  30.107  27.769  1.00  0.00    -0.352 N 
ATOM     21  C   UNL A   1      34.561  30.831  28.316  1.00  0.00     0.251 C 
ATOM     22  H   UNL A   1      32.702  30.615  27.597  1.00  0.00     0.163 HD
ATOM     23  O   UNL A   1      34.373  31.990  28.675  1.00  0.00    -0.269 OA
BRANCH  21  24
ATOM     24  C   UNL A   1      35.885  30.199  28.505  1.00  0.00     0.039 A 
ATOM     25  C   UNL A   1      36.773  30.164  27.426  1.00  0.00     0.014 A 
ATOM     26  C   UNL A   1      36.263  29.674  29.743  1.00  0.00     0.014 A 
ATOM     27  C   UNL A   1      38.073  29.692  27.615  1.00  0.00     0.010 A 
ATOM     28  C   UNL A   1      37.578  29.257  29.946  1.00  0.00     0.010 A 
ATOM     29  C   UNL A   1      38.502  29.287  28.890  1.00  0.00    -0.014 A 
BRANCH  29  30
ATOM     30  C   UNL A   1      39.930  28.966  29.156  1.00  0.00     0.031 A 
ATOM     31  C   UNL A   1      40.872  30.023  29.659  1.00  0.00     0.074 A 
ATOM     32  C   UNL A   1      40.392  27.735  28.851  1.00  0.00     0.049 A 
ATOM     33  N   UNL A   1      42.165  29.950  29.847  1.00  0.00    -0.248 NA
ATOM     34  C   UNL A   1      40.294  31.340  29.971  1.00  0.00     0.031 C 
ATOM     35  C   UNL A   1      39.585  26.640  28.305  1.00  0.00     0.029 A 
ATOM     36  N   UNL A   1      41.655  27.203  28.932  1.00  0.00    -0.354 N 
ATOM     37  C   UNL A   1      42.558  31.209  30.283  1.00  0.00     0.074 A 
ATOM     38  C   UNL A   1      41.372  32.038  30.303  1.00  0.00     0.031 C 
ATOM     39  C   UNL A   1      40.371  25.570  28.102  1.00  0.00     0.029 A 
ATOM     40  C   UNL A   1      41.742  25.913  28.462  1.00  0.00     0.049 A 
ATOM     41  H   UNL A   1      42.426  27.699  29.291  1.00  0.00     0.167 HD
ATOM     42  C   UNL A   1      43.794  31.627  30.646  1.00  0.00     0.037 A 
ATOM     43  C   UNL A   1      42.809  25.102  28.313  1.00  0.00     0.037 A 
ATOM     44  C   UNL A   1      44.964  30.787  30.656  1.00  0.00     0.049 A 
ATOM     45  C   UNL A   1      44.171  25.600  28.716  1.00  0.00     0.074 A 
ATOM     46  C   UNL A   1      46.239  31.096  31.100  1.00  0.00     0.029 A 
ATOM     47  N   UNL A   1      45.010  29.481  30.192  1.00  0.00    -0.354 N 
ATOM     48  N   UNL A   1      44.506  26.765  29.216  1.00  0.00    -0.248 NA
ATOM     49  C   UNL A   1      45.299  24.675  28.535  1.00  0.00     0.031 C 
ATOM     50  C   UNL A   1      47.066  29.996  30.858  1.00  0.00     0.029 A 
ATOM     51  C   UNL A   1      46.298  28.985  30.305  1.00  0.00     0.049 A 
ATOM     52  H   UNL A   1      44.240  28.981  29.835  1.00  0.00     0.167 HD
ATOM     53  C   UNL A   1      45.881  26.708  29.419  1.00  0.00     0.074 A 
ATOM     54  C   UNL A   1      46.311  25.388  29.012  1.00  0.00     0.031 C 
ATOM     55  C   UNL A   1      46.713  27.667  29.895  1.00  0.00     0.037 A 
BRANCH  42  56
ATOM     56  C   UNL A   1      43.961  33.057  31.078  1.00  0.00     0.058 A 
ATOM     57  C   UNL A   1      44.274  34.070  30.161  1.00  0.00     0.135 A 
ATOM     58  C   UNL A   1      43.706  33.432  32.408  1.00  0.00     0.135 A 
ATOM     59  F   UNL A   1      44.540  33.765  28.880  1.00  0.00    -0.206 F 
ATOM     60  C   UNL A   1      44.332  35.406  30.545  1.00  0.00     0.059 A 
ATOM     61  C   UNL A   1      43.735  34.763  32.810  1.00  0.00     0.059 A 
ATOM     62  F   UNL A   1      43.404  32.500  33.327  1.00  0.00    -0.206 F 
ATOM     63  C   UNL A   1      44.053  35.744  31.871  1.00  0.00     0.060 A 
BRANCH  63  64
ATOM     64  S   UNL A   1      44.080  37.487  32.338  1.00  0.00     0.124 S 
ATOM     65  O   UNL A   1      45.470  37.656  32.754  1.00  0.00    -0.237 OA
ATOM     66  O   UNL A   1      43.707  38.150  31.093  1.00  0.00    -0.237 OA
ATOM     67  O   UNL A   1      43.091  37.569  33.409  1.00  0.00    -0.744 OA
ENDBRANCH  63  64
ENDBRANCH  42  56
BRANCH  43  68
ATOM     68  C   UNL A   1      42.643  23.742  27.734  1.00  0.00     0.058 A 
ATOM     69  C   UNL A   1      42.501  22.617  28.559  1.00  0.00     0.135 A 
ATOM     70  C   UNL A   1      42.649  23.539  26.345  1.00  0.00     0.135 A 
ATOM     71  F   UNL A   1      42.496  22.759  29.893  1.00  0.00    -0.206 F 
ATOM     72  C   UNL A   1      42.400  21.333  28.029  1.00  0.00     0.059 A 
ATOM     73  C   UNL A   1      42.522  22.269  25.792  1.00  0.00     0.059 A 
ATOM     74  F   UNL A   1      42.765  24.585  25.513  1.00  0.00    -0.206 F 
ATOM     75  C   UNL A   1      42.416  21.170  26.643  1.00  0.00     0.060 A 
BRANCH  75  76
ATOM     76  S   UNL A   1      42.268  19.504  25.962  1.00  0.00     0.124 S 
ATOM     77  O   UNL A   1      43.211  19.558  24.851  1.00  0.00    -0.237 OA
ATOM     78  O   UNL A   1      42.661  18.672  27.095  1.00  0.00    -0.237 OA
ATOM     79  O   UNL A   1      40.858  19.419  25.593  1.00  0.00    -0.744 OA
ENDBRANCH  75  76
ENDBRANCH  43  68
BRANCH  55  80
ATOM     80  C   UNL A   1      48.171  27.323  30.009  1.00  0.00     0.058 A 
ATOM     81  C   UNL A   1      49.086  27.680  29.007  1.00  0.00     0.135 A 
ATOM     82  C   UNL A   1      48.667  26.681  31.155  1.00  0.00     0.135 A 
ATOM     83  F   UNL A   1      48.662  28.286  27.888  1.00  0.00    -0.206 F 
ATOM     84  C   UNL A   1      50.443  27.398  29.131  1.00  0.00     0.059 A 
ATOM     85  C   UNL A   1      50.024  26.413  31.311  1.00  0.00     0.059 A 
ATOM     86  F   UNL A   1      47.834  26.325  32.146  1.00  0.00    -0.206 F 
ATOM     87  C   UNL A   1      50.902  26.766  30.288  1.00  0.00     0.060 A 
BRANCH  87  88
ATOM     88  S   UNL A   1      52.672  26.446  30.454  1.00  0.00     0.124 S 
ATOM     89  O   UNL A   1      52.682  25.337  31.403  1.00  0.00    -0.237 OA
ATOM     90  O   UNL A   1      53.059  26.115  29.087  1.00  0.00    -0.237 OA
ATOM     91  O   UNL A   1      53.200  27.709  30.961  1.00  0.00    -0.744 OA
ENDBRANCH  87  88
ENDBRANCH  55  80
ENDBRANCH  29  30
ENDBRANCH  21  24
ENDBRANCH  19  20
ENDBRANCH  18  19
ENDBRANCH   1  18
TORSDOF 17
ENDMDL
MODEL 2
REMARK VINA RESULT:     -10.2      1.330      2.062
REMARK SMILES C[C@H](C(=O)NCCCCNC(=O)c1ccc(-c2c3nc(c(-c4c(F)cc(S(=O)(=O)[O-])cc4F)c4ccc([nH]4)c(-c4c(F)cc(S(=O)(=O)[O-])cc4F)c4nc(c(-c5c(F)cc(S(=O)(=O)[O-])cc5F)c5ccc2[nH]5)C=C4)C=C3)cc1)[C@H](C)[S@@](=O)c1cccs1
REMARK SMILES IDX 7 1 6 2 5 3 3 4 4 5 2 7 1 8 79 9 80 10 81 11 82 12 83 13
REMARK SMILES IDX 84 14 87 15 85 16 86 17 8 18 9 19 10 20 11 21 12 23 13 24
REMARK SMILES IDX 14 25 78 26 15 27 77 28 16 29 17 30 18 31 71 32 19 33 76 34
REMARK SMILES IDX 70 35 72 36 20 37 75 38 69 39 68 40 21 42 55 43 34 44 54 45
REMARK SMILES IDX 35 46 38 47 53 48 73 49 36 50 37 51 52 53 74 54 39 55 22 56
REMARK SMILES IDX 23 57 32 58 24 59 25 60 31 61 33 62 26 63 27 64 28 65 29 66
REMARK SMILES IDX 30 67 56 68 57 69 66 70 58 71 59 72 65 73 67 74 60 75 61 76
REMARK SMILES IDX 62 77 63 78 64 79 40 80 41 81 50 82 42 83 43 84 49 85 51 86
REMARK SMILES IDX 44 87 45 88 46 89 47 90 48 91
REMARK H PARENT 5 6 10 22 72 41 38 52
REMARK Flexibility Score: inf
ROOT
ATOM      1  C   UNL A   1      32.786  29.377  24.894  1.00  0.00     0.023 C 
ENDROOT
BRANCH   1   2
ATOM      2  C   UNL A   1      31.968  28.554  23.901  1.00  0.00     0.116 C 
BRANCH   2   3
ATOM      3  N   UNL A   1      32.818  27.876  22.944  1.00  0.00    -0.356 N 
ATOM      4  C   UNL A   1      33.060  26.554  22.755  1.00  0.00     0.224 C 
ATOM      5  O   UNL A   1      33.872  26.247  21.880  1.00  0.00    -0.275 OA
ATOM      6  H   UNL A   1      33.302  28.474  22.330  1.00  0.00     0.163 HD
BRANCH   4   7
ATOM      7  C   UNL A   1      32.377  25.504  23.626  1.00  0.00     0.091 C 
ATOM      8  C   UNL A   1      31.242  24.903  22.794  1.00  0.00     0.019 C 
BRANCH   7   9
ATOM      9  C   UNL A   1      33.421  24.519  24.214  1.00  0.00     0.094 C 
ATOM     10  C   UNL A   1      34.525  25.138  25.067  1.00  0.00     0.023 C 
BRANCH   9  11
ATOM     11  S   UNL A   1      34.050  23.251  23.033  1.00  0.00     0.067 S 
ATOM     12  O   UNL A   1      35.544  23.388  22.977  1.00  0.00    -0.253 OA
BRANCH  11  13
ATOM     13  C   UNL A   1      33.687  21.742  23.832  1.00  0.00     0.091 A 
ATOM     14  C   UNL A   1      32.465  21.105  23.773  1.00  0.00     0.029 A 
ATOM     15  S   UNL A   1      34.758  20.950  24.897  1.00  0.00    -0.135 S 
ATOM     16  C   UNL A   1      32.478  19.861  24.471  1.00  0.00     0.013 A 
ATOM     17  C   UNL A   1      33.674  19.646  25.118  1.00  0.00     0.066 A 
ENDBRANCH  11  13
ENDBRANCH   9  11
ENDBRANCH   7   9
ENDBRANCH   4   7
ENDBRANCH   2   3
ENDBRANCH   1   2
BRANCH   1  18
ATOM     18  C   UNL A   1      33.789  28.577  25.733  1.00  0.00     0.023 C 
BRANCH  18  19
ATOM     19  C   UNL A   1      33.606  28.667  27.246  1.00  0.00     0.116 C 
BRANCH  19  20
ATOM     20  N   UNL A   1      33.609  30.036  27.735  1.00  0.00    -0.352 N 
ATOM     21  C   UNL A   1      34.605  30.729  28.381  1.00  0.00     0.251 C 
ATOM     22  H   UNL A   1      32.776  30.539  27.583  1.00  0.00     0.163 HD
ATOM     23  O   UNL A   1      34.376  31.846  28.838  1.00  0.00    -0.269 OA
BRANCH  21  24
ATOM     24  C   UNL A   1      35.938  30.112  28.555  1.00  0.00     0.039 A 
ATOM     25  C   UNL A   1      36.823  30.109  27.473  1.00  0.00     0.014 A 
ATOM     26  C   UNL A   1      36.326  29.571  29.783  1.00  0.00     0.014 A 
ATOM     27  C   UNL A   1      38.130  29.652  27.651  1.00  0.00     0.010 A 
ATOM     28  C   UNL A   1      37.648  29.170  29.975  1.00  0.00     0.010 A 
ATOM     29  C   UNL A   1      38.568  29.230  28.918  1.00  0.00    -0.014 A 
BRANCH  29  30
ATOM     30  C   UNL A   1      40.001  28.925  29.174  1.00  0.00     0.031 A 
ATOM     31  C   UNL A   1      40.938  29.994  29.658  1.00  0.00     0.074 A 
ATOM     32  C   UNL A   1      40.471  27.695  28.877  1.00  0.00     0.049 A 
ATOM     33  N   UNL A   1      42.233  29.934  29.836  1.00  0.00    -0.248 NA
ATOM     34  C   UNL A   1      40.351  31.310  29.964  1.00  0.00     0.031 C 
ATOM     35  C   UNL A   1      39.670  26.587  28.348  1.00  0.00     0.029 A 
ATOM     36  N   UNL A   1      41.740  27.175  28.952  1.00  0.00    -0.354 N 
ATOM     37  C   UNL A   1      42.619  31.201  30.257  1.00  0.00     0.074 A 
ATOM     38  C   UNL A   1      41.426  32.020  30.279  1.00  0.00     0.031 C 
ATOM     39  C   UNL A   1      40.464  25.523  28.148  1.00  0.00     0.029 A 
ATOM     40  C   UNL A   1      41.835  25.881  28.494  1.00  0.00     0.049 A 
ATOM     41  H   UNL A   1      42.510  27.681  29.299  1.00  0.00     0.167 HD
ATOM     42  C   UNL A   1      43.854  31.634  30.606  1.00  0.00     0.037 A 
ATOM     43  C   UNL A   1      42.908  25.078  28.343  1.00  0.00     0.037 A 
ATOM     44  C   UNL A   1      45.031  30.804  30.613  1.00  0.00     0.049 A 
ATOM     45  C   UNL A   1      44.268  25.592  28.730  1.00  0.00     0.074 A 
ATOM     46  C   UNL A   1      46.307  31.129  31.043  1.00  0.00     0.029 A 
ATOM     47  N   UNL A   1      45.085  29.494  30.161  1.00  0.00    -0.354 N 
ATOM     48  N   UNL A   1      44.597  26.764  29.216  1.00  0.00    -0.248 NA
ATOM     49  C   UNL A   1      45.403  24.676  28.547  1.00  0.00     0.031 C 
ATOM     50  C   UNL A   1      47.142  30.033  30.805  1.00  0.00     0.029 A 
ATOM     51  C   UNL A   1      46.378  29.010  30.268  1.00  0.00     0.049 A 
ATOM     52  H   UNL A   1      44.316  28.984  29.815  1.00  0.00     0.167 HD
ATOM     53  C   UNL A   1      45.974  26.722  29.407  1.00  0.00     0.074 A 
ATOM     54  C   UNL A   1      46.412  25.401  29.008  1.00  0.00     0.031 C 
ATOM     55  C   UNL A   1      46.801  27.693  29.866  1.00  0.00     0.037 A 
BRANCH  42  56
ATOM     56  C   UNL A   1      44.012  33.069  31.023  1.00  0.00     0.058 A 
ATOM     57  C   UNL A   1      43.960  33.452  32.371  1.00  0.00     0.135 A 
ATOM     58  C   UNL A   1      44.321  34.055  30.071  1.00  0.00     0.135 A 
ATOM     59  F   UNL A   1      43.656  32.551  33.319  1.00  0.00    -0.206 F 
ATOM     60  C   UNL A   1      44.205  34.765  32.763  1.00  0.00     0.059 A 
ATOM     61  C   UNL A   1      44.592  35.369  30.443  1.00  0.00     0.059 A 
ATOM     62  F   UNL A   1      44.381  33.742  28.767  1.00  0.00    -0.206 F 
ATOM     63  C   UNL A   1      44.528  35.715  31.792  1.00  0.00     0.060 A 
BRANCH  63  64
ATOM     64  S   UNL A   1      44.895  37.399  32.325  1.00  0.00     0.124 S 
ATOM     65  O   UNL A   1      45.847  37.162  33.407  1.00  0.00    -0.237 OA
ATOM     66  O   UNL A   1      45.449  37.996  31.115  1.00  0.00    -0.237 OA
ATOM     67  O   UNL A   1      43.594  37.918  32.737  1.00  0.00    -0.744 OA
ENDBRANCH  63  64
ENDBRANCH  42  56
BRANCH  43  68
ATOM     68  C   UNL A   1      42.748  23.712  27.779  1.00  0.00     0.058 A 
ATOM     69  C   UNL A   1      42.719  23.498  26.393  1.00  0.00     0.135 A 
ATOM     70  C   UNL A   1      42.597  22.594  28.615  1.00  0.00     0.135 A 
ATOM     71  F   UNL A   1      42.853  24.535  25.552  1.00  0.00    -0.206 F 
ATOM     72  C   UNL A   1      42.515  22.231  25.854  1.00  0.00     0.059 A 
ATOM     73  C   UNL A   1      42.419  21.314  28.101  1.00  0.00     0.059 A 
ATOM     74  F   UNL A   1      42.635  22.742  29.948  1.00  0.00    -0.206 F 
ATOM     75  C   UNL A   1      42.363  21.145  26.718  1.00  0.00     0.060 A 
BRANCH  75  76
ATOM     76  S   UNL A   1      42.115  19.501  26.013  1.00  0.00     0.124 S 
ATOM     77  O   UNL A   1      42.560  18.644  27.105  1.00  0.00    -0.237 OA
ATOM     78  O   UNL A   1      40.681  19.496  25.739  1.00  0.00    -0.237 OA
ATOM     79  O   UNL A   1      42.970  19.515  24.829  1.00  0.00    -0.744 OA
ENDBRANCH  75  76
ENDBRANCH  43  68
BRANCH  55  80
ATOM     80  C   UNL A   1      48.263  27.363  29.971  1.00  0.00     0.058 A 
ATOM     81  C   UNL A   1      49.154  27.649  28.926  1.00  0.00     0.135 A 
ATOM     82  C   UNL A   1      48.789  26.806  31.148  1.00  0.00     0.135 A 
ATOM     83  F   UNL A   1      48.701  28.172  27.776  1.00  0.00    -0.206 F 
ATOM     84  C   UNL A   1      50.514  27.381  29.037  1.00  0.00     0.059 A 
ATOM     85  C   UNL A   1      50.150  26.554  31.292  1.00  0.00     0.059 A 
ATOM     86  F   UNL A   1      47.980  26.520  32.182  1.00  0.00    -0.206 F 
ATOM     87  C   UNL A   1      51.003  26.836  30.227  1.00  0.00     0.060 A 
BRANCH  87  88
ATOM     88  S   UNL A   1      52.778  26.535  30.374  1.00  0.00     0.124 S 
ATOM     89  O   UNL A   1      52.811  25.454  31.354  1.00  0.00    -0.237 OA
ATOM     90  O   UNL A   1      53.147  26.166  29.011  1.00  0.00    -0.237 OA
ATOM     91  O   UNL A   1      53.303  27.816  30.835  1.00  0.00    -0.744 OA
ENDBRANCH  87  88
ENDBRANCH  55  80
ENDBRANCH  29  30
ENDBRANCH  21  24
ENDBRANCH  19  20
ENDBRANCH  18  19
ENDBRANCH   1  18
TORSDOF 17
ENDMDL
MODEL 3
REMARK VINA RESULT:     -10.0      1.298      8.576
REMARK SMILES C[C@H](C(=O)NCCCCNC(=O)c1ccc(-c2c3nc(c(-c4c(F)cc(S(=O)(=O)[O-])cc4F)c4ccc([nH]4)c(-c4c(F)cc(S(=O)(=O)[O-])cc4F)c4nc(c(-c5c(F)cc(S(=O)(=O)[O-])cc5F)c5ccc2[nH]5)C=C4)C=C3)cc1)[C@H](C)[S@@](=O)c1cccs1
REMARK SMILES IDX 7 1 6 2 5 3 3 4 4 5 2 7 1 8 79 9 80 10 81 11 82 12 83 13
REMARK SMILES IDX 84 14 87 15 85 16 86 17 8 18 9 19 10 20 11 21 12 23 13 24
REMARK SMILES IDX 14 25 78 26 15 27 77 28 16 29 17 30 18 31 71 32 19 33 76 34
REMARK SMILES IDX 70 35 72 36 20 37 75 38 69 39 68 40 21 42 55 43 34 44 54 45
REMARK SMILES IDX 35 46 38 47 53 48 73 49 36 50 37 51 52 53 74 54 39 55 22 56
REMARK SMILES IDX 23 57 32 58 24 59 25 60 31 61 33 62 26 63 27 64 28 65 29 66
REMARK SMILES IDX 30 67 56 68 57 69 66 70 58 71 59 72 65 73 67 74 60 75 61 76
REMARK SMILES IDX 62 77 63 78 64 79 40 80 41 81 50 82 42 83 43 84 49 85 51 86
REMARK SMILES IDX 44 87 45 88 46 89 47 90 48 91
REMARK H PARENT 5 6 10 22 72 41 38 52
REMARK Flexibility Score: inf
ROOT
ATOM      1  C   UNL A   1      32.752  28.973  24.856  1.00  0.00     0.023 C 
ENDROOT
BRANCH   1   2
ATOM      2  C   UNL A   1      32.128  27.870  24.003  1.00  0.00     0.116 C 
BRANCH   2   3
ATOM      3  N   UNL A   1      30.947  27.316  24.631  1.00  0.00    -0.356 N 
ATOM      4  C   UNL A   1      30.694  26.066  25.096  1.00  0.00     0.224 C 
ATOM      5  O   UNL A   1      29.572  25.850  25.556  1.00  0.00    -0.275 OA
ATOM      6  H   UNL A   1      30.203  27.952  24.737  1.00  0.00     0.163 HD
BRANCH   4   7
ATOM      7  C   UNL A   1      31.754  24.973  25.007  1.00  0.00     0.091 C 
ATOM      8  C   UNL A   1      32.586  25.052  26.290  1.00  0.00     0.019 C 
BRANCH   7   9
ATOM      9  C   UNL A   1      31.103  23.606  24.670  1.00  0.00     0.094 C 
ATOM     10  C   UNL A   1      30.860  22.668  25.849  1.00  0.00     0.023 C 
BRANCH   9  11
ATOM     11  S   UNL A   1      31.810  22.747  23.200  1.00  0.00     0.067 S 
ATOM     12  O   UNL A   1      32.624  23.753  22.437  1.00  0.00    -0.253 OA
BRANCH  11  13
ATOM     13  C   UNL A   1      32.918  21.594  23.902  1.00  0.00     0.091 A 
ATOM     14  C   UNL A   1      34.199  21.899  24.313  1.00  0.00     0.029 A 
ATOM     15  S   UNL A   1      32.596  19.925  24.031  1.00  0.00    -0.135 S 
ATOM     16  C   UNL A   1      34.850  20.776  24.904  1.00  0.00     0.013 A 
ATOM     17  C   UNL A   1      34.080  19.636  24.829  1.00  0.00     0.066 A 
ENDBRANCH  11  13
ENDBRANCH   9  11
ENDBRANCH   7   9
ENDBRANCH   4   7
ENDBRANCH   2   3
ENDBRANCH   1   2
BRANCH   1  18
ATOM     18  C   UNL A   1      33.894  28.521  25.773  1.00  0.00     0.023 C 
BRANCH  18  19
ATOM     19  C   UNL A   1      33.620  28.621  27.271  1.00  0.00     0.116 C 
BRANCH  19  20
ATOM     20  N   UNL A   1      33.633  29.991  27.758  1.00  0.00    -0.352 N 
ATOM     21  C   UNL A   1      34.656  30.697  28.345  1.00  0.00     0.251 C 
ATOM     22  H   UNL A   1      32.787  30.484  27.653  1.00  0.00     0.163 HD
ATOM     23  O   UNL A   1      34.439  31.812  28.813  1.00  0.00    -0.269 OA
BRANCH  21  24
ATOM     24  C   UNL A   1      36.004  30.097  28.444  1.00  0.00     0.039 A 
ATOM     25  C   UNL A   1      36.863  30.189  27.345  1.00  0.00     0.014 A 
ATOM     26  C   UNL A   1      36.432  29.477  29.621  1.00  0.00     0.014 A 
ATOM     27  C   UNL A   1      38.182  29.747  27.460  1.00  0.00     0.010 A 
ATOM     28  C   UNL A   1      37.765  29.090  29.753  1.00  0.00     0.010 A 
ATOM     29  C   UNL A   1      38.658  29.245  28.683  1.00  0.00    -0.014 A 
BRANCH  29  30
ATOM     30  C   UNL A   1      40.102  28.951  28.884  1.00  0.00     0.031 A 
ATOM     31  C   UNL A   1      40.669  27.607  28.524  1.00  0.00     0.074 A 
ATOM     32  C   UNL A   1      40.881  29.877  29.482  1.00  0.00     0.049 A 
ATOM     33  N   UNL A   1      41.876  27.143  28.725  1.00  0.00    -0.248 NA
ATOM     34  C   UNL A   1      39.759  26.650  27.874  1.00  0.00     0.031 C 
ATOM     35  C   UNL A   1      40.433  31.200  29.927  1.00  0.00     0.029 A 
ATOM     36  N   UNL A   1      42.206  29.842  29.841  1.00  0.00    -0.354 N 
ATOM     37  C   UNL A   1      41.868  25.840  28.243  1.00  0.00     0.074 A 
ATOM     38  C   UNL A   1      40.527  25.574  27.767  1.00  0.00     0.031 C 
ATOM     39  C   UNL A   1      41.462  31.847  30.497  1.00  0.00     0.029 A 
ATOM     40  C   UNL A   1      42.631  30.974  30.497  1.00  0.00     0.049 A 
ATOM     41  H   UNL A   1      42.796  29.077  29.650  1.00  0.00     0.167 HD
ATOM     42  C   UNL A   1      42.891  24.954  28.191  1.00  0.00     0.037 A 
ATOM     43  C   UNL A   1      43.820  31.270  31.059  1.00  0.00     0.037 A 
ATOM     44  C   UNL A   1      44.231  25.237  28.636  1.00  0.00     0.049 A 
ATOM     45  C   UNL A   1      44.934  30.261  30.994  1.00  0.00     0.074 A 
ATOM     46  C   UNL A   1      45.356  24.435  28.534  1.00  0.00     0.029 A 
ATOM     47  N   UNL A   1      44.629  26.401  29.276  1.00  0.00    -0.354 N 
ATOM     48  N   UNL A   1      44.932  29.069  30.448  1.00  0.00    -0.248 NA
ATOM     49  C   UNL A   1      46.210  30.635  31.620  1.00  0.00     0.031 C 
ATOM     50  C   UNL A   1      46.420  25.093  29.157  1.00  0.00     0.029 A 
ATOM     51  C   UNL A   1      45.971  26.323  29.608  1.00  0.00     0.049 A 
ATOM     52  H   UNL A   1      44.042  27.169  29.467  1.00  0.00     0.167 HD
ATOM     53  C   UNL A   1      46.209  28.556  30.656  1.00  0.00     0.074 A 
ATOM     54  C   UNL A   1      46.962  29.576  31.354  1.00  0.00     0.031 C 
ATOM     55  C   UNL A   1      46.709  27.346  30.304  1.00  0.00     0.037 A 
BRANCH  42  56
ATOM     56  C   UNL A   1      42.620  23.589  27.623  1.00  0.00     0.058 A 
ATOM     57  C   UNL A   1      42.693  23.339  26.245  1.00  0.00     0.135 A 
ATOM     58  C   UNL A   1      42.386  22.498  28.478  1.00  0.00     0.135 A 
ATOM     59  F   UNL A   1      42.901  24.348  25.384  1.00  0.00    -0.206 F 
ATOM     60  C   UNL A   1      42.539  22.055  25.731  1.00  0.00     0.059 A 
ATOM     61  C   UNL A   1      42.253  21.203  27.987  1.00  0.00     0.059 A 
ATOM     62  F   UNL A   1      42.306  22.684  29.804  1.00  0.00    -0.206 F 
ATOM     63  C   UNL A   1      42.327  20.991  26.611  1.00  0.00     0.060 A 
BRANCH  63  64
ATOM     64  S   UNL A   1      42.184  19.326  25.930  1.00  0.00     0.124 S 
ATOM     65  O   UNL A   1      43.036  19.421  24.747  1.00  0.00    -0.237 OA
ATOM     66  O   UNL A   1      42.700  18.499  27.016  1.00  0.00    -0.237 OA
ATOM     67  O   UNL A   1      40.756  19.188  25.665  1.00  0.00    -0.744 OA
ENDBRANCH  63  64
ENDBRANCH  42  56
BRANCH  43  68
ATOM     68  C   UNL A   1      44.018  32.570  31.756  1.00  0.00     0.058 A 
ATOM     69  C   UNL A   1      43.741  32.708  33.124  1.00  0.00     0.135 A 
ATOM     70  C   UNL A   1      44.464  33.705  31.060  1.00  0.00     0.135 A 
ATOM     71  F   UNL A   1      43.306  31.654  33.830  1.00  0.00    -0.206 F 
ATOM     72  C   UNL A   1      43.870  33.933  33.773  1.00  0.00     0.059 A 
ATOM     73  C   UNL A   1      44.627  34.933  31.693  1.00  0.00     0.059 A 
ATOM     74  F   UNL A   1      44.759  33.621  29.754  1.00  0.00    -0.206 F 
ATOM     75  C   UNL A   1      44.310  35.041  33.047  1.00  0.00     0.060 A 
BRANCH  75  76
ATOM     76  S   UNL A   1      44.491  36.622  33.899  1.00  0.00     0.124 S 
ATOM     77  O   UNL A   1      43.210  37.257  33.613  1.00  0.00    -0.237 OA
ATOM     78  O   UNL A   1      44.703  36.206  35.282  1.00  0.00    -0.237 OA
ATOM     79  O   UNL A   1      45.653  37.220  33.249  1.00  0.00    -0.744 OA
ENDBRANCH  75  76
ENDBRANCH  43  68
BRANCH  55  80
ATOM     80  C   UNL A   1      48.140  27.059  30.661  1.00  0.00     0.058 A 
ATOM     81  C   UNL A   1      48.483  26.463  31.884  1.00  0.00     0.135 A 
ATOM     82  C   UNL A   1      49.173  27.332  29.751  1.00  0.00     0.135 A 
ATOM     83  F   UNL A   1      47.534  26.191  32.793  1.00  0.00    -0.206 F 
ATOM     84  C   UNL A   1      49.803  26.160  32.198  1.00  0.00     0.059 A 
ATOM     85  C   UNL A   1      50.498  27.013  30.033  1.00  0.00     0.059 A 
ATOM     86  F   UNL A   1      48.898  27.896  28.563  1.00  0.00    -0.206 F 
ATOM     87  C   UNL A   1      50.804  26.436  31.264  1.00  0.00     0.060 A 
BRANCH  87  88
ATOM     88  S   UNL A   1      52.509  25.997  31.668  1.00  0.00     0.124 S 
ATOM     89  O   UNL A   1      53.176  26.204  30.387  1.00  0.00    -0.237 OA
ATOM     90  O   UNL A   1      52.839  26.957  32.717  1.00  0.00    -0.237 OA
ATOM     91  O   UNL A   1      52.407  24.608  32.106  1.00  0.00    -0.744 OA
ENDBRANCH  87  88
ENDBRANCH  55  80
ENDBRANCH  29  30
ENDBRANCH  21  24
ENDBRANCH  19  20
ENDBRANCH  18  19
ENDBRANCH   1  18
TORSDOF 17
ENDMDL
