MODEL 1
REMARK VINA RESULT:     -12.3      0.000      0.000
REMARK SMILES Cc1ccc2nc(C(=O)NCCCCNC(=O)c3ccc(-c4c5nc(c(-c6c(F)cc(S(=O)(=O)[O-])cc6F)c6ccc([nH]6)c(-c6c(F)cc(S(=O)(=O)[O-])cc6F)c6nc(c(-c7c(F)cc(S(=O)(=O)[O-])cc7F)c7ccc4[nH]7)C=C6)C=C5)cc3)cc(N3CCOCC3)c2c1
REMARK SMILES IDX 13 1 12 2 11 3 10 4 8 5 9 6 7 8 1 9 2 10 3 11 93 12 4 13
REMARK SMILES IDX 92 14 5 15 85 16 6 17 84 18 86 19 87 20 91 21 88 22 90 23
REMARK SMILES IDX 89 24 14 25 15 26 16 27 17 29 18 30 19 31 83 32 20 33 82 34
REMARK SMILES IDX 21 35 22 36 23 37 76 38 24 39 81 40 75 41 77 42 25 43 80 44
REMARK SMILES IDX 74 45 73 46 26 48 60 49 39 50 59 51 40 52 43 53 58 54 78 55
REMARK SMILES IDX 41 56 42 57 57 59 79 60 44 61 27 62 28 63 37 64 29 65 30 66
REMARK SMILES IDX 36 67 38 68 31 69 32 70 33 71 34 72 35 73 61 74 62 75 71 76
REMARK SMILES IDX 63 77 64 78 70 79 72 80 65 81 66 82 67 83 68 84 69 85 45 86
REMARK SMILES IDX 46 87 55 88 47 89 48 90 54 91 56 92 49 93 50 94 51 95 52 96
REMARK SMILES IDX 53 97
REMARK H PARENT 10 7 15 28 77 47 43 58
REMARK Flexibility Score: inf
ROOT
ATOM      1  C   UNL A   1      32.851  27.929  25.938  1.00  0.00     0.023 C 
ENDROOT
BRANCH   1   2
ATOM      2  C   UNL A   1      31.423  27.393  26.090  1.00  0.00     0.023 C 
BRANCH   2   3
ATOM      3  C   UNL A   1      31.167  26.070  25.363  1.00  0.00     0.116 C 
BRANCH   3   4
ATOM      4  N   UNL A   1      30.438  25.151  26.213  1.00  0.00    -0.351 N 
ATOM      5  C   UNL A   1      30.661  23.846  26.593  1.00  0.00     0.269 C 
ATOM      6  O   UNL A   1      29.819  23.357  27.351  1.00  0.00    -0.268 OA
ATOM      7  H   UNL A   1      29.618  25.538  26.598  1.00  0.00     0.163 HD
BRANCH   5   8
ATOM      8  C   UNL A   1      31.854  23.021  26.173  1.00  0.00     0.130 A 
ATOM      9  C   UNL A   1      37.942  21.219  24.896  1.00  0.00     0.044 C 
ATOM     10  C   UNL A   1      36.646  21.858  25.289  1.00  0.00    -0.050 A 
ATOM     11  C   UNL A   1      36.605  23.111  25.891  1.00  0.00     0.005 A 
ATOM     12  C   UNL A   1      35.440  21.193  25.048  1.00  0.00     0.016 A 
ATOM     13  C   UNL A   1      35.375  23.681  26.233  1.00  0.00     0.029 A 
ATOM     14  C   UNL A   1      34.192  21.741  25.434  1.00  0.00     0.024 A 
ATOM     15  C   UNL A   1      34.173  23.025  26.011  1.00  0.00     0.073 A 
ATOM     16  C   UNL A   1      32.952  21.077  25.256  1.00  0.00     0.049 A 
ATOM     17  N   UNL A   1      33.042  23.650  26.352  1.00  0.00    -0.242 NA
ATOM     18  C   UNL A   1      31.788  21.732  25.674  1.00  0.00     0.060 A 
BRANCH  16  19
ATOM     19  N   UNL A   1      32.884  19.807  24.684  1.00  0.00    -0.366 N 
ATOM     20  C   UNL A   1      32.793  18.647  25.589  1.00  0.00     0.145 C 
ATOM     21  C   UNL A   1      32.190  19.607  23.401  1.00  0.00     0.145 C 
ATOM     22  C   UNL A   1      33.288  17.396  24.844  1.00  0.00     0.181 C 
ATOM     23  C   UNL A   1      32.699  18.312  22.746  1.00  0.00     0.181 C 
ATOM     24  O   UNL A   1      32.556  17.181  23.624  1.00  0.00    -0.378 OA
ENDBRANCH  16  19
ENDBRANCH   5   8
ENDBRANCH   3   4
ENDBRANCH   2   3
ENDBRANCH   1   2
BRANCH   1  25
ATOM     25  C   UNL A   1      33.538  28.306  27.248  1.00  0.00     0.116 C 
BRANCH  25  26
ATOM     26  N   UNL A   1      33.436  29.721  27.564  1.00  0.00    -0.352 N 
ATOM     27  C   UNL A   1      34.409  30.554  28.067  1.00  0.00     0.251 C 
ATOM     28  H   UNL A   1      32.560  30.137  27.396  1.00  0.00     0.163 HD
ATOM     29  O   UNL A   1      34.135  31.708  28.370  1.00  0.00    -0.269 OA
BRANCH  27  30
ATOM     30  C   UNL A   1      35.770  30.021  28.284  1.00  0.00     0.039 A 
ATOM     31  C   UNL A   1      36.690  30.087  27.235  1.00  0.00     0.014 A 
ATOM     32  C   UNL A   1      36.146  29.503  29.526  1.00  0.00     0.014 A 
ATOM     33  C   UNL A   1      38.011  29.696  27.453  1.00  0.00     0.010 A 
ATOM     34  C   UNL A   1      37.476  29.169  29.758  1.00  0.00     0.010 A 
ATOM     35  C   UNL A   1      38.423  29.268  28.727  1.00  0.00    -0.014 A 
BRANCH  35  36
ATOM     36  C   UNL A   1      39.841  28.932  29.004  1.00  0.00     0.031 A 
ATOM     37  C   UNL A   1      40.760  29.971  29.584  1.00  0.00     0.074 A 
ATOM     38  C   UNL A   1      40.313  27.717  28.667  1.00  0.00     0.049 A 
ATOM     39  N   UNL A   1      42.045  29.895  29.820  1.00  0.00    -0.248 NA
ATOM     40  C   UNL A   1      40.165  31.276  29.915  1.00  0.00     0.031 C 
ATOM     41  C   UNL A   1      39.529  26.645  28.048  1.00  0.00     0.029 A 
ATOM     42  N   UNL A   1      41.572  27.182  28.782  1.00  0.00    -0.354 N 
ATOM     43  C   UNL A   1      42.414  31.143  30.307  1.00  0.00     0.074 A 
ATOM     44  C   UNL A   1      41.228  31.971  30.295  1.00  0.00     0.031 C 
ATOM     45  C   UNL A   1      40.320  25.576  27.854  1.00  0.00     0.029 A 
ATOM     46  C   UNL A   1      41.671  25.895  28.304  1.00  0.00     0.049 A 
ATOM     47  H   UNL A   1      42.332  27.671  29.169  1.00  0.00     0.167 HD
ATOM     48  C   UNL A   1      43.629  31.554  30.743  1.00  0.00     0.037 A 
ATOM     49  C   UNL A   1      42.733  25.071  28.233  1.00  0.00     0.037 A 
ATOM     50  C   UNL A   1      44.796  30.714  30.789  1.00  0.00     0.049 A 
ATOM     51  C   UNL A   1      44.065  25.543  28.750  1.00  0.00     0.074 A 
ATOM     52  C   UNL A   1      46.054  31.016  31.279  1.00  0.00     0.029 A 
ATOM     53  N   UNL A   1      44.847  29.405  30.336  1.00  0.00    -0.354 N 
ATOM     54  N   UNL A   1      44.382  26.706  29.267  1.00  0.00    -0.248 NA
ATOM     55  C   UNL A   1      45.182  24.591  28.679  1.00  0.00     0.031 C 
ATOM     56  C   UNL A   1      46.875  29.898  31.095  1.00  0.00     0.029 A 
ATOM     57  C   UNL A   1      46.119  28.888  30.523  1.00  0.00     0.049 A 
ATOM     58  H   UNL A   1      44.092  28.914  29.939  1.00  0.00     0.167 HD
ATOM     59  C   UNL A   1      45.725  26.616  29.609  1.00  0.00     0.074 A 
ATOM     60  C   UNL A   1      46.161  25.282  29.248  1.00  0.00     0.031 C 
ATOM     61  C   UNL A   1      46.528  27.553  30.171  1.00  0.00     0.037 A 
BRANCH  48  62
ATOM     62  C   UNL A   1      43.755  32.974  31.219  1.00  0.00     0.058 A 
ATOM     63  C   UNL A   1      43.520  33.322  32.558  1.00  0.00     0.135 A 
ATOM     64  C   UNL A   1      44.160  33.989  30.338  1.00  0.00     0.135 A 
ATOM     65  F   UNL A   1      43.114  32.391  33.437  1.00  0.00    -0.206 F 
ATOM     66  C   UNL A   1      43.660  34.631  33.004  1.00  0.00     0.059 A 
ATOM     67  C   UNL A   1      44.329  35.303  30.768  1.00  0.00     0.059 A 
ATOM     68  F   UNL A   1      44.396  33.710  29.047  1.00  0.00    -0.206 F 
ATOM     69  C   UNL A   1      44.065  35.616  32.101  1.00  0.00     0.060 A 
BRANCH  69  70
ATOM     70  S   UNL A   1      44.258  37.308  32.698  1.00  0.00     0.124 S 
ATOM     71  O   UNL A   1      45.591  37.256  33.292  1.00  0.00    -0.237 OA
ATOM     72  O   UNL A   1      44.143  38.089  31.471  1.00  0.00    -0.237 OA
ATOM     73  O   UNL A   1      43.156  37.463  33.642  1.00  0.00    -0.744 OA
ENDBRANCH  69  70
ENDBRANCH  48  62
BRANCH  49  74
ATOM     74  C   UNL A   1      42.580  23.702  27.673  1.00  0.00     0.058 A 
ATOM     75  C   UNL A   1      42.394  22.598  28.519  1.00  0.00     0.135 A 
ATOM     76  C   UNL A   1      42.619  23.469  26.291  1.00  0.00     0.135 A 
ATOM     77  F   UNL A   1      42.354  22.772  29.849  1.00  0.00    -0.206 F 
ATOM     78  C   UNL A   1      42.275  21.306  28.016  1.00  0.00     0.059 A 
ATOM     79  C   UNL A   1      42.481  22.189  25.763  1.00  0.00     0.059 A 
ATOM     80  F   UNL A   1      42.776  24.494  25.440  1.00  0.00    -0.206 F 
ATOM     81  C   UNL A   1      42.324  21.112  26.634  1.00  0.00     0.060 A 
BRANCH  81  82
ATOM     82  S   UNL A   1      42.136  19.436  25.987  1.00  0.00     0.124 S 
ATOM     83  O   UNL A   1      42.651  18.637  27.092  1.00  0.00    -0.237 OA
ATOM     84  O   UNL A   1      40.697  19.354  25.754  1.00  0.00    -0.237 OA
ATOM     85  O   UNL A   1      42.957  19.453  24.780  1.00  0.00    -0.744 OA
ENDBRANCH  81  82
ENDBRANCH  49  74
BRANCH  61  86
ATOM     86  C   UNL A   1      47.947  27.158  30.468  1.00  0.00     0.058 A 
ATOM     87  C   UNL A   1      48.981  27.391  29.549  1.00  0.00     0.135 A 
ATOM     88  C   UNL A   1      48.280  26.590  31.706  1.00  0.00     0.135 A 
ATOM     89  F   UNL A   1      48.710  27.926  28.348  1.00  0.00    -0.206 F 
ATOM     90  C   UNL A   1      50.298  27.056  29.842  1.00  0.00     0.059 A 
ATOM     91  C   UNL A   1      49.594  26.269  32.030  1.00  0.00     0.059 A 
ATOM     92  F   UNL A   1      47.327  26.356  32.623  1.00  0.00    -0.206 F 
ATOM     93  C   UNL A   1      50.595  26.495  31.087  1.00  0.00     0.060 A 
BRANCH  93  94
ATOM     94  S   UNL A   1      52.314  26.100  31.473  1.00  0.00     0.124 S 
ATOM     95  O   UNL A   1      52.940  26.198  30.158  1.00  0.00    -0.237 OA
ATOM     96  O   UNL A   1      52.671  27.147  32.425  1.00  0.00    -0.237 OA
ATOM     97  O   UNL A   1      52.234  24.754  32.032  1.00  0.00    -0.744 OA
ENDBRANCH  93  94
ENDBRANCH  61  86
ENDBRANCH  35  36
ENDBRANCH  27  30
ENDBRANCH  25  26
ENDBRANCH   1  25
TORSDOF 15
ENDMDL
MODEL 2
REMARK VINA RESULT:     -11.8      5.941     11.980
REMARK SMILES Cc1ccc2nc(C(=O)NCCCCNC(=O)c3ccc(-c4c5nc(c(-c6c(F)cc(S(=O)(=O)[O-])cc6F)c6ccc([nH]6)c(-c6c(F)cc(S(=O)(=O)[O-])cc6F)c6nc(c(-c7c(F)cc(S(=O)(=O)[O-])cc7F)c7ccc4[nH]7)C=C6)C=C5)cc3)cc(N3CCOCC3)c2c1
REMARK SMILES IDX 13 1 12 2 11 3 10 4 8 5 9 6 7 8 1 9 2 10 3 11 93 12 4 13
REMARK SMILES IDX 92 14 5 15 85 16 6 17 84 18 86 19 87 20 91 21 88 22 90 23
REMARK SMILES IDX 89 24 14 25 15 26 16 27 17 29 18 30 19 31 83 32 20 33 82 34
REMARK SMILES IDX 21 35 22 36 23 37 76 38 24 39 81 40 75 41 77 42 25 43 80 44
REMARK SMILES IDX 74 45 73 46 26 48 60 49 39 50 59 51 40 52 43 53 58 54 78 55
REMARK SMILES IDX 41 56 42 57 57 59 79 60 44 61 27 62 28 63 37 64 29 65 30 66
REMARK SMILES IDX 36 67 38 68 31 69 32 70 33 71 34 72 35 73 61 74 62 75 71 76
REMARK SMILES IDX 63 77 64 78 70 79 72 80 65 81 66 82 67 83 68 84 69 85 45 86
REMARK SMILES IDX 46 87 55 88 47 89 48 90 54 91 56 92 49 93 50 94 51 95 52 96
REMARK SMILES IDX 53 97
REMARK H PARENT 10 7 15 28 77 47 43 58
REMARK Flexibility Score: inf
ROOT
ATOM      1  C   UNL A   1      40.295  21.650  27.143  1.00  0.00     0.023 C 
ENDROOT
BRANCH   1   2
ATOM      2  C   UNL A   1      40.999  20.629  26.243  1.00  0.00     0.023 C 
BRANCH   2   3
ATOM      3  C   UNL A   1      42.500  20.484  26.510  1.00  0.00     0.116 C 
BRANCH   3   4
ATOM      4  N   UNL A   1      43.252  20.585  25.276  1.00  0.00    -0.351 N 
ATOM      5  C   UNL A   1      44.193  21.482  24.821  1.00  0.00     0.269 C 
ATOM      6  O   UNL A   1      44.644  21.261  23.694  1.00  0.00    -0.268 OA
ATOM      7  H   UNL A   1      43.049  19.868  24.633  1.00  0.00     0.163 HD
BRANCH   5   8
ATOM      8  C   UNL A   1      44.709  22.661  25.612  1.00  0.00     0.130 A 
ATOM      9  C   UNL A   1      45.881  26.751  30.495  1.00  0.00     0.044 C 
ATOM     10  C   UNL A   1      45.493  25.653  29.552  1.00  0.00    -0.050 A 
ATOM     11  C   UNL A   1      44.817  24.520  29.992  1.00  0.00     0.005 A 
ATOM     12  C   UNL A   1      45.808  25.758  28.194  1.00  0.00     0.016 A 
ATOM     13  C   UNL A   1      44.462  23.522  29.081  1.00  0.00     0.029 A 
ATOM     14  C   UNL A   1      45.494  24.730  27.271  1.00  0.00     0.024 A 
ATOM     15  C   UNL A   1      44.781  23.608  27.734  1.00  0.00     0.073 A 
ATOM     16  C   UNL A   1      45.842  24.772  25.897  1.00  0.00     0.049 A 
ATOM     17  N   UNL A   1      44.386  22.616  26.929  1.00  0.00    -0.242 NA
ATOM     18  C   UNL A   1      45.466  23.695  25.088  1.00  0.00     0.060 A 
BRANCH  16  19
ATOM     19  N   UNL A   1      46.541  25.853  25.359  1.00  0.00    -0.366 N 
ATOM     20  C   UNL A   1      47.766  25.567  24.590  1.00  0.00     0.145 C 
ATOM     21  C   UNL A   1      45.816  27.044  24.887  1.00  0.00     0.145 C 
ATOM     22  C   UNL A   1      48.651  26.825  24.582  1.00  0.00     0.181 C 
ATOM     23  C   UNL A   1      46.779  28.243  24.855  1.00  0.00     0.181 C 
ATOM     24  O   UNL A   1      47.945  27.966  24.059  1.00  0.00    -0.378 OA
ENDBRANCH  16  19
ENDBRANCH   5   8
ENDBRANCH   3   4
ENDBRANCH   2   3
ENDBRANCH   1   2
BRANCH   1  25
ATOM     25  C   UNL A   1      41.096  22.917  27.426  1.00  0.00     0.116 C 
BRANCH  25  26
ATOM     26  N   UNL A   1      41.341  23.720  26.239  1.00  0.00    -0.352 N 
ATOM     27  C   UNL A   1      41.442  25.089  26.141  1.00  0.00     0.251 C 
ATOM     28  H   UNL A   1      41.448  23.221  25.397  1.00  0.00     0.163 HD
ATOM     29  O   UNL A   1      41.557  25.621  25.044  1.00  0.00    -0.269 OA
BRANCH  27  30
ATOM     30  C   UNL A   1      41.359  25.905  27.369  1.00  0.00     0.039 A 
ATOM     31  C   UNL A   1      42.413  26.770  27.672  1.00  0.00     0.014 A 
ATOM     32  C   UNL A   1      40.229  25.850  28.190  1.00  0.00     0.014 A 
ATOM     33  C   UNL A   1      42.304  27.633  28.763  1.00  0.00     0.010 A 
ATOM     34  C   UNL A   1      40.098  26.751  29.242  1.00  0.00     0.010 A 
ATOM     35  C   UNL A   1      41.131  27.655  29.535  1.00  0.00    -0.014 A 
BRANCH  35  36
ATOM     36  C   UNL A   1      40.958  28.625  30.644  1.00  0.00     0.031 A 
ATOM     37  C   UNL A   1      41.801  28.508  31.883  1.00  0.00     0.074 A 
ATOM     38  C   UNL A   1      39.993  29.561  30.563  1.00  0.00     0.049 A 
ATOM     39  N   UNL A   1      41.743  29.206  32.988  1.00  0.00    -0.248 NA
ATOM     40  C   UNL A   1      42.825  27.451  31.894  1.00  0.00     0.031 C 
ATOM     41  C   UNL A   1      39.076  29.738  29.433  1.00  0.00     0.029 A 
ATOM     42  N   UNL A   1      39.611  30.534  31.453  1.00  0.00    -0.354 N 
ATOM     43  C   UNL A   1      42.704  28.661  33.831  1.00  0.00     0.074 A 
ATOM     44  C   UNL A   1      43.305  27.550  33.126  1.00  0.00     0.031 C 
ATOM     45  C   UNL A   1      38.250  30.766  29.692  1.00  0.00     0.029 A 
ATOM     46  C   UNL A   1      38.557  31.302  31.014  1.00  0.00     0.049 A 
ATOM     47  H   UNL A   1      40.049  30.669  32.323  1.00  0.00     0.167 HD
ATOM     48  C   UNL A   1      43.067  29.065  35.071  1.00  0.00     0.037 A 
ATOM     49  C   UNL A   1      37.908  32.317  31.615  1.00  0.00     0.037 A 
ATOM     50  C   UNL A   1      42.494  30.195  35.752  1.00  0.00     0.049 A 
ATOM     51  C   UNL A   1      38.350  32.763  32.983  1.00  0.00     0.074 A 
ATOM     52  C   UNL A   1      42.841  30.727  36.981  1.00  0.00     0.029 A 
ATOM     53  N   UNL A   1      41.457  30.973  35.259  1.00  0.00    -0.354 N 
ATOM     54  N   UNL A   1      39.305  32.277  33.738  1.00  0.00    -0.248 NA
ATOM     55  C   UNL A   1      37.631  33.898  33.577  1.00  0.00     0.031 C 
ATOM     56  C   UNL A   1      41.995  31.809  37.245  1.00  0.00     0.029 A 
ATOM     57  C   UNL A   1      41.144  31.974  36.164  1.00  0.00     0.049 A 
ATOM     58  H   UNL A   1      41.009  30.835  34.393  1.00  0.00     0.167 HD
ATOM     59  C   UNL A   1      39.321  33.064  34.884  1.00  0.00     0.074 A 
ATOM     60  C   UNL A   1      38.284  34.063  34.719  1.00  0.00     0.031 C 
ATOM     61  C   UNL A   1      40.119  32.968  35.974  1.00  0.00     0.037 A 
BRANCH  48  62
ATOM     62  C   UNL A   1      44.146  28.286  35.771  1.00  0.00     0.058 A 
ATOM     63  C   UNL A   1      45.503  28.603  35.606  1.00  0.00     0.135 A 
ATOM     64  C   UNL A   1      43.818  27.242  36.649  1.00  0.00     0.135 A 
ATOM     65  F   UNL A   1      45.871  29.583  34.763  1.00  0.00    -0.206 F 
ATOM     66  C   UNL A   1      46.500  27.900  36.271  1.00  0.00     0.059 A 
ATOM     67  C   UNL A   1      44.798  26.538  37.344  1.00  0.00     0.059 A 
ATOM     68  F   UNL A   1      42.535  26.897  36.841  1.00  0.00    -0.206 F 
ATOM     69  C   UNL A   1      46.138  26.867  37.139  1.00  0.00     0.060 A 
BRANCH  69  70
ATOM     70  S   UNL A   1      47.443  25.972  38.007  1.00  0.00     0.124 S 
ATOM     71  O   UNL A   1      48.621  26.753  37.644  1.00  0.00    -0.237 OA
ATOM     72  O   UNL A   1      47.020  26.075  39.401  1.00  0.00    -0.237 OA
ATOM     73  O   UNL A   1      47.376  24.632  37.433  1.00  0.00    -0.744 OA
ENDBRANCH  69  70
ENDBRANCH  48  62
BRANCH  49  74
ATOM     74  C   UNL A   1      36.788  33.003  30.919  1.00  0.00     0.058 A 
ATOM     75  C   UNL A   1      37.036  33.895  29.865  1.00  0.00     0.135 A 
ATOM     76  C   UNL A   1      35.453  32.787  31.294  1.00  0.00     0.135 A 
ATOM     77  F   UNL A   1      38.297  34.136  29.474  1.00  0.00    -0.206 F 
ATOM     78  C   UNL A   1      36.003  34.566  29.219  1.00  0.00     0.059 A 
ATOM     79  C   UNL A   1      34.402  33.431  30.649  1.00  0.00     0.059 A 
ATOM     80  F   UNL A   1      35.163  31.930  32.284  1.00  0.00    -0.206 F 
ATOM     81  C   UNL A   1      34.688  34.329  29.622  1.00  0.00     0.060 A 
BRANCH  81  82
ATOM     82  S   UNL A   1      33.349  35.180  28.758  1.00  0.00     0.124 S 
ATOM     83  O   UNL A   1      34.084  36.189  28.004  1.00  0.00    -0.237 OA
ATOM     84  O   UNL A   1      32.754  34.103  27.973  1.00  0.00    -0.237 OA
ATOM     85  O   UNL A   1      32.517  35.683  29.847  1.00  0.00    -0.744 OA
ENDBRANCH  81  82
ENDBRANCH  49  74
BRANCH  61  86
ATOM     86  C   UNL A   1      39.934  33.992  37.058  1.00  0.00     0.058 A 
ATOM     87  C   UNL A   1      40.513  35.267  36.971  1.00  0.00     0.135 A 
ATOM     88  C   UNL A   1      39.124  33.710  38.168  1.00  0.00     0.135 A 
ATOM     89  F   UNL A   1      41.301  35.581  35.931  1.00  0.00    -0.206 F 
ATOM     90  C   UNL A   1      40.310  36.223  37.960  1.00  0.00     0.059 A 
ATOM     91  C   UNL A   1      38.887  34.659  39.158  1.00  0.00     0.059 A 
ATOM     92  F   UNL A   1      38.540  32.507  38.292  1.00  0.00    -0.206 F 
ATOM     93  C   UNL A   1      39.494  35.909  39.050  1.00  0.00     0.060 A 
BRANCH  93  94
ATOM     94  S   UNL A   1      39.205  37.171  40.309  1.00  0.00     0.124 S 
ATOM     95  O   UNL A   1      38.382  36.443  41.270  1.00  0.00    -0.237 OA
ATOM     96  O   UNL A   1      40.558  37.493  40.749  1.00  0.00    -0.237 OA
ATOM     97  O   UNL A   1      38.523  38.231  39.574  1.00  0.00    -0.744 OA
ENDBRANCH  93  94
ENDBRANCH  61  86
ENDBRANCH  35  36
ENDBRANCH  27  30
ENDBRANCH  25  26
ENDBRANCH   1  25
TORSDOF 15
ENDMDL
MODEL 3
REMARK VINA RESULT:     -11.7      4.913     10.850
REMARK SMILES Cc1ccc2nc(C(=O)NCCCCNC(=O)c3ccc(-c4c5nc(c(-c6c(F)cc(S(=O)(=O)[O-])cc6F)c6ccc([nH]6)c(-c6c(F)cc(S(=O)(=O)[O-])cc6F)c6nc(c(-c7c(F)cc(S(=O)(=O)[O-])cc7F)c7ccc4[nH]7)C=C6)C=C5)cc3)cc(N3CCOCC3)c2c1
REMARK SMILES IDX 13 1 12 2 11 3 10 4 8 5 9 6 7 8 1 9 2 10 3 11 93 12 4 13
REMARK SMILES IDX 92 14 5 15 85 16 6 17 84 18 86 19 87 20 91 21 88 22 90 23
REMARK SMILES IDX 89 24 14 25 15 26 16 27 17 29 18 30 19 31 83 32 20 33 82 34
REMARK SMILES IDX 21 35 22 36 23 37 76 38 24 39 81 40 75 41 77 42 25 43 80 44
REMARK SMILES IDX 74 45 73 46 26 48 60 49 39 50 59 51 40 52 43 53 58 54 78 55
REMARK SMILES IDX 41 56 42 57 57 59 79 60 44 61 27 62 28 63 37 64 29 65 30 66
REMARK SMILES IDX 36 67 38 68 31 69 32 70 33 71 34 72 35 73 61 74 62 75 71 76
REMARK SMILES IDX 63 77 64 78 70 79 72 80 65 81 66 82 67 83 68 84 69 85 45 86
REMARK SMILES IDX 46 87 55 88 47 89 48 90 54 91 56 92 49 93 50 94 51 95 52 96
REMARK SMILES IDX 53 97
REMARK H PARENT 10 7 15 28 77 47 43 58
REMARK Flexibility Score: inf
ROOT
ATOM      1  C   UNL A   1      37.521  23.948  25.778  1.00  0.00     0.023 C 
ENDROOT
BRANCH   1   2
ATOM      2  C   UNL A   1      36.224  23.223  26.153  1.00  0.00     0.023 C 
BRANCH   2   3
ATOM      3  C   UNL A   1      34.967  23.800  25.496  1.00  0.00     0.116 C 
BRANCH   3   4
ATOM      4  N   UNL A   1      33.778  23.373  26.203  1.00  0.00    -0.351 N 
ATOM      5  C   UNL A   1      32.581  23.993  26.488  1.00  0.00     0.269 C 
ATOM      6  O   UNL A   1      31.765  23.319  27.123  1.00  0.00    -0.268 OA
ATOM      7  H   UNL A   1      33.836  22.452  26.549  1.00  0.00     0.163 HD
BRANCH   5   8
ATOM      8  C   UNL A   1      32.215  25.393  26.055  1.00  0.00     0.130 A 
ATOM      9  C   UNL A   1      29.508  30.329  22.855  1.00  0.00     0.044 C 
ATOM     10  C   UNL A   1      29.973  29.034  23.447  1.00  0.00    -0.050 A 
ATOM     11  C   UNL A   1      29.445  27.815  23.036  1.00  0.00     0.005 A 
ATOM     12  C   UNL A   1      30.963  29.035  24.434  1.00  0.00     0.016 A 
ATOM     13  C   UNL A   1      29.912  26.626  23.603  1.00  0.00     0.029 A 
ATOM     14  C   UNL A   1      31.409  27.840  25.049  1.00  0.00     0.024 A 
ATOM     15  C   UNL A   1      30.884  26.615  24.593  1.00  0.00     0.073 A 
ATOM     16  C   UNL A   1      32.371  27.801  26.090  1.00  0.00     0.049 A 
ATOM     17  N   UNL A   1      31.287  25.432  25.068  1.00  0.00    -0.242 NA
ATOM     18  C   UNL A   1      32.733  26.552  26.607  1.00  0.00     0.060 A 
BRANCH  16  19
ATOM     19  N   UNL A   1      32.945  28.969  26.591  1.00  0.00    -0.366 N 
ATOM     20  C   UNL A   1      32.046  29.987  27.164  1.00  0.00     0.145 C 
ATOM     21  C   UNL A   1      34.271  28.929  27.229  1.00  0.00     0.145 C 
ATOM     22  C   UNL A   1      32.755  31.352  27.127  1.00  0.00     0.181 C 
ATOM     23  C   UNL A   1      34.889  30.338  27.201  1.00  0.00     0.181 C 
ATOM     24  O   UNL A   1      34.021  31.311  27.809  1.00  0.00    -0.378 OA
ENDBRANCH  16  19
ENDBRANCH   5   8
ENDBRANCH   3   4
ENDBRANCH   2   3
ENDBRANCH   1   2
BRANCH   1  25
ATOM     25  C   UNL A   1      38.630  23.862  26.823  1.00  0.00     0.116 C 
BRANCH  25  26
ATOM     26  N   UNL A   1      39.965  23.914  26.249  1.00  0.00    -0.352 N 
ATOM     27  C   UNL A   1      40.954  24.843  26.474  1.00  0.00     0.251 C 
ATOM     28  H   UNL A   1      40.190  23.192  25.619  1.00  0.00     0.163 HD
ATOM     29  O   UNL A   1      41.998  24.799  25.836  1.00  0.00    -0.269 OA
BRANCH  27  30
ATOM     30  C   UNL A   1      40.717  25.922  27.457  1.00  0.00     0.039 A 
ATOM     31  C   UNL A   1      39.773  25.714  28.464  1.00  0.00     0.014 A 
ATOM     32  C   UNL A   1      41.454  27.108  27.409  1.00  0.00     0.014 A 
ATOM     33  C   UNL A   1      39.615  26.671  29.468  1.00  0.00     0.010 A 
ATOM     34  C   UNL A   1      41.338  28.033  28.442  1.00  0.00     0.010 A 
ATOM     35  C   UNL A   1      40.423  27.820  29.484  1.00  0.00    -0.014 A 
BRANCH  35  36
ATOM     36  C   UNL A   1      40.335  28.807  30.588  1.00  0.00     0.031 A 
ATOM     37  C   UNL A   1      41.208  28.655  31.804  1.00  0.00     0.074 A 
ATOM     38  C   UNL A   1      39.420  29.793  30.527  1.00  0.00     0.049 A 
ATOM     39  N   UNL A   1      41.220  29.363  32.903  1.00  0.00    -0.248 NA
ATOM     40  C   UNL A   1      42.174  27.544  31.794  1.00  0.00     0.031 C 
ATOM     41  C   UNL A   1      38.481  30.010  29.422  1.00  0.00     0.029 A 
ATOM     42  N   UNL A   1      39.117  30.792  31.418  1.00  0.00    -0.354 N 
ATOM     43  C   UNL A   1      42.176  28.775  33.722  1.00  0.00     0.074 A 
ATOM     44  C   UNL A   1      42.694  27.627  33.011  1.00  0.00     0.031 C 
ATOM     45  C   UNL A   1      37.719  31.083  29.695  1.00  0.00     0.029 A 
ATOM     46  C   UNL A   1      38.093  31.612  31.003  1.00  0.00     0.049 A 
ATOM     47  H   UNL A   1      39.589  30.911  32.274  1.00  0.00     0.167 HD
ATOM     48  C   UNL A   1      42.597  29.169  34.947  1.00  0.00     0.037 A 
ATOM     49  C   UNL A   1      37.519  32.666  31.613  1.00  0.00     0.037 A 
ATOM     50  C   UNL A   1      42.105  30.334  35.634  1.00  0.00     0.049 A 
ATOM     51  C   UNL A   1      38.024  33.099  32.963  1.00  0.00     0.074 A 
ATOM     52  C   UNL A   1      42.517  30.856  36.847  1.00  0.00     0.029 A 
ATOM     53  N   UNL A   1      41.097  31.162  35.164  1.00  0.00    -0.354 N 
ATOM     54  N   UNL A   1      38.974  32.568  33.695  1.00  0.00    -0.248 NA
ATOM     55  C   UNL A   1      37.385  34.275  33.566  1.00  0.00     0.031 C 
ATOM     56  C   UNL A   1      41.738  31.984  37.125  1.00  0.00     0.029 A 
ATOM     57  C   UNL A   1      40.865  32.185  36.068  1.00  0.00     0.049 A 
ATOM     58  H   UNL A   1      40.617  31.041  34.313  1.00  0.00     0.167 HD
ATOM     59  C   UNL A   1      39.066  33.362  34.831  1.00  0.00     0.074 A 
ATOM     60  C   UNL A   1      38.080  34.414  34.687  1.00  0.00     0.031 C 
ATOM     61  C   UNL A   1      39.891  33.232  35.899  1.00  0.00     0.037 A 
BRANCH  48  62
ATOM     62  C   UNL A   1      43.652  28.338  35.622  1.00  0.00     0.058 A 
ATOM     63  C   UNL A   1      45.019  28.570  35.401  1.00  0.00     0.135 A 
ATOM     64  C   UNL A   1      43.296  27.332  36.534  1.00  0.00     0.135 A 
ATOM     65  F   UNL A   1      45.413  29.510  34.526  1.00  0.00    -0.206 F 
ATOM     66  C   UNL A   1      45.997  27.819  36.044  1.00  0.00     0.059 A 
ATOM     67  C   UNL A   1      44.258  26.583  37.206  1.00  0.00     0.059 A 
ATOM     68  F   UNL A   1      42.003  27.069  36.780  1.00  0.00    -0.206 F 
ATOM     69  C   UNL A   1      45.607  26.826  36.945  1.00  0.00     0.060 A 
BRANCH  69  70
ATOM     70  S   UNL A   1      46.887  25.870  37.783  1.00  0.00     0.124 S 
ATOM     71  O   UNL A   1      47.614  25.303  36.651  1.00  0.00    -0.237 OA
ATOM     72  O   UNL A   1      47.597  26.894  38.543  1.00  0.00    -0.237 OA
ATOM     73  O   UNL A   1      46.128  24.914  38.583  1.00  0.00    -0.744 OA
ENDBRANCH  69  70
ENDBRANCH  48  62
BRANCH  49  74
ATOM     74  C   UNL A   1      36.416  33.405  30.944  1.00  0.00     0.058 A 
ATOM     75  C   UNL A   1      35.093  33.283  31.393  1.00  0.00     0.135 A 
ATOM     76  C   UNL A   1      36.660  34.243  29.845  1.00  0.00     0.135 A 
ATOM     77  F   UNL A   1      34.812  32.490  32.439  1.00  0.00    -0.206 F 
ATOM     78  C   UNL A   1      34.045  33.946  30.763  1.00  0.00     0.059 A 
ATOM     79  C   UNL A   1      35.631  34.933  29.211  1.00  0.00     0.059 A 
ATOM     80  F   UNL A   1      37.911  34.407  29.388  1.00  0.00    -0.206 F 
ATOM     81  C   UNL A   1      34.325  34.767  29.670  1.00  0.00     0.060 A 
BRANCH  81  82
ATOM     82  S   UNL A   1      32.963  35.650  28.877  1.00  0.00     0.124 S 
ATOM     83  O   UNL A   1      32.192  36.095  30.032  1.00  0.00    -0.237 OA
ATOM     84  O   UNL A   1      33.662  36.694  28.134  1.00  0.00    -0.237 OA
ATOM     85  O   UNL A   1      32.334  34.621  28.054  1.00  0.00    -0.744 OA
ENDBRANCH  81  82
ENDBRANCH  49  74
BRANCH  61  86
ATOM     86  C   UNL A   1      39.792  34.273  36.977  1.00  0.00     0.058 A 
ATOM     87  C   UNL A   1      40.418  35.522  36.852  1.00  0.00     0.135 A 
ATOM     88  C   UNL A   1      39.020  34.035  38.124  1.00  0.00     0.135 A 
ATOM     89  F   UNL A   1      41.174  35.794  35.776  1.00  0.00    -0.206 F 
ATOM     90  C   UNL A   1      40.296  36.496  37.837  1.00  0.00     0.059 A 
ATOM     91  C   UNL A   1      38.864  35.002  39.112  1.00  0.00     0.059 A 
ATOM     92  F   UNL A   1      38.393  32.859  38.286  1.00  0.00    -0.206 F 
ATOM     93  C   UNL A   1      39.515  36.226  38.964  1.00  0.00     0.060 A 
BRANCH  93  94
ATOM     94  S   UNL A   1      39.330  37.511  40.219  1.00  0.00     0.124 S 
ATOM     95  O   UNL A   1      40.679  38.066  40.271  1.00  0.00    -0.237 OA
ATOM     96  O   UNL A   1      38.310  38.376  39.636  1.00  0.00    -0.237 OA
ATOM     97  O   UNL A   1      38.910  36.768  41.403  1.00  0.00    -0.744 OA
ENDBRANCH  93  94
ENDBRANCH  61  86
ENDBRANCH  35  36
ENDBRANCH  27  30
ENDBRANCH  25  26
ENDBRANCH   1  25
TORSDOF 15
ENDMDL
