MODEL 1
REMARK VINA RESULT:     -12.9      0.000      0.000
REMARK SMILES Cn1ccc(-c2n[nH]c(=O)n2-c2ccc(C(=O)NCCCCNC(=O)c3ccc(-c4c5nc(c(-c6c(F)cc(S(=O)(=O)[O-])cc6F)c6ccc([nH]6)c(-c6c(F)cc(S(=O)(=O)[O-])cc6F)c6nc(c(-c7c(F)cc(S(=O)(=O)[O-])cc7F)c7ccc4[nH]7)C=C6)C=C5)cc3)cc2)n1
REMARK SMILES IDX 21 1 20 2 19 3 18 4 16 5 17 6 15 8 12 9 13 10 93 11 14 12
REMARK SMILES IDX 92 13 11 14 6 15 7 16 8 17 9 18 10 20 5 21 1 22 2 23 3 24
REMARK SMILES IDX 94 25 4 26 22 27 23 28 24 29 25 31 26 32 27 33 91 34 28 35
REMARK SMILES IDX 90 36 29 37 30 38 31 39 84 40 32 41 89 42 83 43 85 44 33 45
REMARK SMILES IDX 88 46 82 47 81 48 34 50 68 51 47 52 67 53 48 54 51 55 66 56
REMARK SMILES IDX 86 57 49 58 50 59 65 61 87 62 52 63 35 64 36 65 45 66 37 67
REMARK SMILES IDX 38 68 44 69 46 70 39 71 40 72 41 73 42 74 43 75 69 76 70 77
REMARK SMILES IDX 79 78 71 79 72 80 78 81 80 82 73 83 74 84 75 85 76 86 77 87
REMARK SMILES IDX 53 88 54 89 63 90 55 91 56 92 62 93 64 94 57 95 58 96 59 97
REMARK SMILES IDX 60 98 61 99
REMARK H PARENT 18 7 8 19 23 30 85 49 51 60
REMARK Flexibility Score: inf
ROOT
ATOM      1  C   UNL A   1      38.343  22.449  25.561  1.00  0.00     0.023 C 
ENDROOT
BRANCH   1   2
ATOM      2  C   UNL A   1      37.870  21.009  25.303  1.00  0.00     0.023 C 
BRANCH   2   3
ATOM      3  C   UNL A   1      36.382  20.865  24.948  1.00  0.00     0.116 C 
BRANCH   3   4
ATOM      4  N   UNL A   1      35.555  20.960  26.138  1.00  0.00    -0.352 N 
ATOM      5  C   UNL A   1      34.646  21.890  26.581  1.00  0.00     0.251 C 
ATOM      6  O   UNL A   1      34.155  21.708  27.696  1.00  0.00    -0.269 OA
ATOM      7  H   UNL A   1      35.670  20.201  26.754  1.00  0.00     0.163 HD
BRANCH   5   8
ATOM      8  C   UNL A   1      34.198  23.070  25.783  1.00  0.00     0.039 A 
ATOM      9  C   UNL A   1      33.238  25.149  24.133  1.00  0.00     0.052 A 
ATOM     10  C   UNL A   1      32.387  24.109  24.504  1.00  0.00     0.028 A 
ATOM     11  C   UNL A   1      34.537  25.185  24.647  1.00  0.00     0.028 A 
ATOM     12  C   UNL A   1      32.878  23.062  25.296  1.00  0.00     0.016 A 
ATOM     13  C   UNL A   1      34.990  24.182  25.504  1.00  0.00     0.016 A 
BRANCH   9  14
ATOM     14  N   UNL A   1      32.800  26.200  23.319  1.00  0.00    -0.242 N 
ATOM     15  C   UNL A   1      32.107  27.316  23.683  1.00  0.00     0.189 A 
ATOM     16  N   UNL A   1      31.480  27.919  22.707  1.00  0.00    -0.150 NA
ATOM     17  N   UNL A   1      31.805  27.170  21.608  1.00  0.00    -0.226 N 
ATOM     18  C   UNL A   1      32.622  26.089  21.956  1.00  0.00     0.348 A 
ATOM     19  H   UNL A   1      31.503  27.366  20.692  1.00  0.00     0.195 HD
ATOM     20  O   UNL A   1      32.974  25.214  21.191  1.00  0.00    -0.246 OA
BRANCH  15  21
ATOM     21  C   UNL A   1      32.102  27.844  25.037  1.00  0.00     0.130 A 
ATOM     22  C   UNL A   1      32.960  30.377  27.304  1.00  0.00     0.173 C 
ATOM     23  N   UNL A   1      32.485  29.178  26.652  1.00  0.00    -0.275 N 
ATOM     24  C   UNL A   1      31.683  28.215  27.189  1.00  0.00     0.109 A 
ATOM     25  N   UNL A   1      32.793  28.953  25.362  1.00  0.00    -0.170 NA
ATOM     26  C   UNL A   1      31.389  27.352  26.159  1.00  0.00     0.054 A 
ENDBRANCH  15  21
ENDBRANCH   9  14
ENDBRANCH   5   8
ENDBRANCH   3   4
ENDBRANCH   2   3
ENDBRANCH   1   2
BRANCH   1  27
ATOM     27  C   UNL A   1      39.392  22.581  26.656  1.00  0.00     0.116 C 
BRANCH  27  28
ATOM     28  N   UNL A   1      40.753  22.259  26.199  1.00  0.00    -0.352 N 
ATOM     29  C   UNL A   1      41.759  23.136  25.819  1.00  0.00     0.251 C 
ATOM     30  H   UNL A   1      40.977  21.301  26.158  1.00  0.00     0.163 HD
ATOM     31  O   UNL A   1      42.687  22.774  25.107  1.00  0.00    -0.269 OA
BRANCH  29  32
ATOM     32  C   UNL A   1      41.699  24.510  26.342  1.00  0.00     0.039 A 
ATOM     33  C   UNL A   1      40.991  25.554  25.736  1.00  0.00     0.014 A 
ATOM     34  C   UNL A   1      42.344  24.695  27.555  1.00  0.00     0.014 A 
ATOM     35  C   UNL A   1      40.910  26.774  26.408  1.00  0.00     0.010 A 
ATOM     36  C   UNL A   1      41.999  25.758  28.326  1.00  0.00     0.010 A 
ATOM     37  C   UNL A   1      41.424  26.856  27.708  1.00  0.00    -0.014 A 
BRANCH  37  38
ATOM     38  C   UNL A   1      41.407  28.058  28.524  1.00  0.00     0.031 A 
ATOM     39  C   UNL A   1      42.505  29.019  28.246  1.00  0.00     0.074 A 
ATOM     40  C   UNL A   1      40.281  28.380  29.207  1.00  0.00     0.049 A 
ATOM     41  N   UNL A   1      43.458  29.383  29.036  1.00  0.00    -0.248 NA
ATOM     42  C   UNL A   1      42.660  29.523  26.869  1.00  0.00     0.031 C 
ATOM     43  C   UNL A   1      38.992  27.666  29.255  1.00  0.00     0.029 A 
ATOM     44  N   UNL A   1      40.005  29.510  29.905  1.00  0.00    -0.354 N 
ATOM     45  C   UNL A   1      44.202  30.332  28.337  1.00  0.00     0.074 A 
ATOM     46  C   UNL A   1      43.798  30.215  26.962  1.00  0.00     0.031 C 
ATOM     47  C   UNL A   1      38.027  28.488  29.727  1.00  0.00     0.029 A 
ATOM     48  C   UNL A   1      38.651  29.713  30.180  1.00  0.00     0.049 A 
ATOM     49  H   UNL A   1      40.704  30.140  30.195  1.00  0.00     0.167 HD
ATOM     50  C   UNL A   1      44.925  31.289  28.986  1.00  0.00     0.037 A 
ATOM     51  C   UNL A   1      38.109  30.845  30.700  1.00  0.00     0.037 A 
ATOM     52  C   UNL A   1      45.018  30.985  30.393  1.00  0.00     0.049 A 
ATOM     53  C   UNL A   1      39.233  31.579  31.349  1.00  0.00     0.074 A 
ATOM     54  C   UNL A   1      45.573  29.949  31.120  1.00  0.00     0.029 A 
ATOM     55  N   UNL A   1      44.116  31.595  31.234  1.00  0.00    -0.354 N 
ATOM     56  N   UNL A   1      39.904  31.108  32.370  1.00  0.00    -0.248 NA
ATOM     57  C   UNL A   1      39.943  32.560  30.540  1.00  0.00     0.031 C 
ATOM     58  C   UNL A   1      44.628  29.684  32.154  1.00  0.00     0.029 A 
ATOM     59  C   UNL A   1      43.602  30.627  32.060  1.00  0.00     0.049 A 
ATOM     60  H   UNL A   1      43.883  32.552  31.243  1.00  0.00     0.167 HD
ATOM     61  C   UNL A   1      41.234  31.410  32.101  1.00  0.00     0.074 A 
ATOM     62  C   UNL A   1      41.188  32.348  30.980  1.00  0.00     0.031 C 
ATOM     63  C   UNL A   1      42.256  30.650  32.598  1.00  0.00     0.037 A 
BRANCH  50  64
ATOM     64  C   UNL A   1      45.266  32.660  28.450  1.00  0.00     0.058 A 
ATOM     65  C   UNL A   1      46.623  33.015  28.290  1.00  0.00     0.135 A 
ATOM     66  C   UNL A   1      44.346  33.725  28.338  1.00  0.00     0.135 A 
ATOM     67  F   UNL A   1      47.587  32.084  28.363  1.00  0.00    -0.206 F 
ATOM     68  C   UNL A   1      47.039  34.336  28.121  1.00  0.00     0.059 A 
ATOM     69  C   UNL A   1      44.737  35.043  28.116  1.00  0.00     0.059 A 
ATOM     70  F   UNL A   1      43.033  33.563  28.532  1.00  0.00    -0.206 F 
ATOM     71  C   UNL A   1      46.086  35.346  28.055  1.00  0.00     0.060 A 
BRANCH  71  72
ATOM     72  S   UNL A   1      46.625  37.061  27.955  1.00  0.00     0.124 S 
ATOM     73  O   UNL A   1      45.886  37.664  29.058  1.00  0.00    -0.237 OA
ATOM     74  O   UNL A   1      48.067  36.936  28.145  1.00  0.00    -0.237 OA
ATOM     75  O   UNL A   1      46.208  37.468  26.617  1.00  0.00    -0.744 OA
ENDBRANCH  71  72
ENDBRANCH  50  64
BRANCH  51  76
ATOM     76  C   UNL A   1      36.834  31.501  30.285  1.00  0.00     0.058 A 
ATOM     77  C   UNL A   1      35.915  31.993  31.231  1.00  0.00     0.135 A 
ATOM     78  C   UNL A   1      36.622  31.909  28.952  1.00  0.00     0.135 A 
ATOM     79  F   UNL A   1      36.049  31.671  32.527  1.00  0.00    -0.206 F 
ATOM     80  C   UNL A   1      34.879  32.871  30.883  1.00  0.00     0.059 A 
ATOM     81  C   UNL A   1      35.596  32.779  28.581  1.00  0.00     0.059 A 
ATOM     82  F   UNL A   1      37.465  31.543  27.975  1.00  0.00    -0.206 F 
ATOM     83  C   UNL A   1      34.741  33.277  29.555  1.00  0.00     0.060 A 
BRANCH  83  84
ATOM     84  S   UNL A   1      33.521  34.544  29.125  1.00  0.00     0.124 S 
ATOM     85  O   UNL A   1      34.366  35.599  28.572  1.00  0.00    -0.237 OA
ATOM     86  O   UNL A   1      32.670  33.843  28.171  1.00  0.00    -0.237 OA
ATOM     87  O   UNL A   1      32.893  34.857  30.405  1.00  0.00    -0.744 OA
ENDBRANCH  83  84
ENDBRANCH  51  76
BRANCH  63  88
ATOM     88  C   UNL A   1      41.945  29.597  33.639  1.00  0.00     0.058 A 
ATOM     89  C   UNL A   1      41.667  28.247  33.353  1.00  0.00     0.135 A 
ATOM     90  C   UNL A   1      42.149  29.929  34.986  1.00  0.00     0.135 A 
ATOM     91  F   UNL A   1      41.553  27.820  32.090  1.00  0.00    -0.206 F 
ATOM     92  C   UNL A   1      41.573  27.280  34.358  1.00  0.00     0.059 A 
ATOM     93  C   UNL A   1      42.091  28.978  36.001  1.00  0.00     0.059 A 
ATOM     94  F   UNL A   1      42.481  31.187  35.321  1.00  0.00    -0.206 F 
ATOM     95  C   UNL A   1      41.794  27.656  35.682  1.00  0.00     0.060 A 
BRANCH  95  96
ATOM     96  S   UNL A   1      41.759  26.397  36.976  1.00  0.00     0.124 S 
ATOM     97  O   UNL A   1      40.474  26.654  37.618  1.00  0.00    -0.237 OA
ATOM     98  O   UNL A   1      41.848  25.154  36.214  1.00  0.00    -0.237 OA
ATOM     99  O   UNL A   1      42.934  26.706  37.786  1.00  0.00    -0.744 OA
ENDBRANCH  95  96
ENDBRANCH  63  88
ENDBRANCH  37  38
ENDBRANCH  29  32
ENDBRANCH  27  28
ENDBRANCH   1  27
TORSDOF 16
ENDMDL
MODEL 2
REMARK VINA RESULT:     -12.6      1.306      1.845
REMARK SMILES Cn1ccc(-c2n[nH]c(=O)n2-c2ccc(C(=O)NCCCCNC(=O)c3ccc(-c4c5nc(c(-c6c(F)cc(S(=O)(=O)[O-])cc6F)c6ccc([nH]6)c(-c6c(F)cc(S(=O)(=O)[O-])cc6F)c6nc(c(-c7c(F)cc(S(=O)(=O)[O-])cc7F)c7ccc4[nH]7)C=C6)C=C5)cc3)cc2)n1
REMARK SMILES IDX 21 1 20 2 19 3 18 4 16 5 17 6 15 8 12 9 13 10 93 11 14 12
REMARK SMILES IDX 92 13 11 14 6 15 7 16 8 17 9 18 10 20 5 21 1 22 2 23 3 24
REMARK SMILES IDX 94 25 4 26 22 27 23 28 24 29 25 31 26 32 27 33 91 34 28 35
REMARK SMILES IDX 90 36 29 37 30 38 31 39 84 40 32 41 89 42 83 43 85 44 33 45
REMARK SMILES IDX 88 46 82 47 81 48 34 50 68 51 47 52 67 53 48 54 51 55 66 56
REMARK SMILES IDX 86 57 49 58 50 59 65 61 87 62 52 63 35 64 36 65 45 66 37 67
REMARK SMILES IDX 38 68 44 69 46 70 39 71 40 72 41 73 42 74 43 75 69 76 70 77
REMARK SMILES IDX 79 78 71 79 72 80 78 81 80 82 73 83 74 84 75 85 76 86 77 87
REMARK SMILES IDX 53 88 54 89 63 90 55 91 56 92 62 93 64 94 57 95 58 96 59 97
REMARK SMILES IDX 60 98 61 99
REMARK H PARENT 18 7 8 19 23 30 85 49 51 60
REMARK Flexibility Score: inf
ROOT
ATOM      1  C   UNL A   1      40.013  22.189  27.066  1.00  0.00     0.023 C 
ENDROOT
BRANCH   1   2
ATOM      2  C   UNL A   1      39.256  23.513  27.252  1.00  0.00     0.023 C 
BRANCH   2   3
ATOM      3  C   UNL A   1      38.283  23.873  26.118  1.00  0.00     0.116 C 
BRANCH   3   4
ATOM      4  N   UNL A   1      38.012  22.716  25.283  1.00  0.00    -0.352 N 
ATOM      5  C   UNL A   1      36.854  22.102  24.872  1.00  0.00     0.251 C 
ATOM      6  O   UNL A   1      36.971  21.071  24.208  1.00  0.00    -0.269 OA
ATOM      7  H   UNL A   1      38.827  22.284  24.941  1.00  0.00     0.163 HD
BRANCH   5   8
ATOM      8  C   UNL A   1      35.484  22.627  25.149  1.00  0.00     0.039 A 
ATOM      9  C   UNL A   1      32.920  23.758  25.484  1.00  0.00     0.052 A 
ATOM     10  C   UNL A   1      33.360  23.403  24.210  1.00  0.00     0.028 A 
ATOM     11  C   UNL A   1      33.728  23.478  26.588  1.00  0.00     0.028 A 
ATOM     12  C   UNL A   1      34.647  22.872  24.044  1.00  0.00     0.016 A 
ATOM     13  C   UNL A   1      34.973  22.871  26.422  1.00  0.00     0.016 A 
BRANCH   9  14
ATOM     14  N   UNL A   1      31.654  24.320  25.693  1.00  0.00    -0.242 N 
ATOM     15  C   UNL A   1      31.342  25.621  25.950  1.00  0.00     0.189 A 
ATOM     16  N   UNL A   1      30.170  25.810  26.499  1.00  0.00    -0.150 NA
ATOM     17  N   UNL A   1      29.651  24.545  26.584  1.00  0.00    -0.226 N 
ATOM     18  C   UNL A   1      30.554  23.594  26.096  1.00  0.00     0.348 A 
ATOM     19  H   UNL A   1      28.759  24.333  26.942  1.00  0.00     0.195 HD
ATOM     20  O   UNL A   1      30.385  22.393  26.144  1.00  0.00    -0.246 OA
BRANCH  15  21
ATOM     21  C   UNL A   1      32.207  26.733  25.593  1.00  0.00     0.130 A 
ATOM     22  C   UNL A   1      33.443  28.959  23.183  1.00  0.00     0.173 C 
ATOM     23  N   UNL A   1      33.157  28.204  24.382  1.00  0.00    -0.275 N 
ATOM     24  C   UNL A   1      33.563  28.494  25.650  1.00  0.00     0.109 A 
ATOM     25  N   UNL A   1      32.373  27.114  24.313  1.00  0.00    -0.170 NA
ATOM     26  C   UNL A   1      32.938  27.580  26.465  1.00  0.00     0.054 A 
ENDBRANCH  15  21
ENDBRANCH   9  14
ENDBRANCH   5   8
ENDBRANCH   3   4
ENDBRANCH   2   3
ENDBRANCH   1   2
BRANCH   1  27
ATOM     27  C   UNL A   1      41.462  22.220  27.534  1.00  0.00     0.116 C 
BRANCH  27  28
ATOM     28  N   UNL A   1      42.428  22.288  26.426  1.00  0.00    -0.352 N 
ATOM     29  C   UNL A   1      42.745  23.381  25.632  1.00  0.00     0.251 C 
ATOM     30  H   UNL A   1      42.910  21.453  26.224  1.00  0.00     0.163 HD
ATOM     31  O   UNL A   1      43.252  23.242  24.526  1.00  0.00    -0.269 OA
BRANCH  29  32
ATOM     32  C   UNL A   1      42.494  24.721  26.186  1.00  0.00     0.039 A 
ATOM     33  C   UNL A   1      41.540  25.614  25.687  1.00  0.00     0.014 A 
ATOM     34  C   UNL A   1      43.234  25.025  27.319  1.00  0.00     0.014 A 
ATOM     35  C   UNL A   1      41.315  26.799  26.389  1.00  0.00     0.010 A 
ATOM     36  C   UNL A   1      42.792  26.006  28.146  1.00  0.00     0.010 A 
ATOM     37  C   UNL A   1      41.955  26.978  27.622  1.00  0.00    -0.014 A 
BRANCH  37  38
ATOM     38  C   UNL A   1      41.813  28.157  28.459  1.00  0.00     0.031 A 
ATOM     39  C   UNL A   1      42.861  29.192  28.264  1.00  0.00     0.074 A 
ATOM     40  C   UNL A   1      40.631  28.392  29.080  1.00  0.00     0.049 A 
ATOM     41  N   UNL A   1      43.741  29.597  29.117  1.00  0.00    -0.248 NA
ATOM     42  C   UNL A   1      43.063  29.737  26.909  1.00  0.00     0.031 C 
ATOM     43  C   UNL A   1      39.390  27.596  29.037  1.00  0.00     0.029 A 
ATOM     44  N   UNL A   1      40.242  29.486  29.781  1.00  0.00    -0.354 N 
ATOM     45  C   UNL A   1      44.462  30.607  28.481  1.00  0.00     0.074 A 
ATOM     46  C   UNL A   1      44.146  30.496  27.082  1.00  0.00     0.031 C 
ATOM     47  C   UNL A   1      38.348  28.344  29.467  1.00  0.00     0.029 A 
ATOM     48  C   UNL A   1      38.864  29.595  29.980  1.00  0.00     0.049 A 
ATOM     49  H   UNL A   1      40.881  30.151  30.125  1.00  0.00     0.167 HD
ATOM     50  C   UNL A   1      45.082  31.593  29.190  1.00  0.00     0.037 A 
ATOM     51  C   UNL A   1      38.221  30.678  30.488  1.00  0.00     0.037 A 
ATOM     52  C   UNL A   1      45.113  31.263  30.594  1.00  0.00     0.049 A 
ATOM     53  C   UNL A   1      39.256  31.468  31.217  1.00  0.00     0.074 A 
ATOM     54  C   UNL A   1      45.690  30.248  31.333  1.00  0.00     0.029 A 
ATOM     55  N   UNL A   1      44.127  31.796  31.392  1.00  0.00    -0.354 N 
ATOM     56  N   UNL A   1      39.896  31.016  32.267  1.00  0.00    -0.248 NA
ATOM     57  C   UNL A   1      39.947  32.510  30.470  1.00  0.00     0.031 C 
ATOM     58  C   UNL A   1      44.706  29.900  32.303  1.00  0.00     0.029 A 
ATOM     59  C   UNL A   1      43.628  30.778  32.167  1.00  0.00     0.049 A 
ATOM     60  H   UNL A   1      43.832  32.735  31.405  1.00  0.00     0.167 HD
ATOM     61  C   UNL A   1      41.217  31.408  32.083  1.00  0.00     0.074 A 
ATOM     62  C   UNL A   1      41.175  32.367  30.979  1.00  0.00     0.031 C 
ATOM     63  C   UNL A   1      42.256  30.703  32.625  1.00  0.00     0.037 A 
BRANCH  50  64
ATOM     64  C   UNL A   1      45.364  32.995  28.701  1.00  0.00     0.058 A 
ATOM     65  C   UNL A   1      46.691  33.475  28.728  1.00  0.00     0.135 A 
ATOM     66  C   UNL A   1      44.373  33.971  28.462  1.00  0.00     0.135 A 
ATOM     67  F   UNL A   1      47.720  32.636  28.936  1.00  0.00    -0.206 F 
ATOM     68  C   UNL A   1      47.002  34.831  28.614  1.00  0.00     0.059 A 
ATOM     69  C   UNL A   1      44.667  35.322  28.291  1.00  0.00     0.059 A 
ATOM     70  F   UNL A   1      43.067  33.687  28.474  1.00  0.00    -0.206 F 
ATOM     71  C   UNL A   1      45.977  35.749  28.415  1.00  0.00     0.060 A 
BRANCH  71  72
ATOM     72  S   UNL A   1      46.364  37.507  28.384  1.00  0.00     0.124 S 
ATOM     73  O   UNL A   1      47.816  37.484  28.251  1.00  0.00    -0.237 OA
ATOM     74  O   UNL A   1      45.621  37.959  27.212  1.00  0.00    -0.237 OA
ATOM     75  O   UNL A   1      45.855  37.987  29.665  1.00  0.00    -0.744 OA
ENDBRANCH  71  72
ENDBRANCH  50  64
BRANCH  51  76
ATOM     76  C   UNL A   1      36.933  31.262  30.011  1.00  0.00     0.058 A 
ATOM     77  C   UNL A   1      36.022  31.864  30.898  1.00  0.00     0.135 A 
ATOM     78  C   UNL A   1      36.697  31.490  28.639  1.00  0.00     0.135 A 
ATOM     79  F   UNL A   1      36.178  31.716  32.223  1.00  0.00    -0.206 F 
ATOM     80  C   UNL A   1      34.970  32.679  30.455  1.00  0.00     0.059 A 
ATOM     81  C   UNL A   1      35.655  32.293  28.174  1.00  0.00     0.059 A 
ATOM     82  F   UNL A   1      37.531  31.007  27.706  1.00  0.00    -0.206 F 
ATOM     83  C   UNL A   1      34.808  32.906  29.088  1.00  0.00     0.060 A 
BRANCH  83  84
ATOM     84  S   UNL A   1      33.567  34.094  28.515  1.00  0.00     0.124 S 
ATOM     85  O   UNL A   1      34.396  35.105  27.867  1.00  0.00    -0.237 OA
ATOM     86  O   UNL A   1      32.745  33.278  27.628  1.00  0.00    -0.237 OA
ATOM     87  O   UNL A   1      32.914  34.522  29.749  1.00  0.00    -0.744 OA
ENDBRANCH  83  84
ENDBRANCH  51  76
BRANCH  63  88
ATOM     88  C   UNL A   1      41.953  29.609  33.625  1.00  0.00     0.058 A 
ATOM     89  C   UNL A   1      41.771  28.253  33.296  1.00  0.00     0.135 A 
ATOM     90  C   UNL A   1      42.066  29.920  34.987  1.00  0.00     0.135 A 
ATOM     91  F   UNL A   1      41.750  27.850  32.020  1.00  0.00    -0.206 F 
ATOM     92  C   UNL A   1      41.683  27.258  34.274  1.00  0.00     0.059 A 
ATOM     93  C   UNL A   1      42.011  28.943  35.978  1.00  0.00     0.059 A 
ATOM     94  F   UNL A   1      42.305  31.186  35.367  1.00  0.00    -0.206 F 
ATOM     95  C   UNL A   1      41.811  27.613  35.616  1.00  0.00     0.060 A 
BRANCH  95  96
ATOM     96  S   UNL A   1      41.782  26.324  36.879  1.00  0.00     0.124 S 
ATOM     97  O   UNL A   1      40.448  26.482  37.448  1.00  0.00    -0.237 OA
ATOM     98  O   UNL A   1      41.998  25.108  36.098  1.00  0.00    -0.237 OA
ATOM     99  O   UNL A   1      42.885  26.688  37.765  1.00  0.00    -0.744 OA
ENDBRANCH  95  96
ENDBRANCH  63  88
ENDBRANCH  37  38
ENDBRANCH  29  32
ENDBRANCH  27  28
ENDBRANCH   1  27
TORSDOF 16
ENDMDL
MODEL 3
REMARK VINA RESULT:     -12.1      2.087      2.774
REMARK SMILES Cn1ccc(-c2n[nH]c(=O)n2-c2ccc(C(=O)NCCCCNC(=O)c3ccc(-c4c5nc(c(-c6c(F)cc(S(=O)(=O)[O-])cc6F)c6ccc([nH]6)c(-c6c(F)cc(S(=O)(=O)[O-])cc6F)c6nc(c(-c7c(F)cc(S(=O)(=O)[O-])cc7F)c7ccc4[nH]7)C=C6)C=C5)cc3)cc2)n1
REMARK SMILES IDX 21 1 20 2 19 3 18 4 16 5 17 6 15 8 12 9 13 10 93 11 14 12
REMARK SMILES IDX 92 13 11 14 6 15 7 16 8 17 9 18 10 20 5 21 1 22 2 23 3 24
REMARK SMILES IDX 94 25 4 26 22 27 23 28 24 29 25 31 26 32 27 33 91 34 28 35
REMARK SMILES IDX 90 36 29 37 30 38 31 39 84 40 32 41 89 42 83 43 85 44 33 45
REMARK SMILES IDX 88 46 82 47 81 48 34 50 68 51 47 52 67 53 48 54 51 55 66 56
REMARK SMILES IDX 86 57 49 58 50 59 65 61 87 62 52 63 35 64 36 65 45 66 37 67
REMARK SMILES IDX 38 68 44 69 46 70 39 71 40 72 41 73 42 74 43 75 69 76 70 77
REMARK SMILES IDX 79 78 71 79 72 80 78 81 80 82 73 83 74 84 75 85 76 86 77 87
REMARK SMILES IDX 53 88 54 89 63 90 55 91 56 92 62 93 64 94 57 95 58 96 59 97
REMARK SMILES IDX 60 98 61 99
REMARK H PARENT 18 7 8 19 23 30 85 49 51 60
REMARK Flexibility Score: inf
ROOT
ATOM      1  C   UNL A   1      40.044  20.937  26.243  1.00  0.00     0.023 C 
ENDROOT
BRANCH   1   2
ATOM      2  C   UNL A   1      39.424  22.328  26.453  1.00  0.00     0.023 C 
BRANCH   2   3
ATOM      3  C   UNL A   1      37.974  22.476  25.964  1.00  0.00     0.116 C 
BRANCH   3   4
ATOM      4  N   UNL A   1      37.485  21.225  25.413  1.00  0.00    -0.352 N 
ATOM      5  C   UNL A   1      36.226  20.714  25.209  1.00  0.00     0.251 C 
ATOM      6  O   UNL A   1      36.151  19.564  24.775  1.00  0.00    -0.269 OA
ATOM      7  H   UNL A   1      38.205  20.618  25.124  1.00  0.00     0.163 HD
BRANCH   5   8
ATOM      8  C   UNL A   1      34.964  21.477  25.446  1.00  0.00     0.039 A 
ATOM      9  C   UNL A   1      32.604  23.007  25.675  1.00  0.00     0.052 A 
ATOM     10  C   UNL A   1      32.870  22.315  24.495  1.00  0.00     0.028 A 
ATOM     11  C   UNL A   1      33.477  22.872  26.757  1.00  0.00     0.028 A 
ATOM     12  C   UNL A   1      34.059  21.583  24.373  1.00  0.00     0.016 A 
ATOM     13  C   UNL A   1      34.615  22.072  26.656  1.00  0.00     0.016 A 
BRANCH   9  14
ATOM     14  N   UNL A   1      31.444  23.775  25.830  1.00  0.00    -0.242 N 
ATOM     15  C   UNL A   1      31.335  25.132  25.907  1.00  0.00     0.189 A 
ATOM     16  N   UNL A   1      30.227  25.567  26.449  1.00  0.00    -0.150 NA
ATOM     17  N   UNL A   1      29.534  24.418  26.724  1.00  0.00    -0.226 N 
ATOM     18  C   UNL A   1      30.267  23.285  26.355  1.00  0.00     0.348 A 
ATOM     19  H   UNL A   1      28.637  24.393  27.128  1.00  0.00     0.195 HD
ATOM     20  O   UNL A   1      29.928  22.140  26.577  1.00  0.00    -0.246 OA
BRANCH  15  21
ATOM     21  C   UNL A   1      32.337  26.042  25.378  1.00  0.00     0.130 A 
ATOM     22  C   UNL A   1      33.557  28.003  22.741  1.00  0.00     0.173 C 
ATOM     23  N   UNL A   1      33.340  27.302  23.986  1.00  0.00    -0.275 N 
ATOM     24  C   UNL A   1      34.022  27.475  25.154  1.00  0.00     0.109 A 
ATOM     25  N   UNL A   1      32.344  26.404  24.082  1.00  0.00    -0.170 NA
ATOM     26  C   UNL A   1      33.376  26.698  26.086  1.00  0.00     0.054 A 
ENDBRANCH  15  21
ENDBRANCH   9  14
ENDBRANCH   5   8
ENDBRANCH   3   4
ENDBRANCH   2   3
ENDBRANCH   1   2
BRANCH   1  27
ATOM     27  C   UNL A   1      41.168  20.595  27.213  1.00  0.00     0.116 C 
BRANCH  27  28
ATOM     28  N   UNL A   1      42.440  20.285  26.541  1.00  0.00    -0.352 N 
ATOM     29  C   UNL A   1      43.296  21.158  25.883  1.00  0.00     0.251 C 
ATOM     30  H   UNL A   1      42.719  19.341  26.563  1.00  0.00     0.163 HD
ATOM     31  O   UNL A   1      44.099  20.758  25.050  1.00  0.00    -0.269 OA
BRANCH  29  32
ATOM     32  C   UNL A   1      43.237  22.580  26.255  1.00  0.00     0.039 A 
ATOM     33  C   UNL A   1      42.651  23.577  25.468  1.00  0.00     0.014 A 
ATOM     34  C   UNL A   1      43.747  22.870  27.511  1.00  0.00     0.014 A 
ATOM     35  C   UNL A   1      42.547  24.863  26.001  1.00  0.00     0.010 A 
ATOM     36  C   UNL A   1      43.364  24.018  28.127  1.00  0.00     0.010 A 
ATOM     37  C   UNL A   1      42.913  25.064  27.338  1.00  0.00    -0.014 A 
BRANCH  37  38
ATOM     38  C   UNL A   1      42.856  26.344  28.023  1.00  0.00     0.031 A 
ATOM     39  C   UNL A   1      43.885  27.328  27.597  1.00  0.00     0.074 A 
ATOM     40  C   UNL A   1      41.739  26.677  28.715  1.00  0.00     0.049 A 
ATOM     41  N   UNL A   1      44.844  27.825  28.303  1.00  0.00    -0.248 NA
ATOM     42  C   UNL A   1      43.960  27.687  26.169  1.00  0.00     0.031 C 
ATOM     43  C   UNL A   1      40.497  25.904  28.894  1.00  0.00     0.029 A 
ATOM     44  N   UNL A   1      41.424  27.860  29.301  1.00  0.00    -0.354 N 
ATOM     45  C   UNL A   1      45.505  28.732  27.476  1.00  0.00     0.074 A 
ATOM     46  C   UNL A   1      45.058  28.445  26.139  1.00  0.00     0.031 C 
ATOM     47  C   UNL A   1      39.504  26.718  29.317  1.00  0.00     0.029 A 
ATOM     48  C   UNL A   1      40.072  28.017  29.611  1.00  0.00     0.049 A 
ATOM     49  H   UNL A   1      42.095  28.554  29.493  1.00  0.00     0.167 HD
ATOM     50  C   UNL A   1      46.195  29.791  27.988  1.00  0.00     0.037 A 
ATOM     51  C   UNL A   1      39.484  29.168  30.031  1.00  0.00     0.037 A 
ATOM     52  C   UNL A   1      46.357  29.645  29.414  1.00  0.00     0.049 A 
ATOM     53  C   UNL A   1      40.587  30.028  30.550  1.00  0.00     0.074 A 
ATOM     54  C   UNL A   1      46.998  28.726  30.222  1.00  0.00     0.029 A 
ATOM     55  N   UNL A   1      45.454  30.294  30.224  1.00  0.00    -0.354 N 
ATOM     56  N   UNL A   1      41.321  29.706  31.585  1.00  0.00    -0.248 NA
ATOM     57  C   UNL A   1      41.209  30.952  29.612  1.00  0.00     0.031 C 
ATOM     58  C   UNL A   1      46.109  28.524  31.318  1.00  0.00     0.029 A 
ATOM     59  C   UNL A   1      45.027  29.395  31.169  1.00  0.00     0.049 A 
ATOM     60  H   UNL A   1      45.166  31.233  30.141  1.00  0.00     0.167 HD
ATOM     61  C   UNL A   1      42.621  30.049  31.229  1.00  0.00     0.074 A 
ATOM     62  C   UNL A   1      42.479  30.857  30.017  1.00  0.00     0.031 C 
ATOM     63  C   UNL A   1      43.704  29.403  31.759  1.00  0.00     0.037 A 
BRANCH  50  64
ATOM     64  C   UNL A   1      46.435  31.112  27.296  1.00  0.00     0.058 A 
ATOM     65  C   UNL A   1      47.762  31.559  27.114  1.00  0.00     0.135 A 
ATOM     66  C   UNL A   1      45.434  32.075  27.043  1.00  0.00     0.135 A 
ATOM     67  F   UNL A   1      48.798  30.727  27.313  1.00  0.00    -0.206 F 
ATOM     68  C   UNL A   1      48.073  32.880  26.793  1.00  0.00     0.059 A 
ATOM     69  C   UNL A   1      45.721  33.386  26.670  1.00  0.00     0.059 A 
ATOM     70  F   UNL A   1      44.134  31.827  27.236  1.00  0.00    -0.206 F 
ATOM     71  C   UNL A   1      47.042  33.791  26.593  1.00  0.00     0.060 A 
BRANCH  71  72
ATOM     72  S   UNL A   1      47.442  35.522  26.294  1.00  0.00     0.124 S 
ATOM     73  O   UNL A   1      48.338  35.420  25.148  1.00  0.00    -0.237 OA
ATOM     74  O   UNL A   1      46.126  36.094  26.027  1.00  0.00    -0.237 OA
ATOM     75  O   UNL A   1      48.061  35.945  27.546  1.00  0.00    -0.744 OA
ENDBRANCH  71  72
ENDBRANCH  50  64
BRANCH  51  76
ATOM     76  C   UNL A   1      38.159  29.706  29.604  1.00  0.00     0.058 A 
ATOM     77  C   UNL A   1      37.221  30.184  30.538  1.00  0.00     0.135 A 
ATOM     78  C   UNL A   1      37.898  30.021  28.254  1.00  0.00     0.135 A 
ATOM     79  F   UNL A   1      37.397  29.947  31.847  1.00  0.00    -0.206 F 
ATOM     80  C   UNL A   1      36.118  30.964  30.161  1.00  0.00     0.059 A 
ATOM     81  C   UNL A   1      36.806  30.792  27.854  1.00  0.00     0.059 A 
ATOM     82  F   UNL A   1      38.751  29.661  27.284  1.00  0.00    -0.206 F 
ATOM     83  C   UNL A   1      35.931  31.282  28.816  1.00  0.00     0.060 A 
BRANCH  83  84
ATOM     84  S   UNL A   1      34.616  32.432  28.338  1.00  0.00     0.124 S 
ATOM     85  O   UNL A   1      33.729  31.569  27.565  1.00  0.00    -0.237 OA
ATOM     86  O   UNL A   1      34.108  32.874  29.632  1.00  0.00    -0.237 OA
ATOM     87  O   UNL A   1      35.322  33.450  27.566  1.00  0.00    -0.744 OA
ENDBRANCH  83  84
ENDBRANCH  51  76
BRANCH  63  88
ATOM     88  C   UNL A   1      43.493  28.454  32.918  1.00  0.00     0.058 A 
ATOM     89  C   UNL A   1      43.452  27.051  32.805  1.00  0.00     0.135 A 
ATOM     90  C   UNL A   1      43.549  28.983  34.215  1.00  0.00     0.135 A 
ATOM     91  F   UNL A   1      43.494  26.454  31.609  1.00  0.00    -0.206 F 
ATOM     92  C   UNL A   1      43.444  26.217  33.928  1.00  0.00     0.059 A 
ATOM     93  C   UNL A   1      43.573  28.172  35.346  1.00  0.00     0.059 A 
ATOM     94  F   UNL A   1      43.654  30.311  34.391  1.00  0.00    -0.206 F 
ATOM     95  C   UNL A   1      43.512  26.789  35.197  1.00  0.00     0.060 A 
BRANCH  95  96
ATOM     96  S   UNL A   1      43.588  25.716  36.647  1.00  0.00     0.124 S 
ATOM     97  O   UNL A   1      43.434  26.669  37.741  1.00  0.00    -0.237 OA
ATOM     98  O   UNL A   1      42.462  24.811  36.433  1.00  0.00    -0.237 OA
ATOM     99  O   UNL A   1      44.906  25.093  36.543  1.00  0.00    -0.744 OA
ENDBRANCH  95  96
ENDBRANCH  63  88
ENDBRANCH  37  38
ENDBRANCH  29  32
ENDBRANCH  27  28
ENDBRANCH   1  27
TORSDOF 16
ENDMDL
