MODEL 1
REMARK VINA RESULT:     -10.9      0.000      0.000
REMARK SMILES C#CC[N@@H+](CC(=O)NCCCCNC(=O)c1ccc(-c2c3nc(c(-c4c(F)cc(S(=O)(=O)[O-])cc4F)c4ccc([nH]4)c(-c4c(F)cc(S(=O)(=O)[O-])cc4F)c4nc(c(-c5c(F)cc(S(=O)(=O)[O-])cc5F)c5ccc2[nH]5)C=C4)C=C3)cc1)CC(=O)NC(=O)NC
REMARK SMILES IDX 10 1 9 2 8 3 6 4 7 5 5 7 4 8 3 10 2 11 1 12 82 13 83 14
REMARK SMILES IDX 84 15 85 16 86 17 87 19 88 20 89 21 11 23 12 24 13 25 14 26
REMARK SMILES IDX 15 28 16 29 17 30 81 31 18 32 80 33 19 34 20 35 21 36 74 37
REMARK SMILES IDX 22 38 79 39 73 40 75 41 23 42 78 43 72 44 71 45 24 47 58 48
REMARK SMILES IDX 37 49 57 50 38 51 41 52 56 53 76 54 39 55 40 56 55 58 77 59
REMARK SMILES IDX 42 60 25 61 26 62 35 63 27 64 28 65 34 66 36 67 29 68 30 69
REMARK SMILES IDX 31 70 32 71 33 72 59 73 60 74 69 75 61 76 62 77 68 78 70 79
REMARK SMILES IDX 63 80 64 81 65 82 66 83 67 84 43 85 44 86 53 87 45 88 46 89
REMARK SMILES IDX 52 90 54 91 47 92 48 93 49 94 50 95 51 96
REMARK H PARENT 8 6 4 9 85 18 88 22 13 27 75 46 41 57
REMARK Flexibility Score: inf
ROOT
ATOM      1  C   UNL A   1      34.797  30.664  27.847  1.00  0.00     0.023 C 
ENDROOT
BRANCH   1   2
ATOM      2  C   UNL A   1      33.624  30.465  26.861  1.00  0.00     0.116 C 
BRANCH   2   3
ATOM      3  N   UNL A   1      33.953  29.639  25.710  1.00  0.00    -0.351 N 
ATOM      4  C   UNL A   1      33.204  29.060  24.726  1.00  0.00     0.275 C 
ATOM      5  O   UNL A   1      33.836  28.595  23.770  1.00  0.00    -0.269 OA
ATOM      6  H   UNL A   1      34.917  29.461  25.622  1.00  0.00     0.163 HD
BRANCH   4   7
ATOM      7  C   UNL A   1      31.652  28.999  24.708  1.00  0.00     0.364 C 
BRANCH   7   8
ATOM      8  N   UNL A   1      30.993  27.671  24.942  1.00  0.00    -0.309 N 
ATOM      9  H   UNL A   1      29.997  27.845  25.068  1.00  0.00     0.349 HD
BRANCH   8  10
ATOM     10  C   UNL A   1      31.614  27.104  26.118  1.00  0.00     0.354 C 
BRANCH  10  11
ATOM     11  C   UNL A   1      31.638  25.610  26.392  1.00  0.00    -0.047 C 
ATOM     12  C   UNL A   1      31.659  24.328  26.628  1.00  0.00     0.010 C 
ENDBRANCH  10  11
ENDBRANCH   8  10
BRANCH   8  13
ATOM     13  C   UNL A   1      30.974  26.720  23.807  1.00  0.00     0.365 C 
BRANCH  13  14
ATOM     14  C   UNL A   1      31.070  27.264  22.395  1.00  0.00     0.283 C 
ATOM     15  O   UNL A   1      30.181  28.002  21.953  1.00  0.00    -0.268 OA
ATOM     16  N   UNL A   1      32.160  26.982  21.590  1.00  0.00    -0.273 N 
ATOM     17  C   UNL A   1      32.821  25.839  21.257  1.00  0.00     0.321 C 
ATOM     18  H   UNL A   1      32.542  27.785  21.167  1.00  0.00     0.175 HD
ATOM     19  O   UNL A   1      32.985  25.563  20.066  1.00  0.00    -0.248 OA
ATOM     20  N   UNL A   1      33.335  24.987  22.158  1.00  0.00    -0.341 N 
ATOM     21  C   UNL A   1      33.770  25.177  23.516  1.00  0.00     0.144 C 
ATOM     22  H   UNL A   1      33.432  24.064  21.830  1.00  0.00     0.165 HD
ENDBRANCH  13  14
ENDBRANCH   8  13
ENDBRANCH   7   8
ENDBRANCH   4   7
ENDBRANCH   2   3
ENDBRANCH   1   2
BRANCH   1  23
ATOM     23  C   UNL A   1      35.214  32.097  28.086  1.00  0.00     0.023 C 
BRANCH  23  24
ATOM     24  C   UNL A   1      36.106  32.259  29.288  1.00  0.00     0.116 C 
BRANCH  24  25
ATOM     25  N   UNL A   1      35.813  31.292  30.348  1.00  0.00    -0.352 N 
ATOM     26  C   UNL A   1      36.650  30.324  30.853  1.00  0.00     0.251 C 
ATOM     27  H   UNL A   1      34.913  31.341  30.745  1.00  0.00     0.163 HD
ATOM     28  O   UNL A   1      36.263  29.487  31.650  1.00  0.00    -0.269 OA
BRANCH  26  29
ATOM     29  C   UNL A   1      38.031  30.340  30.347  1.00  0.00     0.039 A 
ATOM     30  C   UNL A   1      39.084  30.401  31.258  1.00  0.00     0.014 A 
ATOM     31  C   UNL A   1      38.235  30.019  29.004  1.00  0.00     0.014 A 
ATOM     32  C   UNL A   1      40.360  30.047  30.828  1.00  0.00     0.010 A 
ATOM     33  C   UNL A   1      39.475  29.544  28.619  1.00  0.00     0.010 A 
ATOM     34  C   UNL A   1      40.550  29.563  29.523  1.00  0.00    -0.014 A 
BRANCH  34  35
ATOM     35  C   UNL A   1      41.870  29.102  29.039  1.00  0.00     0.031 A 
ATOM     36  C   UNL A   1      42.982  30.107  28.938  1.00  0.00     0.074 A 
ATOM     37  C   UNL A   1      42.033  27.839  28.601  1.00  0.00     0.049 A 
ATOM     38  N   UNL A   1      44.162  29.983  28.393  1.00  0.00    -0.248 NA
ATOM     39  C   UNL A   1      42.705  31.453  29.472  1.00  0.00     0.031 C 
ATOM     40  C   UNL A   1      41.001  26.797  28.597  1.00  0.00     0.029 A 
ATOM     41  N   UNL A   1      43.129  27.219  28.060  1.00  0.00    -0.354 N 
ATOM     42  C   UNL A   1      44.746  31.240  28.486  1.00  0.00     0.074 A 
ATOM     43  C   UNL A   1      43.768  32.128  29.068  1.00  0.00     0.031 C 
ATOM     44  C   UNL A   1      41.527  25.659  28.110  1.00  0.00     0.029 A 
ATOM     45  C   UNL A   1      42.914  25.902  27.728  1.00  0.00     0.049 A 
ATOM     46  H   UNL A   1      43.990  27.675  27.920  1.00  0.00     0.167 HD
ATOM     47  C   UNL A   1      46.003  31.611  28.152  1.00  0.00     0.037 A 
ATOM     48  C   UNL A   1      43.746  24.999  27.175  1.00  0.00     0.037 A 
ATOM     49  C   UNL A   1      46.983  30.700  27.634  1.00  0.00     0.049 A 
ATOM     50  C   UNL A   1      45.145  25.428  26.823  1.00  0.00     0.074 A 
ATOM     51  C   UNL A   1      48.313  30.939  27.347  1.00  0.00     0.029 A 
ATOM     52  N   UNL A   1      46.736  29.367  27.335  1.00  0.00    -0.354 N 
ATOM     53  N   UNL A   1      45.709  26.603  26.978  1.00  0.00    -0.248 NA
ATOM     54  C   UNL A   1      46.019  24.415  26.215  1.00  0.00     0.031 C 
ATOM     55  C   UNL A   1      48.864  29.754  26.844  1.00  0.00     0.029 A 
ATOM     56  C   UNL A   1      47.884  28.773  26.846  1.00  0.00     0.049 A 
ATOM     57  H   UNL A   1      45.870  28.913  27.453  1.00  0.00     0.167 HD
ATOM     58  C   UNL A   1      47.006  26.470  26.498  1.00  0.00     0.074 A 
ATOM     59  C   UNL A   1      47.148  25.095  26.060  1.00  0.00     0.031 C 
ATOM     60  C   UNL A   1      47.989  27.399  26.419  1.00  0.00     0.037 A 
BRANCH  47  61
ATOM     61  C   UNL A   1      46.369  33.051  28.364  1.00  0.00     0.058 A 
ATOM     62  C   UNL A   1      46.863  33.510  29.597  1.00  0.00     0.135 A 
ATOM     63  C   UNL A   1      46.195  33.992  27.337  1.00  0.00     0.135 A 
ATOM     64  F   UNL A   1      47.025  32.656  30.620  1.00  0.00    -0.206 F 
ATOM     65  C   UNL A   1      47.125  34.857  29.819  1.00  0.00     0.059 A 
ATOM     66  C   UNL A   1      46.480  35.341  27.529  1.00  0.00     0.059 A 
ATOM     67  F   UNL A   1      45.721  33.608  26.141  1.00  0.00    -0.206 F 
ATOM     68  C   UNL A   1      46.923  35.766  28.781  1.00  0.00     0.060 A 
BRANCH  68  69
ATOM     69  S   UNL A   1      47.243  37.515  29.092  1.00  0.00     0.124 S 
ATOM     70  O   UNL A   1      46.006  38.125  28.614  1.00  0.00    -0.237 OA
ATOM     71  O   UNL A   1      47.447  37.546  30.537  1.00  0.00    -0.237 OA
ATOM     72  O   UNL A   1      48.431  37.790  28.288  1.00  0.00    -0.744 OA
ENDBRANCH  68  69
ENDBRANCH  47  61
BRANCH  48  73
ATOM     73  C   UNL A   1      43.290  23.602  26.954  1.00  0.00     0.058 A 
ATOM     74  C   UNL A   1      42.957  23.155  25.666  1.00  0.00     0.135 A 
ATOM     75  C   UNL A   1      43.209  22.677  28.007  1.00  0.00     0.135 A 
ATOM     76  F   UNL A   1      43.012  24.004  24.628  1.00  0.00    -0.206 F 
ATOM     77  C   UNL A   1      42.556  21.845  25.428  1.00  0.00     0.059 A 
ATOM     78  C   UNL A   1      42.828  21.355  27.791  1.00  0.00     0.059 A 
ATOM     79  F   UNL A   1      43.530  23.050  29.255  1.00  0.00    -0.206 F 
ATOM     80  C   UNL A   1      42.499  20.949  26.498  1.00  0.00     0.060 A 
BRANCH  80  81
ATOM     81  S   UNL A   1      42.042  19.233  26.166  1.00  0.00     0.124 S 
ATOM     82  O   UNL A   1      42.866  18.929  25.002  1.00  0.00    -0.237 OA
ATOM     83  O   UNL A   1      42.422  18.567  27.408  1.00  0.00    -0.237 OA
ATOM     84  O   UNL A   1      40.605  19.310  25.921  1.00  0.00    -0.744 OA
ENDBRANCH  80  81
ENDBRANCH  48  73
BRANCH  60  85
ATOM     85  C   UNL A   1      49.304  26.964  25.843  1.00  0.00     0.058 A 
ATOM     86  C   UNL A   1      49.589  27.129  24.480  1.00  0.00     0.135 A 
ATOM     87  C   UNL A   1      50.318  26.467  26.677  1.00  0.00     0.135 A 
ATOM     88  F   UNL A   1      48.646  27.593  23.644  1.00  0.00    -0.206 F 
ATOM     89  C   UNL A   1      50.838  26.812  23.960  1.00  0.00     0.059 A 
ATOM     90  C   UNL A   1      51.581  26.165  26.181  1.00  0.00     0.059 A 
ATOM     91  F   UNL A   1      50.094  26.303  27.990  1.00  0.00    -0.206 F 
ATOM     92  C   UNL A   1      51.830  26.338  24.820  1.00  0.00     0.060 A 
BRANCH  92  93
ATOM     93  S   UNL A   1      53.469  25.998  24.145  1.00  0.00     0.124 S 
ATOM     94  O   UNL A   1      53.741  24.671  24.687  1.00  0.00    -0.237 OA
ATOM     95  O   UNL A   1      53.233  26.058  22.705  1.00  0.00    -0.237 OA
ATOM     96  O   UNL A   1      54.289  27.078  24.684  1.00  0.00    -0.744 OA
ENDBRANCH  92  93
ENDBRANCH  60  85
ENDBRANCH  34  35
ENDBRANCH  26  29
ENDBRANCH  24  25
ENDBRANCH  23  24
ENDBRANCH   1  23
TORSDOF 19
ENDMDL
MODEL 2
REMARK VINA RESULT:     -10.5      1.316      2.235
REMARK SMILES C#CC[N@@H+](CC(=O)NCCCCNC(=O)c1ccc(-c2c3nc(c(-c4c(F)cc(S(=O)(=O)[O-])cc4F)c4ccc([nH]4)c(-c4c(F)cc(S(=O)(=O)[O-])cc4F)c4nc(c(-c5c(F)cc(S(=O)(=O)[O-])cc5F)c5ccc2[nH]5)C=C4)C=C3)cc1)CC(=O)NC(=O)NC
REMARK SMILES IDX 10 1 9 2 8 3 6 4 7 5 5 7 4 8 3 10 2 11 1 12 82 13 83 14
REMARK SMILES IDX 84 15 85 16 86 17 87 19 88 20 89 21 11 23 12 24 13 25 14 26
REMARK SMILES IDX 15 28 16 29 17 30 81 31 18 32 80 33 19 34 20 35 21 36 74 37
REMARK SMILES IDX 22 38 79 39 73 40 75 41 23 42 78 43 72 44 71 45 24 47 58 48
REMARK SMILES IDX 37 49 57 50 38 51 41 52 56 53 76 54 39 55 40 56 55 58 77 59
REMARK SMILES IDX 42 60 25 61 26 62 35 63 27 64 28 65 34 66 36 67 29 68 30 69
REMARK SMILES IDX 31 70 32 71 33 72 59 73 60 74 69 75 61 76 62 77 68 78 70 79
REMARK SMILES IDX 63 80 64 81 65 82 66 83 67 84 43 85 44 86 53 87 45 88 46 89
REMARK SMILES IDX 52 90 54 91 47 92 48 93 49 94 50 95 51 96
REMARK H PARENT 8 6 4 9 85 18 88 22 13 27 75 46 41 57
REMARK Flexibility Score: inf
ROOT
ATOM      1  C   UNL A   1      34.941  29.809  27.627  1.00  0.00     0.023 C 
ENDROOT
BRANCH   1   2
ATOM      2  C   UNL A   1      33.725  29.299  26.820  1.00  0.00     0.116 C 
BRANCH   2   3
ATOM      3  N   UNL A   1      33.896  29.382  25.378  1.00  0.00    -0.351 N 
ATOM      4  C   UNL A   1      33.448  28.624  24.335  1.00  0.00     0.275 C 
ATOM      5  O   UNL A   1      33.609  29.107  23.209  1.00  0.00    -0.269 OA
ATOM      6  H   UNL A   1      34.451  30.144  25.095  1.00  0.00     0.163 HD
BRANCH   4   7
ATOM      7  C   UNL A   1      32.723  27.258  24.476  1.00  0.00     0.364 C 
BRANCH   7   8
ATOM      8  N   UNL A   1      33.532  26.065  24.895  1.00  0.00    -0.309 N 
ATOM      9  H   UNL A   1      34.279  26.403  25.500  1.00  0.00     0.349 HD
BRANCH   8  10
ATOM     10  C   UNL A   1      34.028  25.457  23.681  1.00  0.00     0.354 C 
BRANCH  10  11
ATOM     11  C   UNL A   1      33.280  25.533  22.361  1.00  0.00    -0.047 C 
ATOM     12  C   UNL A   1      32.638  25.599  21.228  1.00  0.00     0.010 C 
ENDBRANCH  10  11
ENDBRANCH   8  10
BRANCH   8  13
ATOM     13  C   UNL A   1      32.871  25.082  25.783  1.00  0.00     0.365 C 
BRANCH  13  14
ATOM     14  C   UNL A   1      31.576  25.470  26.470  1.00  0.00     0.283 C 
ATOM     15  O   UNL A   1      31.457  26.590  26.981  1.00  0.00    -0.268 OA
ATOM     16  N   UNL A   1      30.496  24.605  26.506  1.00  0.00    -0.273 N 
ATOM     17  C   UNL A   1      30.345  23.293  26.835  1.00  0.00     0.321 C 
ATOM     18  H   UNL A   1      29.652  25.033  26.233  1.00  0.00     0.175 HD
ATOM     19  O   UNL A   1      29.501  22.976  27.678  1.00  0.00    -0.248 OA
ATOM     20  N   UNL A   1      31.052  22.298  26.276  1.00  0.00    -0.341 N 
ATOM     21  C   UNL A   1      31.715  22.194  25.003  1.00  0.00     0.144 C 
ATOM     22  H   UNL A   1      31.131  21.494  26.838  1.00  0.00     0.165 HD
ENDBRANCH  13  14
ENDBRANCH   8  13
ENDBRANCH   7   8
ENDBRANCH   4   7
ENDBRANCH   2   3
ENDBRANCH   1   2
BRANCH   1  23
ATOM     23  C   UNL A   1      35.088  31.311  27.710  1.00  0.00     0.023 C 
BRANCH  23  24
ATOM     24  C   UNL A   1      35.999  31.754  28.824  1.00  0.00     0.116 C 
BRANCH  24  25
ATOM     25  N   UNL A   1      35.769  31.022  30.071  1.00  0.00    -0.352 N 
ATOM     26  C   UNL A   1      36.672  30.258  30.773  1.00  0.00     0.251 C 
ATOM     27  H   UNL A   1      34.862  31.085  30.452  1.00  0.00     0.163 HD
ATOM     28  O   UNL A   1      36.342  29.589  31.737  1.00  0.00    -0.269 OA
BRANCH  26  29
ATOM     29  C   UNL A   1      38.055  30.273  30.271  1.00  0.00     0.039 A 
ATOM     30  C   UNL A   1      39.105  30.369  31.182  1.00  0.00     0.014 A 
ATOM     31  C   UNL A   1      38.265  29.917  28.938  1.00  0.00     0.014 A 
ATOM     32  C   UNL A   1      40.385  30.015  30.765  1.00  0.00     0.010 A 
ATOM     33  C   UNL A   1      39.510  29.443  28.569  1.00  0.00     0.010 A 
ATOM     34  C   UNL A   1      40.582  29.497  29.474  1.00  0.00    -0.014 A 
BRANCH  34  35
ATOM     35  C   UNL A   1      41.908  29.035  29.005  1.00  0.00     0.031 A 
ATOM     36  C   UNL A   1      43.023  30.039  28.922  1.00  0.00     0.074 A 
ATOM     37  C   UNL A   1      42.074  27.773  28.567  1.00  0.00     0.049 A 
ATOM     38  N   UNL A   1      44.210  29.914  28.392  1.00  0.00    -0.248 NA
ATOM     39  C   UNL A   1      42.741  31.384  29.456  1.00  0.00     0.031 C 
ATOM     40  C   UNL A   1      41.041  26.732  28.546  1.00  0.00     0.029 A 
ATOM     41  N   UNL A   1      43.176  27.152  28.038  1.00  0.00    -0.354 N 
ATOM     42  C   UNL A   1      44.795  31.169  28.496  1.00  0.00     0.074 A 
ATOM     43  C   UNL A   1      43.811  32.058  29.068  1.00  0.00     0.031 C 
ATOM     44  C   UNL A   1      41.571  25.596  28.063  1.00  0.00     0.029 A 
ATOM     45  C   UNL A   1      42.963  25.836  27.700  1.00  0.00     0.049 A 
ATOM     46  H   UNL A   1      44.039  27.607  27.911  1.00  0.00     0.167 HD
ATOM     47  C   UNL A   1      46.056  31.539  28.179  1.00  0.00     0.037 A 
ATOM     48  C   UNL A   1      43.801  24.933  27.155  1.00  0.00     0.037 A 
ATOM     49  C   UNL A   1      47.042  30.628  27.671  1.00  0.00     0.049 A 
ATOM     50  C   UNL A   1      45.205  25.361  26.823  1.00  0.00     0.074 A 
ATOM     51  C   UNL A   1      48.376  30.865  27.403  1.00  0.00     0.029 A 
ATOM     52  N   UNL A   1      46.796  29.296  27.366  1.00  0.00    -0.354 N 
ATOM     53  N   UNL A   1      45.769  26.535  26.988  1.00  0.00    -0.248 NA
ATOM     54  C   UNL A   1      46.085  24.349  26.223  1.00  0.00     0.031 C 
ATOM     55  C   UNL A   1      48.931  29.681  26.904  1.00  0.00     0.029 A 
ATOM     56  C   UNL A   1      47.949  28.701  26.890  1.00  0.00     0.049 A 
ATOM     57  H   UNL A   1      45.928  28.843  27.472  1.00  0.00     0.167 HD
ATOM     58  C   UNL A   1      47.071  26.401  26.524  1.00  0.00     0.074 A 
ATOM     59  C   UNL A   1      47.217  25.027  26.085  1.00  0.00     0.031 C 
ATOM     60  C   UNL A   1      48.058  27.328  26.461  1.00  0.00     0.037 A 
BRANCH  47  61
ATOM     61  C   UNL A   1      46.422  32.978  28.400  1.00  0.00     0.058 A 
ATOM     62  C   UNL A   1      46.302  33.932  27.375  1.00  0.00     0.135 A 
ATOM     63  C   UNL A   1      46.930  33.405  29.637  1.00  0.00     0.135 A 
ATOM     64  F   UNL A   1      45.845  33.571  26.166  1.00  0.00    -0.206 F 
ATOM     65  C   UNL A   1      46.717  35.247  27.554  1.00  0.00     0.059 A 
ATOM     66  C   UNL A   1      47.323  34.724  29.846  1.00  0.00     0.059 A 
ATOM     67  F   UNL A   1      47.070  32.533  30.647  1.00  0.00    -0.206 F 
ATOM     68  C   UNL A   1      47.234  35.631  28.791  1.00  0.00     0.060 A 
BRANCH  68  69
ATOM     69  S   UNL A   1      47.792  37.335  29.000  1.00  0.00     0.124 S 
ATOM     70  O   UNL A   1      48.628  37.512  27.818  1.00  0.00    -0.237 OA
ATOM     71  O   UNL A   1      46.536  38.079  29.005  1.00  0.00    -0.237 OA
ATOM     72  O   UNL A   1      48.503  37.304  30.274  1.00  0.00    -0.744 OA
ENDBRANCH  68  69
ENDBRANCH  47  61
BRANCH  48  73
ATOM     73  C   UNL A   1      43.345  23.538  26.924  1.00  0.00     0.058 A 
ATOM     74  C   UNL A   1      43.106  23.072  25.623  1.00  0.00     0.135 A 
ATOM     75  C   UNL A   1      43.172  22.634  27.984  1.00  0.00     0.135 A 
ATOM     76  F   UNL A   1      43.252  23.900  24.577  1.00  0.00    -0.206 F 
ATOM     77  C   UNL A   1      42.708  21.761  25.378  1.00  0.00     0.059 A 
ATOM     78  C   UNL A   1      42.791  21.312  27.763  1.00  0.00     0.059 A 
ATOM     79  F   UNL A   1      43.400  23.027  29.247  1.00  0.00    -0.206 F 
ATOM     80  C   UNL A   1      42.557  20.887  26.456  1.00  0.00     0.060 A 
BRANCH  80  81
ATOM     81  S   UNL A   1      42.105  19.169  26.120  1.00  0.00     0.124 S 
ATOM     82  O   UNL A   1      42.897  18.885  24.930  1.00  0.00    -0.237 OA
ATOM     83  O   UNL A   1      42.527  18.495  27.344  1.00  0.00    -0.237 OA
ATOM     84  O   UNL A   1      40.661  19.237  25.917  1.00  0.00    -0.744 OA
ENDBRANCH  80  81
ENDBRANCH  48  73
BRANCH  60  85
ATOM     85  C   UNL A   1      49.379  26.892  25.901  1.00  0.00     0.058 A 
ATOM     86  C   UNL A   1      49.678  27.052  24.540  1.00  0.00     0.135 A 
ATOM     87  C   UNL A   1      50.385  26.401  26.747  1.00  0.00     0.135 A 
ATOM     88  F   UNL A   1      48.743  27.510  23.692  1.00  0.00    -0.206 F 
ATOM     89  C   UNL A   1      50.933  26.734  24.034  1.00  0.00     0.059 A 
ATOM     90  C   UNL A   1      51.653  26.098  26.266  1.00  0.00     0.059 A 
ATOM     91  F   UNL A   1      50.147  26.242  28.058  1.00  0.00    -0.206 F 
ATOM     92  C   UNL A   1      51.917  26.265  24.907  1.00  0.00     0.060 A 
BRANCH  92  93
ATOM     93  S   UNL A   1      53.563  25.924  24.251  1.00  0.00     0.124 S 
ATOM     94  O   UNL A   1      53.336  26.042  22.814  1.00  0.00    -0.237 OA
ATOM     95  O   UNL A   1      54.367  26.982  24.855  1.00  0.00    -0.237 OA
ATOM     96  O   UNL A   1      53.848  24.576  24.733  1.00  0.00    -0.744 OA
ENDBRANCH  92  93
ENDBRANCH  60  85
ENDBRANCH  34  35
ENDBRANCH  26  29
ENDBRANCH  24  25
ENDBRANCH  23  24
ENDBRANCH   1  23
TORSDOF 19
ENDMDL
MODEL 3
REMARK VINA RESULT:     -10.5      4.553     10.319
REMARK SMILES C#CC[N@@H+](CC(=O)NCCCCNC(=O)c1ccc(-c2c3nc(c(-c4c(F)cc(S(=O)(=O)[O-])cc4F)c4ccc([nH]4)c(-c4c(F)cc(S(=O)(=O)[O-])cc4F)c4nc(c(-c5c(F)cc(S(=O)(=O)[O-])cc5F)c5ccc2[nH]5)C=C4)C=C3)cc1)CC(=O)NC(=O)NC
REMARK SMILES IDX 10 1 9 2 8 3 6 4 7 5 5 7 4 8 3 10 2 11 1 12 82 13 83 14
REMARK SMILES IDX 84 15 85 16 86 17 87 19 88 20 89 21 11 23 12 24 13 25 14 26
REMARK SMILES IDX 15 28 16 29 17 30 81 31 18 32 80 33 19 34 20 35 21 36 74 37
REMARK SMILES IDX 22 38 79 39 73 40 75 41 23 42 78 43 72 44 71 45 24 47 58 48
REMARK SMILES IDX 37 49 57 50 38 51 41 52 56 53 76 54 39 55 40 56 55 58 77 59
REMARK SMILES IDX 42 60 25 61 26 62 35 63 27 64 28 65 34 66 36 67 29 68 30 69
REMARK SMILES IDX 31 70 32 71 33 72 59 73 60 74 69 75 61 76 62 77 68 78 70 79
REMARK SMILES IDX 63 80 64 81 65 82 66 83 67 84 43 85 44 86 53 87 45 88 46 89
REMARK SMILES IDX 52 90 54 91 47 92 48 93 49 94 50 95 51 96
REMARK H PARENT 8 6 4 9 85 18 88 22 13 27 75 46 41 57
REMARK Flexibility Score: inf
ROOT
ATOM      1  C   UNL A   1      34.899  22.611  24.118  1.00  0.00     0.023 C 
ENDROOT
BRANCH   1   2
ATOM      2  C   UNL A   1      33.879  23.771  24.076  1.00  0.00     0.116 C 
BRANCH   2   3
ATOM      3  N   UNL A   1      33.914  24.543  22.844  1.00  0.00    -0.351 N 
ATOM      4  C   UNL A   1      33.099  25.502  22.313  1.00  0.00     0.275 C 
ATOM      5  O   UNL A   1      33.545  26.107  21.332  1.00  0.00    -0.269 OA
ATOM      6  H   UNL A   1      34.687  24.331  22.273  1.00  0.00     0.163 HD
BRANCH   4   7
ATOM      7  C   UNL A   1      31.710  25.902  22.882  1.00  0.00     0.364 C 
BRANCH   7   8
ATOM      8  N   UNL A   1      31.633  27.092  23.792  1.00  0.00    -0.309 N 
ATOM      9  H   UNL A   1      30.882  26.916  24.459  1.00  0.00     0.349 HD
BRANCH   8  10
ATOM     10  C   UNL A   1      31.373  28.238  22.950  1.00  0.00     0.354 C 
BRANCH  10  11
ATOM     11  C   UNL A   1      30.258  29.229  23.235  1.00  0.00    -0.047 C 
ATOM     12  C   UNL A   1      29.301  30.080  23.480  1.00  0.00     0.010 C 
ENDBRANCH  10  11
ENDBRANCH   8  10
BRANCH   8  13
ATOM     13  C   UNL A   1      32.777  27.317  24.705  1.00  0.00     0.365 C 
BRANCH  13  14
ATOM     14  C   UNL A   1      33.654  28.535  24.493  1.00  0.00     0.283 C 
ATOM     15  O   UNL A   1      34.364  28.620  23.484  1.00  0.00    -0.268 OA
ATOM     16  N   UNL A   1      33.651  29.587  25.393  1.00  0.00    -0.273 N 
ATOM     17  C   UNL A   1      33.758  29.674  26.748  1.00  0.00     0.321 C 
ATOM     18  H   UNL A   1      33.548  30.464  24.958  1.00  0.00     0.175 HD
ATOM     19  O   UNL A   1      34.616  30.412  27.239  1.00  0.00    -0.248 OA
ATOM     20  N   UNL A   1      32.960  29.013  27.601  1.00  0.00    -0.341 N 
ATOM     21  C   UNL A   1      31.627  28.494  27.458  1.00  0.00     0.144 C 
ATOM     22  H   UNL A   1      33.360  28.855  28.487  1.00  0.00     0.165 HD
ENDBRANCH  13  14
ENDBRANCH   8  13
ENDBRANCH   7   8
ENDBRANCH   4   7
ENDBRANCH   2   3
ENDBRANCH   1   2
BRANCH   1  23
ATOM     23  C   UNL A   1      36.340  22.997  23.876  1.00  0.00     0.023 C 
BRANCH  23  24
ATOM     24  C   UNL A   1      37.057  23.416  25.132  1.00  0.00     0.116 C 
BRANCH  24  25
ATOM     25  N   UNL A   1      38.205  22.561  25.443  1.00  0.00    -0.352 N 
ATOM     26  C   UNL A   1      39.339  22.904  26.142  1.00  0.00     0.251 C 
ATOM     27  H   UNL A   1      38.159  21.634  25.114  1.00  0.00     0.163 HD
ATOM     28  O   UNL A   1      40.292  22.150  26.237  1.00  0.00    -0.269 OA
BRANCH  26  29
ATOM     29  C   UNL A   1      39.345  24.248  26.739  1.00  0.00     0.039 A 
ATOM     30  C   UNL A   1      38.898  24.407  28.050  1.00  0.00     0.014 A 
ATOM     31  C   UNL A   1      40.049  25.252  26.073  1.00  0.00     0.014 A 
ATOM     32  C   UNL A   1      39.241  25.570  28.735  1.00  0.00     0.010 A 
ATOM     33  C   UNL A   1      40.496  26.340  26.799  1.00  0.00     0.010 A 
ATOM     34  C   UNL A   1      40.088  26.514  28.132  1.00  0.00    -0.014 A 
BRANCH  34  35
ATOM     35  C   UNL A   1      40.544  27.729  28.842  1.00  0.00     0.031 A 
ATOM     36  C   UNL A   1      41.935  27.741  29.412  1.00  0.00     0.074 A 
ATOM     37  C   UNL A   1      39.695  28.751  29.060  1.00  0.00     0.049 A 
ATOM     38  N   UNL A   1      42.495  28.611  30.207  1.00  0.00    -0.248 NA
ATOM     39  C   UNL A   1      42.789  26.583  29.089  1.00  0.00     0.031 C 
ATOM     40  C   UNL A   1      38.303  28.819  28.604  1.00  0.00     0.029 A 
ATOM     41  N   UNL A   1      39.877  29.930  29.737  1.00  0.00    -0.354 N 
ATOM     42  C   UNL A   1      43.746  28.087  30.506  1.00  0.00     0.074 A 
ATOM     43  C   UNL A   1      43.834  26.793  29.871  1.00  0.00     0.031 C 
ATOM     44  C   UNL A   1      37.771  29.992  28.985  1.00  0.00     0.029 A 
ATOM     45  C   UNL A   1      38.765  30.740  29.748  1.00  0.00     0.049 A 
ATOM     46  H   UNL A   1      40.723  30.173  30.176  1.00  0.00     0.167 HD
ATOM     47  C   UNL A   1      44.749  28.654  31.214  1.00  0.00     0.037 A 
ATOM     48  C   UNL A   1      38.576  31.947  30.315  1.00  0.00     0.037 A 
ATOM     49  C   UNL A   1      44.668  29.968  31.785  1.00  0.00     0.049 A 
ATOM     50  C   UNL A   1      39.709  32.566  31.087  1.00  0.00     0.074 A 
ATOM     51  C   UNL A   1      45.650  30.683  32.442  1.00  0.00     0.029 A 
ATOM     52  N   UNL A   1      43.535  30.768  31.753  1.00  0.00    -0.354 N 
ATOM     53  N   UNL A   1      40.912  32.090  31.307  1.00  0.00    -0.248 NA
ATOM     54  C   UNL A   1      39.459  33.880  31.697  1.00  0.00     0.031 C 
ATOM     55  C   UNL A   1      45.099  31.908  32.836  1.00  0.00     0.029 A 
ATOM     56  C   UNL A   1      43.784  31.965  32.398  1.00  0.00     0.049 A 
ATOM     57  H   UNL A   1      42.679  30.520  31.334  1.00  0.00     0.167 HD
ATOM     58  C   UNL A   1      41.568  33.049  32.069  1.00  0.00     0.074 A 
ATOM     59  C   UNL A   1      40.632  34.139  32.261  1.00  0.00     0.031 C 
ATOM     60  C   UNL A   1      42.827  33.030  32.571  1.00  0.00     0.037 A 
BRANCH  47  61
ATOM     61  C   UNL A   1      46.007  27.851  31.379  1.00  0.00     0.058 A 
ATOM     62  C   UNL A   1      46.206  27.017  32.492  1.00  0.00     0.135 A 
ATOM     63  C   UNL A   1      47.041  27.940  30.433  1.00  0.00     0.135 A 
ATOM     64  F   UNL A   1      45.260  26.915  33.439  1.00  0.00    -0.206 F 
ATOM     65  C   UNL A   1      47.403  26.337  32.687  1.00  0.00     0.059 A 
ATOM     66  C   UNL A   1      48.235  27.244  30.593  1.00  0.00     0.059 A 
ATOM     67  F   UNL A   1      46.904  28.726  29.354  1.00  0.00    -0.206 F 
ATOM     68  C   UNL A   1      48.415  26.463  31.735  1.00  0.00     0.060 A 
BRANCH  68  69
ATOM     69  S   UNL A   1      49.973  25.596  32.013  1.00  0.00     0.124 S 
ATOM     70  O   UNL A   1      50.299  25.147  30.664  1.00  0.00    -0.237 OA
ATOM     71  O   UNL A   1      50.827  26.648  32.555  1.00  0.00    -0.237 OA
ATOM     72  O   UNL A   1      49.610  24.541  32.955  1.00  0.00    -0.744 OA
ENDBRANCH  68  69
ENDBRANCH  47  61
BRANCH  48  73
ATOM     73  C   UNL A   1      37.281  32.656  30.144  1.00  0.00     0.058 A 
ATOM     74  C   UNL A   1      36.252  32.500  31.085  1.00  0.00     0.135 A 
ATOM     75  C   UNL A   1      37.053  33.525  29.066  1.00  0.00     0.135 A 
ATOM     76  F   UNL A   1      36.420  31.675  32.130  1.00  0.00    -0.206 F 
ATOM     77  C   UNL A   1      35.043  33.175  30.964  1.00  0.00     0.059 A 
ATOM     78  C   UNL A   1      35.857  34.227  28.933  1.00  0.00     0.059 A 
ATOM     79  F   UNL A   1      38.010  33.720  28.145  1.00  0.00    -0.206 F 
ATOM     80  C   UNL A   1      34.856  34.042  29.885  1.00  0.00     0.060 A 
BRANCH  80  81
ATOM     81  S   UNL A   1      33.306  34.965  29.775  1.00  0.00     0.124 S 
ATOM     82  O   UNL A   1      33.774  36.274  29.338  1.00  0.00    -0.237 OA
ATOM     83  O   UNL A   1      32.557  34.193  28.788  1.00  0.00    -0.237 OA
ATOM     84  O   UNL A   1      32.782  34.902  31.136  1.00  0.00    -0.744 OA
ENDBRANCH  80  81
ENDBRANCH  48  73
BRANCH  60  85
ATOM     85  C   UNL A   1      43.268  34.219  33.371  1.00  0.00     0.058 A 
ATOM     86  C   UNL A   1      43.953  35.284  32.769  1.00  0.00     0.135 A 
ATOM     87  C   UNL A   1      42.921  34.336  34.726  1.00  0.00     0.135 A 
ATOM     88  F   UNL A   1      44.313  35.213  31.477  1.00  0.00    -0.206 F 
ATOM     89  C   UNL A   1      44.283  36.428  33.486  1.00  0.00     0.059 A 
ATOM     90  C   UNL A   1      43.222  35.480  35.456  1.00  0.00     0.059 A 
ATOM     91  F   UNL A   1      42.256  33.345  35.341  1.00  0.00    -0.206 F 
ATOM     92  C   UNL A   1      43.906  36.520  34.828  1.00  0.00     0.060 A 
BRANCH  92  93
ATOM     93  S   UNL A   1      44.278  38.039  35.728  1.00  0.00     0.124 S 
ATOM     94  O   UNL A   1      43.692  37.757  37.035  1.00  0.00    -0.237 OA
ATOM     95  O   UNL A   1      45.737  38.081  35.683  1.00  0.00    -0.237 OA
ATOM     96  O   UNL A   1      43.603  39.070  34.946  1.00  0.00    -0.744 OA
ENDBRANCH  92  93
ENDBRANCH  60  85
ENDBRANCH  34  35
ENDBRANCH  26  29
ENDBRANCH  24  25
ENDBRANCH  23  24
ENDBRANCH   1  23
TORSDOF 19
ENDMDL
