MODEL 1
REMARK VINA RESULT:     -13.2      0.000      0.000
REMARK SMILES Cc1ccc(Nc2c(C)cccc2Cl)c(CC(=O)NCCCCNC(=O)c2ccc(-c3c4nc(c(-c5c(F)cc(S(=O)(=O)[O-])cc5F)c5ccc([nH]5)c(-c5c(F)cc(S(=O)(=O)[O-])cc5F)c5nc(c(-c6c(F)cc(S(=O)(=O)[O-])cc6F)c6ccc3[nH]6)C=C5)C=C4)cc2)c1
REMARK SMILES IDX 21 1 20 2 19 3 17 4 18 5 16 7 15 8 1 9 2 10 3 11 93 12 4 13
REMARK SMILES IDX 5 14 6 15 7 17 8 18 13 19 9 20 10 21 12 22 14 23 11 24 22 25
REMARK SMILES IDX 23 26 24 27 25 28 26 30 27 31 28 32 92 33 29 34 91 35 30 36
REMARK SMILES IDX 31 37 32 38 85 39 33 40 90 41 84 42 86 43 34 44 89 45 83 46
REMARK SMILES IDX 82 47 35 49 69 50 48 51 68 52 49 53 52 54 67 55 87 56 50 57
REMARK SMILES IDX 51 58 66 60 88 61 53 62 36 63 37 64 46 65 38 66 39 67 45 68
REMARK SMILES IDX 47 69 40 70 41 71 42 72 43 73 44 74 70 75 71 76 80 77 72 78
REMARK SMILES IDX 73 79 79 80 81 81 74 82 75 83 76 84 77 85 78 86 54 87 55 88
REMARK SMILES IDX 64 89 56 90 57 91 63 92 65 93 58 94 59 95 60 96 61 97 62 98
REMARK H PARENT 19 6 6 16 24 29 86 48 52 59
REMARK Flexibility Score: inf
ROOT
ATOM      1  C   UNL A   1      32.296  28.572  27.626  1.00  0.00     0.023 C 
ENDROOT
BRANCH   1   2
ATOM      2  C   UNL A   1      31.897  27.592  26.511  1.00  0.00     0.116 C 
BRANCH   2   3
ATOM      3  N   UNL A   1      31.449  28.249  25.292  1.00  0.00    -0.356 N 
ATOM      4  C   UNL A   1      32.086  28.404  24.098  1.00  0.00     0.224 C 
ATOM      5  O   UNL A   1      31.548  29.089  23.223  1.00  0.00    -0.275 OA
ATOM      6  H   UNL A   1      30.546  28.641  25.338  1.00  0.00     0.163 HD
BRANCH   4   7
ATOM      7  C   UNL A   1      33.445  27.779  23.843  1.00  0.00     0.137 C 
BRANCH   7   8
ATOM      8  C   UNL A   1      33.368  26.461  23.106  1.00  0.00    -0.015 A 
ATOM      9  C   UNL A   1      32.461  25.417  19.542  1.00  0.00     0.044 C 
ATOM     10  C   UNL A   1      32.860  25.348  20.986  1.00  0.00    -0.051 A 
ATOM     11  C   UNL A   1      32.931  24.117  21.637  1.00  0.00     0.005 A 
ATOM     12  C   UNL A   1      33.107  26.509  21.719  1.00  0.00     0.009 A 
ATOM     13  C   UNL A   1      33.245  24.055  22.998  1.00  0.00     0.026 A 
ATOM     14  C   UNL A   1      33.468  25.213  23.761  1.00  0.00     0.042 A 
BRANCH  14  15
ATOM     15  N   UNL A   1      33.823  25.128  25.128  1.00  0.00    -0.354 N 
ATOM     16  H   UNL A   1      33.968  25.990  25.581  1.00  0.00     0.167 HD
BRANCH  15  17
ATOM     17  C   UNL A   1      33.999  23.979  25.939  1.00  0.00     0.060 A 
ATOM     18  C   UNL A   1      35.234  23.298  26.017  1.00  0.00    -0.026 A 
ATOM     19  C   UNL A   1      32.891  23.440  26.633  1.00  0.00     0.064 A 
ATOM     20  C   UNL A   1      36.491  23.818  25.371  1.00  0.00     0.046 C 
ATOM     21  C   UNL A   1      35.315  22.085  26.725  1.00  0.00     0.005 A 
ATOM     22  C   UNL A   1      32.995  22.247  27.352  1.00  0.00     0.023 A 
ATOM     23  Cl  UNL A   1      31.347  24.223  26.597  1.00  0.00    -0.082 Cl
ATOM     24  C   UNL A   1      34.204  21.562  27.386  1.00  0.00     0.002 A 
ENDBRANCH  15  17
ENDBRANCH  14  15
ENDBRANCH   7   8
ENDBRANCH   4   7
ENDBRANCH   2   3
ENDBRANCH   1   2
BRANCH   1  25
ATOM     25  C   UNL A   1      33.099  29.795  27.180  1.00  0.00     0.023 C 
BRANCH  25  26
ATOM     26  C   UNL A   1      34.600  29.622  27.356  1.00  0.00     0.116 C 
BRANCH  26  27
ATOM     27  N   UNL A   1      35.318  30.862  27.606  1.00  0.00    -0.352 N 
ATOM     28  C   UNL A   1      36.574  31.013  28.184  1.00  0.00     0.251 C 
ATOM     29  H   UNL A   1      34.861  31.691  27.336  1.00  0.00     0.163 HD
ATOM     30  O   UNL A   1      36.998  32.078  28.547  1.00  0.00    -0.269 OA
BRANCH  28  31
ATOM     31  C   UNL A   1      37.427  29.797  28.221  1.00  0.00     0.039 A 
ATOM     32  C   UNL A   1      37.481  29.104  29.436  1.00  0.00     0.014 A 
ATOM     33  C   UNL A   1      38.346  29.546  27.206  1.00  0.00     0.014 A 
ATOM     34  C   UNL A   1      38.580  28.294  29.711  1.00  0.00     0.010 A 
ATOM     35  C   UNL A   1      39.472  28.804  27.510  1.00  0.00     0.010 A 
ATOM     36  C   UNL A   1      39.617  28.230  28.784  1.00  0.00    -0.014 A 
BRANCH  36  37
ATOM     37  C   UNL A   1      40.935  27.678  29.081  1.00  0.00     0.031 A 
ATOM     38  C   UNL A   1      41.237  26.264  28.765  1.00  0.00     0.074 A 
ATOM     39  C   UNL A   1      41.920  28.492  29.523  1.00  0.00     0.049 A 
ATOM     40  N   UNL A   1      42.338  25.675  29.085  1.00  0.00    -0.248 NA
ATOM     41  C   UNL A   1      40.278  25.371  28.116  1.00  0.00     0.031 C 
ATOM     42  C   UNL A   1      43.360  28.244  29.488  1.00  0.00     0.029 A 
ATOM     43  N   UNL A   1      41.784  29.619  30.341  1.00  0.00    -0.354 N 
ATOM     44  C   UNL A   1      42.363  24.468  28.435  1.00  0.00     0.074 A 
ATOM     45  C   UNL A   1      41.017  24.267  27.964  1.00  0.00     0.031 C 
ATOM     46  C   UNL A   1      43.953  28.992  30.429  1.00  0.00     0.029 A 
ATOM     47  C   UNL A   1      42.902  29.620  31.207  1.00  0.00     0.049 A 
ATOM     48  H   UNL A   1      41.055  30.279  30.317  1.00  0.00     0.167 HD
ATOM     49  C   UNL A   1      43.560  23.846  28.255  1.00  0.00     0.037 A 
ATOM     50  C   UNL A   1      42.731  29.456  32.553  1.00  0.00     0.037 A 
ATOM     51  C   UNL A   1      44.563  24.349  29.195  1.00  0.00     0.049 A 
ATOM     52  C   UNL A   1      43.322  28.178  33.121  1.00  0.00     0.074 A 
ATOM     53  C   UNL A   1      45.711  25.116  29.122  1.00  0.00     0.029 A 
ATOM     54  N   UNL A   1      44.278  24.227  30.546  1.00  0.00    -0.354 N 
ATOM     55  N   UNL A   1      44.008  27.304  32.436  1.00  0.00    -0.248 NA
ATOM     56  C   UNL A   1      43.118  27.755  34.509  1.00  0.00     0.031 C 
ATOM     57  C   UNL A   1      46.044  25.536  30.452  1.00  0.00     0.029 A 
ATOM     58  C   UNL A   1      45.122  24.988  31.328  1.00  0.00     0.049 A 
ATOM     59  H   UNL A   1      43.557  23.661  30.907  1.00  0.00     0.167 HD
ATOM     60  C   UNL A   1      44.257  26.207  33.218  1.00  0.00     0.074 A 
ATOM     61  C   UNL A   1      43.708  26.548  34.518  1.00  0.00     0.031 C 
ATOM     62  C   UNL A   1      44.846  25.067  32.754  1.00  0.00     0.037 A 
BRANCH  49  63
ATOM     63  C   UNL A   1      43.839  22.854  27.147  1.00  0.00     0.058 A 
ATOM     64  C   UNL A   1      43.199  21.598  27.125  1.00  0.00     0.135 A 
ATOM     65  C   UNL A   1      44.836  23.023  26.155  1.00  0.00     0.135 A 
ATOM     66  F   UNL A   1      42.261  21.288  28.033  1.00  0.00    -0.206 F 
ATOM     67  C   UNL A   1      43.521  20.597  26.200  1.00  0.00     0.059 A 
ATOM     68  C   UNL A   1      45.133  22.063  25.189  1.00  0.00     0.059 A 
ATOM     69  F   UNL A   1      45.633  24.098  26.118  1.00  0.00    -0.206 F 
ATOM     70  C   UNL A   1      44.492  20.839  25.235  1.00  0.00     0.060 A 
BRANCH  70  71
ATOM     71  S   UNL A   1      44.950  19.543  24.068  1.00  0.00     0.124 S 
ATOM     72  O   UNL A   1      44.505  20.115  22.801  1.00  0.00    -0.237 OA
ATOM     73  O   UNL A   1      46.394  19.446  24.252  1.00  0.00    -0.237 OA
ATOM     74  O   UNL A   1      44.189  18.385  24.532  1.00  0.00    -0.744 OA
ENDBRANCH  70  71
ENDBRANCH  49  63
BRANCH  50  75
ATOM     75  C   UNL A   1      41.518  30.163  33.053  1.00  0.00     0.058 A 
ATOM     76  C   UNL A   1      41.604  31.563  33.198  1.00  0.00     0.135 A 
ATOM     77  C   UNL A   1      40.242  29.598  32.935  1.00  0.00     0.135 A 
ATOM     78  F   UNL A   1      42.804  32.152  33.333  1.00  0.00    -0.206 F 
ATOM     79  C   UNL A   1      40.494  32.381  33.040  1.00  0.00     0.059 A 
ATOM     80  C   UNL A   1      39.110  30.402  32.791  1.00  0.00     0.059 A 
ATOM     81  F   UNL A   1      40.098  28.271  32.800  1.00  0.00    -0.206 F 
ATOM     82  C   UNL A   1      39.265  31.789  32.762  1.00  0.00     0.060 A 
BRANCH  82  83
ATOM     83  S   UNL A   1      37.938  32.860  32.160  1.00  0.00     0.124 S 
ATOM     84  O   UNL A   1      36.923  31.891  31.760  1.00  0.00    -0.237 OA
ATOM     85  O   UNL A   1      37.630  33.639  33.359  1.00  0.00    -0.237 OA
ATOM     86  O   UNL A   1      38.572  33.597  31.074  1.00  0.00    -0.744 OA
ENDBRANCH  82  83
ENDBRANCH  50  75
BRANCH  62  87
ATOM     87  C   UNL A   1      45.153  23.902  33.653  1.00  0.00     0.058 A 
ATOM     88  C   UNL A   1      46.465  23.624  34.075  1.00  0.00     0.135 A 
ATOM     89  C   UNL A   1      44.164  22.969  34.026  1.00  0.00     0.135 A 
ATOM     90  F   UNL A   1      47.477  24.438  33.738  1.00  0.00    -0.206 F 
ATOM     91  C   UNL A   1      46.773  22.504  34.847  1.00  0.00     0.059 A 
ATOM     92  C   UNL A   1      44.457  21.820  34.757  1.00  0.00     0.059 A 
ATOM     93  F   UNL A   1      42.874  23.162  33.714  1.00  0.00    -0.206 F 
ATOM     94  C   UNL A   1      45.763  21.606  35.182  1.00  0.00     0.060 A 
BRANCH  94  95
ATOM     95  S   UNL A   1      46.161  20.136  36.150  1.00  0.00     0.124 S 
ATOM     96  O   UNL A   1      45.400  19.089  35.475  1.00  0.00    -0.237 OA
ATOM     97  O   UNL A   1      47.610  20.067  35.988  1.00  0.00    -0.237 OA
ATOM     98  O   UNL A   1      45.691  20.479  37.488  1.00  0.00    -0.744 OA
ENDBRANCH  94  95
ENDBRANCH  62  87
ENDBRANCH  36  37
ENDBRANCH  28  31
ENDBRANCH  26  27
ENDBRANCH  25  26
ENDBRANCH   1  25
TORSDOF 17
ENDMDL
MODEL 2
REMARK VINA RESULT:     -13.1      4.856     11.438
REMARK SMILES Cc1ccc(Nc2c(C)cccc2Cl)c(CC(=O)NCCCCNC(=O)c2ccc(-c3c4nc(c(-c5c(F)cc(S(=O)(=O)[O-])cc5F)c5ccc([nH]5)c(-c5c(F)cc(S(=O)(=O)[O-])cc5F)c5nc(c(-c6c(F)cc(S(=O)(=O)[O-])cc6F)c6ccc3[nH]6)C=C5)C=C4)cc2)c1
REMARK SMILES IDX 21 1 20 2 19 3 17 4 18 5 16 7 15 8 1 9 2 10 3 11 93 12 4 13
REMARK SMILES IDX 5 14 6 15 7 17 8 18 13 19 9 20 10 21 12 22 14 23 11 24 22 25
REMARK SMILES IDX 23 26 24 27 25 28 26 30 27 31 28 32 92 33 29 34 91 35 30 36
REMARK SMILES IDX 31 37 32 38 85 39 33 40 90 41 84 42 86 43 34 44 89 45 83 46
REMARK SMILES IDX 82 47 35 49 69 50 48 51 68 52 49 53 52 54 67 55 87 56 50 57
REMARK SMILES IDX 51 58 66 60 88 61 53 62 36 63 37 64 46 65 38 66 39 67 45 68
REMARK SMILES IDX 47 69 40 70 41 71 42 72 43 73 44 74 70 75 71 76 80 77 72 78
REMARK SMILES IDX 73 79 79 80 81 81 74 82 75 83 76 84 77 85 78 86 54 87 55 88
REMARK SMILES IDX 64 89 56 90 57 91 63 92 65 93 58 94 59 95 60 96 61 97 62 98
REMARK H PARENT 19 6 6 16 24 29 86 48 52 59
REMARK Flexibility Score: inf
ROOT
ATOM      1  C   UNL A   1      36.422  22.802  24.336  1.00  0.00     0.023 C 
ENDROOT
BRANCH   1   2
ATOM      2  C   UNL A   1      35.216  23.724  24.578  1.00  0.00     0.116 C 
BRANCH   2   3
ATOM      3  N   UNL A   1      34.785  24.441  23.387  1.00  0.00    -0.356 N 
ATOM      4  C   UNL A   1      33.718  25.268  23.202  1.00  0.00     0.224 C 
ATOM      5  O   UNL A   1      33.487  25.695  22.067  1.00  0.00    -0.275 OA
ATOM      6  H   UNL A   1      35.352  24.309  22.592  1.00  0.00     0.163 HD
BRANCH   4   7
ATOM      7  C   UNL A   1      32.803  25.641  24.354  1.00  0.00     0.137 C 
BRANCH   7   8
ATOM      8  C   UNL A   1      32.884  27.103  24.732  1.00  0.00    -0.015 A 
ATOM      9  C   UNL A   1      34.819  29.101  27.355  1.00  0.00     0.044 C 
ATOM     10  C   UNL A   1      33.884  28.758  26.234  1.00  0.00    -0.051 A 
ATOM     11  C   UNL A   1      32.995  29.712  25.743  1.00  0.00     0.005 A 
ATOM     12  C   UNL A   1      33.841  27.467  25.705  1.00  0.00     0.009 A 
ATOM     13  C   UNL A   1      32.081  29.377  24.739  1.00  0.00     0.026 A 
ATOM     14  C   UNL A   1      32.002  28.077  24.213  1.00  0.00     0.042 A 
BRANCH  14  15
ATOM     15  N   UNL A   1      31.098  27.767  23.170  1.00  0.00    -0.354 N 
ATOM     16  H   UNL A   1      31.496  27.336  22.380  1.00  0.00     0.167 HD
BRANCH  15  17
ATOM     17  C   UNL A   1      29.700  27.987  23.100  1.00  0.00     0.060 A 
ATOM     18  C   UNL A   1      29.149  29.127  22.473  1.00  0.00    -0.026 A 
ATOM     19  C   UNL A   1      28.820  27.087  23.745  1.00  0.00     0.064 A 
ATOM     20  C   UNL A   1      29.987  30.113  21.703  1.00  0.00     0.046 C 
ATOM     21  C   UNL A   1      27.766  29.366  22.556  1.00  0.00     0.005 A 
ATOM     22  C   UNL A   1      27.445  27.327  23.798  1.00  0.00     0.023 A 
ATOM     23  Cl  UNL A   1      29.416  25.660  24.526  1.00  0.00    -0.082 Cl
ATOM     24  C   UNL A   1      26.920  28.474  23.215  1.00  0.00     0.002 A 
ENDBRANCH  15  17
ENDBRANCH  14  15
ENDBRANCH   7   8
ENDBRANCH   4   7
ENDBRANCH   2   3
ENDBRANCH   1   2
BRANCH   1  25
ATOM     25  C   UNL A   1      37.247  22.447  25.573  1.00  0.00     0.023 C 
BRANCH  25  26
ATOM     26  C   UNL A   1      38.073  23.611  26.097  1.00  0.00     0.116 C 
BRANCH  26  27
ATOM     27  N   UNL A   1      39.224  23.216  26.894  1.00  0.00    -0.352 N 
ATOM     28  C   UNL A   1      40.104  24.044  27.583  1.00  0.00     0.251 C 
ATOM     29  H   UNL A   1      39.401  22.249  26.952  1.00  0.00     0.163 HD
ATOM     30  O   UNL A   1      41.146  23.650  28.036  1.00  0.00    -0.269 OA
BRANCH  28  31
ATOM     31  C   UNL A   1      39.633  25.429  27.839  1.00  0.00     0.039 A 
ATOM     32  C   UNL A   1      40.103  26.424  26.973  1.00  0.00     0.014 A 
ATOM     33  C   UNL A   1      39.014  25.755  29.043  1.00  0.00     0.014 A 
ATOM     34  C   UNL A   1      40.129  27.747  27.405  1.00  0.00     0.010 A 
ATOM     35  C   UNL A   1      39.112  27.056  29.500  1.00  0.00     0.010 A 
ATOM     36  C   UNL A   1      39.726  28.040  28.705  1.00  0.00    -0.014 A 
BRANCH  36  37
ATOM     37  C   UNL A   1      39.993  29.311  29.369  1.00  0.00     0.031 A 
ATOM     38  C   UNL A   1      39.031  30.429  29.249  1.00  0.00     0.074 A 
ATOM     39  C   UNL A   1      41.053  29.425  30.200  1.00  0.00     0.049 A 
ATOM     40  N   UNL A   1      39.239  31.611  29.720  1.00  0.00    -0.248 NA
ATOM     41  C   UNL A   1      37.771  30.319  28.515  1.00  0.00     0.031 C 
ATOM     42  C   UNL A   1      41.262  30.428  31.242  1.00  0.00     0.029 A 
ATOM     43  N   UNL A   1      42.292  28.785  30.085  1.00  0.00    -0.354 N 
ATOM     44  C   UNL A   1      38.059  32.302  29.634  1.00  0.00     0.074 A 
ATOM     45  C   UNL A   1      37.225  31.515  28.762  1.00  0.00     0.031 C 
ATOM     46  C   UNL A   1      42.576  30.533  31.489  1.00  0.00     0.029 A 
ATOM     47  C   UNL A   1      43.266  29.723  30.503  1.00  0.00     0.049 A 
ATOM     48  H   UNL A   1      42.454  27.865  29.774  1.00  0.00     0.167 HD
ATOM     49  C   UNL A   1      37.880  33.395  30.426  1.00  0.00     0.037 A 
ATOM     50  C   UNL A   1      44.187  30.201  29.614  1.00  0.00     0.037 A 
ATOM     51  C   UNL A   1      39.162  33.917  30.899  1.00  0.00     0.049 A 
ATOM     52  C   UNL A   1      44.072  31.684  29.310  1.00  0.00     0.074 A 
ATOM     53  C   UNL A   1      39.834  33.986  32.106  1.00  0.00     0.029 A 
ATOM     54  N   UNL A   1      40.082  34.301  29.936  1.00  0.00    -0.354 N 
ATOM     55  N   UNL A   1      43.222  32.498  29.876  1.00  0.00    -0.248 NA
ATOM     56  C   UNL A   1      44.872  32.350  28.280  1.00  0.00     0.031 C 
ATOM     57  C   UNL A   1      41.201  34.316  31.829  1.00  0.00     0.029 A 
ATOM     58  C   UNL A   1      41.343  34.487  30.463  1.00  0.00     0.049 A 
ATOM     59  H   UNL A   1      39.861  34.427  28.984  1.00  0.00     0.167 HD
ATOM     60  C   UNL A   1      43.287  33.722  29.262  1.00  0.00     0.074 A 
ATOM     61  C   UNL A   1      44.357  33.591  28.290  1.00  0.00     0.031 C 
ATOM     62  C   UNL A   1      42.437  34.752  29.541  1.00  0.00     0.037 A 
BRANCH  49  63
ATOM     63  C   UNL A   1      36.526  33.918  30.852  1.00  0.00     0.058 A 
ATOM     64  C   UNL A   1      35.624  34.442  29.902  1.00  0.00     0.135 A 
ATOM     65  C   UNL A   1      36.113  34.064  32.198  1.00  0.00     0.135 A 
ATOM     66  F   UNL A   1      35.907  34.406  28.591  1.00  0.00    -0.206 F 
ATOM     67  C   UNL A   1      34.418  35.058  30.259  1.00  0.00     0.059 A 
ATOM     68  C   UNL A   1      34.892  34.622  32.574  1.00  0.00     0.059 A 
ATOM     69  F   UNL A   1      36.907  33.747  33.228  1.00  0.00    -0.206 F 
ATOM     70  C   UNL A   1      34.061  35.145  31.600  1.00  0.00     0.060 A 
BRANCH  70  71
ATOM     71  S   UNL A   1      32.535  35.977  32.078  1.00  0.00     0.124 S 
ATOM     72  O   UNL A   1      32.058  36.482  30.794  1.00  0.00    -0.237 OA
ATOM     73  O   UNL A   1      31.754  34.896  32.668  1.00  0.00    -0.237 OA
ATOM     74  O   UNL A   1      32.987  36.999  33.020  1.00  0.00    -0.744 OA
ENDBRANCH  70  71
ENDBRANCH  49  63
BRANCH  50  75
ATOM     75  C   UNL A   1      44.660  29.145  28.676  1.00  0.00     0.058 A 
ATOM     76  C   UNL A   1      44.126  29.158  27.371  1.00  0.00     0.135 A 
ATOM     77  C   UNL A   1      45.880  28.484  28.873  1.00  0.00     0.135 A 
ATOM     78  F   UNL A   1      42.951  29.762  27.132  1.00  0.00    -0.206 F 
ATOM     79  C   UNL A   1      44.857  28.707  26.280  1.00  0.00     0.059 A 
ATOM     80  C   UNL A   1      46.623  28.008  27.793  1.00  0.00     0.059 A 
ATOM     81  F   UNL A   1      46.433  28.434  30.094  1.00  0.00    -0.206 F 
ATOM     82  C   UNL A   1      46.136  28.202  26.499  1.00  0.00     0.060 A 
BRANCH  82  83
ATOM     83  S   UNL A   1      47.215  28.007  25.061  1.00  0.00     0.124 S 
ATOM     84  O   UNL A   1      46.536  28.821  24.059  1.00  0.00    -0.237 OA
ATOM     85  O   UNL A   1      48.474  28.549  25.569  1.00  0.00    -0.237 OA
ATOM     86  O   UNL A   1      47.197  26.568  24.824  1.00  0.00    -0.744 OA
ENDBRANCH  82  83
ENDBRANCH  50  75
BRANCH  62  87
ATOM     87  C   UNL A   1      42.571  36.099  28.887  1.00  0.00     0.058 A 
ATOM     88  C   UNL A   1      41.967  36.379  27.649  1.00  0.00     0.135 A 
ATOM     89  C   UNL A   1      43.395  37.108  29.425  1.00  0.00     0.135 A 
ATOM     90  F   UNL A   1      41.194  35.464  27.044  1.00  0.00    -0.206 F 
ATOM     91  C   UNL A   1      42.146  37.599  26.997  1.00  0.00     0.059 A 
ATOM     92  C   UNL A   1      43.624  38.315  28.769  1.00  0.00     0.059 A 
ATOM     93  F   UNL A   1      43.981  36.961  30.623  1.00  0.00    -0.206 F 
ATOM     94  C   UNL A   1      42.978  38.561  27.564  1.00  0.00     0.060 A 
BRANCH  94  95
ATOM     95  S   UNL A   1      43.242  40.128  26.708  1.00  0.00     0.124 S 
ATOM     96  O   UNL A   1      41.987  40.317  25.985  1.00  0.00    -0.237 OA
ATOM     97  O   UNL A   1      43.467  41.035  27.829  1.00  0.00    -0.237 OA
ATOM     98  O   UNL A   1      44.405  39.859  25.869  1.00  0.00    -0.744 OA
ENDBRANCH  94  95
ENDBRANCH  62  87
ENDBRANCH  36  37
ENDBRANCH  28  31
ENDBRANCH  26  27
ENDBRANCH  25  26
ENDBRANCH   1  25
TORSDOF 17
ENDMDL
MODEL 3
REMARK VINA RESULT:     -13.0      1.867      2.324
REMARK SMILES Cc1ccc(Nc2c(C)cccc2Cl)c(CC(=O)NCCCCNC(=O)c2ccc(-c3c4nc(c(-c5c(F)cc(S(=O)(=O)[O-])cc5F)c5ccc([nH]5)c(-c5c(F)cc(S(=O)(=O)[O-])cc5F)c5nc(c(-c6c(F)cc(S(=O)(=O)[O-])cc6F)c6ccc3[nH]6)C=C5)C=C4)cc2)c1
REMARK SMILES IDX 21 1 20 2 19 3 17 4 18 5 16 7 15 8 1 9 2 10 3 11 93 12 4 13
REMARK SMILES IDX 5 14 6 15 7 17 8 18 13 19 9 20 10 21 12 22 14 23 11 24 22 25
REMARK SMILES IDX 23 26 24 27 25 28 26 30 27 31 28 32 92 33 29 34 91 35 30 36
REMARK SMILES IDX 31 37 32 38 85 39 33 40 90 41 84 42 86 43 34 44 89 45 83 46
REMARK SMILES IDX 82 47 35 49 69 50 48 51 68 52 49 53 52 54 67 55 87 56 50 57
REMARK SMILES IDX 51 58 66 60 88 61 53 62 36 63 37 64 46 65 38 66 39 67 45 68
REMARK SMILES IDX 47 69 40 70 41 71 42 72 43 73 44 74 70 75 71 76 80 77 72 78
REMARK SMILES IDX 73 79 79 80 81 81 74 82 75 83 76 84 77 85 78 86 54 87 55 88
REMARK SMILES IDX 64 89 56 90 57 91 63 92 65 93 58 94 59 95 60 96 61 97 62 98
REMARK H PARENT 19 6 6 16 24 29 86 48 52 59
REMARK Flexibility Score: inf
ROOT
ATOM      1  C   UNL A   1      31.752  28.663  27.300  1.00  0.00     0.023 C 
ENDROOT
BRANCH   1   2
ATOM      2  C   UNL A   1      31.484  27.636  26.187  1.00  0.00     0.116 C 
BRANCH   2   3
ATOM      3  N   UNL A   1      31.180  26.304  26.687  1.00  0.00    -0.356 N 
ATOM      4  C   UNL A   1      31.930  25.167  26.660  1.00  0.00     0.224 C 
ATOM      5  O   UNL A   1      31.426  24.113  27.061  1.00  0.00    -0.275 OA
ATOM      6  H   UNL A   1      30.295  26.210  27.110  1.00  0.00     0.163 HD
BRANCH   4   7
ATOM      7  C   UNL A   1      33.349  25.173  26.123  1.00  0.00     0.137 C 
BRANCH   7   8
ATOM      8  C   UNL A   1      33.455  24.651  24.708  1.00  0.00    -0.015 A 
ATOM      9  C   UNL A   1      32.277  25.887  21.288  1.00  0.00     0.044 C 
ATOM     10  C   UNL A   1      32.893  25.035  22.356  1.00  0.00    -0.051 A 
ATOM     11  C   UNL A   1      33.329  23.744  22.061  1.00  0.00     0.005 A 
ATOM     12  C   UNL A   1      32.985  25.488  23.673  1.00  0.00     0.009 A 
ATOM     13  C   UNL A   1      33.849  22.926  23.069  1.00  0.00     0.026 A 
ATOM     14  C   UNL A   1      33.924  23.353  24.405  1.00  0.00     0.042 A 
BRANCH  14  15
ATOM     15  N   UNL A   1      34.489  22.525  25.404  1.00  0.00    -0.354 N 
ATOM     16  H   UNL A   1      33.995  22.494  26.255  1.00  0.00     0.167 HD
BRANCH  15  17
ATOM     17  C   UNL A   1      35.663  21.734  25.354  1.00  0.00     0.060 A 
ATOM     18  C   UNL A   1      36.947  22.282  25.569  1.00  0.00    -0.026 A 
ATOM     19  C   UNL A   1      35.568  20.368  25.000  1.00  0.00     0.064 A 
ATOM     20  C   UNL A   1      37.158  23.705  26.013  1.00  0.00     0.046 C 
ATOM     21  C   UNL A   1      38.087  21.482  25.369  1.00  0.00     0.005 A 
ATOM     22  C   UNL A   1      36.710  19.581  24.829  1.00  0.00     0.023 A 
ATOM     23  Cl  UNL A   1      34.030  19.619  24.733  1.00  0.00    -0.082 Cl
ATOM     24  C   UNL A   1      37.970  20.143  25.000  1.00  0.00     0.002 A 
ENDBRANCH  15  17
ENDBRANCH  14  15
ENDBRANCH   7   8
ENDBRANCH   4   7
ENDBRANCH   2   3
ENDBRANCH   1   2
BRANCH   1  25
ATOM     25  C   UNL A   1      33.220  29.021  27.536  1.00  0.00     0.023 C 
BRANCH  25  26
ATOM     26  C   UNL A   1      33.660  30.269  26.787  1.00  0.00     0.116 C 
BRANCH  26  27
ATOM     27  N   UNL A   1      33.964  31.404  27.644  1.00  0.00    -0.352 N 
ATOM     28  C   UNL A   1      34.875  31.455  28.693  1.00  0.00     0.251 C 
ATOM     29  H   UNL A   1      33.466  32.233  27.460  1.00  0.00     0.163 HD
ATOM     30  O   UNL A   1      34.908  32.363  29.482  1.00  0.00    -0.269 OA
BRANCH  28  31
ATOM     31  C   UNL A   1      35.897  30.378  28.724  1.00  0.00     0.039 A 
ATOM     32  C   UNL A   1      36.081  29.718  29.945  1.00  0.00     0.014 A 
ATOM     33  C   UNL A   1      36.820  30.249  27.690  1.00  0.00     0.014 A 
ATOM     34  C   UNL A   1      37.293  29.083  30.202  1.00  0.00     0.010 A 
ATOM     35  C   UNL A   1      38.050  29.685  27.974  1.00  0.00     0.010 A 
ATOM     36  C   UNL A   1      38.307  29.157  29.251  1.00  0.00    -0.014 A 
BRANCH  36  37
ATOM     37  C   UNL A   1      39.698  28.809  29.522  1.00  0.00     0.031 A 
ATOM     38  C   UNL A   1      40.207  27.463  29.180  1.00  0.00     0.074 A 
ATOM     39  C   UNL A   1      40.554  29.758  29.965  1.00  0.00     0.049 A 
ATOM     40  N   UNL A   1      41.390  27.044  29.476  1.00  0.00    -0.248 NA
ATOM     41  C   UNL A   1      39.385  26.442  28.529  1.00  0.00     0.031 C 
ATOM     42  C   UNL A   1      42.014  29.733  29.907  1.00  0.00     0.029 A 
ATOM     43  N   UNL A   1      40.260  30.840  30.801  1.00  0.00    -0.354 N 
ATOM     44  C   UNL A   1      41.589  25.865  28.807  1.00  0.00     0.074 A 
ATOM     45  C   UNL A   1      40.282  25.466  28.350  1.00  0.00     0.031 C 
ATOM     46  C   UNL A   1      42.500  30.551  30.852  1.00  0.00     0.029 A 
ATOM     47  C   UNL A   1      41.378  31.000  31.653  1.00  0.00     0.049 A 
ATOM     48  H   UNL A   1      39.438  31.381  30.798  1.00  0.00     0.167 HD
ATOM     49  C   UNL A   1      42.864  25.435  28.601  1.00  0.00     0.037 A 
ATOM     50  C   UNL A   1      41.254  30.792  32.999  1.00  0.00     0.037 A 
ATOM     51  C   UNL A   1      43.792  26.073  29.536  1.00  0.00     0.049 A 
ATOM     52  C   UNL A   1      42.042  29.613  33.539  1.00  0.00     0.074 A 
ATOM     53  C   UNL A   1      44.808  27.006  29.461  1.00  0.00     0.029 A 
ATOM     54  N   UNL A   1      43.550  25.889  30.888  1.00  0.00    -0.354 N 
ATOM     55  N   UNL A   1      42.843  28.863  32.831  1.00  0.00    -0.248 NA
ATOM     56  C   UNL A   1      41.925  29.144  34.922  1.00  0.00     0.031 C 
ATOM     57  C   UNL A   1      45.094  27.454  30.793  1.00  0.00     0.029 A 
ATOM     58  C   UNL A   1      44.280  26.760  31.672  1.00  0.00     0.049 A 
ATOM     59  H   UNL A   1      42.929  25.215  31.250  1.00  0.00     0.167 HD
ATOM     60  C   UNL A   1      43.268  27.806  33.592  1.00  0.00     0.074 A 
ATOM     61  C   UNL A   1      42.693  28.041  34.905  1.00  0.00     0.031 C 
ATOM     62  C   UNL A   1      44.017  26.776  33.102  1.00  0.00     0.037 A 
BRANCH  49  63
ATOM     63  C   UNL A   1      43.274  24.513  27.474  1.00  0.00     0.058 A 
ATOM     64  C   UNL A   1      43.252  23.113  27.643  1.00  0.00     0.135 A 
ATOM     65  C   UNL A   1      43.836  24.948  26.250  1.00  0.00     0.135 A 
ATOM     66  F   UNL A   1      42.782  22.564  28.773  1.00  0.00    -0.206 F 
ATOM     67  C   UNL A   1      43.746  22.223  26.681  1.00  0.00     0.059 A 
ATOM     68  C   UNL A   1      44.282  24.080  25.254  1.00  0.00     0.059 A 
ATOM     69  F   UNL A   1      44.060  26.242  25.985  1.00  0.00    -0.206 F 
ATOM     70  C   UNL A   1      44.262  22.718  25.488  1.00  0.00     0.060 A 
BRANCH  70  71
ATOM     71  S   UNL A   1      44.945  21.588  24.261  1.00  0.00     0.124 S 
ATOM     72  O   UNL A   1      44.527  22.218  23.012  1.00  0.00    -0.237 OA
ATOM     73  O   UNL A   1      46.374  21.631  24.549  1.00  0.00    -0.237 OA
ATOM     74  O   UNL A   1      44.291  20.317  24.568  1.00  0.00    -0.744 OA
ENDBRANCH  70  71
ENDBRANCH  49  63
BRANCH  50  75
ATOM     75  C   UNL A   1      39.956  31.299  33.526  1.00  0.00     0.058 A 
ATOM     76  C   UNL A   1      39.875  32.675  33.822  1.00  0.00     0.135 A 
ATOM     77  C   UNL A   1      38.757  30.611  33.299  1.00  0.00     0.135 A 
ATOM     78  F   UNL A   1      40.995  33.377  34.065  1.00  0.00    -0.206 F 
ATOM     79  C   UNL A   1      38.682  33.376  33.711  1.00  0.00     0.059 A 
ATOM     80  C   UNL A   1      37.543  31.293  33.200  1.00  0.00     0.059 A 
ATOM     81  F   UNL A   1      38.771  29.299  33.019  1.00  0.00    -0.206 F 
ATOM     82  C   UNL A   1      37.536  32.683  33.326  1.00  0.00     0.060 A 
BRANCH  82  83
ATOM     83  S   UNL A   1      36.110  33.658  32.793  1.00  0.00     0.124 S 
ATOM     84  O   UNL A   1      36.533  34.121  31.475  1.00  0.00    -0.237 OA
ATOM     85  O   UNL A   1      35.052  32.649  32.799  1.00  0.00    -0.237 OA
ATOM     86  O   UNL A   1      36.007  34.687  33.821  1.00  0.00    -0.744 OA
ENDBRANCH  82  83
ENDBRANCH  50  75
BRANCH  62  87
ATOM     87  C   UNL A   1      44.511  25.659  33.978  1.00  0.00     0.058 A 
ATOM     88  C   UNL A   1      45.872  25.531  34.309  1.00  0.00     0.135 A 
ATOM     89  C   UNL A   1      43.660  24.626  34.419  1.00  0.00     0.135 A 
ATOM     90  F   UNL A   1      46.762  26.448  33.902  1.00  0.00    -0.206 F 
ATOM     91  C   UNL A   1      46.354  24.458  35.058  1.00  0.00     0.059 A 
ATOM     92  C   UNL A   1      44.127  23.523  35.129  1.00  0.00     0.059 A 
ATOM     93  F   UNL A   1      42.338  24.674  34.197  1.00  0.00    -0.206 F 
ATOM     94  C   UNL A   1      45.474  23.457  35.463  1.00  0.00     0.060 A 
BRANCH  94  95
ATOM     95  S   UNL A   1      46.098  22.048  36.402  1.00  0.00     0.124 S 
ATOM     96  O   UNL A   1      45.300  20.938  35.888  1.00  0.00    -0.237 OA
ATOM     97  O   UNL A   1      47.505  22.044  36.016  1.00  0.00    -0.237 OA
ATOM     98  O   UNL A   1      45.824  22.420  37.786  1.00  0.00    -0.744 OA
ENDBRANCH  94  95
ENDBRANCH  62  87
ENDBRANCH  36  37
ENDBRANCH  28  31
ENDBRANCH  26  27
ENDBRANCH  25  26
ENDBRANCH   1  25
TORSDOF 17
ENDMDL
