MODEL 1
REMARK VINA RESULT:     -12.4      0.000      0.000
REMARK SMILES CC(=O)N[C@H]1[C@@H](O[C@H](C)C(=O)NCCCCNC(=O)c2ccc(-c3c4nc(c(-c5c(F)cc(S(=O)(=O)[O-])cc5F)c5ccc([nH]5)c(-c5c(F)cc(S(=O)(=O)[O-])cc5F)c5nc(c(-c6c(F)cc(S(=O)(=O)[O-])cc6F)c6ccc3[nH]6)C=C5)C=C4)cc2)[C@H]2OC(C)(C)OC[C@@H]2O[C@H]1Sc1ccc(Cl)cc1
REMARK SMILES IDX 14 1 13 2 12 3 10 4 11 5 8 7 9 8 7 9 6 10 5 11 95 12 86 13
REMARK SMILES IDX 94 14 87 15 93 16 88 17 92 18 89 19 90 20 91 21 4 22 1 23
REMARK SMILES IDX 2 24 3 25 96 27 97 28 98 29 103 30 99 31 102 32 100 33
REMARK SMILES IDX 101 34 15 35 16 36 17 37 18 38 19 40 20 41 21 42 85 43 22 44
REMARK SMILES IDX 84 45 23 46 24 47 25 48 78 49 26 50 83 51 77 52 79 53 27 54
REMARK SMILES IDX 82 55 76 56 75 57 28 59 62 60 41 61 61 62 42 63 45 64 60 65
REMARK SMILES IDX 80 66 43 67 44 68 59 70 81 71 46 72 29 73 30 74 39 75 31 76
REMARK SMILES IDX 32 77 38 78 40 79 33 80 34 81 35 82 36 83 37 84 63 85 64 86
REMARK SMILES IDX 73 87 65 88 66 89 72 90 74 91 67 92 68 93 69 94 70 95 71 96
REMARK SMILES IDX 47 97 48 98 57 99 49 100 50 101 56 102 58 103 51 104 52 105
REMARK SMILES IDX 53 106 54 107 55 108
REMARK H PARENT 12 6 4 26 17 39 79 58 45 69
REMARK Flexibility Score: inf
ROOT
ATOM      1  C   UNL A   1      33.645  28.666  24.756  1.00  0.00     0.023 C 
ENDROOT
BRANCH   1   2
ATOM      2  C   UNL A   1      32.777  27.671  23.982  1.00  0.00     0.116 C 
BRANCH   2   3
ATOM      3  N   UNL A   1      33.249  27.307  22.669  1.00  0.00    -0.354 N 
ATOM      4  C   UNL A   1      33.438  26.052  22.160  1.00  0.00     0.248 C 
ATOM      5  O   UNL A   1      33.587  25.955  20.935  1.00  0.00    -0.272 OA
ATOM      6  H   UNL A   1      33.463  28.054  22.065  1.00  0.00     0.163 HD
BRANCH   4   7
ATOM      7  C   UNL A   1      33.491  24.731  23.023  1.00  0.00     0.204 C 
ATOM      8  C   UNL A   1      33.200  23.583  22.049  1.00  0.00     0.049 C 
BRANCH   7   9
ATOM      9  O   UNL A   1      34.558  24.330  23.890  1.00  0.00    -0.360 OA
BRANCH   9  10
ATOM     10  C   UNL A   1      34.451  24.624  25.302  1.00  0.00     0.177 C 
ATOM     11  C   UNL A   1      35.251  23.563  26.077  1.00  0.00     0.153 C 
ATOM     12  C   UNL A   1      34.495  22.185  25.964  1.00  0.00     0.206 C 
ATOM     13  C   UNL A   1      32.978  24.602  25.957  1.00  0.00     0.184 C 
ATOM     14  O   UNL A   1      33.338  22.310  26.825  1.00  0.00    -0.356 OA
ATOM     15  O   UNL A   1      32.012  25.398  25.262  1.00  0.00    -0.342 OA
ATOM     16  C   UNL A   1      32.416  23.184  26.212  1.00  0.00     0.177 C 
ATOM     17  C   UNL A   1      30.671  25.327  25.798  1.00  0.00     0.163 C 
ATOM     18  C   UNL A   1      31.103  23.277  26.951  1.00  0.00     0.198 C 
ATOM     19  C   UNL A   1      29.744  25.803  24.674  1.00  0.00     0.075 C 
ATOM     20  C   UNL A   1      30.477  26.227  27.019  1.00  0.00     0.075 C 
ATOM     21  O   UNL A   1      30.213  24.008  26.115  1.00  0.00    -0.348 OA
BRANCH  11  22
ATOM     22  N   UNL A   1      36.698  23.679  25.864  1.00  0.00    -0.347 N 
ATOM     23  C   UNL A   1      37.314  21.328  25.415  1.00  0.00     0.114 C 
ATOM     24  C   UNL A   1      37.673  22.741  25.736  1.00  0.00     0.217 C 
ATOM     25  O   UNL A   1      38.843  23.086  25.885  1.00  0.00    -0.275 OA
ATOM     26  H   UNL A   1      37.022  24.606  25.802  1.00  0.00     0.163 HD
ENDBRANCH  11  22
BRANCH  12  27
ATOM     27  S   UNL A   1      34.060  21.092  24.442  1.00  0.00    -0.092 SA
BRANCH  27  28
ATOM     28  C   UNL A   1      33.912  19.293  24.625  1.00  0.00     0.010 A 
ATOM     29  C   UNL A   1      34.825  18.259  24.403  1.00  0.00     0.016 A 
ATOM     30  C   UNL A   1      32.638  18.864  25.050  1.00  0.00     0.016 A 
ATOM     31  C   UNL A   1      34.537  16.903  24.637  1.00  0.00     0.021 A 
ATOM     32  C   UNL A   1      32.333  17.516  25.312  1.00  0.00     0.021 A 
ATOM     33  C   UNL A   1      33.293  16.536  25.109  1.00  0.00     0.041 A 
ATOM     34  Cl  UNL A   1      32.954  14.886  25.443  1.00  0.00    -0.084 Cl
ENDBRANCH  27  28
ENDBRANCH  12  27
ENDBRANCH   9  10
ENDBRANCH   7   9
ENDBRANCH   4   7
ENDBRANCH   2   3
ENDBRANCH   1   2
BRANCH   1  35
ATOM     35  C   UNL A   1      34.169  28.171  26.113  1.00  0.00     0.023 C 
BRANCH  35  36
ATOM     36  C   UNL A   1      33.351  28.536  27.359  1.00  0.00     0.116 C 
BRANCH  36  37
ATOM     37  N   UNL A   1      33.397  29.949  27.706  1.00  0.00    -0.352 N 
ATOM     38  C   UNL A   1      34.442  30.720  28.160  1.00  0.00     0.251 C 
ATOM     39  H   UNL A   1      32.544  30.430  27.600  1.00  0.00     0.163 HD
ATOM     40  O   UNL A   1      34.250  31.901  28.447  1.00  0.00    -0.269 OA
BRANCH  38  41
ATOM     41  C   UNL A   1      35.778  30.120  28.352  1.00  0.00     0.039 A 
ATOM     42  C   UNL A   1      36.693  30.162  27.297  1.00  0.00     0.014 A 
ATOM     43  C   UNL A   1      36.143  29.555  29.576  1.00  0.00     0.014 A 
ATOM     44  C   UNL A   1      38.004  29.725  27.499  1.00  0.00     0.010 A 
ATOM     45  C   UNL A   1      37.469  29.186  29.796  1.00  0.00     0.010 A 
ATOM     46  C   UNL A   1      38.418  29.281  28.766  1.00  0.00    -0.014 A 
BRANCH  46  47
ATOM     47  C   UNL A   1      39.843  28.949  29.036  1.00  0.00     0.031 A 
ATOM     48  C   UNL A   1      40.774  29.985  29.606  1.00  0.00     0.074 A 
ATOM     49  C   UNL A   1      40.316  27.730  28.703  1.00  0.00     0.049 A 
ATOM     50  N   UNL A   1      42.056  29.897  29.854  1.00  0.00    -0.248 NA
ATOM     51  C   UNL A   1      40.193  31.301  29.916  1.00  0.00     0.031 C 
ATOM     52  C   UNL A   1      39.530  26.656  28.090  1.00  0.00     0.029 A 
ATOM     53  N   UNL A   1      41.573  27.191  28.822  1.00  0.00    -0.354 N 
ATOM     54  C   UNL A   1      42.438  31.144  30.333  1.00  0.00     0.074 A 
ATOM     55  C   UNL A   1      41.263  31.988  30.291  1.00  0.00     0.031 C 
ATOM     56  C   UNL A   1      40.316  25.582  27.910  1.00  0.00     0.029 A 
ATOM     57  C   UNL A   1      41.668  25.899  28.358  1.00  0.00     0.049 A 
ATOM     58  H   UNL A   1      42.336  27.683  29.203  1.00  0.00     0.167 HD
ATOM     59  C   UNL A   1      43.650  31.544  30.788  1.00  0.00     0.037 A 
ATOM     60  C   UNL A   1      42.724  25.064  28.293  1.00  0.00     0.037 A 
ATOM     61  C   UNL A   1      44.811  30.693  30.848  1.00  0.00     0.049 A 
ATOM     62  C   UNL A   1      44.059  25.528  28.813  1.00  0.00     0.074 A 
ATOM     63  C   UNL A   1      46.069  30.988  31.345  1.00  0.00     0.029 A 
ATOM     64  N   UNL A   1      44.859  29.381  30.396  1.00  0.00    -0.354 N 
ATOM     65  N   UNL A   1      44.385  26.691  29.325  1.00  0.00    -0.248 NA
ATOM     66  C   UNL A   1      45.166  24.563  28.759  1.00  0.00     0.031 C 
ATOM     67  C   UNL A   1      46.889  29.871  31.152  1.00  0.00     0.029 A 
ATOM     68  C   UNL A   1      46.128  28.860  30.587  1.00  0.00     0.049 A 
ATOM     69  H   UNL A   1      44.103  28.893  29.999  1.00  0.00     0.167 HD
ATOM     70  C   UNL A   1      45.725  26.586  29.683  1.00  0.00     0.074 A 
ATOM     71  C   UNL A   1      46.145  25.244  29.339  1.00  0.00     0.031 C 
ATOM     72  C   UNL A   1      46.533  27.518  30.249  1.00  0.00     0.037 A 
BRANCH  59  73
ATOM     73  C   UNL A   1      43.782  32.965  31.264  1.00  0.00     0.058 A 
ATOM     74  C   UNL A   1      44.224  33.991  30.411  1.00  0.00     0.135 A 
ATOM     75  C   UNL A   1      43.431  33.316  32.578  1.00  0.00     0.135 A 
ATOM     76  F   UNL A   1      44.588  33.710  29.149  1.00  0.00    -0.206 F 
ATOM     77  C   UNL A   1      44.345  35.304  30.852  1.00  0.00     0.059 A 
ATOM     78  C   UNL A   1      43.514  34.629  33.032  1.00  0.00     0.059 A 
ATOM     79  F   UNL A   1      43.002  32.378  33.435  1.00  0.00    -0.206 F 
ATOM     80  C   UNL A   1      43.988  35.613  32.165  1.00  0.00     0.060 A 
BRANCH  80  81
ATOM     81  S   UNL A   1      44.147  37.323  32.722  1.00  0.00     0.124 S 
ATOM     82  O   UNL A   1      45.524  37.343  33.206  1.00  0.00    -0.237 OA
ATOM     83  O   UNL A   1      43.897  38.075  31.495  1.00  0.00    -0.237 OA
ATOM     84  O   UNL A   1      43.119  37.445  33.749  1.00  0.00    -0.744 OA
ENDBRANCH  80  81
ENDBRANCH  59  73
BRANCH  60  85
ATOM     85  C   UNL A   1      42.557  23.692  27.741  1.00  0.00     0.058 A 
ATOM     86  C   UNL A   1      42.558  23.466  26.356  1.00  0.00     0.135 A 
ATOM     87  C   UNL A   1      42.404  22.581  28.584  1.00  0.00     0.135 A 
ATOM     88  F   UNL A   1      42.694  24.497  25.509  1.00  0.00    -0.206 F 
ATOM     89  C   UNL A   1      42.393  22.191  25.825  1.00  0.00     0.059 A 
ATOM     90  C   UNL A   1      42.265  21.292  28.077  1.00  0.00     0.059 A 
ATOM     91  F   UNL A   1      42.414  22.740  29.917  1.00  0.00    -0.206 F 
ATOM     92  C   UNL A   1      42.250  21.108  26.695  1.00  0.00     0.060 A 
BRANCH  92  93
ATOM     93  S   UNL A   1      42.084  19.452  25.995  1.00  0.00     0.124 S 
ATOM     94  O   UNL A   1      42.574  18.621  27.089  1.00  0.00    -0.237 OA
ATOM     95  O   UNL A   1      40.652  19.375  25.726  1.00  0.00    -0.237 OA
ATOM     96  O   UNL A   1      42.935  19.501  24.810  1.00  0.00    -0.744 OA
ENDBRANCH  92  93
ENDBRANCH  60  85
BRANCH  72  97
ATOM     97  C   UNL A   1      47.942  27.105  30.578  1.00  0.00     0.058 A 
ATOM     98  C   UNL A   1      49.010  27.344  29.700  1.00  0.00     0.135 A 
ATOM     99  C   UNL A   1      48.232  26.499  31.811  1.00  0.00     0.135 A 
ATOM    100  F   UNL A   1      48.788  27.916  28.506  1.00  0.00    -0.206 F 
ATOM    101  C   UNL A   1      50.311  26.968  30.018  1.00  0.00     0.059 A 
ATOM    102  C   UNL A   1      49.529  26.143  32.164  1.00  0.00     0.059 A 
ATOM    103  F   UNL A   1      47.249  26.258  32.695  1.00  0.00    -0.206 F 
ATOM    104  C   UNL A   1      50.561  26.368  31.254  1.00  0.00     0.060 A 
BRANCH 104 105
ATOM    105  S   UNL A   1      52.257  25.906  31.667  1.00  0.00     0.124 S 
ATOM    106  O   UNL A   1      52.935  26.109  30.392  1.00  0.00    -0.237 OA
ATOM    107  O   UNL A   1      52.591  26.857  32.723  1.00  0.00    -0.237 OA
ATOM    108  O   UNL A   1      52.136  24.516  32.100  1.00  0.00    -0.744 OA
ENDBRANCH 104 105
ENDBRANCH  72  97
ENDBRANCH  46  47
ENDBRANCH  38  41
ENDBRANCH  36  37
ENDBRANCH  35  36
ENDBRANCH   1  35
TORSDOF 19
ENDMDL
MODEL 2
REMARK VINA RESULT:     -11.9      3.634      4.983
REMARK SMILES CC(=O)N[C@H]1[C@@H](O[C@H](C)C(=O)NCCCCNC(=O)c2ccc(-c3c4nc(c(-c5c(F)cc(S(=O)(=O)[O-])cc5F)c5ccc([nH]5)c(-c5c(F)cc(S(=O)(=O)[O-])cc5F)c5nc(c(-c6c(F)cc(S(=O)(=O)[O-])cc6F)c6ccc3[nH]6)C=C5)C=C4)cc2)[C@H]2OC(C)(C)OC[C@@H]2O[C@H]1Sc1ccc(Cl)cc1
REMARK SMILES IDX 14 1 13 2 12 3 10 4 11 5 8 7 9 8 7 9 6 10 5 11 95 12 86 13
REMARK SMILES IDX 94 14 87 15 93 16 88 17 92 18 89 19 90 20 91 21 4 22 1 23
REMARK SMILES IDX 2 24 3 25 96 27 97 28 98 29 103 30 99 31 102 32 100 33
REMARK SMILES IDX 101 34 15 35 16 36 17 37 18 38 19 40 20 41 21 42 85 43 22 44
REMARK SMILES IDX 84 45 23 46 24 47 25 48 78 49 26 50 83 51 77 52 79 53 27 54
REMARK SMILES IDX 82 55 76 56 75 57 28 59 62 60 41 61 61 62 42 63 45 64 60 65
REMARK SMILES IDX 80 66 43 67 44 68 59 70 81 71 46 72 29 73 30 74 39 75 31 76
REMARK SMILES IDX 32 77 38 78 40 79 33 80 34 81 35 82 36 83 37 84 63 85 64 86
REMARK SMILES IDX 73 87 65 88 66 89 72 90 74 91 67 92 68 93 69 94 70 95 71 96
REMARK SMILES IDX 47 97 48 98 57 99 49 100 50 101 56 102 58 103 51 104 52 105
REMARK SMILES IDX 53 106 54 107 55 108
REMARK H PARENT 12 6 4 26 17 39 79 58 45 69
REMARK Flexibility Score: inf
ROOT
ATOM      1  C   UNL A   1      31.626  28.175  27.702  1.00  0.00     0.023 C 
ENDROOT
BRANCH   1   2
ATOM      2  C   UNL A   1      31.629  26.976  26.750  1.00  0.00     0.116 C 
BRANCH   2   3
ATOM      3  N   UNL A   1      30.382  26.263  26.625  1.00  0.00    -0.354 N 
ATOM      4  C   UNL A   1      30.172  24.914  26.701  1.00  0.00     0.248 C 
ATOM      5  O   UNL A   1      29.003  24.531  26.838  1.00  0.00    -0.272 OA
ATOM      6  H   UNL A   1      29.583  26.816  26.465  1.00  0.00     0.163 HD
BRANCH   4   7
ATOM      7  C   UNL A   1      31.308  23.822  26.612  1.00  0.00     0.204 C 
ATOM      8  C   UNL A   1      30.586  22.479  26.450  1.00  0.00     0.049 C 
BRANCH   7   9
ATOM      9  O   UNL A   1      32.433  23.842  25.725  1.00  0.00    -0.360 OA
BRANCH   9  10
ATOM     10  C   UNL A   1      32.204  23.637  24.311  1.00  0.00     0.177 C 
ATOM     11  C   UNL A   1      33.279  22.671  23.785  1.00  0.00     0.153 C 
ATOM     12  C   UNL A   1      34.667  23.416  23.793  1.00  0.00     0.206 C 
ATOM     13  C   UNL A   1      32.289  24.927  23.349  1.00  0.00     0.184 C 
ATOM     14  O   UNL A   1      34.607  24.354  22.693  1.00  0.00    -0.356 OA
ATOM     15  O   UNL A   1      31.486  26.034  23.775  1.00  0.00    -0.342 OA
ATOM     16  C   UNL A   1      33.728  25.400  23.045  1.00  0.00     0.177 C 
ATOM     17  C   UNL A   1      31.612  27.222  22.959  1.00  0.00     0.163 C 
ATOM     18  C   UNL A   1      33.699  26.518  22.030  1.00  0.00     0.198 C 
ATOM     19  C   UNL A   1      31.108  28.381  23.827  1.00  0.00     0.075 C 
ATOM     20  C   UNL A   1      30.770  27.152  21.684  1.00  0.00     0.075 C 
ATOM     21  O   UNL A   1      32.953  27.580  22.613  1.00  0.00    -0.348 OA
BRANCH  11  22
ATOM     22  N   UNL A   1      33.120  21.309  24.306  1.00  0.00    -0.347 N 
ATOM     23  C   UNL A   1      32.064  20.172  22.383  1.00  0.00     0.114 C 
ATOM     24  C   UNL A   1      32.459  20.225  23.821  1.00  0.00     0.217 C 
ATOM     25  O   UNL A   1      32.206  19.300  24.589  1.00  0.00    -0.275 OA
ATOM     26  H   UNL A   1      33.574  21.152  25.165  1.00  0.00     0.163 HD
ENDBRANCH  11  22
BRANCH  12  27
ATOM     27  S   UNL A   1      35.702  24.163  25.231  1.00  0.00    -0.092 SA
BRANCH  27  28
ATOM     28  C   UNL A   1      37.276  23.400  25.714  1.00  0.00     0.010 A 
ATOM     29  C   UNL A   1      38.377  23.903  26.413  1.00  0.00     0.016 A 
ATOM     30  C   UNL A   1      37.416  22.062  25.291  1.00  0.00     0.016 A 
ATOM     31  C   UNL A   1      39.513  23.138  26.729  1.00  0.00     0.021 A 
ATOM     32  C   UNL A   1      38.533  21.271  25.616  1.00  0.00     0.021 A 
ATOM     33  C   UNL A   1      39.580  21.815  26.344  1.00  0.00     0.041 A 
ATOM     34  Cl  UNL A   1      40.944  20.864  26.773  1.00  0.00    -0.084 Cl
ENDBRANCH  27  28
ENDBRANCH  12  27
ENDBRANCH   9  10
ENDBRANCH   7   9
ENDBRANCH   4   7
ENDBRANCH   2   3
ENDBRANCH   1   2
BRANCH   1  35
ATOM     35  C   UNL A   1      32.015  29.521  27.073  1.00  0.00     0.023 C 
BRANCH  35  36
ATOM     36  C   UNL A   1      33.478  29.962  27.204  1.00  0.00     0.116 C 
BRANCH  36  37
ATOM     37  N   UNL A   1      33.660  31.406  27.264  1.00  0.00    -0.352 N 
ATOM     38  C   UNL A   1      34.722  32.151  27.720  1.00  0.00     0.251 C 
ATOM     39  H   UNL A   1      32.901  31.933  26.922  1.00  0.00     0.163 HD
ATOM     40  O   UNL A   1      34.648  33.379  27.729  1.00  0.00    -0.269 OA
BRANCH  38  41
ATOM     41  C   UNL A   1      35.927  31.479  28.249  1.00  0.00     0.039 A 
ATOM     42  C   UNL A   1      37.119  32.203  28.332  1.00  0.00     0.014 A 
ATOM     43  C   UNL A   1      35.875  30.158  28.698  1.00  0.00     0.014 A 
ATOM     44  C   UNL A   1      38.234  31.635  28.954  1.00  0.00     0.010 A 
ATOM     45  C   UNL A   1      36.965  29.619  29.380  1.00  0.00     0.010 A 
ATOM     46  C   UNL A   1      38.150  30.356  29.530  1.00  0.00    -0.014 A 
BRANCH  46  47
ATOM     47  C   UNL A   1      39.279  29.793  30.319  1.00  0.00     0.031 A 
ATOM     48  C   UNL A   1      39.572  30.305  31.704  1.00  0.00     0.074 A 
ATOM     49  C   UNL A   1      40.085  28.868  29.760  1.00  0.00     0.049 A 
ATOM     50  N   UNL A   1      40.544  29.978  32.517  1.00  0.00    -0.248 NA
ATOM     51  C   UNL A   1      38.668  31.337  32.235  1.00  0.00     0.031 C 
ATOM     52  C   UNL A   1      39.944  28.330  28.404  1.00  0.00     0.029 A 
ATOM     53  N   UNL A   1      41.190  28.220  30.256  1.00  0.00    -0.354 N 
ATOM     54  C   UNL A   1      40.379  30.771  33.646  1.00  0.00     0.074 A 
ATOM     55  C   UNL A   1      39.244  31.633  33.392  1.00  0.00     0.031 C 
ATOM     56  C   UNL A   1      40.908  27.421  28.186  1.00  0.00     0.029 A 
ATOM     57  C   UNL A   1      41.759  27.335  29.369  1.00  0.00     0.049 A 
ATOM     58  H   UNL A   1      41.544  28.376  31.161  1.00  0.00     0.167 HD
ATOM     59  C   UNL A   1      41.091  30.766  34.798  1.00  0.00     0.037 A 
ATOM     60  C   UNL A   1      42.844  26.546  29.490  1.00  0.00     0.037 A 
ATOM     61  C   UNL A   1      42.206  29.890  35.055  1.00  0.00     0.049 A 
ATOM     62  C   UNL A   1      43.615  26.551  30.783  1.00  0.00     0.074 A 
ATOM     63  C   UNL A   1      42.956  29.770  36.211  1.00  0.00     0.029 A 
ATOM     64  N   UNL A   1      42.732  28.986  34.143  1.00  0.00    -0.354 N 
ATOM     65  N   UNL A   1      43.403  27.261  31.867  1.00  0.00    -0.248 NA
ATOM     66  C   UNL A   1      44.764  25.640  30.878  1.00  0.00     0.031 C 
ATOM     67  C   UNL A   1      43.964  28.826  35.984  1.00  0.00     0.029 A 
ATOM     68  C   UNL A   1      43.807  28.317  34.705  1.00  0.00     0.049 A 
ATOM     69  H   UNL A   1      42.391  28.841  33.231  1.00  0.00     0.167 HD
ATOM     70  C   UNL A   1      44.371  26.858  32.780  1.00  0.00     0.074 A 
ATOM     71  C   UNL A   1      45.162  25.837  32.126  1.00  0.00     0.031 C 
ATOM     72  C   UNL A   1      44.582  27.294  34.047  1.00  0.00     0.037 A 
BRANCH  59  73
ATOM     73  C   UNL A   1      40.683  31.735  35.875  1.00  0.00     0.058 A 
ATOM     74  C   UNL A   1      41.463  32.860  36.190  1.00  0.00     0.135 A 
ATOM     75  C   UNL A   1      39.480  31.558  36.579  1.00  0.00     0.135 A 
ATOM     76  F   UNL A   1      42.630  33.071  35.559  1.00  0.00    -0.206 F 
ATOM     77  C   UNL A   1      41.083  33.755  37.185  1.00  0.00     0.059 A 
ATOM     78  C   UNL A   1      39.065  32.457  37.557  1.00  0.00     0.059 A 
ATOM     79  F   UNL A   1      38.695  30.501  36.319  1.00  0.00    -0.206 F 
ATOM     80  C   UNL A   1      39.882  33.545  37.863  1.00  0.00     0.060 A 
BRANCH  80  81
ATOM     81  S   UNL A   1      39.402  34.717  39.149  1.00  0.00     0.124 S 
ATOM     82  O   UNL A   1      38.300  34.007  39.792  1.00  0.00    -0.237 OA
ATOM     83  O   UNL A   1      40.626  34.832  39.938  1.00  0.00    -0.237 OA
ATOM     84  O   UNL A   1      39.028  35.911  38.401  1.00  0.00    -0.744 OA
ENDBRANCH  80  81
ENDBRANCH  59  73
BRANCH  60  85
ATOM     85  C   UNL A   1      43.252  25.661  28.364  1.00  0.00     0.058 A 
ATOM     86  C   UNL A   1      44.147  26.109  27.381  1.00  0.00     0.135 A 
ATOM     87  C   UNL A   1      42.764  24.351  28.254  1.00  0.00     0.135 A 
ATOM     88  F   UNL A   1      44.636  27.358  27.439  1.00  0.00    -0.206 F 
ATOM     89  C   UNL A   1      44.530  25.298  26.319  1.00  0.00     0.059 A 
ATOM     90  C   UNL A   1      43.154  23.510  27.215  1.00  0.00     0.059 A 
ATOM     91  F   UNL A   1      41.919  23.867  29.178  1.00  0.00    -0.206 F 
ATOM     92  C   UNL A   1      44.030  23.997  26.245  1.00  0.00     0.060 A 
BRANCH  92  93
ATOM     93  S   UNL A   1      44.570  22.937  24.887  1.00  0.00     0.124 S 
ATOM     94  O   UNL A   1      45.305  21.898  25.600  1.00  0.00    -0.237 OA
ATOM     95  O   UNL A   1      43.300  22.528  24.294  1.00  0.00    -0.237 OA
ATOM     96  O   UNL A   1      45.378  23.831  24.064  1.00  0.00    -0.744 OA
ENDBRANCH  92  93
ENDBRANCH  60  85
BRANCH  72  97
ATOM     97  C   UNL A   1      45.684  26.635  34.832  1.00  0.00     0.058 A 
ATOM     98  C   UNL A   1      45.455  25.497  35.622  1.00  0.00     0.135 A 
ATOM     99  C   UNL A   1      46.998  27.125  34.757  1.00  0.00     0.135 A 
ATOM    100  F   UNL A   1      44.217  24.990  35.733  1.00  0.00    -0.206 F 
ATOM    101  C   UNL A   1      46.482  24.889  36.335  1.00  0.00     0.059 A 
ATOM    102  C   UNL A   1      48.047  26.515  35.436  1.00  0.00     0.059 A 
ATOM    103  F   UNL A   1      47.276  28.203  34.005  1.00  0.00    -0.206 F 
ATOM    104  C   UNL A   1      47.776  25.405  36.236  1.00  0.00     0.060 A 
BRANCH 104 105
ATOM    105  S   UNL A   1      49.107  24.592  37.147  1.00  0.00     0.124 S 
ATOM    106  O   UNL A   1      48.476  24.359  38.441  1.00  0.00    -0.237 OA
ATOM    107  O   UNL A   1      49.357  23.403  36.339  1.00  0.00    -0.237 OA
ATOM    108  O   UNL A   1      50.179  25.584  37.140  1.00  0.00    -0.744 OA
ENDBRANCH 104 105
ENDBRANCH  72  97
ENDBRANCH  46  47
ENDBRANCH  38  41
ENDBRANCH  36  37
ENDBRANCH  35  36
ENDBRANCH   1  35
TORSDOF 19
ENDMDL
MODEL 3
REMARK VINA RESULT:     -11.8      2.450      3.042
REMARK SMILES CC(=O)N[C@H]1[C@@H](O[C@H](C)C(=O)NCCCCNC(=O)c2ccc(-c3c4nc(c(-c5c(F)cc(S(=O)(=O)[O-])cc5F)c5ccc([nH]5)c(-c5c(F)cc(S(=O)(=O)[O-])cc5F)c5nc(c(-c6c(F)cc(S(=O)(=O)[O-])cc6F)c6ccc3[nH]6)C=C5)C=C4)cc2)[C@H]2OC(C)(C)OC[C@@H]2O[C@H]1Sc1ccc(Cl)cc1
REMARK SMILES IDX 14 1 13 2 12 3 10 4 11 5 8 7 9 8 7 9 6 10 5 11 95 12 86 13
REMARK SMILES IDX 94 14 87 15 93 16 88 17 92 18 89 19 90 20 91 21 4 22 1 23
REMARK SMILES IDX 2 24 3 25 96 27 97 28 98 29 103 30 99 31 102 32 100 33
REMARK SMILES IDX 101 34 15 35 16 36 17 37 18 38 19 40 20 41 21 42 85 43 22 44
REMARK SMILES IDX 84 45 23 46 24 47 25 48 78 49 26 50 83 51 77 52 79 53 27 54
REMARK SMILES IDX 82 55 76 56 75 57 28 59 62 60 41 61 61 62 42 63 45 64 60 65
REMARK SMILES IDX 80 66 43 67 44 68 59 70 81 71 46 72 29 73 30 74 39 75 31 76
REMARK SMILES IDX 32 77 38 78 40 79 33 80 34 81 35 82 36 83 37 84 63 85 64 86
REMARK SMILES IDX 73 87 65 88 66 89 72 90 74 91 67 92 68 93 69 94 70 95 71 96
REMARK SMILES IDX 47 97 48 98 57 99 49 100 50 101 56 102 58 103 51 104 52 105
REMARK SMILES IDX 53 106 54 107 55 108
REMARK H PARENT 12 6 4 26 17 39 79 58 45 69
REMARK Flexibility Score: inf
ROOT
ATOM      1  C   UNL A   1      33.905  28.576  23.849  1.00  0.00     0.023 C 
ENDROOT
BRANCH   1   2
ATOM      2  C   UNL A   1      32.842  27.668  23.226  1.00  0.00     0.116 C 
BRANCH   2   3
ATOM      3  N   UNL A   1      33.200  27.035  21.981  1.00  0.00    -0.354 N 
ATOM      4  C   UNL A   1      33.230  25.699  21.693  1.00  0.00     0.248 C 
ATOM      5  O   UNL A   1      33.299  25.379  20.500  1.00  0.00    -0.272 OA
ATOM      6  H   UNL A   1      33.455  27.640  21.247  1.00  0.00     0.163 HD
BRANCH   4   7
ATOM      7  C   UNL A   1      33.194  24.547  22.773  1.00  0.00     0.204 C 
ATOM      8  C   UNL A   1      32.607  23.323  22.060  1.00  0.00     0.049 C 
BRANCH   7   9
ATOM      9  O   UNL A   1      34.294  24.114  23.583  1.00  0.00    -0.360 OA
BRANCH   9  10
ATOM     10  C   UNL A   1      34.281  24.433  24.994  1.00  0.00     0.177 C 
ATOM     11  C   UNL A   1      34.957  23.278  25.754  1.00  0.00     0.153 C 
ATOM     12  C   UNL A   1      34.016  22.017  25.689  1.00  0.00     0.206 C 
ATOM     13  C   UNL A   1      32.845  24.619  25.702  1.00  0.00     0.184 C 
ATOM     14  O   UNL A   1      32.920  22.308  26.589  1.00  0.00    -0.356 OA
ATOM     15  O   UNL A   1      31.971  25.534  25.032  1.00  0.00    -0.342 OA
ATOM     16  C   UNL A   1      32.105  23.295  25.997  1.00  0.00     0.177 C 
ATOM     17  C   UNL A   1      30.655  25.652  25.617  1.00  0.00     0.163 C 
ATOM     18  C   UNL A   1      30.845  23.573  26.782  1.00  0.00     0.198 C 
ATOM     19  C   UNL A   1      29.760  26.242  24.521  1.00  0.00     0.075 C 
ATOM     20  C   UNL A   1      30.632  26.582  26.832  1.00  0.00     0.075 C 
ATOM     21  O   UNL A   1      30.033  24.412  25.969  1.00  0.00    -0.348 OA
BRANCH  11  22
ATOM     22  N   UNL A   1      36.397  23.193  25.487  1.00  0.00    -0.347 N 
ATOM     23  C   UNL A   1      36.671  20.773  25.065  1.00  0.00     0.114 C 
ATOM     24  C   UNL A   1      37.230  22.129  25.344  1.00  0.00     0.217 C 
ATOM     25  O   UNL A   1      38.441  22.313  25.444  1.00  0.00    -0.275 OA
ATOM     26  H   UNL A   1      36.842  24.066  25.394  1.00  0.00     0.163 HD
ENDBRANCH  11  22
BRANCH  12  27
ATOM     27  S   UNL A   1      33.377  20.981  24.199  1.00  0.00    -0.092 SA
BRANCH  27  28
ATOM     28  C   UNL A   1      33.207  19.180  24.348  1.00  0.00     0.010 A 
ATOM     29  C   UNL A   1      33.360  18.153  23.414  1.00  0.00     0.016 A 
ATOM     30  C   UNL A   1      32.836  18.745  25.636  1.00  0.00     0.016 A 
ATOM     31  C   UNL A   1      33.220  16.790  23.726  1.00  0.00     0.021 A 
ATOM     32  C   UNL A   1      32.713  17.386  25.978  1.00  0.00     0.021 A 
ATOM     33  C   UNL A   1      32.913  16.408  25.017  1.00  0.00     0.041 A 
ATOM     34  Cl  UNL A   1      32.790  14.742  25.413  1.00  0.00    -0.084 Cl
ENDBRANCH  27  28
ENDBRANCH  12  27
ENDBRANCH   9  10
ENDBRANCH   7   9
ENDBRANCH   4   7
ENDBRANCH   2   3
ENDBRANCH   1   2
BRANCH   1  35
ATOM     35  C   UNL A   1      34.411  28.148  25.236  1.00  0.00     0.023 C 
BRANCH  35  36
ATOM     36  C   UNL A   1      33.545  28.521  26.446  1.00  0.00     0.116 C 
BRANCH  36  37
ATOM     37  N   UNL A   1      33.508  29.948  26.732  1.00  0.00    -0.352 N 
ATOM     38  C   UNL A   1      34.389  30.738  27.435  1.00  0.00     0.251 C 
ATOM     39  H   UNL A   1      32.729  30.425  26.365  1.00  0.00     0.163 HD
ATOM     40  O   UNL A   1      34.139  31.930  27.605  1.00  0.00    -0.269 OA
BRANCH  38  41
ATOM     41  C   UNL A   1      35.605  30.145  28.029  1.00  0.00     0.039 A 
ATOM     42  C   UNL A   1      36.794  30.169  27.294  1.00  0.00     0.014 A 
ATOM     43  C   UNL A   1      35.587  29.604  29.316  1.00  0.00     0.014 A 
ATOM     44  C   UNL A   1      37.984  29.740  27.887  1.00  0.00     0.010 A 
ATOM     45  C   UNL A   1      36.786  29.243  29.929  1.00  0.00     0.010 A 
ATOM     46  C   UNL A   1      37.999  29.322  29.228  1.00  0.00    -0.014 A 
BRANCH  46  47
ATOM     47  C   UNL A   1      39.277  28.998  29.918  1.00  0.00     0.031 A 
ATOM     48  C   UNL A   1      39.715  29.786  31.123  1.00  0.00     0.074 A 
ATOM     49  C   UNL A   1      40.079  28.037  29.415  1.00  0.00     0.049 A 
ATOM     50  N   UNL A   1      40.820  29.688  31.817  1.00  0.00    -0.248 NA
ATOM     51  C   UNL A   1      38.803  30.840  31.594  1.00  0.00     0.031 C 
ATOM     52  C   UNL A   1      39.797  27.239  28.219  1.00  0.00     0.029 A 
ATOM     53  N   UNL A   1      41.299  27.572  29.840  1.00  0.00    -0.354 N 
ATOM     54  C   UNL A   1      40.743  30.671  32.796  1.00  0.00     0.074 A 
ATOM     55  C   UNL A   1      39.508  31.392  32.572  1.00  0.00     0.031 C 
ATOM     56  C   UNL A   1      40.801  26.370  28.020  1.00  0.00     0.029 A 
ATOM     57  C   UNL A   1      41.816  26.571  29.050  1.00  0.00     0.049 A 
ATOM     58  H   UNL A   1      41.762  27.922  30.635  1.00  0.00     0.167 HD
ATOM     59  C   UNL A   1      41.610  30.936  33.802  1.00  0.00     0.037 A 
ATOM     60  C   UNL A   1      42.977  25.893  29.138  1.00  0.00     0.037 A 
ATOM     61  C   UNL A   1      42.828  30.202  34.035  1.00  0.00     0.049 A 
ATOM     62  C   UNL A   1      43.921  26.199  30.271  1.00  0.00     0.074 A 
ATOM     63  C   UNL A   1      43.744  30.357  35.060  1.00  0.00     0.029 A 
ATOM     64  N   UNL A   1      43.301  29.175  33.230  1.00  0.00    -0.354 N 
ATOM     65  N   UNL A   1      43.800  27.089  31.227  1.00  0.00    -0.248 NA
ATOM     66  C   UNL A   1      45.152  25.401  30.346  1.00  0.00     0.031 C 
ATOM     67  C   UNL A   1      44.793  29.456  34.851  1.00  0.00     0.029 A 
ATOM     68  C   UNL A   1      44.504  28.700  33.727  1.00  0.00     0.049 A 
ATOM     69  H   UNL A   1      42.849  28.834  32.425  1.00  0.00     0.167 HD
ATOM     70  C   UNL A   1      44.922  26.935  32.034  1.00  0.00     0.074 A 
ATOM     71  C   UNL A   1      45.704  25.861  31.460  1.00  0.00     0.031 C 
ATOM     72  C   UNL A   1      45.270  27.622  33.151  1.00  0.00     0.037 A 
BRANCH  59  73
ATOM     73  C   UNL A   1      41.270  32.066  34.737  1.00  0.00     0.058 A 
ATOM     74  C   UNL A   1      41.758  33.367  34.529  1.00  0.00     0.135 A 
ATOM     75  C   UNL A   1      40.419  31.856  35.834  1.00  0.00     0.135 A 
ATOM     76  F   UNL A   1      42.587  33.622  33.504  1.00  0.00    -0.206 F 
ATOM     77  C   UNL A   1      41.442  34.411  35.393  1.00  0.00     0.059 A 
ATOM     78  C   UNL A   1      40.065  32.892  36.694  1.00  0.00     0.059 A 
ATOM     79  F   UNL A   1      39.923  30.634  36.081  1.00  0.00    -0.206 F 
ATOM     80  C   UNL A   1      40.594  34.163  36.473  1.00  0.00     0.060 A 
BRANCH  80  81
ATOM     81  S   UNL A   1      40.191  35.528  37.583  1.00  0.00     0.124 S 
ATOM     82  O   UNL A   1      39.077  34.966  38.341  1.00  0.00    -0.237 OA
ATOM     83  O   UNL A   1      41.436  35.704  38.326  1.00  0.00    -0.237 OA
ATOM     84  O   UNL A   1      39.848  36.617  36.675  1.00  0.00    -0.744 OA
ENDBRANCH  80  81
ENDBRANCH  59  73
BRANCH  60  85
ATOM     85  C   UNL A   1      43.302  24.836  28.142  1.00  0.00     0.058 A 
ATOM     86  C   UNL A   1      42.988  23.490  28.388  1.00  0.00     0.135 A 
ATOM     87  C   UNL A   1      43.922  25.148  26.923  1.00  0.00     0.135 A 
ATOM     88  F   UNL A   1      42.401  23.140  29.543  1.00  0.00    -0.206 F 
ATOM     89  C   UNL A   1      43.294  22.490  27.471  1.00  0.00     0.059 A 
ATOM     90  C   UNL A   1      44.213  24.169  25.977  1.00  0.00     0.059 A 
ATOM     91  F   UNL A   1      44.227  26.422  26.630  1.00  0.00    -0.206 F 
ATOM     92  C   UNL A   1      43.904  22.840  26.266  1.00  0.00     0.060 A 
BRANCH  92  93
ATOM     93  S   UNL A   1      44.254  21.540  25.063  1.00  0.00     0.124 S 
ATOM     94  O   UNL A   1      43.177  20.593  25.332  1.00  0.00    -0.237 OA
ATOM     95  O   UNL A   1      44.169  22.262  23.798  1.00  0.00    -0.237 OA
ATOM     96  O   UNL A   1      45.594  21.093  25.432  1.00  0.00    -0.744 OA
ENDBRANCH  92  93
ENDBRANCH  60  85
BRANCH  72  97
ATOM     97  C   UNL A   1      46.530  27.200  33.858  1.00  0.00     0.058 A 
ATOM     98  C   UNL A   1      47.775  27.777  33.563  1.00  0.00     0.135 A 
ATOM     99  C   UNL A   1      46.481  26.234  34.876  1.00  0.00     0.135 A 
ATOM    100  F   UNL A   1      47.879  28.702  32.596  1.00  0.00    -0.206 F 
ATOM    101  C   UNL A   1      48.932  27.389  34.231  1.00  0.00     0.059 A 
ATOM    102  C   UNL A   1      47.620  25.852  35.578  1.00  0.00     0.059 A 
ATOM    103  F   UNL A   1      45.314  25.659  35.208  1.00  0.00    -0.206 F 
ATOM    104  C   UNL A   1      48.845  26.424  35.237  1.00  0.00     0.060 A 
BRANCH 104 105
ATOM    105  S   UNL A   1      50.349  25.945  36.113  1.00  0.00     0.124 S 
ATOM    106  O   UNL A   1      50.407  26.950  37.168  1.00  0.00    -0.237 OA
ATOM    107  O   UNL A   1      50.039  24.586  36.546  1.00  0.00    -0.237 OA
ATOM    108  O   UNL A   1      51.386  26.048  35.090  1.00  0.00    -0.744 OA
ENDBRANCH 104 105
ENDBRANCH  72  97
ENDBRANCH  46  47
ENDBRANCH  38  41
ENDBRANCH  36  37
ENDBRANCH  35  36
ENDBRANCH   1  35
TORSDOF 19
ENDMDL
