MODEL 1
REMARK VINA RESULT:     -13.4      0.000      0.000
REMARK SMILES Cc1ccc([C@H](CC2CCCC2)C(=O)NCCCCNC(=O)c2ccc(-c3c4nc(c(-c5c(F)cc(S(=O)(=O)[O-])cc5F)c5ccc([nH]5)c(-c5c(F)cc(S(=O)(=O)[O-])cc5F)c5nc(c(-c6c(F)cc(S(=O)(=O)[O-])cc6F)c6ccc3[nH]6)C=C5)C=C4)cc2)cc1
REMARK SMILES IDX 18 1 17 2 16 3 15 4 13 5 14 6 6 8 5 9 1 10 2 11 3 12 90 13
REMARK SMILES IDX 4 14 89 15 7 16 8 17 9 18 12 19 10 20 11 21 19 22 20 23
REMARK SMILES IDX 21 24 22 26 23 27 24 28 88 29 25 30 87 31 26 32 27 33 28 34
REMARK SMILES IDX 81 35 29 36 86 37 80 38 82 39 30 40 85 41 79 42 78 43 31 45
REMARK SMILES IDX 65 46 44 47 64 48 45 49 48 50 63 51 83 52 46 53 47 54 62 56
REMARK SMILES IDX 84 57 49 58 32 59 33 60 42 61 34 62 35 63 41 64 43 65 36 66
REMARK SMILES IDX 37 67 38 68 39 69 40 70 66 71 67 72 76 73 68 74 69 75 75 76
REMARK SMILES IDX 77 77 70 78 71 79 72 80 73 81 74 82 50 83 51 84 60 85 52 86
REMARK SMILES IDX 53 87 59 88 61 89 54 90 55 91 56 92 57 93 58 94
REMARK H PARENT 15 7 20 25 82 44 48 55
REMARK Flexibility Score: inf
ROOT
ATOM      1  C   UNL A   1      36.641  23.449  25.924  1.00  0.00     0.023 C 
ENDROOT
BRANCH   1   2
ATOM      2  C   UNL A   1      35.864  23.474  24.604  1.00  0.00     0.023 C 
BRANCH   2   3
ATOM      3  C   UNL A   1      34.578  24.308  24.583  1.00  0.00     0.116 C 
BRANCH   3   4
ATOM      4  N   UNL A   1      34.208  24.768  23.252  1.00  0.00    -0.356 N 
ATOM      5  C   UNL A   1      33.616  25.923  22.829  1.00  0.00     0.227 C 
ATOM      6  O   UNL A   1      33.580  26.111  21.606  1.00  0.00    -0.274 OA
ATOM      7  H   UNL A   1      34.423  24.136  22.529  1.00  0.00     0.163 HD
BRANCH   5   8
ATOM      8  C   UNL A   1      32.963  26.937  23.777  1.00  0.00     0.109 C 
BRANCH   8   9
ATOM      9  C   UNL A   1      31.604  27.501  23.349  1.00  0.00    -0.036 A 
ATOM     10  C   UNL A   1      27.661  29.164  22.669  1.00  0.00     0.044 C 
ATOM     11  C   UNL A   1      29.021  28.564  22.867  1.00  0.00    -0.051 A 
ATOM     12  C   UNL A   1      29.167  27.320  23.480  1.00  0.00     0.004 A 
ATOM     13  C   UNL A   1      30.163  29.221  22.402  1.00  0.00     0.004 A 
ATOM     14  C   UNL A   1      30.439  26.796  23.713  1.00  0.00     0.005 A 
ATOM     15  C   UNL A   1      31.437  28.688  22.626  1.00  0.00     0.005 A 
ENDBRANCH   8   9
BRANCH   8  16
ATOM     16  C   UNL A   1      33.940  28.057  24.217  1.00  0.00     0.022 C 
BRANCH  16  17
ATOM     17  C   UNL A   1      33.718  28.573  25.646  1.00  0.00    -0.010 C 
ATOM     18  C   UNL A   1      32.919  29.868  25.749  1.00  0.00     0.003 C 
ATOM     19  C   UNL A   1      32.850  27.600  26.451  1.00  0.00     0.003 C 
ATOM     20  C   UNL A   1      32.407  29.879  27.187  1.00  0.00     0.000 C 
ATOM     21  C   UNL A   1      32.338  28.419  27.628  1.00  0.00     0.000 C 
ENDBRANCH  16  17
ENDBRANCH   8  16
ENDBRANCH   5   8
ENDBRANCH   3   4
ENDBRANCH   2   3
ENDBRANCH   1   2
BRANCH   1  22
ATOM     22  C   UNL A   1      38.147  23.289  25.796  1.00  0.00     0.116 C 
BRANCH  22  23
ATOM     23  N   UNL A   1      38.905  23.215  27.035  1.00  0.00    -0.352 N 
ATOM     24  C   UNL A   1      40.087  23.953  27.114  1.00  0.00     0.251 C 
ATOM     25  H   UNL A   1      38.594  22.664  27.791  1.00  0.00     0.163 HD
ATOM     26  O   UNL A   1      41.192  23.540  26.807  1.00  0.00    -0.269 OA
BRANCH  24  27
ATOM     27  C   UNL A   1      39.846  25.398  27.344  1.00  0.00     0.039 A 
ATOM     28  C   UNL A   1      40.400  26.387  26.534  1.00  0.00     0.014 A 
ATOM     29  C   UNL A   1      39.220  25.724  28.548  1.00  0.00     0.014 A 
ATOM     30  C   UNL A   1      40.441  27.707  27.006  1.00  0.00     0.010 A 
ATOM     31  C   UNL A   1      39.352  26.999  29.050  1.00  0.00     0.010 A 
ATOM     32  C   UNL A   1      39.979  27.996  28.293  1.00  0.00    -0.014 A 
BRANCH  32  33
ATOM     33  C   UNL A   1      40.170  29.261  29.002  1.00  0.00     0.031 A 
ATOM     34  C   UNL A   1      39.084  30.274  29.076  1.00  0.00     0.074 A 
ATOM     35  C   UNL A   1      41.262  29.427  29.781  1.00  0.00     0.049 A 
ATOM     36  N   UNL A   1      39.255  31.494  29.472  1.00  0.00    -0.248 NA
ATOM     37  C   UNL A   1      37.705  29.990  28.691  1.00  0.00     0.031 C 
ATOM     38  C   UNL A   1      41.418  30.369  30.887  1.00  0.00     0.029 A 
ATOM     39  N   UNL A   1      42.533  28.887  29.616  1.00  0.00    -0.354 N 
ATOM     40  C   UNL A   1      38.016  32.060  29.649  1.00  0.00     0.074 A 
ATOM     41  C   UNL A   1      37.081  31.094  29.114  1.00  0.00     0.031 C 
ATOM     42  C   UNL A   1      42.723  30.524  31.150  1.00  0.00     0.029 A 
ATOM     43  C   UNL A   1      43.463  29.814  30.125  1.00  0.00     0.049 A 
ATOM     44  H   UNL A   1      42.744  28.013  29.214  1.00  0.00     0.167 HD
ATOM     45  C   UNL A   1      37.887  33.237  30.326  1.00  0.00     0.037 A 
ATOM     46  C   UNL A   1      44.391  30.385  29.298  1.00  0.00     0.037 A 
ATOM     47  C   UNL A   1      39.175  33.774  30.747  1.00  0.00     0.049 A 
ATOM     48  C   UNL A   1      44.222  31.878  29.087  1.00  0.00     0.074 A 
ATOM     49  C   UNL A   1      39.895  33.747  31.931  1.00  0.00     0.029 A 
ATOM     50  N   UNL A   1      40.049  34.236  29.782  1.00  0.00    -0.354 N 
ATOM     51  N   UNL A   1      43.315  32.611  29.671  1.00  0.00    -0.248 NA
ATOM     52  C   UNL A   1      45.023  32.650  28.132  1.00  0.00     0.031 C 
ATOM     53  C   UNL A   1      41.227  34.163  31.652  1.00  0.00     0.029 A 
ATOM     54  C   UNL A   1      41.313  34.439  30.300  1.00  0.00     0.049 A 
ATOM     55  H   UNL A   1      39.802  34.398  28.843  1.00  0.00     0.167 HD
ATOM     56  C   UNL A   1      43.324  33.864  29.120  1.00  0.00     0.074 A 
ATOM     57  C   UNL A   1      44.439  33.860  28.195  1.00  0.00     0.031 C 
ATOM     58  C   UNL A   1      42.386  34.810  29.400  1.00  0.00     0.037 A 
BRANCH  45  59
ATOM     59  C   UNL A   1      36.558  33.785  30.784  1.00  0.00     0.058 A 
ATOM     60  C   UNL A   1      35.601  34.240  29.853  1.00  0.00     0.135 A 
ATOM     61  C   UNL A   1      36.183  33.913  32.136  1.00  0.00     0.135 A 
ATOM     62  F   UNL A   1      35.791  34.111  28.533  1.00  0.00    -0.206 F 
ATOM     63  C   UNL A   1      34.418  34.871  30.231  1.00  0.00     0.059 A 
ATOM     64  C   UNL A   1      35.031  34.593  32.542  1.00  0.00     0.059 A 
ATOM     65  F   UNL A   1      36.919  33.357  33.112  1.00  0.00    -0.206 F 
ATOM     66  C   UNL A   1      34.157  35.080  31.580  1.00  0.00     0.060 A 
BRANCH  66  67
ATOM     67  S   UNL A   1      32.687  36.016  32.041  1.00  0.00     0.124 S 
ATOM     68  O   UNL A   1      31.786  34.967  32.513  1.00  0.00    -0.237 OA
ATOM     69  O   UNL A   1      33.209  36.913  33.066  1.00  0.00    -0.237 OA
ATOM     70  O   UNL A   1      32.286  36.654  30.790  1.00  0.00    -0.744 OA
ENDBRANCH  66  67
ENDBRANCH  45  59
BRANCH  46  71
ATOM     71  C   UNL A   1      44.901  29.418  28.286  1.00  0.00     0.058 A 
ATOM     72  C   UNL A   1      45.841  28.468  28.732  1.00  0.00     0.135 A 
ATOM     73  C   UNL A   1      44.149  29.109  27.145  1.00  0.00     0.135 A 
ATOM     74  F   UNL A   1      46.605  28.731  29.806  1.00  0.00    -0.206 F 
ATOM     75  C   UNL A   1      45.876  27.183  28.206  1.00  0.00     0.059 A 
ATOM     76  C   UNL A   1      44.182  27.830  26.591  1.00  0.00     0.059 A 
ATOM     77  F   UNL A   1      43.251  29.984  26.667  1.00  0.00    -0.206 F 
ATOM     78  C   UNL A   1      44.976  26.853  27.195  1.00  0.00     0.060 A 
BRANCH  78  79
ATOM     79  S   UNL A   1      44.720  25.100  26.831  1.00  0.00     0.124 S 
ATOM     80  O   UNL A   1      43.959  25.151  25.588  1.00  0.00    -0.237 OA
ATOM     81  O   UNL A   1      46.097  24.615  26.713  1.00  0.00    -0.237 OA
ATOM     82  O   UNL A   1      43.989  24.620  27.998  1.00  0.00    -0.744 OA
ENDBRANCH  78  79
ENDBRANCH  46  71
BRANCH  58  83
ATOM     83  C   UNL A   1      42.426  36.186  28.818  1.00  0.00     0.058 A 
ATOM     84  C   UNL A   1      41.929  36.446  27.533  1.00  0.00     0.135 A 
ATOM     85  C   UNL A   1      43.094  37.239  29.471  1.00  0.00     0.135 A 
ATOM     86  F   UNL A   1      41.296  35.486  26.840  1.00  0.00    -0.206 F 
ATOM     87  C   UNL A   1      42.087  37.689  26.923  1.00  0.00     0.059 A 
ATOM     88  C   UNL A   1      43.294  38.477  28.868  1.00  0.00     0.059 A 
ATOM     89  F   UNL A   1      43.558  37.090  30.722  1.00  0.00    -0.206 F 
ATOM     90  C   UNL A   1      42.778  38.697  27.595  1.00  0.00     0.060 A 
BRANCH  90  91
ATOM     91  S   UNL A   1      43.040  40.289  26.788  1.00  0.00     0.124 S 
ATOM     92  O   UNL A   1      41.715  40.610  26.265  1.00  0.00    -0.237 OA
ATOM     93  O   UNL A   1      43.491  41.109  27.907  1.00  0.00    -0.237 OA
ATOM     94  O   UNL A   1      44.048  39.987  25.777  1.00  0.00    -0.744 OA
ENDBRANCH  90  91
ENDBRANCH  58  83
ENDBRANCH  32  33
ENDBRANCH  24  27
ENDBRANCH  22  23
ENDBRANCH   1  22
TORSDOF 17
ENDMDL
MODEL 2
REMARK VINA RESULT:     -13.4      4.704     11.563
REMARK SMILES Cc1ccc([C@H](CC2CCCC2)C(=O)NCCCCNC(=O)c2ccc(-c3c4nc(c(-c5c(F)cc(S(=O)(=O)[O-])cc5F)c5ccc([nH]5)c(-c5c(F)cc(S(=O)(=O)[O-])cc5F)c5nc(c(-c6c(F)cc(S(=O)(=O)[O-])cc6F)c6ccc3[nH]6)C=C5)C=C4)cc2)cc1
REMARK SMILES IDX 18 1 17 2 16 3 15 4 13 5 14 6 6 8 5 9 1 10 2 11 3 12 90 13
REMARK SMILES IDX 4 14 89 15 7 16 8 17 9 18 12 19 10 20 11 21 19 22 20 23
REMARK SMILES IDX 21 24 22 26 23 27 24 28 88 29 25 30 87 31 26 32 27 33 28 34
REMARK SMILES IDX 81 35 29 36 86 37 80 38 82 39 30 40 85 41 79 42 78 43 31 45
REMARK SMILES IDX 65 46 44 47 64 48 45 49 48 50 63 51 83 52 46 53 47 54 62 56
REMARK SMILES IDX 84 57 49 58 32 59 33 60 42 61 34 62 35 63 41 64 43 65 36 66
REMARK SMILES IDX 37 67 38 68 39 69 40 70 66 71 67 72 76 73 68 74 69 75 75 76
REMARK SMILES IDX 77 77 70 78 71 79 72 80 73 81 74 82 50 83 51 84 60 85 52 86
REMARK SMILES IDX 53 87 59 88 61 89 54 90 55 91 56 92 57 93 58 94
REMARK H PARENT 15 7 20 25 82 44 48 55
REMARK Flexibility Score: inf
ROOT
ATOM      1  C   UNL A   1      34.040  28.939  25.944  1.00  0.00     0.023 C 
ENDROOT
BRANCH   1   2
ATOM      2  C   UNL A   1      33.500  27.517  26.124  1.00  0.00     0.023 C 
BRANCH   2   3
ATOM      3  C   UNL A   1      32.529  27.012  25.049  1.00  0.00     0.116 C 
BRANCH   3   4
ATOM      4  N   UNL A   1      33.185  26.656  23.798  1.00  0.00    -0.356 N 
ATOM      5  C   UNL A   1      33.600  25.452  23.309  1.00  0.00     0.227 C 
ATOM      6  O   UNL A   1      33.976  25.434  22.129  1.00  0.00    -0.274 OA
ATOM      7  H   UNL A   1      33.359  27.418  23.199  1.00  0.00     0.163 HD
BRANCH   5   8
ATOM      8  C   UNL A   1      33.671  24.173  24.152  1.00  0.00     0.109 C 
BRANCH   8   9
ATOM      9  C   UNL A   1      35.071  23.632  24.463  1.00  0.00    -0.036 A 
ATOM     10  C   UNL A   1      38.799  21.847  25.764  1.00  0.00     0.044 C 
ATOM     11  C   UNL A   1      37.533  22.500  25.298  1.00  0.00    -0.051 A 
ATOM     12  C   UNL A   1      36.902  23.468  26.080  1.00  0.00     0.004 A 
ATOM     13  C   UNL A   1      36.984  22.182  24.053  1.00  0.00     0.004 A 
ATOM     14  C   UNL A   1      35.692  24.027  25.666  1.00  0.00     0.005 A 
ATOM     15  C   UNL A   1      35.778  22.753  23.634  1.00  0.00     0.005 A 
ENDBRANCH   8   9
BRANCH   8  16
ATOM     16  C   UNL A   1      32.726  23.061  23.632  1.00  0.00     0.022 C 
BRANCH  16  17
ATOM     17  C   UNL A   1      33.132  21.637  24.038  1.00  0.00    -0.010 C 
ATOM     18  C   UNL A   1      32.678  21.207  25.429  1.00  0.00     0.003 C 
ATOM     19  C   UNL A   1      32.448  20.597  23.145  1.00  0.00     0.003 C 
ATOM     20  C   UNL A   1      32.729  19.682  25.385  1.00  0.00     0.000 C 
ATOM     21  C   UNL A   1      32.553  19.290  23.920  1.00  0.00     0.000 C 
ENDBRANCH  16  17
ENDBRANCH   8  16
ENDBRANCH   5   8
ENDBRANCH   3   4
ENDBRANCH   2   3
ENDBRANCH   1   2
BRANCH   1  22
ATOM     22  C   UNL A   1      34.246  29.730  27.224  1.00  0.00     0.116 C 
BRANCH  22  23
ATOM     23  N   UNL A   1      35.346  30.680  27.237  1.00  0.00    -0.352 N 
ATOM     24  C   UNL A   1      36.089  30.792  28.415  1.00  0.00     0.251 C 
ATOM     25  H   UNL A   1      35.560  31.224  26.444  1.00  0.00     0.163 HD
ATOM     26  O   UNL A   1      35.850  31.570  29.321  1.00  0.00    -0.269 OA
BRANCH  24  27
ATOM     27  C   UNL A   1      37.047  29.675  28.596  1.00  0.00     0.039 A 
ATOM     28  C   UNL A   1      37.163  28.976  29.795  1.00  0.00     0.014 A 
ATOM     29  C   UNL A   1      37.985  29.508  27.576  1.00  0.00     0.014 A 
ATOM     30  C   UNL A   1      38.308  28.200  30.022  1.00  0.00     0.010 A 
ATOM     31  C   UNL A   1      39.152  28.829  27.839  1.00  0.00     0.010 A 
ATOM     32  C   UNL A   1      39.333  28.185  29.070  1.00  0.00    -0.014 A 
BRANCH  32  33
ATOM     33  C   UNL A   1      40.668  27.622  29.266  1.00  0.00     0.031 A 
ATOM     34  C   UNL A   1      41.019  26.273  28.745  1.00  0.00     0.074 A 
ATOM     35  C   UNL A   1      41.661  28.411  29.731  1.00  0.00     0.049 A 
ATOM     36  N   UNL A   1      42.084  25.620  29.080  1.00  0.00    -0.248 NA
ATOM     37  C   UNL A   1      40.176  25.541  27.804  1.00  0.00     0.031 C 
ATOM     38  C   UNL A   1      43.098  28.203  29.572  1.00  0.00     0.029 A 
ATOM     39  N   UNL A   1      41.570  29.489  30.606  1.00  0.00    -0.354 N 
ATOM     40  C   UNL A   1      42.207  24.546  28.233  1.00  0.00     0.074 A 
ATOM     41  C   UNL A   1      40.974  24.519  27.478  1.00  0.00     0.031 C 
ATOM     42  C   UNL A   1      43.752  28.944  30.478  1.00  0.00     0.029 A 
ATOM     43  C   UNL A   1      42.760  29.533  31.358  1.00  0.00     0.049 A 
ATOM     44  H   UNL A   1      40.810  30.110  30.685  1.00  0.00     0.167 HD
ATOM     45  C   UNL A   1      43.378  23.849  28.171  1.00  0.00     0.037 A 
ATOM     46  C   UNL A   1      42.725  29.364  32.715  1.00  0.00     0.037 A 
ATOM     47  C   UNL A   1      44.371  24.356  29.110  1.00  0.00     0.049 A 
ATOM     48  C   UNL A   1      43.396  28.099  33.216  1.00  0.00     0.074 A 
ATOM     49  C   UNL A   1      45.455  25.213  29.004  1.00  0.00     0.029 A 
ATOM     50  N   UNL A   1      44.151  24.186  30.463  1.00  0.00    -0.354 N 
ATOM     51  N   UNL A   1      44.019  27.239  32.458  1.00  0.00    -0.248 NA
ATOM     52  C   UNL A   1      43.346  27.663  34.615  1.00  0.00     0.031 C 
ATOM     53  C   UNL A   1      45.857  25.586  30.317  1.00  0.00     0.029 A 
ATOM     54  C   UNL A   1      45.016  24.957  31.216  1.00  0.00     0.049 A 
ATOM     55  H   UNL A   1      43.465  23.592  30.843  1.00  0.00     0.167 HD
ATOM     56  C   UNL A   1      44.339  26.133  33.198  1.00  0.00     0.074 A 
ATOM     57  C   UNL A   1      43.943  26.460  34.552  1.00  0.00     0.031 C 
ATOM     58  C   UNL A   1      44.848  24.993  32.655  1.00  0.00     0.037 A 
BRANCH  45  59
ATOM     59  C   UNL A   1      43.679  22.835  27.095  1.00  0.00     0.058 A 
ATOM     60  C   UNL A   1      42.989  21.605  27.043  1.00  0.00     0.135 A 
ATOM     61  C   UNL A   1      44.663  23.009  26.101  1.00  0.00     0.135 A 
ATOM     62  F   UNL A   1      41.978  21.333  27.879  1.00  0.00    -0.206 F 
ATOM     63  C   UNL A   1      43.322  20.588  26.151  1.00  0.00     0.059 A 
ATOM     64  C   UNL A   1      45.054  21.986  25.234  1.00  0.00     0.059 A 
ATOM     65  F   UNL A   1      45.263  24.197  25.927  1.00  0.00    -0.206 F 
ATOM     66  C   UNL A   1      44.383  20.771  25.273  1.00  0.00     0.060 A 
BRANCH  66  67
ATOM     67  S   UNL A   1      44.882  19.394  24.220  1.00  0.00     0.124 S 
ATOM     68  O   UNL A   1      44.119  18.282  24.782  1.00  0.00    -0.237 OA
ATOM     69  O   UNL A   1      44.458  19.853  22.902  1.00  0.00    -0.237 OA
ATOM     70  O   UNL A   1      46.325  19.318  24.426  1.00  0.00    -0.744 OA
ENDBRANCH  66  67
ENDBRANCH  45  59
BRANCH  46  71
ATOM     71  C   UNL A   1      41.530  30.012  33.323  1.00  0.00     0.058 A 
ATOM     72  C   UNL A   1      41.569  31.413  33.467  1.00  0.00     0.135 A 
ATOM     73  C   UNL A   1      40.273  29.395  33.268  1.00  0.00     0.135 A 
ATOM     74  F   UNL A   1      42.752  32.045  33.552  1.00  0.00    -0.206 F 
ATOM     75  C   UNL A   1      40.424  32.186  33.337  1.00  0.00     0.059 A 
ATOM     76  C   UNL A   1      39.108  30.153  33.154  1.00  0.00     0.059 A 
ATOM     77  F   UNL A   1      40.176  28.062  33.147  1.00  0.00    -0.206 F 
ATOM     78  C   UNL A   1      39.212  31.544  33.091  1.00  0.00     0.060 A 
BRANCH  78  79
ATOM     79  S   UNL A   1      37.831  32.546  32.488  1.00  0.00     0.124 S 
ATOM     80  O   UNL A   1      36.694  31.655  32.686  1.00  0.00    -0.237 OA
ATOM     81  O   UNL A   1      37.893  33.706  33.381  1.00  0.00    -0.237 OA
ATOM     82  O   UNL A   1      38.192  32.810  31.100  1.00  0.00    -0.744 OA
ENDBRANCH  78  79
ENDBRANCH  46  71
BRANCH  58  83
ATOM     83  C   UNL A   1      45.225  23.804  33.477  1.00  0.00     0.058 A 
ATOM     84  C   UNL A   1      44.288  22.809  33.789  1.00  0.00     0.135 A 
ATOM     85  C   UNL A   1      46.487  23.710  34.093  1.00  0.00     0.135 A 
ATOM     86  F   UNL A   1      43.057  22.841  33.254  1.00  0.00    -0.206 F 
ATOM     87  C   UNL A   1      44.586  21.770  34.669  1.00  0.00     0.059 A 
ATOM     88  C   UNL A   1      46.795  22.702  35.002  1.00  0.00     0.059 A 
ATOM     89  F   UNL A   1      47.459  24.594  33.814  1.00  0.00    -0.206 F 
ATOM     90  C   UNL A   1      45.840  21.729  35.277  1.00  0.00     0.060 A 
BRANCH  90  91
ATOM     91  S   UNL A   1      46.212  20.423  36.465  1.00  0.00     0.124 S 
ATOM     92  O   UNL A   1      45.792  21.009  37.734  1.00  0.00    -0.237 OA
ATOM     93  O   UNL A   1      45.378  19.334  35.968  1.00  0.00    -0.237 OA
ATOM     94  O   UNL A   1      47.652  20.238  36.315  1.00  0.00    -0.744 OA
ENDBRANCH  90  91
ENDBRANCH  58  83
ENDBRANCH  32  33
ENDBRANCH  24  27
ENDBRANCH  22  23
ENDBRANCH   1  22
TORSDOF 17
ENDMDL
MODEL 3
REMARK VINA RESULT:     -13.3      1.209      2.417
REMARK SMILES Cc1ccc([C@H](CC2CCCC2)C(=O)NCCCCNC(=O)c2ccc(-c3c4nc(c(-c5c(F)cc(S(=O)(=O)[O-])cc5F)c5ccc([nH]5)c(-c5c(F)cc(S(=O)(=O)[O-])cc5F)c5nc(c(-c6c(F)cc(S(=O)(=O)[O-])cc6F)c6ccc3[nH]6)C=C5)C=C4)cc2)cc1
REMARK SMILES IDX 18 1 17 2 16 3 15 4 13 5 14 6 6 8 5 9 1 10 2 11 3 12 90 13
REMARK SMILES IDX 4 14 89 15 7 16 8 17 9 18 12 19 10 20 11 21 19 22 20 23
REMARK SMILES IDX 21 24 22 26 23 27 24 28 88 29 25 30 87 31 26 32 27 33 28 34
REMARK SMILES IDX 81 35 29 36 86 37 80 38 82 39 30 40 85 41 79 42 78 43 31 45
REMARK SMILES IDX 65 46 44 47 64 48 45 49 48 50 63 51 83 52 46 53 47 54 62 56
REMARK SMILES IDX 84 57 49 58 32 59 33 60 42 61 34 62 35 63 41 64 43 65 36 66
REMARK SMILES IDX 37 67 38 68 39 69 40 70 66 71 67 72 76 73 68 74 69 75 75 76
REMARK SMILES IDX 77 77 70 78 71 79 72 80 73 81 74 82 50 83 51 84 60 85 52 86
REMARK SMILES IDX 53 87 59 88 61 89 54 90 55 91 56 92 57 93 58 94
REMARK H PARENT 15 7 20 25 82 44 48 55
REMARK Flexibility Score: inf
ROOT
ATOM      1  C   UNL A   1      36.712  23.718  25.947  1.00  0.00     0.023 C 
ENDROOT
BRANCH   1   2
ATOM      2  C   UNL A   1      35.689  22.578  25.953  1.00  0.00     0.023 C 
BRANCH   2   3
ATOM      3  C   UNL A   1      34.302  22.901  25.386  1.00  0.00     0.116 C 
BRANCH   3   4
ATOM      4  N   UNL A   1      33.296  23.132  26.414  1.00  0.00    -0.356 N 
ATOM      5  C   UNL A   1      32.293  24.053  26.503  1.00  0.00     0.227 C 
ATOM      6  O   UNL A   1      31.479  23.899  27.423  1.00  0.00    -0.274 OA
ATOM      7  H   UNL A   1      33.348  22.516  27.180  1.00  0.00     0.163 HD
BRANCH   5   8
ATOM      8  C   UNL A   1      32.170  25.265  25.571  1.00  0.00     0.109 C 
BRANCH   8   9
ATOM      9  C   UNL A   1      32.458  26.638  26.189  1.00  0.00    -0.036 A 
ATOM     10  C   UNL A   1      33.379  30.687  27.428  1.00  0.00     0.044 C 
ATOM     11  C   UNL A   1      33.075  29.271  27.039  1.00  0.00    -0.051 A 
ATOM     12  C   UNL A   1      34.075  28.444  26.529  1.00  0.00     0.004 A 
ATOM     13  C   UNL A   1      31.795  28.742  27.222  1.00  0.00     0.004 A 
ATOM     14  C   UNL A   1      33.771  27.146  26.114  1.00  0.00     0.005 A 
ATOM     15  C   UNL A   1      31.495  27.437  26.816  1.00  0.00     0.005 A 
ENDBRANCH   8   9
BRANCH   8  16
ATOM     16  C   UNL A   1      30.850  25.264  24.759  1.00  0.00     0.022 C 
BRANCH  16  17
ATOM     17  C   UNL A   1      31.037  25.297  23.236  1.00  0.00    -0.010 C 
ATOM     18  C   UNL A   1      31.406  26.660  22.659  1.00  0.00     0.003 C 
ATOM     19  C   UNL A   1      32.232  24.439  22.811  1.00  0.00     0.003 C 
ATOM     20  C   UNL A   1      32.023  26.338  21.301  1.00  0.00     0.000 C 
ATOM     21  C   UNL A   1      32.578  24.920  21.409  1.00  0.00     0.000 C 
ENDBRANCH  16  17
ENDBRANCH   8  16
ENDBRANCH   5   8
ENDBRANCH   3   4
ENDBRANCH   2   3
ENDBRANCH   1   2
BRANCH   1  22
ATOM     22  C   UNL A   1      38.167  23.294  25.839  1.00  0.00     0.116 C 
BRANCH  22  23
ATOM     23  N   UNL A   1      38.922  23.224  27.079  1.00  0.00    -0.352 N 
ATOM     24  C   UNL A   1      40.099  23.972  27.163  1.00  0.00     0.251 C 
ATOM     25  H   UNL A   1      38.615  22.669  27.833  1.00  0.00     0.163 HD
ATOM     26  O   UNL A   1      41.208  23.568  26.858  1.00  0.00    -0.269 OA
BRANCH  24  27
ATOM     27  C   UNL A   1      39.845  25.413  27.395  1.00  0.00     0.039 A 
ATOM     28  C   UNL A   1      40.370  26.408  26.573  1.00  0.00     0.014 A 
ATOM     29  C   UNL A   1      39.241  25.735  28.612  1.00  0.00     0.014 A 
ATOM     30  C   UNL A   1      40.405  27.729  27.041  1.00  0.00     0.010 A 
ATOM     31  C   UNL A   1      39.367  27.012  29.109  1.00  0.00     0.010 A 
ATOM     32  C   UNL A   1      39.966  28.015  28.337  1.00  0.00    -0.014 A 
BRANCH  32  33
ATOM     33  C   UNL A   1      40.158  29.284  29.040  1.00  0.00     0.031 A 
ATOM     34  C   UNL A   1      39.073  30.299  29.105  1.00  0.00     0.074 A 
ATOM     35  C   UNL A   1      41.247  29.453  29.820  1.00  0.00     0.049 A 
ATOM     36  N   UNL A   1      39.244  31.520  29.496  1.00  0.00    -0.248 NA
ATOM     37  C   UNL A   1      37.694  30.014  28.719  1.00  0.00     0.031 C 
ATOM     38  C   UNL A   1      41.402  30.401  30.922  1.00  0.00     0.029 A 
ATOM     39  N   UNL A   1      42.518  28.910  29.661  1.00  0.00    -0.354 N 
ATOM     40  C   UNL A   1      38.005  32.089  29.666  1.00  0.00     0.074 A 
ATOM     41  C   UNL A   1      37.070  31.121  29.134  1.00  0.00     0.031 C 
ATOM     42  C   UNL A   1      42.706  30.556  31.187  1.00  0.00     0.029 A 
ATOM     43  C   UNL A   1      43.448  29.839  30.168  1.00  0.00     0.049 A 
ATOM     44  H   UNL A   1      42.730  28.033  29.265  1.00  0.00     0.167 HD
ATOM     45  C   UNL A   1      37.876  33.270  30.336  1.00  0.00     0.037 A 
ATOM     46  C   UNL A   1      44.379  30.404  29.340  1.00  0.00     0.037 A 
ATOM     47  C   UNL A   1      39.164  33.807  30.758  1.00  0.00     0.049 A 
ATOM     48  C   UNL A   1      44.213  31.896  29.121  1.00  0.00     0.074 A 
ATOM     49  C   UNL A   1      39.881  33.786  31.944  1.00  0.00     0.029 A 
ATOM     50  N   UNL A   1      40.040  34.263  29.792  1.00  0.00    -0.354 N 
ATOM     51  N   UNL A   1      43.305  32.634  29.698  1.00  0.00    -0.248 NA
ATOM     52  C   UNL A   1      45.016  32.662  28.164  1.00  0.00     0.031 C 
ATOM     53  C   UNL A   1      41.214  34.199  31.666  1.00  0.00     0.029 A 
ATOM     54  C   UNL A   1      41.303  34.468  30.313  1.00  0.00     0.049 A 
ATOM     55  H   UNL A   1      39.796  34.420  28.852  1.00  0.00     0.167 HD
ATOM     56  C   UNL A   1      43.317  33.884  29.141  1.00  0.00     0.074 A 
ATOM     57  C   UNL A   1      44.434  33.873  28.218  1.00  0.00     0.031 C 
ATOM     58  C   UNL A   1      42.379  34.832  29.413  1.00  0.00     0.037 A 
BRANCH  45  59
ATOM     59  C   UNL A   1      36.547  33.821  30.788  1.00  0.00     0.058 A 
ATOM     60  C   UNL A   1      35.570  34.218  29.851  1.00  0.00     0.135 A 
ATOM     61  C   UNL A   1      36.190  34.010  32.138  1.00  0.00     0.135 A 
ATOM     62  F   UNL A   1      35.742  34.028  28.536  1.00  0.00    -0.206 F 
ATOM     63  C   UNL A   1      34.383  34.852  30.217  1.00  0.00     0.059 A 
ATOM     64  C   UNL A   1      35.035  34.694  32.528  1.00  0.00     0.059 A 
ATOM     65  F   UNL A   1      36.948  33.512  33.128  1.00  0.00    -0.206 F 
ATOM     66  C   UNL A   1      34.140  35.122  31.557  1.00  0.00     0.060 A 
BRANCH  66  67
ATOM     67  S   UNL A   1      32.663  36.060  31.996  1.00  0.00     0.124 S 
ATOM     68  O   UNL A   1      33.158  36.940  33.052  1.00  0.00    -0.237 OA
ATOM     69  O   UNL A   1      32.331  36.708  30.733  1.00  0.00    -0.237 OA
ATOM     70  O   UNL A   1      31.729  35.030  32.441  1.00  0.00    -0.744 OA
ENDBRANCH  66  67
ENDBRANCH  45  59
BRANCH  46  71
ATOM     71  C   UNL A   1      44.891  29.431  28.335  1.00  0.00     0.058 A 
ATOM     72  C   UNL A   1      45.840  28.492  28.785  1.00  0.00     0.135 A 
ATOM     73  C   UNL A   1      44.135  29.106  27.201  1.00  0.00     0.135 A 
ATOM     74  F   UNL A   1      46.607  28.771  29.852  1.00  0.00    -0.206 F 
ATOM     75  C   UNL A   1      45.881  27.203  28.271  1.00  0.00     0.059 A 
ATOM     76  C   UNL A   1      44.174  27.822  26.659  1.00  0.00     0.059 A 
ATOM     77  F   UNL A   1      43.228  29.970  26.719  1.00  0.00    -0.206 F 
ATOM     78  C   UNL A   1      44.978  26.857  27.268  1.00  0.00     0.060 A 
BRANCH  78  79
ATOM     79  S   UNL A   1      44.732  25.098  26.922  1.00  0.00     0.124 S 
ATOM     80  O   UNL A   1      46.102  24.606  26.839  1.00  0.00    -0.237 OA
ATOM     81  O   UNL A   1      43.971  24.667  28.097  1.00  0.00    -0.237 OA
ATOM     82  O   UNL A   1      43.988  25.106  25.667  1.00  0.00    -0.744 OA
ENDBRANCH  78  79
ENDBRANCH  46  71
BRANCH  58  83
ATOM     83  C   UNL A   1      42.422  36.205  28.824  1.00  0.00     0.058 A 
ATOM     84  C   UNL A   1      41.870  36.472  27.563  1.00  0.00     0.135 A 
ATOM     85  C   UNL A   1      43.144  37.245  29.439  1.00  0.00     0.135 A 
ATOM     86  F   UNL A   1      41.182  35.525  26.906  1.00  0.00    -0.206 F 
ATOM     87  C   UNL A   1      42.026  37.709  26.940  1.00  0.00     0.059 A 
ATOM     88  C   UNL A   1      43.344  38.476  28.822  1.00  0.00     0.059 A 
ATOM     89  F   UNL A   1      43.665  37.090  30.667  1.00  0.00    -0.206 F 
ATOM     90  C   UNL A   1      42.771  38.703  27.574  1.00  0.00     0.060 A 
BRANCH  90  91
ATOM     91  S   UNL A   1      43.031  40.286  26.748  1.00  0.00     0.124 S 
ATOM     92  O   UNL A   1      43.390  41.172  27.851  1.00  0.00    -0.237 OA
ATOM     93  O   UNL A   1      44.113  39.957  25.826  1.00  0.00    -0.237 OA
ATOM     94  O   UNL A   1      41.735  40.556  26.133  1.00  0.00    -0.744 OA
ENDBRANCH  90  91
ENDBRANCH  58  83
ENDBRANCH  32  33
ENDBRANCH  24  27
ENDBRANCH  22  23
ENDBRANCH   1  22
TORSDOF 17
ENDMDL
