MODEL 1
REMARK VINA RESULT:     -11.7      0.000      0.000
REMARK SMILES C[C@@H]1[C@@H](C(=O)NCCCCNC(=O)c2ccc(-c3c4nc(c(-c5c(F)cc(S(=O)(=O)[O-])cc5F)c5ccc([nH]5)c(-c5c(F)cc(S(=O)(=O)[O-])cc5F)c5nc(c(-c6c(F)cc(S(=O)(=O)[O-])cc6F)c6ccc3[nH]6)C=C5)C=C4)cc2)CCN1C(=O)CN1C(=O)CNC1=O
REMARK SMILES IDX 8 1 7 2 6 3 4 4 5 5 3 7 1 8 2 9 82 10 80 11 81 12 83 13
REMARK SMILES IDX 84 14 85 15 86 16 87 17 91 18 88 19 89 20 90 21 92 22 9 24
REMARK SMILES IDX 10 25 11 26 12 27 13 29 14 30 15 31 79 32 16 33 78 34 17 35
REMARK SMILES IDX 18 36 19 37 72 38 20 39 77 40 71 41 73 42 21 43 76 44 70 45
REMARK SMILES IDX 69 46 22 48 56 49 35 50 55 51 36 52 39 53 54 54 74 55 37 56
REMARK SMILES IDX 38 57 53 59 75 60 40 61 23 62 24 63 33 64 25 65 26 66 32 67
REMARK SMILES IDX 34 68 27 69 28 70 29 71 30 72 31 73 57 74 58 75 67 76 59 77
REMARK SMILES IDX 60 78 66 79 68 80 61 81 62 82 63 83 64 84 65 85 41 86 42 87
REMARK SMILES IDX 51 88 43 89 44 90 50 91 52 92 45 93 46 94 47 95 48 96 49 97
REMARK H PARENT 6 6 90 23 11 28 73 47 39 58
REMARK Flexibility Score: inf
ROOT
ATOM      1  C   UNL A   1      38.889  22.536  26.481  1.00  0.00     0.023 C 
ENDROOT
BRANCH   1   2
ATOM      2  C   UNL A   1      38.196  21.718  25.394  1.00  0.00     0.116 C 
BRANCH   2   3
ATOM      3  N   UNL A   1      37.551  22.553  24.404  1.00  0.00    -0.356 N 
ATOM      4  C   UNL A   1      36.270  22.537  23.949  1.00  0.00     0.225 C 
ATOM      5  O   UNL A   1      36.065  23.091  22.864  1.00  0.00    -0.275 OA
ATOM      6  H   UNL A   1      38.130  23.237  23.996  1.00  0.00     0.163 HD
BRANCH   4   7
ATOM      7  C   UNL A   1      35.183  21.710  24.640  1.00  0.00     0.102 C 
ATOM      8  C   UNL A   1      32.903  20.849  23.934  1.00  0.00     0.032 C 
ATOM      9  C   UNL A   1      33.785  22.091  24.084  1.00  0.00     0.094 C 
ATOM     10  N   UNL A   1      33.227  23.022  25.082  1.00  0.00    -0.338 N 
ATOM     11  C   UNL A   1      34.978  21.872  26.150  1.00  0.00     0.037 C 
ATOM     12  C   UNL A   1      34.019  23.036  26.290  1.00  0.00     0.121 C 
BRANCH  10  13
ATOM     13  C   UNL A   1      32.293  24.033  24.898  1.00  0.00     0.243 C 
ATOM     14  O   UNL A   1      31.083  23.800  24.847  1.00  0.00    -0.273 OA
BRANCH  13  15
ATOM     15  C   UNL A   1      32.806  25.464  24.838  1.00  0.00     0.230 C 
BRANCH  15  16
ATOM     16  N   UNL A   1      32.352  26.248  23.707  1.00  0.00    -0.253 N 
ATOM     17  C   UNL A   1      31.260  27.067  23.782  1.00  0.00     0.250 C 
ATOM     18  C   UNL A   1      32.705  26.063  22.403  1.00  0.00     0.325 C 
ATOM     19  O   UNL A   1      30.675  27.407  24.803  1.00  0.00    -0.272 OA
ATOM     20  C   UNL A   1      30.838  27.454  22.375  1.00  0.00     0.218 C 
ATOM     21  N   UNL A   1      31.811  26.740  21.608  1.00  0.00    -0.329 N 
ATOM     22  O   UNL A   1      33.646  25.434  21.959  1.00  0.00    -0.248 OA
ATOM     23  H   UNL A   1      31.838  26.734  20.624  1.00  0.00     0.165 HD
ENDBRANCH  15  16
ENDBRANCH  13  15
ENDBRANCH  10  13
ENDBRANCH   4   7
ENDBRANCH   2   3
ENDBRANCH   1   2
BRANCH   1  24
ATOM     24  C   UNL A   1      40.144  21.902  27.081  1.00  0.00     0.023 C 
BRANCH  24  25
ATOM     25  C   UNL A   1      41.304  22.857  27.343  1.00  0.00     0.116 C 
BRANCH  25  26
ATOM     26  N   UNL A   1      41.613  23.702  26.199  1.00  0.00    -0.352 N 
ATOM     27  C   UNL A   1      41.660  25.072  26.097  1.00  0.00     0.251 C 
ATOM     28  H   UNL A   1      41.819  23.217  25.367  1.00  0.00     0.163 HD
ATOM     29  O   UNL A   1      41.791  25.593  24.993  1.00  0.00    -0.269 OA
BRANCH  27  30
ATOM     30  C   UNL A   1      41.528  25.917  27.304  1.00  0.00     0.039 A 
ATOM     31  C   UNL A   1      42.550  26.815  27.619  1.00  0.00     0.014 A 
ATOM     32  C   UNL A   1      40.402  25.826  28.126  1.00  0.00     0.014 A 
ATOM     33  C   UNL A   1      42.409  27.674  28.712  1.00  0.00     0.010 A 
ATOM     34  C   UNL A   1      40.225  26.738  29.163  1.00  0.00     0.010 A 
ATOM     35  C   UNL A   1      41.227  27.670  29.471  1.00  0.00    -0.014 A 
BRANCH  35  36
ATOM     36  C   UNL A   1      41.020  28.622  30.594  1.00  0.00     0.031 A 
ATOM     37  C   UNL A   1      41.848  28.502  31.847  1.00  0.00     0.074 A 
ATOM     38  C   UNL A   1      40.042  29.548  30.519  1.00  0.00     0.049 A 
ATOM     39  N   UNL A   1      41.758  29.174  32.965  1.00  0.00    -0.248 NA
ATOM     40  C   UNL A   1      42.894  27.467  31.851  1.00  0.00     0.031 C 
ATOM     41  C   UNL A   1      39.139  29.736  29.381  1.00  0.00     0.029 A 
ATOM     42  N   UNL A   1      39.634  30.496  31.424  1.00  0.00    -0.354 N 
ATOM     43  C   UNL A   1      42.719  28.633  33.810  1.00  0.00     0.074 A 
ATOM     44  C   UNL A   1      43.341  27.540  33.096  1.00  0.00     0.031 C 
ATOM     45  C   UNL A   1      38.301  30.751  29.646  1.00  0.00     0.029 A 
ATOM     46  C   UNL A   1      38.577  31.262  30.986  1.00  0.00     0.049 A 
ATOM     47  H   UNL A   1      40.057  30.618  32.304  1.00  0.00     0.167 HD
ATOM     48  C   UNL A   1      43.071  29.025  35.059  1.00  0.00     0.037 A 
ATOM     49  C   UNL A   1      37.905  32.257  31.595  1.00  0.00     0.037 A 
ATOM     50  C   UNL A   1      42.468  30.132  35.755  1.00  0.00     0.049 A 
ATOM     51  C   UNL A   1      38.317  32.681  32.979  1.00  0.00     0.074 A 
ATOM     52  C   UNL A   1      42.788  30.643  37.001  1.00  0.00     0.029 A 
ATOM     53  N   UNL A   1      41.423  30.902  35.263  1.00  0.00    -0.354 N 
ATOM     54  N   UNL A   1      39.265  32.194  33.743  1.00  0.00    -0.248 NA
ATOM     55  C   UNL A   1      37.575  33.798  33.580  1.00  0.00     0.031 C 
ATOM     56  C   UNL A   1      41.910  31.696  37.280  1.00  0.00     0.029 A 
ATOM     57  C   UNL A   1      41.077  31.874  36.186  1.00  0.00     0.049 A 
ATOM     58  H   UNL A   1      40.992  30.775  34.388  1.00  0.00     0.167 HD
ATOM     59  C   UNL A   1      39.257  32.965  34.901  1.00  0.00     0.074 A 
ATOM     60  C   UNL A   1      38.213  33.955  34.733  1.00  0.00     0.031 C 
ATOM     61  C   UNL A   1      40.044  32.864  36.000  1.00  0.00     0.037 A 
BRANCH  48  62
ATOM     62  C   UNL A   1      44.162  28.252  35.749  1.00  0.00     0.058 A 
ATOM     63  C   UNL A   1      45.517  28.589  35.591  1.00  0.00     0.135 A 
ATOM     64  C   UNL A   1      43.853  27.173  36.591  1.00  0.00     0.135 A 
ATOM     65  F   UNL A   1      45.872  29.603  34.785  1.00  0.00    -0.206 F 
ATOM     66  C   UNL A   1      46.526  27.862  36.212  1.00  0.00     0.059 A 
ATOM     67  C   UNL A   1      44.845  26.449  37.248  1.00  0.00     0.059 A 
ATOM     68  F   UNL A   1      42.575  26.806  36.780  1.00  0.00    -0.206 F 
ATOM     69  C   UNL A   1      46.181  26.790  37.037  1.00  0.00     0.060 A 
BRANCH  69  70
ATOM     70  S   UNL A   1      47.503  25.852  37.831  1.00  0.00     0.124 S 
ATOM     71  O   UNL A   1      48.621  26.109  36.929  1.00  0.00    -0.237 OA
ATOM     72  O   UNL A   1      47.589  26.483  39.144  1.00  0.00    -0.237 OA
ATOM     73  O   UNL A   1      46.996  24.483  37.828  1.00  0.00    -0.744 OA
ENDBRANCH  69  70
ENDBRANCH  48  62
BRANCH  49  74
ATOM     74  C   UNL A   1      36.792  32.944  30.886  1.00  0.00     0.058 A 
ATOM     75  C   UNL A   1      35.455  32.653  31.192  1.00  0.00     0.135 A 
ATOM     76  C   UNL A   1      37.040  33.915  29.902  1.00  0.00     0.135 A 
ATOM     77  F   UNL A   1      35.167  31.727  32.120  1.00  0.00    -0.206 F 
ATOM     78  C   UNL A   1      34.402  33.286  30.540  1.00  0.00     0.059 A 
ATOM     79  C   UNL A   1      36.004  34.580  29.253  1.00  0.00     0.059 A 
ATOM     80  F   UNL A   1      38.302  34.243  29.584  1.00  0.00    -0.206 F 
ATOM     81  C   UNL A   1      34.688  34.252  29.574  1.00  0.00     0.060 A 
BRANCH  81  82
ATOM     82  S   UNL A   1      33.313  35.106  28.772  1.00  0.00     0.124 S 
ATOM     83  O   UNL A   1      34.012  36.123  27.995  1.00  0.00    -0.237 OA
ATOM     84  O   UNL A   1      32.689  34.032  28.006  1.00  0.00    -0.237 OA
ATOM     85  O   UNL A   1      32.525  35.602  29.897  1.00  0.00    -0.744 OA
ENDBRANCH  81  82
ENDBRANCH  49  74
BRANCH  61  86
ATOM     86  C   UNL A   1      39.846  33.881  37.089  1.00  0.00     0.058 A 
ATOM     87  C   UNL A   1      40.490  35.128  37.067  1.00  0.00     0.135 A 
ATOM     88  C   UNL A   1      38.957  33.621  38.146  1.00  0.00     0.135 A 
ATOM     89  F   UNL A   1      41.353  35.424  36.083  1.00  0.00    -0.206 F 
ATOM     90  C   UNL A   1      40.278  36.072  38.066  1.00  0.00     0.059 A 
ATOM     91  C   UNL A   1      38.709  34.562  39.140  1.00  0.00     0.059 A 
ATOM     92  F   UNL A   1      38.307  32.449  38.210  1.00  0.00    -0.206 F 
ATOM     93  C   UNL A   1      39.384  35.781  39.099  1.00  0.00     0.060 A 
BRANCH  93  94
ATOM     94  S   UNL A   1      39.094  37.026  40.373  1.00  0.00     0.124 S 
ATOM     95  O   UNL A   1      38.397  36.247  41.391  1.00  0.00    -0.237 OA
ATOM     96  O   UNL A   1      40.451  37.445  40.715  1.00  0.00    -0.237 OA
ATOM     97  O   UNL A   1      38.289  38.032  39.688  1.00  0.00    -0.744 OA
ENDBRANCH  93  94
ENDBRANCH  61  86
ENDBRANCH  35  36
ENDBRANCH  27  30
ENDBRANCH  25  26
ENDBRANCH  24  25
ENDBRANCH   1  24
TORSDOF 17
ENDMDL
MODEL 2
REMARK VINA RESULT:     -11.6      0.241      1.618
REMARK SMILES C[C@@H]1[C@@H](C(=O)NCCCCNC(=O)c2ccc(-c3c4nc(c(-c5c(F)cc(S(=O)(=O)[O-])cc5F)c5ccc([nH]5)c(-c5c(F)cc(S(=O)(=O)[O-])cc5F)c5nc(c(-c6c(F)cc(S(=O)(=O)[O-])cc6F)c6ccc3[nH]6)C=C5)C=C4)cc2)CCN1C(=O)CN1C(=O)CNC1=O
REMARK SMILES IDX 8 1 7 2 6 3 4 4 5 5 3 7 1 8 2 9 82 10 80 11 81 12 83 13
REMARK SMILES IDX 84 14 85 15 86 16 87 17 91 18 88 19 89 20 90 21 92 22 9 24
REMARK SMILES IDX 10 25 11 26 12 27 13 29 14 30 15 31 79 32 16 33 78 34 17 35
REMARK SMILES IDX 18 36 19 37 72 38 20 39 77 40 71 41 73 42 21 43 76 44 70 45
REMARK SMILES IDX 69 46 22 48 56 49 35 50 55 51 36 52 39 53 54 54 74 55 37 56
REMARK SMILES IDX 38 57 53 59 75 60 40 61 23 62 24 63 33 64 25 65 26 66 32 67
REMARK SMILES IDX 34 68 27 69 28 70 29 71 30 72 31 73 57 74 58 75 67 76 59 77
REMARK SMILES IDX 60 78 66 79 68 80 61 81 62 82 63 83 64 84 65 85 41 86 42 87
REMARK SMILES IDX 51 88 43 89 44 90 50 91 52 92 45 93 46 94 47 95 48 96 49 97
REMARK H PARENT 6 6 90 23 11 28 73 47 39 58
REMARK Flexibility Score: inf
ROOT
ATOM      1  C   UNL A   1      38.932  22.656  26.533  1.00  0.00     0.023 C 
ENDROOT
BRANCH   1   2
ATOM      2  C   UNL A   1      38.261  21.799  25.463  1.00  0.00     0.116 C 
BRANCH   2   3
ATOM      3  N   UNL A   1      37.632  22.597  24.433  1.00  0.00    -0.356 N 
ATOM      4  C   UNL A   1      36.364  22.550  23.944  1.00  0.00     0.225 C 
ATOM      5  O   UNL A   1      36.182  23.070  22.839  1.00  0.00    -0.275 OA
ATOM      6  H   UNL A   1      38.212  23.279  24.022  1.00  0.00     0.163 HD
BRANCH   4   7
ATOM      7  C   UNL A   1      35.271  21.725  24.627  1.00  0.00     0.102 C 
ATOM      8  C   UNL A   1      32.958  20.943  23.937  1.00  0.00     0.032 C 
ATOM      9  C   UNL A   1      33.872  22.158  24.111  1.00  0.00     0.094 C 
ATOM     10  N   UNL A   1      33.355  23.068  25.150  1.00  0.00    -0.338 N 
ATOM     11  C   UNL A   1      35.097  21.841  26.146  1.00  0.00     0.037 C 
ATOM     12  C   UNL A   1      34.169  23.022  26.343  1.00  0.00     0.121 C 
BRANCH  10  13
ATOM     13  C   UNL A   1      32.443  24.105  25.019  1.00  0.00     0.243 C 
ATOM     14  O   UNL A   1      31.226  23.918  25.102  1.00  0.00    -0.273 OA
BRANCH  13  15
ATOM     15  C   UNL A   1      32.996  25.513  24.843  1.00  0.00     0.230 C 
BRANCH  15  16
ATOM     16  N   UNL A   1      32.518  26.236  23.682  1.00  0.00    -0.253 N 
ATOM     17  C   UNL A   1      31.432  27.064  23.739  1.00  0.00     0.250 C 
ATOM     18  C   UNL A   1      32.839  25.978  22.382  1.00  0.00     0.325 C 
ATOM     19  O   UNL A   1      30.874  27.463  24.753  1.00  0.00    -0.272 OA
ATOM     20  C   UNL A   1      30.978  27.376  22.323  1.00  0.00     0.218 C 
ATOM     21  N   UNL A   1      31.929  26.616  21.573  1.00  0.00    -0.329 N 
ATOM     22  O   UNL A   1      33.765  25.320  21.951  1.00  0.00    -0.248 OA
ATOM     23  H   UNL A   1      31.932  26.556  20.591  1.00  0.00     0.165 HD
ENDBRANCH  15  16
ENDBRANCH  13  15
ENDBRANCH  10  13
ENDBRANCH   4   7
ENDBRANCH   2   3
ENDBRANCH   1   2
BRANCH   1  24
ATOM     24  C   UNL A   1      40.222  22.084  27.120  1.00  0.00     0.023 C 
BRANCH  24  25
ATOM     25  C   UNL A   1      41.355  23.086  27.323  1.00  0.00     0.116 C 
BRANCH  25  26
ATOM     26  N   UNL A   1      41.559  23.953  26.172  1.00  0.00    -0.352 N 
ATOM     27  C   UNL A   1      41.520  25.324  26.078  1.00  0.00     0.251 C 
ATOM     28  H   UNL A   1      41.754  23.484  25.328  1.00  0.00     0.163 HD
ATOM     29  O   UNL A   1      41.567  25.857  24.972  1.00  0.00    -0.269 OA
BRANCH  27  30
ATOM     30  C   UNL A   1      41.394  26.154  27.296  1.00  0.00     0.039 A 
ATOM     31  C   UNL A   1      42.399  27.078  27.595  1.00  0.00     0.014 A 
ATOM     32  C   UNL A   1      40.292  26.024  28.144  1.00  0.00     0.014 A 
ATOM     33  C   UNL A   1      42.261  27.922  28.699  1.00  0.00     0.010 A 
ATOM     34  C   UNL A   1      40.115  26.921  29.194  1.00  0.00     0.010 A 
ATOM     35  C   UNL A   1      41.099  27.879  29.486  1.00  0.00    -0.014 A 
BRANCH  35  36
ATOM     36  C   UNL A   1      40.893  28.814  30.623  1.00  0.00     0.031 A 
ATOM     37  C   UNL A   1      41.729  28.681  31.870  1.00  0.00     0.074 A 
ATOM     38  C   UNL A   1      39.911  29.736  30.566  1.00  0.00     0.049 A 
ATOM     39  N   UNL A   1      41.642  29.338  32.997  1.00  0.00    -0.248 NA
ATOM     40  C   UNL A   1      42.780  27.651  31.854  1.00  0.00     0.031 C 
ATOM     41  C   UNL A   1      39.001  29.936  29.435  1.00  0.00     0.029 A 
ATOM     42  N   UNL A   1      39.504  30.670  31.485  1.00  0.00    -0.354 N 
ATOM     43  C   UNL A   1      42.610  28.790  33.830  1.00  0.00     0.074 A 
ATOM     44  C   UNL A   1      43.233  27.709  33.098  1.00  0.00     0.031 C 
ATOM     45  C   UNL A   1      38.160  30.943  29.719  1.00  0.00     0.029 A 
ATOM     46  C   UNL A   1      38.441  31.437  31.063  1.00  0.00     0.049 A 
ATOM     47  H   UNL A   1      39.931  30.783  32.365  1.00  0.00     0.167 HD
ATOM     48  C   UNL A   1      42.966  29.166  35.082  1.00  0.00     0.037 A 
ATOM     49  C   UNL A   1      37.768  32.421  31.690  1.00  0.00     0.037 A 
ATOM     50  C   UNL A   1      42.363  30.261  35.796  1.00  0.00     0.049 A 
ATOM     51  C   UNL A   1      38.186  32.828  33.077  1.00  0.00     0.074 A 
ATOM     52  C   UNL A   1      42.686  30.756  37.048  1.00  0.00     0.029 A 
ATOM     53  N   UNL A   1      41.312  31.033  35.321  1.00  0.00    -0.354 N 
ATOM     54  N   UNL A   1      39.139  32.335  33.830  1.00  0.00    -0.248 NA
ATOM     55  C   UNL A   1      37.442  33.934  33.698  1.00  0.00     0.031 C 
ATOM     56  C   UNL A   1      41.805  31.802  37.345  1.00  0.00     0.029 A 
ATOM     57  C   UNL A   1      40.966  31.991  36.259  1.00  0.00     0.049 A 
ATOM     58  H   UNL A   1      40.876  30.916  34.446  1.00  0.00     0.167 HD
ATOM     59  C   UNL A   1      39.134  33.090  34.997  1.00  0.00     0.074 A 
ATOM     60  C   UNL A   1      38.085  34.078  34.849  1.00  0.00     0.031 C 
ATOM     61  C   UNL A   1      39.928  32.978  36.091  1.00  0.00     0.037 A 
BRANCH  48  62
ATOM     62  C   UNL A   1      44.065  28.389  35.755  1.00  0.00     0.058 A 
ATOM     63  C   UNL A   1      43.789  27.291  36.587  1.00  0.00     0.135 A 
ATOM     64  C   UNL A   1      45.411  28.733  35.555  1.00  0.00     0.135 A 
ATOM     65  F   UNL A   1      42.519  26.926  36.826  1.00  0.00    -0.206 F 
ATOM     66  C   UNL A   1      44.804  26.586  37.225  1.00  0.00     0.059 A 
ATOM     67  C   UNL A   1      46.445  28.023  36.160  1.00  0.00     0.059 A 
ATOM     68  F   UNL A   1      45.735  29.772  34.769  1.00  0.00    -0.206 F 
ATOM     69  C   UNL A   1      46.130  26.962  37.009  1.00  0.00     0.060 A 
BRANCH  69  70
ATOM     70  S   UNL A   1      47.436  26.042  37.850  1.00  0.00     0.124 S 
ATOM     71  O   UNL A   1      47.231  24.699  37.319  1.00  0.00    -0.237 OA
ATOM     72  O   UNL A   1      48.643  26.726  37.396  1.00  0.00    -0.237 OA
ATOM     73  O   UNL A   1      47.116  26.214  39.263  1.00  0.00    -0.744 OA
ENDBRANCH  69  70
ENDBRANCH  48  62
BRANCH  49  74
ATOM     74  C   UNL A   1      36.648  33.113  30.996  1.00  0.00     0.058 A 
ATOM     75  C   UNL A   1      36.896  33.996  29.934  1.00  0.00     0.135 A 
ATOM     76  C   UNL A   1      35.312  32.895  31.365  1.00  0.00     0.135 A 
ATOM     77  F   UNL A   1      38.158  34.242  29.548  1.00  0.00    -0.206 F 
ATOM     78  C   UNL A   1      35.863  34.650  29.272  1.00  0.00     0.059 A 
ATOM     79  C   UNL A   1      34.258  33.518  30.702  1.00  0.00     0.059 A 
ATOM     80  F   UNL A   1      35.019  32.047  32.363  1.00  0.00    -0.206 F 
ATOM     81  C   UNL A   1      34.545  34.402  29.662  1.00  0.00     0.060 A 
BRANCH  81  82
ATOM     82  S   UNL A   1      33.208  35.215  28.761  1.00  0.00     0.124 S 
ATOM     83  O   UNL A   1      32.428  35.791  29.849  1.00  0.00    -0.237 OA
ATOM     84  O   UNL A   1      33.936  36.164  27.923  1.00  0.00    -0.237 OA
ATOM     85  O   UNL A   1      32.572  34.115  28.040  1.00  0.00    -0.744 OA
ENDBRANCH  81  82
ENDBRANCH  49  74
BRANCH  61  86
ATOM     86  C   UNL A   1      39.731  33.979  37.195  1.00  0.00     0.058 A 
ATOM     87  C   UNL A   1      38.904  33.716  38.297  1.00  0.00     0.135 A 
ATOM     88  C   UNL A   1      40.425  35.201  37.174  1.00  0.00     0.135 A 
ATOM     89  F   UNL A   1      38.214  32.566  38.365  1.00  0.00    -0.206 F 
ATOM     90  C   UNL A   1      38.751  34.638  39.328  1.00  0.00     0.059 A 
ATOM     91  C   UNL A   1      40.309  36.126  38.206  1.00  0.00     0.059 A 
ATOM     92  F   UNL A   1      41.239  35.499  36.148  1.00  0.00    -0.206 F 
ATOM     93  C   UNL A   1      39.459  35.841  39.274  1.00  0.00     0.060 A 
BRANCH  93  94
ATOM     94  S   UNL A   1      39.276  37.017  40.631  1.00  0.00     0.124 S 
ATOM     95  O   UNL A   1      38.655  36.186  41.657  1.00  0.00    -0.237 OA
ATOM     96  O   UNL A   1      40.658  37.414  40.888  1.00  0.00    -0.237 OA
ATOM     97  O   UNL A   1      38.426  38.059  40.066  1.00  0.00    -0.744 OA
ENDBRANCH  93  94
ENDBRANCH  61  86
ENDBRANCH  35  36
ENDBRANCH  27  30
ENDBRANCH  25  26
ENDBRANCH  24  25
ENDBRANCH   1  24
TORSDOF 17
ENDMDL
MODEL 3
REMARK VINA RESULT:     -11.6      4.660     10.419
REMARK SMILES C[C@@H]1[C@@H](C(=O)NCCCCNC(=O)c2ccc(-c3c4nc(c(-c5c(F)cc(S(=O)(=O)[O-])cc5F)c5ccc([nH]5)c(-c5c(F)cc(S(=O)(=O)[O-])cc5F)c5nc(c(-c6c(F)cc(S(=O)(=O)[O-])cc6F)c6ccc3[nH]6)C=C5)C=C4)cc2)CCN1C(=O)CN1C(=O)CNC1=O
REMARK SMILES IDX 8 1 7 2 6 3 4 4 5 5 3 7 1 8 2 9 82 10 80 11 81 12 83 13
REMARK SMILES IDX 84 14 85 15 86 16 87 17 91 18 88 19 89 20 90 21 92 22 9 24
REMARK SMILES IDX 10 25 11 26 12 27 13 29 14 30 15 31 79 32 16 33 78 34 17 35
REMARK SMILES IDX 18 36 19 37 72 38 20 39 77 40 71 41 73 42 21 43 76 44 70 45
REMARK SMILES IDX 69 46 22 48 56 49 35 50 55 51 36 52 39 53 54 54 74 55 37 56
REMARK SMILES IDX 38 57 53 59 75 60 40 61 23 62 24 63 33 64 25 65 26 66 32 67
REMARK SMILES IDX 34 68 27 69 28 70 29 71 30 72 31 73 57 74 58 75 67 76 59 77
REMARK SMILES IDX 60 78 66 79 68 80 61 81 62 82 63 83 64 84 65 85 41 86 42 87
REMARK SMILES IDX 51 88 43 89 44 90 50 91 52 92 45 93 46 94 47 95 48 96 49 97
REMARK H PARENT 6 6 90 23 11 28 73 47 39 58
REMARK Flexibility Score: inf
ROOT
ATOM      1  C   UNL A   1      32.851  29.211  24.609  1.00  0.00     0.023 C 
ENDROOT
BRANCH   1   2
ATOM      2  C   UNL A   1      31.905  28.529  23.624  1.00  0.00     0.116 C 
BRANCH   2   3
ATOM      3  N   UNL A   1      32.612  27.885  22.539  1.00  0.00    -0.356 N 
ATOM      4  C   UNL A   1      32.877  26.567  22.329  1.00  0.00     0.225 C 
ATOM      5  O   UNL A   1      33.792  26.310  21.542  1.00  0.00    -0.275 OA
ATOM      6  H   UNL A   1      32.956  28.494  21.846  1.00  0.00     0.163 HD
BRANCH   4   7
ATOM      7  C   UNL A   1      32.215  25.473  23.170  1.00  0.00     0.102 C 
ATOM      8  C   UNL A   1      32.462  24.702  25.575  1.00  0.00     0.032 C 
ATOM      9  C   UNL A   1      33.198  24.967  24.259  1.00  0.00     0.094 C 
ATOM     10  N   UNL A   1      33.762  23.721  23.705  1.00  0.00    -0.338 N 
ATOM     11  C   UNL A   1      31.800  24.165  22.487  1.00  0.00     0.037 C 
ATOM     12  C   UNL A   1      33.037  23.292  22.532  1.00  0.00     0.121 C 
BRANCH  10  13
ATOM     13  C   UNL A   1      34.991  23.134  23.969  1.00  0.00     0.243 C 
ATOM     14  O   UNL A   1      35.853  23.006  23.095  1.00  0.00    -0.273 OA
BRANCH  13  15
ATOM     15  C   UNL A   1      35.280  22.715  25.403  1.00  0.00     0.230 C 
BRANCH  15  16
ATOM     16  N   UNL A   1      36.634  22.274  25.670  1.00  0.00    -0.253 N 
ATOM     17  C   UNL A   1      37.618  23.141  26.057  1.00  0.00     0.250 C 
ATOM     18  C   UNL A   1      37.184  21.085  25.291  1.00  0.00     0.325 C 
ATOM     19  O   UNL A   1      37.463  24.299  26.423  1.00  0.00    -0.272 OA
ATOM     20  C   UNL A   1      38.965  22.455  25.905  1.00  0.00     0.218 C 
ATOM     21  N   UNL A   1      38.551  21.184  25.396  1.00  0.00    -0.329 N 
ATOM     22  O   UNL A   1      36.616  20.073  24.931  1.00  0.00    -0.248 OA
ATOM     23  H   UNL A   1      39.174  20.462  25.150  1.00  0.00     0.165 HD
ENDBRANCH  15  16
ENDBRANCH  13  15
ENDBRANCH  10  13
ENDBRANCH   4   7
ENDBRANCH   2   3
ENDBRANCH   1   2
BRANCH   1  24
ATOM     24  C   UNL A   1      33.792  28.278  25.371  1.00  0.00     0.023 C 
BRANCH  24  25
ATOM     25  C   UNL A   1      33.708  28.357  26.893  1.00  0.00     0.116 C 
BRANCH  25  26
ATOM     26  N   UNL A   1      33.587  29.721  27.384  1.00  0.00    -0.352 N 
ATOM     27  C   UNL A   1      34.480  30.489  28.093  1.00  0.00     0.251 C 
ATOM     28  H   UNL A   1      32.731  30.163  27.179  1.00  0.00     0.163 HD
ATOM     29  O   UNL A   1      34.119  31.571  28.549  1.00  0.00    -0.269 OA
BRANCH  27  30
ATOM     30  C   UNL A   1      35.858  30.007  28.331  1.00  0.00     0.039 A 
ATOM     31  C   UNL A   1      36.789  30.072  27.291  1.00  0.00     0.014 A 
ATOM     32  C   UNL A   1      36.235  29.490  29.572  1.00  0.00     0.014 A 
ATOM     33  C   UNL A   1      38.113  29.691  27.518  1.00  0.00     0.010 A 
ATOM     34  C   UNL A   1      37.572  29.191  29.822  1.00  0.00     0.010 A 
ATOM     35  C   UNL A   1      38.526  29.284  28.798  1.00  0.00    -0.014 A 
BRANCH  35  36
ATOM     36  C   UNL A   1      39.944  28.943  29.086  1.00  0.00     0.031 A 
ATOM     37  C   UNL A   1      40.859  29.973  29.696  1.00  0.00     0.074 A 
ATOM     38  C   UNL A   1      40.428  27.734  28.737  1.00  0.00     0.049 A 
ATOM     39  N   UNL A   1      42.142  29.899  29.939  1.00  0.00    -0.248 NA
ATOM     40  C   UNL A   1      40.255  31.268  30.048  1.00  0.00     0.031 C 
ATOM     41  C   UNL A   1      39.658  26.665  28.096  1.00  0.00     0.029 A 
ATOM     42  N   UNL A   1      41.689  27.204  28.859  1.00  0.00    -0.354 N 
ATOM     43  C   UNL A   1      42.501  31.139  30.453  1.00  0.00     0.074 A 
ATOM     44  C   UNL A   1      41.314  31.965  30.433  1.00  0.00     0.031 C 
ATOM     45  C   UNL A   1      40.456  25.602  27.903  1.00  0.00     0.029 A 
ATOM     46  C   UNL A   1      41.801  25.923  28.369  1.00  0.00     0.049 A 
ATOM     47  H   UNL A   1      42.443  27.694  29.259  1.00  0.00     0.167 HD
ATOM     48  C   UNL A   1      43.705  31.548  30.923  1.00  0.00     0.037 A 
ATOM     49  C   UNL A   1      42.868  25.103  28.298  1.00  0.00     0.037 A 
ATOM     50  C   UNL A   1      44.877  30.713  30.967  1.00  0.00     0.049 A 
ATOM     51  C   UNL A   1      44.193  25.574  28.832  1.00  0.00     0.074 A 
ATOM     52  C   UNL A   1      46.131  31.015  31.471  1.00  0.00     0.029 A 
ATOM     53  N   UNL A   1      44.941  29.411  30.491  1.00  0.00    -0.354 N 
ATOM     54  N   UNL A   1      44.503  26.732  29.365  1.00  0.00    -0.248 NA
ATOM     55  C   UNL A   1      45.313  24.624  28.765  1.00  0.00     0.031 C 
ATOM     56  C   UNL A   1      46.963  29.909  31.264  1.00  0.00     0.029 A 
ATOM     57  C   UNL A   1      46.215  28.901  30.677  1.00  0.00     0.049 A 
ATOM     58  H   UNL A   1      44.191  28.923  30.080  1.00  0.00     0.167 HD
ATOM     59  C   UNL A   1      45.842  26.638  29.728  1.00  0.00     0.074 A 
ATOM     60  C   UNL A   1      46.282  25.309  29.359  1.00  0.00     0.031 C 
ATOM     61  C   UNL A   1      46.634  27.568  30.317  1.00  0.00     0.037 A 
BRANCH  48  62
ATOM     62  C   UNL A   1      43.810  32.960  31.432  1.00  0.00     0.058 A 
ATOM     63  C   UNL A   1      43.516  33.286  32.767  1.00  0.00     0.135 A 
ATOM     64  C   UNL A   1      44.224  33.998  30.582  1.00  0.00     0.135 A 
ATOM     65  F   UNL A   1      43.101  32.336  33.619  1.00  0.00    -0.206 F 
ATOM     66  C   UNL A   1      43.594  34.595  33.231  1.00  0.00     0.059 A 
ATOM     67  C   UNL A   1      44.338  35.311  31.034  1.00  0.00     0.059 A 
ATOM     68  F   UNL A   1      44.519  33.745  29.298  1.00  0.00    -0.206 F 
ATOM     69  C   UNL A   1      44.002  35.602  32.355  1.00  0.00     0.060 A 
BRANCH  69  70
ATOM     70  S   UNL A   1      44.090  37.296  32.971  1.00  0.00     0.124 S 
ATOM     71  O   UNL A   1      45.465  37.356  33.459  1.00  0.00    -0.237 OA
ATOM     72  O   UNL A   1      43.809  38.080  31.772  1.00  0.00    -0.237 OA
ATOM     73  O   UNL A   1      43.057  37.338  34.001  1.00  0.00    -0.744 OA
ENDBRANCH  69  70
ENDBRANCH  48  62
BRANCH  49  74
ATOM     74  C   UNL A   1      42.717  23.737  27.726  1.00  0.00     0.058 A 
ATOM     75  C   UNL A   1      42.426  22.640  28.552  1.00  0.00     0.135 A 
ATOM     76  C   UNL A   1      42.843  23.502  26.349  1.00  0.00     0.135 A 
ATOM     77  F   UNL A   1      42.303  22.813  29.877  1.00  0.00    -0.206 F 
ATOM     78  C   UNL A   1      42.280  21.358  28.035  1.00  0.00     0.059 A 
ATOM     79  C   UNL A   1      42.677  22.232  25.805  1.00  0.00     0.059 A 
ATOM     80  F   UNL A   1      43.104  24.520  25.514  1.00  0.00    -0.206 F 
ATOM     81  C   UNL A   1      42.404  21.164  26.659  1.00  0.00     0.060 A 
BRANCH  81  82
ATOM     82  S   UNL A   1      42.159  19.502  25.993  1.00  0.00     0.124 S 
ATOM     83  O   UNL A   1      42.991  19.540  24.796  1.00  0.00    -0.237 OA
ATOM     84  O   UNL A   1      42.643  18.661  27.083  1.00  0.00    -0.237 OA
ATOM     85  O   UNL A   1      40.718  19.444  25.759  1.00  0.00    -0.744 OA
ENDBRANCH  81  82
ENDBRANCH  49  74
BRANCH  61  86
ATOM     86  C   UNL A   1      48.045  27.167  30.649  1.00  0.00     0.058 A 
ATOM     87  C   UNL A   1      49.079  27.239  29.703  1.00  0.00     0.135 A 
ATOM     88  C   UNL A   1      48.375  26.754  31.950  1.00  0.00     0.135 A 
ATOM     89  F   UNL A   1      48.817  27.622  28.443  1.00  0.00    -0.206 F 
ATOM     90  C   UNL A   1      50.386  26.892  30.028  1.00  0.00     0.059 A 
ATOM     91  C   UNL A   1      49.680  26.429  32.305  1.00  0.00     0.059 A 
ATOM     92  F   UNL A   1      47.426  26.679  32.897  1.00  0.00    -0.206 F 
ATOM     93  C   UNL A   1      50.678  26.488  31.333  1.00  0.00     0.060 A 
BRANCH  93  94
ATOM     94  S   UNL A   1      52.383  26.070  31.751  1.00  0.00     0.124 S 
ATOM     95  O   UNL A   1      53.097  26.528  30.564  1.00  0.00    -0.237 OA
ATOM     96  O   UNL A   1      52.607  26.850  32.966  1.00  0.00    -0.237 OA
ATOM     97  O   UNL A   1      52.341  24.624  31.942  1.00  0.00    -0.744 OA
ENDBRANCH  93  94
ENDBRANCH  61  86
ENDBRANCH  35  36
ENDBRANCH  27  30
ENDBRANCH  25  26
ENDBRANCH  24  25
ENDBRANCH   1  24
TORSDOF 17
ENDMDL
