MODEL 1
REMARK VINA RESULT:     -11.9      0.000      0.000
REMARK SMILES Cc1onc(-c2ccccc2)c1C(=O)N1CCC[C@@H]1C(=O)NCCCCNC(=O)c1ccc(-c2c3nc(c(-c4c(F)cc(S(=O)(=O)[O-])cc4F)c4ccc([nH]4)c(-c4c(F)cc(S(=O)(=O)[O-])cc4F)c4nc(c(-c5c(F)cc(S(=O)(=O)[O-])cc5F)c5ccc2[nH]5)C=C4)C=C3)cc1
REMARK SMILES IDX 24 1 23 2 22 3 20 4 21 5 19 7 15 8 16 9 17 10 18 11 13 12
REMARK SMILES IDX 14 13 12 14 1 15 2 16 3 17 4 18 5 19 6 20 7 21 11 22 8 23
REMARK SMILES IDX 10 24 9 25 25 26 26 27 27 28 28 29 29 31 30 32 31 33 95 34
REMARK SMILES IDX 32 35 94 36 33 37 34 38 35 39 88 40 36 41 93 42 87 43 89 44
REMARK SMILES IDX 37 45 92 46 86 47 85 48 38 50 72 51 51 52 71 53 52 54 55 55
REMARK SMILES IDX 70 56 90 57 53 58 54 59 69 61 91 62 56 63 39 64 40 65 49 66
REMARK SMILES IDX 41 67 42 68 48 69 50 70 43 71 44 72 45 73 46 74 47 75 73 76
REMARK SMILES IDX 74 77 83 78 75 79 76 80 82 81 84 82 77 83 78 84 79 85 80 86
REMARK SMILES IDX 81 87 57 88 58 89 67 90 59 91 60 92 66 93 68 94 61 95 62 96
REMARK SMILES IDX 63 97 64 98 65 99
REMARK H PARENT 22 6 27 30 89 49 55 60
REMARK Flexibility Score: inf
ROOT
ATOM      1  C   UNL A   1      33.462  26.485  26.131  1.00  0.00     0.023 C 
ENDROOT
BRANCH   1   2
ATOM      2  C   UNL A   1      34.314  25.821  25.055  1.00  0.00     0.116 C 
BRANCH   2   3
ATOM      3  N   UNL A   1      34.004  26.301  23.730  1.00  0.00    -0.354 N 
ATOM      4  C   UNL A   1      33.651  25.603  22.613  1.00  0.00     0.242 C 
ATOM      5  O   UNL A   1      33.638  26.224  21.544  1.00  0.00    -0.273 OA
ATOM      6  H   UNL A   1      34.056  27.278  23.616  1.00  0.00     0.163 HD
BRANCH   4   7
ATOM      7  C   UNL A   1      33.476  24.066  22.616  1.00  0.00     0.174 C 
ATOM      8  N   UNL A   1      32.650  23.475  23.673  1.00  0.00    -0.326 N 
ATOM      9  C   UNL A   1      33.177  22.166  24.015  1.00  0.00     0.121 C 
ATOM     10  C   UNL A   1      34.677  22.343  23.872  1.00  0.00     0.024 C 
ATOM     11  C   UNL A   1      34.832  23.350  22.729  1.00  0.00     0.037 C 
BRANCH   8  12
ATOM     12  C   UNL A   1      31.310  23.831  23.740  1.00  0.00     0.260 C 
ATOM     13  O   UNL A   1      30.643  23.881  22.709  1.00  0.00    -0.269 OA
BRANCH  12  14
ATOM     14  C   UNL A   1      30.726  24.215  25.018  1.00  0.00     0.110 A 
ATOM     15  C   UNL A   1      31.375  22.397  26.869  1.00  0.00     0.092 C 
ATOM     16  C   UNL A   1      30.787  23.607  26.263  1.00  0.00     0.147 A 
ATOM     17  O   UNL A   1      30.182  24.407  27.183  1.00  0.00    -0.360 OA
ATOM     18  N   UNL A   1      29.740  25.558  26.593  1.00  0.00    -0.079 NA
ATOM     19  C   UNL A   1      30.079  25.468  25.301  1.00  0.00     0.126 A 
BRANCH  19  20
ATOM     20  C   UNL A   1      29.773  26.574  24.405  1.00  0.00     0.004 A 
ATOM     21  C   UNL A   1      30.772  27.492  24.053  1.00  0.00     0.010 A 
ATOM     22  C   UNL A   1      28.469  26.755  23.929  1.00  0.00     0.010 A 
ATOM     23  C   UNL A   1      30.469  28.578  23.230  1.00  0.00     0.001 A 
ATOM     24  C   UNL A   1      28.169  27.846  23.110  1.00  0.00     0.001 A 
ATOM     25  C   UNL A   1      29.167  28.755  22.761  1.00  0.00     0.000 A 
ENDBRANCH  19  20
ENDBRANCH  12  14
ENDBRANCH   8  12
ENDBRANCH   4   7
ENDBRANCH   2   3
ENDBRANCH   1   2
BRANCH   1  26
ATOM     26  C   UNL A   1      33.691  27.985  26.307  1.00  0.00     0.023 C 
BRANCH  26  27
ATOM     27  C   UNL A   1      33.309  28.558  27.670  1.00  0.00     0.116 C 
BRANCH  27  28
ATOM     28  N   UNL A   1      33.406  30.010  27.740  1.00  0.00    -0.352 N 
ATOM     29  C   UNL A   1      34.512  30.787  28.008  1.00  0.00     0.251 C 
ATOM     30  H   UNL A   1      32.569  30.503  27.574  1.00  0.00     0.163 HD
ATOM     31  O   UNL A   1      34.402  32.004  28.098  1.00  0.00    -0.269 OA
BRANCH  29  32
ATOM     32  C   UNL A   1      35.815  30.129  28.235  1.00  0.00     0.039 A 
ATOM     33  C   UNL A   1      36.722  30.054  27.175  1.00  0.00     0.014 A 
ATOM     34  C   UNL A   1      36.163  29.659  29.505  1.00  0.00     0.014 A 
ATOM     35  C   UNL A   1      38.020  29.598  27.412  1.00  0.00     0.010 A 
ATOM     36  C   UNL A   1      37.471  29.249  29.749  1.00  0.00     0.010 A 
ATOM     37  C   UNL A   1      38.417  29.242  28.712  1.00  0.00    -0.014 A 
BRANCH  37  38
ATOM     38  C   UNL A   1      39.831  28.925  29.025  1.00  0.00     0.031 A 
ATOM     39  C   UNL A   1      40.735  29.976  29.597  1.00  0.00     0.074 A 
ATOM     40  C   UNL A   1      40.321  27.713  28.698  1.00  0.00     0.049 A 
ATOM     41  N   UNL A   1      42.026  29.928  29.804  1.00  0.00    -0.248 NA
ATOM     42  C   UNL A   1      40.110  31.256  29.963  1.00  0.00     0.031 C 
ATOM     43  C   UNL A   1      39.553  26.621  28.096  1.00  0.00     0.029 A 
ATOM     44  N   UNL A   1      41.590  27.203  28.808  1.00  0.00    -0.354 N 
ATOM     45  C   UNL A   1      42.375  31.179  30.295  1.00  0.00     0.074 A 
ATOM     46  C   UNL A   1      41.161  31.968  30.343  1.00  0.00     0.031 C 
ATOM     47  C   UNL A   1      40.362  25.568  27.900  1.00  0.00     0.029 A 
ATOM     48  C   UNL A   1      41.712  25.920  28.331  1.00  0.00     0.049 A 
ATOM     49  H   UNL A   1      42.343  27.709  29.191  1.00  0.00     0.167 HD
ATOM     50  C   UNL A   1      43.595  31.625  30.678  1.00  0.00     0.037 A 
ATOM     51  C   UNL A   1      42.792  25.120  28.240  1.00  0.00     0.037 A 
ATOM     52  C   UNL A   1      44.794  30.831  30.662  1.00  0.00     0.049 A 
ATOM     53  C   UNL A   1      44.127  25.626  28.703  1.00  0.00     0.074 A 
ATOM     54  C   UNL A   1      46.068  31.182  31.076  1.00  0.00     0.029 A 
ATOM     55  N   UNL A   1      44.867  29.521  30.213  1.00  0.00    -0.354 N 
ATOM     56  N   UNL A   1      44.435  26.804  29.189  1.00  0.00    -0.248 NA
ATOM     57  C   UNL A   1      45.261  24.698  28.602  1.00  0.00     0.031 C 
ATOM     58  C   UNL A   1      46.914  30.085  30.867  1.00  0.00     0.029 A 
ATOM     59  C   UNL A   1      46.163  29.048  30.337  1.00  0.00     0.049 A 
ATOM     60  H   UNL A   1      44.108  29.002  29.859  1.00  0.00     0.167 HD
ATOM     61  C   UNL A   1      45.796  26.756  29.462  1.00  0.00     0.074 A 
ATOM     62  C   UNL A   1      46.251  25.431  29.094  1.00  0.00     0.031 C 
ATOM     63  C   UNL A   1      46.595  27.724  29.971  1.00  0.00     0.037 A 
BRANCH  50  64
ATOM     64  C   UNL A   1      43.682  33.047  31.144  1.00  0.00     0.058 A 
ATOM     65  C   UNL A   1      44.002  34.087  30.258  1.00  0.00     0.135 A 
ATOM     66  C   UNL A   1      43.452  33.373  32.490  1.00  0.00     0.135 A 
ATOM     67  F   UNL A   1      44.247  33.821  28.966  1.00  0.00    -0.206 F 
ATOM     68  C   UNL A   1      44.122  35.401  30.697  1.00  0.00     0.059 A 
ATOM     69  C   UNL A   1      43.551  34.683  32.948  1.00  0.00     0.059 A 
ATOM     70  F   UNL A   1      43.148  32.411  33.376  1.00  0.00    -0.206 F 
ATOM     71  C   UNL A   1      43.906  35.687  32.046  1.00  0.00     0.060 A 
BRANCH  71  72
ATOM     72  S   UNL A   1      44.086  37.390  32.619  1.00  0.00     0.124 S 
ATOM     73  O   UNL A   1      45.464  37.386  33.102  1.00  0.00    -0.237 OA
ATOM     74  O   UNL A   1      43.843  38.164  31.406  1.00  0.00    -0.237 OA
ATOM     75  O   UNL A   1      43.057  37.507  33.648  1.00  0.00    -0.744 OA
ENDBRANCH  71  72
ENDBRANCH  50  64
BRANCH  51  76
ATOM     76  C   UNL A   1      42.644  23.748  27.699  1.00  0.00     0.058 A 
ATOM     77  C   UNL A   1      42.512  22.653  28.564  1.00  0.00     0.135 A 
ATOM     78  C   UNL A   1      42.596  23.509  26.319  1.00  0.00     0.135 A 
ATOM     79  F   UNL A   1      42.555  22.838  29.892  1.00  0.00    -0.206 F 
ATOM     80  C   UNL A   1      42.339  21.361  28.079  1.00  0.00     0.059 A 
ATOM     81  C   UNL A   1      42.412  22.227  25.809  1.00  0.00     0.059 A 
ATOM     82  F   UNL A   1      42.703  24.530  25.456  1.00  0.00    -0.206 F 
ATOM     83  C   UNL A   1      42.289  21.158  26.698  1.00  0.00     0.060 A 
BRANCH  83  84
ATOM     84  S   UNL A   1      41.991  19.492  26.069  1.00  0.00     0.124 S 
ATOM     85  O   UNL A   1      42.409  18.673  27.200  1.00  0.00    -0.237 OA
ATOM     86  O   UNL A   1      40.558  19.512  25.790  1.00  0.00    -0.237 OA
ATOM     87  O   UNL A   1      42.848  19.428  24.888  1.00  0.00    -0.744 OA
ENDBRANCH  83  84
ENDBRANCH  51  76
BRANCH  63  88
ATOM     88  C   UNL A   1      48.039  27.379  30.175  1.00  0.00     0.058 A 
ATOM     89  C   UNL A   1      48.993  27.620  29.175  1.00  0.00     0.135 A 
ATOM     90  C   UNL A   1      48.479  26.849  31.397  1.00  0.00     0.135 A 
ATOM     91  F   UNL A   1      48.615  28.118  27.987  1.00  0.00    -0.206 F 
ATOM     92  C   UNL A   1      50.339  27.336  29.377  1.00  0.00     0.059 A 
ATOM     93  C   UNL A   1      49.822  26.569  31.624  1.00  0.00     0.059 A 
ATOM     94  F   UNL A   1      47.601  26.605  32.382  1.00  0.00    -0.206 F 
ATOM     95  C   UNL A   1      50.745  26.809  30.605  1.00  0.00     0.060 A 
BRANCH  95  96
ATOM     96  S   UNL A   1      52.499  26.481  30.882  1.00  0.00     0.124 S 
ATOM     97  O   UNL A   1      52.985  26.321  29.516  1.00  0.00    -0.237 OA
ATOM     98  O   UNL A   1      52.944  27.686  31.576  1.00  0.00    -0.237 OA
ATOM     99  O   UNL A   1      52.487  25.268  31.694  1.00  0.00    -0.744 OA
ENDBRANCH  95  96
ENDBRANCH  63  88
ENDBRANCH  37  38
ENDBRANCH  29  32
ENDBRANCH  27  28
ENDBRANCH  26  27
ENDBRANCH   1  26
TORSDOF 17
ENDMDL
MODEL 2
REMARK VINA RESULT:     -11.8      4.577     10.074
REMARK SMILES Cc1onc(-c2ccccc2)c1C(=O)N1CCC[C@@H]1C(=O)NCCCCNC(=O)c1ccc(-c2c3nc(c(-c4c(F)cc(S(=O)(=O)[O-])cc4F)c4ccc([nH]4)c(-c4c(F)cc(S(=O)(=O)[O-])cc4F)c4nc(c(-c5c(F)cc(S(=O)(=O)[O-])cc5F)c5ccc2[nH]5)C=C4)C=C3)cc1
REMARK SMILES IDX 24 1 23 2 22 3 20 4 21 5 19 7 15 8 16 9 17 10 18 11 13 12
REMARK SMILES IDX 14 13 12 14 1 15 2 16 3 17 4 18 5 19 6 20 7 21 11 22 8 23
REMARK SMILES IDX 10 24 9 25 25 26 26 27 27 28 28 29 29 31 30 32 31 33 95 34
REMARK SMILES IDX 32 35 94 36 33 37 34 38 35 39 88 40 36 41 93 42 87 43 89 44
REMARK SMILES IDX 37 45 92 46 86 47 85 48 38 50 72 51 51 52 71 53 52 54 55 55
REMARK SMILES IDX 70 56 90 57 53 58 54 59 69 61 91 62 56 63 39 64 40 65 49 66
REMARK SMILES IDX 41 67 42 68 48 69 50 70 43 71 44 72 45 73 46 74 47 75 73 76
REMARK SMILES IDX 74 77 83 78 75 79 76 80 82 81 84 82 77 83 78 84 79 85 80 86
REMARK SMILES IDX 81 87 57 88 58 89 67 90 59 91 60 92 66 93 68 94 61 95 62 96
REMARK SMILES IDX 63 97 64 98 65 99
REMARK H PARENT 22 6 27 30 89 49 55 60
REMARK Flexibility Score: inf
ROOT
ATOM      1  C   UNL A   1      36.887  21.872  25.186  1.00  0.00     0.023 C 
ENDROOT
BRANCH   1   2
ATOM      2  C   UNL A   1      35.409  21.498  25.181  1.00  0.00     0.116 C 
BRANCH   2   3
ATOM      3  N   UNL A   1      34.822  21.552  26.498  1.00  0.00    -0.354 N 
ATOM      4  C   UNL A   1      33.604  22.029  26.888  1.00  0.00     0.242 C 
ATOM      5  O   UNL A   1      33.415  22.155  28.102  1.00  0.00    -0.273 OA
ATOM      6  H   UNL A   1      35.383  21.193  27.222  1.00  0.00     0.163 HD
BRANCH   4   7
ATOM      7  C   UNL A   1      32.572  22.590  25.881  1.00  0.00     0.174 C 
ATOM      8  N   UNL A   1      32.432  24.046  25.788  1.00  0.00    -0.326 N 
ATOM      9  C   UNL A   1      31.053  24.374  25.477  1.00  0.00     0.121 C 
ATOM     10  C   UNL A   1      30.262  23.320  26.231  1.00  0.00     0.024 C 
ATOM     11  C   UNL A   1      31.155  22.077  26.190  1.00  0.00     0.037 C 
BRANCH   8  12
ATOM     12  C   UNL A   1      33.533  24.790  25.384  1.00  0.00     0.260 C 
ATOM     13  O   UNL A   1      34.423  25.044  26.193  1.00  0.00    -0.269 OA
BRANCH  12  14
ATOM     14  C   UNL A   1      33.587  25.327  24.031  1.00  0.00     0.110 A 
ATOM     15  C   UNL A   1      33.936  23.321  22.297  1.00  0.00     0.092 C 
ATOM     16  C   UNL A   1      33.742  24.692  22.808  1.00  0.00     0.147 A 
ATOM     17  O   UNL A   1      33.610  25.605  21.808  1.00  0.00    -0.360 OA
ATOM     18  N   UNL A   1      33.335  26.840  22.327  1.00  0.00    -0.079 NA
ATOM     19  C   UNL A   1      33.296  26.686  23.657  1.00  0.00     0.126 A 
BRANCH  19  20
ATOM     20  C   UNL A   1      32.984  27.831  24.499  1.00  0.00     0.004 A 
ATOM     21  C   UNL A   1      31.690  28.369  24.503  1.00  0.00     0.010 A 
ATOM     22  C   UNL A   1      33.985  28.430  25.272  1.00  0.00     0.010 A 
ATOM     23  C   UNL A   1      31.401  29.495  25.277  1.00  0.00     0.001 A 
ATOM     24  C   UNL A   1      33.693  29.561  26.040  1.00  0.00     0.001 A 
ATOM     25  C   UNL A   1      32.404  30.091  26.042  1.00  0.00     0.000 A 
ENDBRANCH  19  20
ENDBRANCH  12  14
ENDBRANCH   8  12
ENDBRANCH   4   7
ENDBRANCH   2   3
ENDBRANCH   1   2
BRANCH   1  26
ATOM     26  C   UNL A   1      37.179  23.369  25.116  1.00  0.00     0.023 C 
BRANCH  26  27
ATOM     27  C   UNL A   1      38.044  23.930  26.244  1.00  0.00     0.116 C 
BRANCH  27  28
ATOM     28  N   UNL A   1      39.452  23.574  26.130  1.00  0.00    -0.352 N 
ATOM     29  C   UNL A   1      40.549  24.222  26.654  1.00  0.00     0.251 C 
ATOM     30  H   UNL A   1      39.646  22.761  25.609  1.00  0.00     0.163 HD
ATOM     31  O   UNL A   1      41.680  23.822  26.401  1.00  0.00    -0.269 OA
BRANCH  29  32
ATOM     32  C   UNL A   1      40.345  25.431  27.478  1.00  0.00     0.039 A 
ATOM     33  C   UNL A   1      39.384  25.398  28.492  1.00  0.00     0.014 A 
ATOM     34  C   UNL A   1      41.147  26.561  27.296  1.00  0.00     0.014 A 
ATOM     35  C   UNL A   1      39.296  26.461  29.391  1.00  0.00     0.010 A 
ATOM     36  C   UNL A   1      41.090  27.599  28.222  1.00  0.00     0.010 A 
ATOM     37  C   UNL A   1      40.184  27.544  29.293  1.00  0.00    -0.014 A 
BRANCH  37  38
ATOM     38  C   UNL A   1      40.232  28.598  30.334  1.00  0.00     0.031 A 
ATOM     39  C   UNL A   1      41.189  28.485  31.484  1.00  0.00     0.074 A 
ATOM     40  C   UNL A   1      39.340  29.607  30.291  1.00  0.00     0.049 A 
ATOM     41  N   UNL A   1      41.278  29.229  32.556  1.00  0.00    -0.248 NA
ATOM     42  C   UNL A   1      42.155  27.378  31.432  1.00  0.00     0.031 C 
ATOM     43  C   UNL A   1      38.330  29.803  29.248  1.00  0.00     0.029 A 
ATOM     44  N   UNL A   1      39.124  30.648  31.159  1.00  0.00    -0.354 N 
ATOM     45  C   UNL A   1      42.289  28.664  33.323  1.00  0.00     0.074 A 
ATOM     46  C   UNL A   1      42.773  27.507  32.597  1.00  0.00     0.031 C 
ATOM     47  C   UNL A   1      37.612  30.901  29.530  1.00  0.00     0.029 A 
ATOM     48  C   UNL A   1      38.086  31.468  30.789  1.00  0.00     0.049 A 
ATOM     49  H   UNL A   1      39.663  30.793  31.971  1.00  0.00     0.167 HD
ATOM     50  C   UNL A   1      42.773  29.076  34.518  1.00  0.00     0.037 A 
ATOM     51  C   UNL A   1      37.566  32.550  31.401  1.00  0.00     0.037 A 
ATOM     52  C   UNL A   1      42.316  30.244  35.222  1.00  0.00     0.049 A 
ATOM     53  C   UNL A   1      38.143  33.007  32.708  1.00  0.00     0.074 A 
ATOM     54  C   UNL A   1      42.779  30.768  36.417  1.00  0.00     0.029 A 
ATOM     55  N   UNL A   1      41.292  31.074  34.793  1.00  0.00    -0.354 N 
ATOM     56  N   UNL A   1      39.117  32.476  33.407  1.00  0.00    -0.248 NA
ATOM     57  C   UNL A   1      37.550  34.208  33.312  1.00  0.00     0.031 C 
ATOM     58  C   UNL A   1      42.026  31.911  36.715  1.00  0.00     0.029 A 
ATOM     59  C   UNL A   1      41.105  32.106  35.697  1.00  0.00     0.049 A 
ATOM     60  H   UNL A   1      40.773  30.949  33.965  1.00  0.00     0.167 HD
ATOM     61  C   UNL A   1      39.261  33.283  34.528  1.00  0.00     0.074 A 
ATOM     62  C   UNL A   1      38.280  34.342  34.412  1.00  0.00     0.031 C 
ATOM     63  C   UNL A   1      40.128  33.154  35.562  1.00  0.00     0.037 A 
BRANCH  50  64
ATOM     64  C   UNL A   1      43.858  28.245  35.134  1.00  0.00     0.058 A 
ATOM     65  C   UNL A   1      45.210  28.472  34.837  1.00  0.00     0.135 A 
ATOM     66  C   UNL A   1      43.543  27.205  36.023  1.00  0.00     0.135 A 
ATOM     67  F   UNL A   1      45.558  29.444  33.978  1.00  0.00    -0.206 F 
ATOM     68  C   UNL A   1      46.214  27.677  35.377  1.00  0.00     0.059 A 
ATOM     69  C   UNL A   1      44.533  26.407  36.588  1.00  0.00     0.059 A 
ATOM     70  F   UNL A   1      42.263  26.946  36.335  1.00  0.00    -0.206 F 
ATOM     71  C   UNL A   1      45.865  26.639  36.243  1.00  0.00     0.060 A 
BRANCH  71  72
ATOM     72  S   UNL A   1      47.168  25.591  36.923  1.00  0.00     0.124 S 
ATOM     73  O   UNL A   1      48.272  26.540  37.032  1.00  0.00    -0.237 OA
ATOM     74  O   UNL A   1      46.593  25.142  38.186  1.00  0.00    -0.237 OA
ATOM     75  O   UNL A   1      47.326  24.554  35.908  1.00  0.00    -0.744 OA
ENDBRANCH  71  72
ENDBRANCH  50  64
BRANCH  51  76
ATOM     76  C   UNL A   1      36.443  33.281  30.766  1.00  0.00     0.058 A 
ATOM     77  C   UNL A   1      35.143  33.172  31.280  1.00  0.00     0.135 A 
ATOM     78  C   UNL A   1      36.650  34.124  29.666  1.00  0.00     0.135 A 
ATOM     79  F   UNL A   1      34.901  32.374  32.331  1.00  0.00    -0.206 F 
ATOM     80  C   UNL A   1      34.081  33.874  30.722  1.00  0.00     0.059 A 
ATOM     81  C   UNL A   1      35.606  34.846  29.097  1.00  0.00     0.059 A 
ATOM     82  F   UNL A   1      37.881  34.269  29.153  1.00  0.00    -0.206 F 
ATOM     83  C   UNL A   1      34.322  34.711  29.630  1.00  0.00     0.060 A 
BRANCH  83  84
ATOM     84  S   UNL A   1      32.958  35.680  28.951  1.00  0.00     0.124 S 
ATOM     85  O   UNL A   1      33.665  36.815  28.370  1.00  0.00    -0.237 OA
ATOM     86  O   UNL A   1      32.353  34.750  28.003  1.00  0.00    -0.237 OA
ATOM     87  O   UNL A   1      32.146  35.974  30.129  1.00  0.00    -0.744 OA
ENDBRANCH  83  84
ENDBRANCH  51  76
BRANCH  63  88
ATOM     88  C   UNL A   1      40.065  34.195  36.638  1.00  0.00     0.058 A 
ATOM     89  C   UNL A   1      40.844  35.360  36.569  1.00  0.00     0.135 A 
ATOM     90  C   UNL A   1      39.185  34.048  37.721  1.00  0.00     0.135 A 
ATOM     91  F   UNL A   1      41.705  35.538  35.556  1.00  0.00    -0.206 F 
ATOM     92  C   UNL A   1      40.758  36.345  37.547  1.00  0.00     0.059 A 
ATOM     93  C   UNL A   1      39.076  35.026  38.703  1.00  0.00     0.059 A 
ATOM     94  F   UNL A   1      38.420  32.951  37.825  1.00  0.00    -0.206 F 
ATOM     95  C   UNL A   1      39.872  36.168  38.612  1.00  0.00     0.060 A 
BRANCH  95  96
ATOM     96  S   UNL A   1      39.730  37.467  39.858  1.00  0.00     0.124 S 
ATOM     97  O   UNL A   1      38.528  38.166  39.416  1.00  0.00    -0.237 OA
ATOM     98  O   UNL A   1      39.601  36.709  41.099  1.00  0.00    -0.237 OA
ATOM     99  O   UNL A   1      40.980  38.208  39.713  1.00  0.00    -0.744 OA
ENDBRANCH  95  96
ENDBRANCH  63  88
ENDBRANCH  37  38
ENDBRANCH  29  32
ENDBRANCH  27  28
ENDBRANCH  26  27
ENDBRANCH   1  26
TORSDOF 17
ENDMDL
MODEL 3
REMARK VINA RESULT:     -11.8      1.027      2.935
REMARK SMILES Cc1onc(-c2ccccc2)c1C(=O)N1CCC[C@@H]1C(=O)NCCCCNC(=O)c1ccc(-c2c3nc(c(-c4c(F)cc(S(=O)(=O)[O-])cc4F)c4ccc([nH]4)c(-c4c(F)cc(S(=O)(=O)[O-])cc4F)c4nc(c(-c5c(F)cc(S(=O)(=O)[O-])cc5F)c5ccc2[nH]5)C=C4)C=C3)cc1
REMARK SMILES IDX 24 1 23 2 22 3 20 4 21 5 19 7 15 8 16 9 17 10 18 11 13 12
REMARK SMILES IDX 14 13 12 14 1 15 2 16 3 17 4 18 5 19 6 20 7 21 11 22 8 23
REMARK SMILES IDX 10 24 9 25 25 26 26 27 27 28 28 29 29 31 30 32 31 33 95 34
REMARK SMILES IDX 32 35 94 36 33 37 34 38 35 39 88 40 36 41 93 42 87 43 89 44
REMARK SMILES IDX 37 45 92 46 86 47 85 48 38 50 72 51 51 52 71 53 52 54 55 55
REMARK SMILES IDX 70 56 90 57 53 58 54 59 69 61 91 62 56 63 39 64 40 65 49 66
REMARK SMILES IDX 41 67 42 68 48 69 50 70 43 71 44 72 45 73 46 74 47 75 73 76
REMARK SMILES IDX 74 77 83 78 75 79 76 80 82 81 84 82 77 83 78 84 79 85 80 86
REMARK SMILES IDX 81 87 57 88 58 89 67 90 59 91 60 92 66 93 68 94 61 95 62 96
REMARK SMILES IDX 63 97 64 98 65 99
REMARK H PARENT 22 6 27 30 89 49 55 60
REMARK Flexibility Score: inf
ROOT
ATOM      1  C   UNL A   1      33.027  27.235  25.466  1.00  0.00     0.023 C 
ENDROOT
BRANCH   1   2
ATOM      2  C   UNL A   1      31.938  27.869  24.608  1.00  0.00     0.116 C 
BRANCH   2   3
ATOM      3  N   UNL A   1      30.701  27.129  24.649  1.00  0.00    -0.354 N 
ATOM      4  C   UNL A   1      30.297  26.067  23.894  1.00  0.00     0.242 C 
ATOM      5  O   UNL A   1      29.109  25.738  23.979  1.00  0.00    -0.273 OA
ATOM      6  H   UNL A   1      30.051  27.436  25.322  1.00  0.00     0.163 HD
BRANCH   4   7
ATOM      7  C   UNL A   1      31.204  25.421  22.820  1.00  0.00     0.174 C 
ATOM      8  N   UNL A   1      32.305  24.569  23.278  1.00  0.00    -0.326 N 
ATOM      9  C   UNL A   1      33.420  24.692  22.356  1.00  0.00     0.121 C 
ATOM     10  C   UNL A   1      33.366  26.149  21.933  1.00  0.00     0.024 C 
ATOM     11  C   UNL A   1      31.873  26.488  21.938  1.00  0.00     0.037 C 
BRANCH   8  12
ATOM     12  C   UNL A   1      31.997  23.422  23.998  1.00  0.00     0.260 C 
ATOM     13  O   UNL A   1      31.486  22.463  23.423  1.00  0.00    -0.269 OA
BRANCH  12  14
ATOM     14  C   UNL A   1      32.210  23.393  25.439  1.00  0.00     0.110 A 
ATOM     15  C   UNL A   1      29.874  23.764  26.687  1.00  0.00     0.092 C 
ATOM     16  C   UNL A   1      31.318  23.527  26.492  1.00  0.00     0.147 A 
ATOM     17  O   UNL A   1      31.971  23.308  27.665  1.00  0.00    -0.360 OA
ATOM     18  N   UNL A   1      33.281  22.997  27.427  1.00  0.00    -0.079 NA
ATOM     19  C   UNL A   1      33.434  23.022  26.097  1.00  0.00     0.126 A 
BRANCH  19  20
ATOM     20  C   UNL A   1      34.730  22.691  25.522  1.00  0.00     0.004 A 
ATOM     21  C   UNL A   1      35.534  23.699  24.973  1.00  0.00     0.010 A 
ATOM     22  C   UNL A   1      35.159  21.360  25.471  1.00  0.00     0.010 A 
ATOM     23  C   UNL A   1      36.758  23.377  24.382  1.00  0.00     0.001 A 
ATOM     24  C   UNL A   1      36.381  21.041  24.873  1.00  0.00     0.001 A 
ATOM     25  C   UNL A   1      37.178  22.048  24.331  1.00  0.00     0.000 A 
ENDBRANCH  19  20
ENDBRANCH  12  14
ENDBRANCH   8  12
ENDBRANCH   4   7
ENDBRANCH   2   3
ENDBRANCH   1   2
BRANCH   1  26
ATOM     26  C   UNL A   1      33.915  28.222  26.222  1.00  0.00     0.023 C 
BRANCH  26  27
ATOM     27  C   UNL A   1      33.405  28.657  27.595  1.00  0.00     0.116 C 
BRANCH  27  28
ATOM     28  N   UNL A   1      33.490  30.094  27.820  1.00  0.00    -0.352 N 
ATOM     29  C   UNL A   1      34.584  30.843  28.192  1.00  0.00     0.251 C 
ATOM     30  H   UNL A   1      32.653  30.596  27.688  1.00  0.00     0.163 HD
ATOM     31  O   UNL A   1      34.463  32.043  28.409  1.00  0.00    -0.269 OA
BRANCH  29  32
ATOM     32  C   UNL A   1      35.887  30.172  28.378  1.00  0.00     0.039 A 
ATOM     33  C   UNL A   1      36.789  30.152  27.310  1.00  0.00     0.014 A 
ATOM     34  C   UNL A   1      36.240  29.633  29.618  1.00  0.00     0.014 A 
ATOM     35  C   UNL A   1      38.086  29.681  27.516  1.00  0.00     0.010 A 
ATOM     36  C   UNL A   1      37.549  29.207  29.833  1.00  0.00     0.010 A 
ATOM     37  C   UNL A   1      38.489  29.255  28.792  1.00  0.00    -0.014 A 
BRANCH  37  38
ATOM     38  C   UNL A   1      39.904  28.918  29.081  1.00  0.00     0.031 A 
ATOM     39  C   UNL A   1      40.831  29.956  29.642  1.00  0.00     0.074 A 
ATOM     40  C   UNL A   1      40.374  27.703  28.740  1.00  0.00     0.049 A 
ATOM     41  N   UNL A   1      42.124  29.890  29.827  1.00  0.00    -0.248 NA
ATOM     42  C   UNL A   1      40.228  31.242  30.024  1.00  0.00     0.031 C 
ATOM     43  C   UNL A   1      39.582  26.623  28.146  1.00  0.00     0.029 A 
ATOM     44  N   UNL A   1      41.638  27.176  28.826  1.00  0.00    -0.354 N 
ATOM     45  C   UNL A   1      42.497  31.135  30.319  1.00  0.00     0.074 A 
ATOM     46  C   UNL A   1      41.294  31.939  30.390  1.00  0.00     0.031 C 
ATOM     47  C   UNL A   1      40.375  25.561  27.932  1.00  0.00     0.029 A 
ATOM     48  C   UNL A   1      41.735  25.894  28.342  1.00  0.00     0.049 A 
ATOM     49  H   UNL A   1      42.403  27.670  29.200  1.00  0.00     0.167 HD
ATOM     50  C   UNL A   1      43.728  31.563  30.683  1.00  0.00     0.037 A 
ATOM     51  C   UNL A   1      42.804  25.081  28.229  1.00  0.00     0.037 A 
ATOM     52  C   UNL A   1      44.917  30.755  30.644  1.00  0.00     0.049 A 
ATOM     53  C   UNL A   1      44.152  25.568  28.672  1.00  0.00     0.074 A 
ATOM     54  C   UNL A   1      46.201  31.088  31.038  1.00  0.00     0.029 A 
ATOM     55  N   UNL A   1      44.966  29.446  30.188  1.00  0.00    -0.354 N 
ATOM     56  N   UNL A   1      44.483  26.740  29.159  1.00  0.00    -0.248 NA
ATOM     57  C   UNL A   1      45.273  24.626  28.549  1.00  0.00     0.031 C 
ATOM     58  C   UNL A   1      47.030  29.982  30.810  1.00  0.00     0.029 A 
ATOM     59  C   UNL A   1      46.258  28.956  30.288  1.00  0.00     0.049 A 
ATOM     60  H   UNL A   1      44.195  28.939  29.844  1.00  0.00     0.167 HD
ATOM     61  C   UNL A   1      45.848  26.673  29.409  1.00  0.00     0.074 A 
ATOM     62  C   UNL A   1      46.280  25.344  29.027  1.00  0.00     0.031 C 
ATOM     63  C   UNL A   1      46.667  27.629  29.909  1.00  0.00     0.037 A 
BRANCH  50  64
ATOM     64  C   UNL A   1      43.841  32.982  31.154  1.00  0.00     0.058 A 
ATOM     65  C   UNL A   1      43.578  33.331  32.487  1.00  0.00     0.135 A 
ATOM     66  C   UNL A   1      44.205  34.004  30.263  1.00  0.00     0.135 A 
ATOM     67  F   UNL A   1      43.209  32.391  33.371  1.00  0.00    -0.206 F 
ATOM     68  C   UNL A   1      43.643  34.652  32.917  1.00  0.00     0.059 A 
ATOM     69  C   UNL A   1      44.291  35.330  30.675  1.00  0.00     0.059 A 
ATOM     70  F   UNL A   1      44.460  33.719  28.976  1.00  0.00    -0.206 F 
ATOM     71  C   UNL A   1      43.990  35.647  32.000  1.00  0.00     0.060 A 
BRANCH  71  72
ATOM     72  S   UNL A   1      44.050  37.364  32.553  1.00  0.00     0.124 S 
ATOM     73  O   UNL A   1      43.818  38.078  31.300  1.00  0.00    -0.237 OA
ATOM     74  O   UNL A   1      42.965  37.426  33.527  1.00  0.00    -0.237 OA
ATOM     75  O   UNL A   1      45.394  37.489  33.110  1.00  0.00    -0.744 OA
ENDBRANCH  71  72
ENDBRANCH  50  64
BRANCH  51  76
ATOM     76  C   UNL A   1      42.629  23.713  27.684  1.00  0.00     0.058 A 
ATOM     77  C   UNL A   1      42.683  23.486  26.302  1.00  0.00     0.135 A 
ATOM     78  C   UNL A   1      42.443  22.610  28.528  1.00  0.00     0.135 A 
ATOM     79  F   UNL A   1      42.857  24.515  25.459  1.00  0.00    -0.206 F 
ATOM     80  C   UNL A   1      42.555  22.207  25.772  1.00  0.00     0.059 A 
ATOM     81  C   UNL A   1      42.324  21.319  28.022  1.00  0.00     0.059 A 
ATOM     82  F   UNL A   1      42.401  22.781  29.859  1.00  0.00    -0.206 F 
ATOM     83  C   UNL A   1      42.377  21.129  26.641  1.00  0.00     0.060 A 
BRANCH  83  84
ATOM     84  S   UNL A   1      42.285  19.459  25.957  1.00  0.00     0.124 S 
ATOM     85  O   UNL A   1      40.866  19.352  25.638  1.00  0.00    -0.237 OA
ATOM     86  O   UNL A   1      43.192  19.536  24.816  1.00  0.00    -0.237 OA
ATOM     87  O   UNL A   1      42.753  18.626  27.061  1.00  0.00    -0.744 OA
ENDBRANCH  83  84
ENDBRANCH  51  76
BRANCH  63  88
ATOM     88  C   UNL A   1      48.110  27.265  30.088  1.00  0.00     0.058 A 
ATOM     89  C   UNL A   1      49.067  27.587  29.114  1.00  0.00     0.135 A 
ATOM     90  C   UNL A   1      48.545  26.632  31.262  1.00  0.00     0.135 A 
ATOM     91  F   UNL A   1      48.695  28.185  27.972  1.00  0.00    -0.206 F 
ATOM     92  C   UNL A   1      50.412  27.285  29.296  1.00  0.00     0.059 A 
ATOM     93  C   UNL A   1      49.887  26.332  31.468  1.00  0.00     0.059 A 
ATOM     94  F   UNL A   1      47.663  26.308  32.220  1.00  0.00    -0.206 F 
ATOM     95  C   UNL A   1      50.813  26.655  30.476  1.00  0.00     0.060 A 
BRANCH  95  96
ATOM     96  S   UNL A   1      52.565  26.301  30.730  1.00  0.00     0.124 S 
ATOM     97  O   UNL A   1      53.035  27.556  31.307  1.00  0.00    -0.237 OA
ATOM     98  O   UNL A   1      52.534  25.159  31.639  1.00  0.00    -0.237 OA
ATOM     99  O   UNL A   1      53.045  26.007  29.383  1.00  0.00    -0.744 OA
ENDBRANCH  95  96
ENDBRANCH  63  88
ENDBRANCH  37  38
ENDBRANCH  29  32
ENDBRANCH  27  28
ENDBRANCH  26  27
ENDBRANCH   1  26
TORSDOF 17
ENDMDL
