MODEL 1
REMARK VINA RESULT:     -12.2      0.000      0.000
REMARK SMILES O=C(NCCCCNC(=O)c1nccnc1C(=O)Nc1ccc2c(c1)OCO2)c1ccc(-c2c3nc(c(-c4c(F)cc(S(=O)(=O)[O-])cc4F)c4ccc([nH]4)c(-c4c(F)cc(S(=O)(=O)[O-])cc4F)c4nc(c(-c5c(F)cc(S(=O)(=O)[O-])cc5F)c5ccc2[nH]5)C=C4)C=C3)cc1
REMARK SMILES IDX 5 1 4 2 3 3 1 4 2 5 29 7 30 8 94 9 31 10 93 11 32 12 33 13
REMARK SMILES IDX 34 14 87 15 35 16 92 17 86 18 88 19 36 20 91 21 85 22 84 23
REMARK SMILES IDX 37 25 71 26 50 27 70 28 51 29 54 30 69 31 89 32 52 33 53 34
REMARK SMILES IDX 68 36 90 37 55 38 38 39 39 40 48 41 40 42 41 43 47 44 49 45
REMARK SMILES IDX 42 46 43 47 44 48 45 49 46 50 72 51 73 52 82 53 74 54 75 55
REMARK SMILES IDX 81 56 83 57 76 58 77 59 78 60 79 61 80 62 56 63 57 64 66 65
REMARK SMILES IDX 58 66 59 67 65 68 67 69 60 70 61 71 62 72 63 73 64 74 6 75
REMARK SMILES IDX 7 76 8 77 9 78 10 80 11 81 12 82 16 83 13 84 15 85 14 86
REMARK SMILES IDX 17 87 18 88 19 89 20 91 21 92 25 93 22 94 24 95 23 96 26 97
REMARK SMILES IDX 28 98 27 99
REMARK H PARENT 3 6 88 24 54 35 8 79 19 90
REMARK Flexibility Score: inf
ROOT
ATOM      1  C   UNL A   1      32.766  27.821  25.957  1.00  0.00     0.023 C 
ENDROOT
BRANCH   1   2
ATOM      2  C   UNL A   1      33.804  28.269  26.981  1.00  0.00     0.116 C 
BRANCH   2   3
ATOM      3  N   UNL A   1      33.625  29.652  27.386  1.00  0.00    -0.352 N 
ATOM      4  O   UNL A   1      34.099  31.542  28.516  1.00  0.00    -0.269 OA
ATOM      5  C   UNL A   1      34.496  30.463  28.081  1.00  0.00     0.251 C 
ATOM      6  H   UNL A   1      32.768  30.066  27.129  1.00  0.00     0.163 HD
BRANCH   5   7
ATOM      7  C   UNL A   1      35.899  30.040  28.319  1.00  0.00     0.039 A 
ATOM      8  C   UNL A   1      36.865  30.153  27.316  1.00  0.00     0.014 A 
ATOM      9  C   UNL A   1      36.273  29.578  29.588  1.00  0.00     0.014 A 
ATOM     10  C   UNL A   1      38.171  29.722  27.550  1.00  0.00     0.010 A 
ATOM     11  C   UNL A   1      37.601  29.202  29.841  1.00  0.00     0.010 A 
ATOM     12  C   UNL A   1      38.560  29.260  28.820  1.00  0.00    -0.014 A 
BRANCH  12  13
ATOM     13  C   UNL A   1      39.994  28.947  29.064  1.00  0.00     0.031 A 
ATOM     14  C   UNL A   1      40.587  27.614  28.702  1.00  0.00     0.074 A 
ATOM     15  C   UNL A   1      40.779  29.912  29.584  1.00  0.00     0.049 A 
ATOM     16  N   UNL A   1      41.836  27.225  28.773  1.00  0.00    -0.248 NA
ATOM     17  C   UNL A   1      39.665  26.581  28.206  1.00  0.00     0.031 C 
ATOM     18  C   UNL A   1      40.312  31.232  30.018  1.00  0.00     0.029 A 
ATOM     19  N   UNL A   1      42.130  29.947  29.815  1.00  0.00    -0.354 N 
ATOM     20  C   UNL A   1      41.854  25.907  28.329  1.00  0.00     0.074 A 
ATOM     21  C   UNL A   1      40.484  25.552  28.023  1.00  0.00     0.031 C 
ATOM     22  C   UNL A   1      41.364  31.961  30.419  1.00  0.00     0.029 A 
ATOM     23  C   UNL A   1      42.573  31.153  30.305  1.00  0.00     0.049 A 
ATOM     24  H   UNL A   1      42.727  29.182  29.646  1.00  0.00     0.167 HD
ATOM     25  C   UNL A   1      42.917  25.078  28.179  1.00  0.00     0.037 A 
ATOM     26  C   UNL A   1      43.813  31.568  30.628  1.00  0.00     0.037 A 
ATOM     27  C   UNL A   1      44.280  25.434  28.485  1.00  0.00     0.049 A 
ATOM     28  C   UNL A   1      44.973  30.638  30.428  1.00  0.00     0.074 A 
ATOM     29  C   UNL A   1      45.424  24.662  28.357  1.00  0.00     0.029 A 
ATOM     30  N   UNL A   1      44.689  26.665  28.978  1.00  0.00    -0.354 N 
ATOM     31  N   UNL A   1      44.972  29.407  29.976  1.00  0.00    -0.248 NA
ATOM     32  C   UNL A   1      46.304  31.153  30.775  1.00  0.00     0.031 C 
ATOM     33  C   UNL A   1      46.518  25.417  28.797  1.00  0.00     0.029 A 
ATOM     34  C   UNL A   1      46.063  26.672  29.164  1.00  0.00     0.049 A 
ATOM     35  H   UNL A   1      44.091  27.424  29.167  1.00  0.00     0.167 HD
ATOM     36  C   UNL A   1      46.299  28.999  29.985  1.00  0.00     0.074 A 
ATOM     37  C   UNL A   1      47.080  30.125  30.455  1.00  0.00     0.031 C 
ATOM     38  C   UNL A   1      46.824  27.796  29.645  1.00  0.00     0.037 A 
BRANCH  25  39
ATOM     39  C   UNL A   1      42.653  23.694  27.652  1.00  0.00     0.058 A 
ATOM     40  C   UNL A   1      42.612  23.434  26.273  1.00  0.00     0.135 A 
ATOM     41  C   UNL A   1      42.499  22.606  28.528  1.00  0.00     0.135 A 
ATOM     42  F   UNL A   1      42.741  24.439  25.393  1.00  0.00    -0.206 F 
ATOM     43  C   UNL A   1      42.413  22.148  25.781  1.00  0.00     0.059 A 
ATOM     44  C   UNL A   1      42.318  21.309  28.057  1.00  0.00     0.059 A 
ATOM     45  F   UNL A   1      42.531  22.800  29.856  1.00  0.00    -0.206 F 
ATOM     46  C   UNL A   1      42.265  21.091  26.682  1.00  0.00     0.060 A 
BRANCH  46  47
ATOM     47  S   UNL A   1      42.019  19.426  26.026  1.00  0.00     0.124 S 
ATOM     48  O   UNL A   1      40.576  19.410  25.809  1.00  0.00    -0.237 OA
ATOM     49  O   UNL A   1      42.841  19.437  24.822  1.00  0.00    -0.237 OA
ATOM     50  O   UNL A   1      42.502  18.564  27.102  1.00  0.00    -0.744 OA
ENDBRANCH  46  47
ENDBRANCH  25  39
BRANCH  26  51
ATOM     51  C   UNL A   1      44.012  32.936  31.171  1.00  0.00     0.058 A 
ATOM     52  C   UNL A   1      44.193  34.035  30.320  1.00  0.00     0.135 A 
ATOM     53  C   UNL A   1      44.002  33.170  32.554  1.00  0.00     0.135 A 
ATOM     54  F   UNL A   1      44.211  33.859  28.990  1.00  0.00    -0.206 F 
ATOM     55  C   UNL A   1      44.370  35.320  30.822  1.00  0.00     0.059 A 
ATOM     56  C   UNL A   1      44.154  34.448  33.079  1.00  0.00     0.059 A 
ATOM     57  F   UNL A   1      43.814  32.151  33.407  1.00  0.00    -0.206 F 
ATOM     58  C   UNL A   1      44.349  35.517  32.204  1.00  0.00     0.060 A 
BRANCH  58  59
ATOM     59  S   UNL A   1      44.524  37.192  32.852  1.00  0.00     0.124 S 
ATOM     60  O   UNL A   1      45.746  37.075  33.638  1.00  0.00    -0.237 OA
ATOM     61  O   UNL A   1      44.623  37.990  31.634  1.00  0.00    -0.237 OA
ATOM     62  O   UNL A   1      43.295  37.382  33.616  1.00  0.00    -0.744 OA
ENDBRANCH  58  59
ENDBRANCH  26  51
BRANCH  38  63
ATOM     63  C   UNL A   1      48.314  27.647  29.774  1.00  0.00     0.058 A 
ATOM     64  C   UNL A   1      48.898  27.130  30.940  1.00  0.00     0.135 A 
ATOM     65  C   UNL A   1      49.164  28.022  28.722  1.00  0.00     0.135 A 
ATOM     66  F   UNL A   1      48.128  26.763  31.976  1.00  0.00    -0.206 F 
ATOM     67  C   UNL A   1      50.279  27.022  31.074  1.00  0.00     0.059 A 
ATOM     68  C   UNL A   1      50.546  27.903  28.826  1.00  0.00     0.059 A 
ATOM     69  F   UNL A   1      48.653  28.515  27.582  1.00  0.00    -0.206 F 
ATOM     70  C   UNL A   1      51.095  27.419  30.013  1.00  0.00     0.060 A 
BRANCH  70  71
ATOM     71  S   UNL A   1      52.885  27.279  30.195  1.00  0.00     0.124 S 
ATOM     72  O   UNL A   1      53.243  26.528  28.997  1.00  0.00    -0.237 OA
ATOM     73  O   UNL A   1      53.312  28.674  30.220  1.00  0.00    -0.237 OA
ATOM     74  O   UNL A   1      53.040  26.561  31.457  1.00  0.00    -0.744 OA
ENDBRANCH  70  71
ENDBRANCH  38  63
ENDBRANCH  12  13
ENDBRANCH   5   7
ENDBRANCH   2   3
ENDBRANCH   1   2
BRANCH   1  75
ATOM     75  C   UNL A   1      31.376  27.398  26.451  1.00  0.00     0.023 C 
BRANCH  75  76
ATOM     76  C   UNL A   1      30.699  26.185  25.814  1.00  0.00     0.116 C 
BRANCH  76  77
ATOM     77  N   UNL A   1      30.766  24.943  26.573  1.00  0.00    -0.351 N 
ATOM     78  C   UNL A   1      31.797  24.018  26.655  1.00  0.00     0.272 C 
ATOM     79  H   UNL A   1      29.964  24.728  27.103  1.00  0.00     0.163 HD
ATOM     80  O   UNL A   1      31.852  23.228  27.594  1.00  0.00    -0.267 OA
BRANCH  78  81
ATOM     81  C   UNL A   1      32.895  24.039  25.671  1.00  0.00     0.159 A 
ATOM     82  N   UNL A   1      34.070  24.479  26.248  1.00  0.00    -0.247 NA
ATOM     83  C   UNL A   1      32.835  23.575  24.360  1.00  0.00     0.159 A 
ATOM     84  C   UNL A   1      35.179  24.444  25.493  1.00  0.00     0.132 A 
ATOM     85  N   UNL A   1      33.993  23.623  23.605  1.00  0.00    -0.247 NA
ATOM     86  C   UNL A   1      35.139  24.034  24.186  1.00  0.00     0.132 A 
BRANCH  83  87
ATOM     87  C   UNL A   1      31.753  22.843  23.584  1.00  0.00     0.276 C 
ATOM     88  O   UNL A   1      30.825  23.522  23.118  1.00  0.00    -0.267 OA
ATOM     89  N   UNL A   1      31.760  21.540  23.161  1.00  0.00    -0.320 N 
ATOM     90  H   UNL A   1      31.380  21.429  22.259  1.00  0.00     0.170 HD
BRANCH  89  91
ATOM     91  C   UNL A   1      32.185  20.340  23.720  1.00  0.00     0.045 A 
ATOM     92  C   UNL A   1      32.436  20.185  25.093  1.00  0.00     0.030 A 
ATOM     93  C   UNL A   1      32.336  19.261  22.838  1.00  0.00     0.076 A 
ATOM     94  C   UNL A   1      32.934  18.966  25.569  1.00  0.00     0.053 A 
ATOM     95  C   UNL A   1      32.925  18.118  23.325  1.00  0.00     0.167 A 
ATOM     96  C   UNL A   1      33.234  17.982  24.654  1.00  0.00     0.165 A 
ATOM     97  O   UNL A   1      33.321  17.047  22.587  1.00  0.00    -0.454 OA
ATOM     98  O   UNL A   1      33.879  16.816  24.919  1.00  0.00    -0.454 OA
ATOM     99  C   UNL A   1      34.065  16.309  23.577  1.00  0.00     0.468 C 
ENDBRANCH  89  91
ENDBRANCH  83  87
ENDBRANCH  78  81
ENDBRANCH  76  77
ENDBRANCH  75  76
ENDBRANCH   1  75
TORSDOF 16
ENDMDL
MODEL 2
REMARK VINA RESULT:     -12.0      1.115      1.835
REMARK SMILES O=C(NCCCCNC(=O)c1nccnc1C(=O)Nc1ccc2c(c1)OCO2)c1ccc(-c2c3nc(c(-c4c(F)cc(S(=O)(=O)[O-])cc4F)c4ccc([nH]4)c(-c4c(F)cc(S(=O)(=O)[O-])cc4F)c4nc(c(-c5c(F)cc(S(=O)(=O)[O-])cc5F)c5ccc2[nH]5)C=C4)C=C3)cc1
REMARK SMILES IDX 5 1 4 2 3 3 1 4 2 5 29 7 30 8 94 9 31 10 93 11 32 12 33 13
REMARK SMILES IDX 34 14 87 15 35 16 92 17 86 18 88 19 36 20 91 21 85 22 84 23
REMARK SMILES IDX 37 25 71 26 50 27 70 28 51 29 54 30 69 31 89 32 52 33 53 34
REMARK SMILES IDX 68 36 90 37 55 38 38 39 39 40 48 41 40 42 41 43 47 44 49 45
REMARK SMILES IDX 42 46 43 47 44 48 45 49 46 50 72 51 73 52 82 53 74 54 75 55
REMARK SMILES IDX 81 56 83 57 76 58 77 59 78 60 79 61 80 62 56 63 57 64 66 65
REMARK SMILES IDX 58 66 59 67 65 68 67 69 60 70 61 71 62 72 63 73 64 74 6 75
REMARK SMILES IDX 7 76 8 77 9 78 10 80 11 81 12 82 16 83 13 84 15 85 14 86
REMARK SMILES IDX 17 87 18 88 19 89 20 91 21 92 25 93 22 94 24 95 23 96 26 97
REMARK SMILES IDX 28 98 27 99
REMARK H PARENT 3 6 88 24 54 35 8 79 19 90
REMARK Flexibility Score: inf
ROOT
ATOM      1  C   UNL A   1      33.124  27.966  25.682  1.00  0.00     0.023 C 
ENDROOT
BRANCH   1   2
ATOM      2  C   UNL A   1      33.891  28.272  26.963  1.00  0.00     0.116 C 
BRANCH   2   3
ATOM      3  N   UNL A   1      33.709  29.643  27.407  1.00  0.00    -0.352 N 
ATOM      4  O   UNL A   1      34.180  31.501  28.590  1.00  0.00    -0.269 OA
ATOM      5  C   UNL A   1      34.579  30.436  28.124  1.00  0.00     0.251 C 
ATOM      6  H   UNL A   1      32.850  30.061  27.164  1.00  0.00     0.163 HD
BRANCH   5   7
ATOM      7  C   UNL A   1      35.984  30.011  28.347  1.00  0.00     0.039 A 
ATOM      8  C   UNL A   1      36.945  30.144  27.341  1.00  0.00     0.014 A 
ATOM      9  C   UNL A   1      36.365  29.526  29.605  1.00  0.00     0.014 A 
ATOM     10  C   UNL A   1      38.252  29.711  27.561  1.00  0.00     0.010 A 
ATOM     11  C   UNL A   1      37.694  29.148  29.844  1.00  0.00     0.010 A 
ATOM     12  C   UNL A   1      38.648  29.227  28.820  1.00  0.00    -0.014 A 
BRANCH  12  13
ATOM     13  C   UNL A   1      40.084  28.911  29.052  1.00  0.00     0.031 A 
ATOM     14  C   UNL A   1      40.671  27.575  28.689  1.00  0.00     0.074 A 
ATOM     15  C   UNL A   1      40.877  29.876  29.559  1.00  0.00     0.049 A 
ATOM     16  N   UNL A   1      41.919  27.183  28.749  1.00  0.00    -0.248 NA
ATOM     17  C   UNL A   1      39.741  26.543  28.206  1.00  0.00     0.031 C 
ATOM     18  C   UNL A   1      40.416  31.199  29.993  1.00  0.00     0.029 A 
ATOM     19  N   UNL A   1      42.230  29.909  29.777  1.00  0.00    -0.354 N 
ATOM     20  C   UNL A   1      41.931  25.864  28.310  1.00  0.00     0.074 A 
ATOM     21  C   UNL A   1      40.556  25.511  28.018  1.00  0.00     0.031 C 
ATOM     22  C   UNL A   1      41.474  31.927  30.382  1.00  0.00     0.029 A 
ATOM     23  C   UNL A   1      42.680  31.116  30.259  1.00  0.00     0.049 A 
ATOM     24  H   UNL A   1      42.823  29.142  29.605  1.00  0.00     0.167 HD
ATOM     25  C   UNL A   1      42.990  25.033  28.152  1.00  0.00     0.037 A 
ATOM     26  C   UNL A   1      43.923  31.529  30.568  1.00  0.00     0.037 A 
ATOM     27  C   UNL A   1      44.357  25.387  28.444  1.00  0.00     0.049 A 
ATOM     28  C   UNL A   1      45.080  30.596  30.360  1.00  0.00     0.074 A 
ATOM     29  C   UNL A   1      45.497  24.611  28.307  1.00  0.00     0.029 A 
ATOM     30  N   UNL A   1      44.773  26.618  28.928  1.00  0.00    -0.354 N 
ATOM     31  N   UNL A   1      45.071  29.363  29.912  1.00  0.00    -0.248 NA
ATOM     32  C   UNL A   1      46.415  31.110  30.692  1.00  0.00     0.031 C 
ATOM     33  C   UNL A   1      46.597  25.366  28.733  1.00  0.00     0.029 A 
ATOM     34  C   UNL A   1      46.149  26.623  29.101  1.00  0.00     0.049 A 
ATOM     35  H   UNL A   1      44.178  27.379  29.120  1.00  0.00     0.167 HD
ATOM     36  C   UNL A   1      46.398  28.953  29.910  1.00  0.00     0.074 A 
ATOM     37  C   UNL A   1      47.185  30.079  30.369  1.00  0.00     0.031 C 
ATOM     38  C   UNL A   1      46.917  27.747  29.570  1.00  0.00     0.037 A 
BRANCH  25  39
ATOM     39  C   UNL A   1      42.718  23.647  27.633  1.00  0.00     0.058 A 
ATOM     40  C   UNL A   1      42.656  23.383  26.256  1.00  0.00     0.135 A 
ATOM     41  C   UNL A   1      42.577  22.562  28.514  1.00  0.00     0.135 A 
ATOM     42  F   UNL A   1      42.771  24.385  25.370  1.00  0.00    -0.206 F 
ATOM     43  C   UNL A   1      42.449  22.096  25.770  1.00  0.00     0.059 A 
ATOM     44  C   UNL A   1      42.389  21.263  28.050  1.00  0.00     0.059 A 
ATOM     45  F   UNL A   1      42.630  22.758  29.841  1.00  0.00    -0.206 F 
ATOM     46  C   UNL A   1      42.315  21.042  26.676  1.00  0.00     0.060 A 
BRANCH  46  47
ATOM     47  S   UNL A   1      42.059  19.375  26.028  1.00  0.00     0.124 S 
ATOM     48  O   UNL A   1      42.544  18.556  27.135  1.00  0.00    -0.237 OA
ATOM     49  O   UNL A   1      40.620  19.343  25.799  1.00  0.00    -0.237 OA
ATOM     50  O   UNL A   1      42.883  19.351  24.822  1.00  0.00    -0.744 OA
ENDBRANCH  46  47
ENDBRANCH  25  39
BRANCH  26  51
ATOM     51  C   UNL A   1      44.131  32.899  31.104  1.00  0.00     0.058 A 
ATOM     52  C   UNL A   1      44.310  33.994  30.247  1.00  0.00     0.135 A 
ATOM     53  C   UNL A   1      44.131  33.139  32.486  1.00  0.00     0.135 A 
ATOM     54  F   UNL A   1      44.320  33.812  28.918  1.00  0.00    -0.206 F 
ATOM     55  C   UNL A   1      44.495  35.281  30.742  1.00  0.00     0.059 A 
ATOM     56  C   UNL A   1      44.290  34.419  33.004  1.00  0.00     0.059 A 
ATOM     57  F   UNL A   1      43.944  32.125  33.345  1.00  0.00    -0.206 F 
ATOM     58  C   UNL A   1      44.484  35.483  32.124  1.00  0.00     0.060 A 
BRANCH  58  59
ATOM     59  S   UNL A   1      44.668  37.161  32.763  1.00  0.00     0.124 S 
ATOM     60  O   UNL A   1      46.119  37.290  32.827  1.00  0.00    -0.237 OA
ATOM     61  O   UNL A   1      44.001  37.960  31.741  1.00  0.00    -0.237 OA
ATOM     62  O   UNL A   1      43.980  37.103  34.049  1.00  0.00    -0.744 OA
ENDBRANCH  58  59
ENDBRANCH  26  51
BRANCH  38  63
ATOM     63  C   UNL A   1      48.407  27.595  29.684  1.00  0.00     0.058 A 
ATOM     64  C   UNL A   1      49.257  27.898  28.609  1.00  0.00     0.135 A 
ATOM     65  C   UNL A   1      48.991  27.146  30.879  1.00  0.00     0.135 A 
ATOM     66  F   UNL A   1      48.746  28.325  27.444  1.00  0.00    -0.206 F 
ATOM     67  C   UNL A   1      50.635  27.728  28.702  1.00  0.00     0.059 A 
ATOM     68  C   UNL A   1      50.368  26.988  31.001  1.00  0.00     0.059 A 
ATOM     69  F   UNL A   1      48.223  26.851  31.939  1.00  0.00    -0.206 F 
ATOM     70  C   UNL A   1      51.180  27.264  29.901  1.00  0.00     0.060 A 
BRANCH  70  71
ATOM     71  S   UNL A   1      52.968  27.042  30.013  1.00  0.00     0.124 S 
ATOM     72  O   UNL A   1      53.425  28.419  30.159  1.00  0.00    -0.237 OA
ATOM     73  O   UNL A   1      53.110  26.199  31.196  1.00  0.00    -0.237 OA
ATOM     74  O   UNL A   1      53.307  26.397  28.747  1.00  0.00    -0.744 OA
ENDBRANCH  70  71
ENDBRANCH  38  63
ENDBRANCH  12  13
ENDBRANCH   5   7
ENDBRANCH   2   3
ENDBRANCH   1   2
BRANCH   1  75
ATOM     75  C   UNL A   1      33.702  26.934  24.703  1.00  0.00     0.023 C 
BRANCH  75  76
ATOM     76  C   UNL A   1      32.887  25.684  24.376  1.00  0.00     0.116 C 
BRANCH  76  77
ATOM     77  N   UNL A   1      33.220  25.012  23.125  1.00  0.00    -0.351 N 
ATOM     78  C   UNL A   1      33.854  23.795  22.924  1.00  0.00     0.272 C 
ATOM     79  H   UNL A   1      32.957  25.492  22.306  1.00  0.00     0.163 HD
ATOM     80  O   UNL A   1      33.741  23.204  21.853  1.00  0.00    -0.267 OA
BRANCH  78  81
ATOM     81  C   UNL A   1      34.589  23.148  24.026  1.00  0.00     0.159 A 
ATOM     82  N   UNL A   1      35.811  23.759  24.232  1.00  0.00    -0.247 NA
ATOM     83  C   UNL A   1      34.111  22.136  24.853  1.00  0.00     0.159 A 
ATOM     84  C   UNL A   1      36.541  23.340  25.278  1.00  0.00     0.132 A 
ATOM     85  N   UNL A   1      34.932  21.697  25.877  1.00  0.00    -0.247 NA
ATOM     86  C   UNL A   1      36.113  22.316  26.082  1.00  0.00     0.132 A 
BRANCH  83  87
ATOM     87  C   UNL A   1      32.747  21.480  24.980  1.00  0.00     0.276 C 
ATOM     88  O   UNL A   1      31.780  22.216  25.234  1.00  0.00    -0.267 OA
ATOM     89  N   UNL A   1      32.401  20.193  24.662  1.00  0.00    -0.320 N 
ATOM     90  H   UNL A   1      31.518  20.129  24.231  1.00  0.00     0.170 HD
BRANCH  89  91
ATOM     91  C   UNL A   1      33.020  18.957  24.811  1.00  0.00     0.045 A 
ATOM     92  C   UNL A   1      34.275  18.660  24.257  1.00  0.00     0.030 A 
ATOM     93  C   UNL A   1      32.331  18.004  25.574  1.00  0.00     0.076 A 
ATOM     94  C   UNL A   1      34.799  17.368  24.388  1.00  0.00     0.053 A 
ATOM     95  C   UNL A   1      32.825  16.721  25.588  1.00  0.00     0.167 A 
ATOM     96  C   UNL A   1      34.021  16.407  24.993  1.00  0.00     0.165 A 
ATOM     97  O   UNL A   1      32.203  15.632  26.112  1.00  0.00    -0.454 OA
ATOM     98  O   UNL A   1      34.294  15.078  25.050  1.00  0.00    -0.454 OA
ATOM     99  C   UNL A   1      33.062  14.581  25.621  1.00  0.00     0.468 C 
ENDBRANCH  89  91
ENDBRANCH  83  87
ENDBRANCH  78  81
ENDBRANCH  76  77
ENDBRANCH  75  76
ENDBRANCH   1  75
TORSDOF 16
ENDMDL
MODEL 3
REMARK VINA RESULT:     -11.9      5.084      9.645
REMARK SMILES O=C(NCCCCNC(=O)c1nccnc1C(=O)Nc1ccc2c(c1)OCO2)c1ccc(-c2c3nc(c(-c4c(F)cc(S(=O)(=O)[O-])cc4F)c4ccc([nH]4)c(-c4c(F)cc(S(=O)(=O)[O-])cc4F)c4nc(c(-c5c(F)cc(S(=O)(=O)[O-])cc5F)c5ccc2[nH]5)C=C4)C=C3)cc1
REMARK SMILES IDX 5 1 4 2 3 3 1 4 2 5 29 7 30 8 94 9 31 10 93 11 32 12 33 13
REMARK SMILES IDX 34 14 87 15 35 16 92 17 86 18 88 19 36 20 91 21 85 22 84 23
REMARK SMILES IDX 37 25 71 26 50 27 70 28 51 29 54 30 69 31 89 32 52 33 53 34
REMARK SMILES IDX 68 36 90 37 55 38 38 39 39 40 48 41 40 42 41 43 47 44 49 45
REMARK SMILES IDX 42 46 43 47 44 48 45 49 46 50 72 51 73 52 82 53 74 54 75 55
REMARK SMILES IDX 81 56 83 57 76 58 77 59 78 60 79 61 80 62 56 63 57 64 66 65
REMARK SMILES IDX 58 66 59 67 65 68 67 69 60 70 61 71 62 72 63 73 64 74 6 75
REMARK SMILES IDX 7 76 8 77 9 78 10 80 11 81 12 82 16 83 13 84 15 85 14 86
REMARK SMILES IDX 17 87 18 88 19 89 20 91 21 92 25 93 22 94 24 95 23 96 26 97
REMARK SMILES IDX 28 98 27 99
REMARK H PARENT 3 6 88 24 54 35 8 79 19 90
REMARK Flexibility Score: inf
ROOT
ATOM      1  C   UNL A   1      37.166  23.831  25.361  1.00  0.00     0.023 C 
ENDROOT
BRANCH   1   2
ATOM      2  C   UNL A   1      38.111  24.100  26.528  1.00  0.00     0.116 C 
BRANCH   2   3
ATOM      3  N   UNL A   1      39.508  24.010  26.144  1.00  0.00    -0.352 N 
ATOM      4  O   UNL A   1      41.636  24.721  25.942  1.00  0.00    -0.269 OA
ATOM      5  C   UNL A   1      40.557  24.818  26.524  1.00  0.00     0.251 C 
ATOM      6  H   UNL A   1      39.737  23.272  25.531  1.00  0.00     0.163 HD
BRANCH   5   7
ATOM      7  C   UNL A   1      40.392  25.811  27.616  1.00  0.00     0.039 A 
ATOM      8  C   UNL A   1      39.495  25.587  28.663  1.00  0.00     0.014 A 
ATOM      9  C   UNL A   1      41.193  26.960  27.629  1.00  0.00     0.014 A 
ATOM     10  C   UNL A   1      39.333  26.545  29.663  1.00  0.00     0.010 A 
ATOM     11  C   UNL A   1      41.074  27.894  28.668  1.00  0.00     0.010 A 
ATOM     12  C   UNL A   1      40.134  27.700  29.689  1.00  0.00    -0.014 A 
BRANCH  12  13
ATOM     13  C   UNL A   1      40.027  28.624  30.852  1.00  0.00     0.031 A 
ATOM     14  C   UNL A   1      40.931  28.503  32.047  1.00  0.00     0.074 A 
ATOM     15  C   UNL A   1      39.121  29.621  30.794  1.00  0.00     0.049 A 
ATOM     16  N   UNL A   1      41.018  29.285  33.093  1.00  0.00    -0.248 NA
ATOM     17  C   UNL A   1      41.849  27.354  32.080  1.00  0.00     0.031 C 
ATOM     18  C   UNL A   1      38.156  29.817  29.708  1.00  0.00     0.029 A 
ATOM     19  N   UNL A   1      38.874  30.665  31.649  1.00  0.00    -0.354 N 
ATOM     20  C   UNL A   1      41.999  28.731  33.909  1.00  0.00     0.074 A 
ATOM     21  C   UNL A   1      42.454  27.525  33.250  1.00  0.00     0.031 C 
ATOM     22  C   UNL A   1      37.455  30.937  29.940  1.00  0.00     0.029 A 
ATOM     23  C   UNL A   1      37.893  31.519  31.203  1.00  0.00     0.049 A 
ATOM     24  H   UNL A   1      39.354  30.790  32.499  1.00  0.00     0.167 HD
ATOM     25  C   UNL A   1      42.481  29.194  35.088  1.00  0.00     0.037 A 
ATOM     26  C   UNL A   1      37.398  32.647  31.748  1.00  0.00     0.037 A 
ATOM     27  C   UNL A   1      42.024  30.396  35.743  1.00  0.00     0.049 A 
ATOM     28  C   UNL A   1      37.968  33.149  33.042  1.00  0.00     0.074 A 
ATOM     29  C   UNL A   1      42.461  30.947  36.937  1.00  0.00     0.029 A 
ATOM     30  N   UNL A   1      41.031  31.235  35.260  1.00  0.00    -0.354 N 
ATOM     31  N   UNL A   1      38.919  32.627  33.779  1.00  0.00    -0.248 NA
ATOM     32  C   UNL A   1      37.406  34.397  33.575  1.00  0.00     0.031 C 
ATOM     33  C   UNL A   1      41.713  32.104  37.187  1.00  0.00     0.029 A 
ATOM     34  C   UNL A   1      40.837  32.295  36.133  1.00  0.00     0.049 A 
ATOM     35  H   UNL A   1      40.537  31.099  34.420  1.00  0.00     0.167 HD
ATOM     36  C   UNL A   1      39.067  33.480  34.865  1.00  0.00     0.074 A 
ATOM     37  C   UNL A   1      38.133  34.570  34.671  1.00  0.00     0.031 C 
ATOM     38  C   UNL A   1      39.895  33.366  35.933  1.00  0.00     0.037 A 
BRANCH  25  39
ATOM     39  C   UNL A   1      43.570  28.400  35.756  1.00  0.00     0.058 A 
ATOM     40  C   UNL A   1      43.271  27.372  36.664  1.00  0.00     0.135 A 
ATOM     41  C   UNL A   1      44.921  28.625  35.444  1.00  0.00     0.135 A 
ATOM     42  F   UNL A   1      41.998  27.123  37.008  1.00  0.00    -0.206 F 
ATOM     43  C   UNL A   1      44.274  26.605  37.251  1.00  0.00     0.059 A 
ATOM     44  C   UNL A   1      45.939  27.857  36.004  1.00  0.00     0.059 A 
ATOM     45  F   UNL A   1      45.262  29.595  34.580  1.00  0.00    -0.206 F 
ATOM     46  C   UNL A   1      45.606  26.857  36.915  1.00  0.00     0.060 A 
BRANCH  46  47
ATOM     47  S   UNL A   1      46.893  25.844  37.676  1.00  0.00     0.124 S 
ATOM     48  O   UNL A   1      48.030  26.115  36.801  1.00  0.00    -0.237 OA
ATOM     49  O   UNL A   1      46.980  26.402  39.019  1.00  0.00    -0.237 OA
ATOM     50  O   UNL A   1      46.350  24.490  37.597  1.00  0.00    -0.744 OA
ENDBRANCH  46  47
ENDBRANCH  25  39
BRANCH  26  51
ATOM     51  C   UNL A   1      36.303  33.376  31.059  1.00  0.00     0.058 A 
ATOM     52  C   UNL A   1      35.000  33.385  31.576  1.00  0.00     0.135 A 
ATOM     53  C   UNL A   1      36.547  34.095  29.879  1.00  0.00     0.135 A 
ATOM     54  F   UNL A   1      34.718  32.710  32.700  1.00  0.00    -0.206 F 
ATOM     55  C   UNL A   1      33.971  34.074  30.940  1.00  0.00     0.059 A 
ATOM     56  C   UNL A   1      35.542  34.810  29.239  1.00  0.00     0.059 A 
ATOM     57  F   UNL A   1      37.783  34.130  29.357  1.00  0.00    -0.206 F 
ATOM     58  C   UNL A   1      34.253  34.784  29.771  1.00  0.00     0.060 A 
BRANCH  58  59
ATOM     59  S   UNL A   1      32.931  35.722  28.978  1.00  0.00     0.124 S 
ATOM     60  O   UNL A   1      32.092  36.066  30.120  1.00  0.00    -0.237 OA
ATOM     61  O   UNL A   1      33.658  36.830  28.365  1.00  0.00    -0.237 OA
ATOM     62  O   UNL A   1      32.360  34.763  28.038  1.00  0.00    -0.744 OA
ENDBRANCH  58  59
ENDBRANCH  26  51
BRANCH  38  63
ATOM     63  C   UNL A   1      39.819  34.452  36.967  1.00  0.00     0.058 A 
ATOM     64  C   UNL A   1      38.927  34.371  38.048  1.00  0.00     0.135 A 
ATOM     65  C   UNL A   1      40.645  35.583  36.879  1.00  0.00     0.135 A 
ATOM     66  F   UNL A   1      38.112  33.313  38.172  1.00  0.00    -0.206 F 
ATOM     67  C   UNL A   1      38.832  35.392  38.989  1.00  0.00     0.059 A 
ATOM     68  C   UNL A   1      40.582  36.606  37.820  1.00  0.00     0.059 A 
ATOM     69  F   UNL A   1      41.520  35.704  35.868  1.00  0.00    -0.206 F 
ATOM     70  C   UNL A   1      39.659  36.509  38.861  1.00  0.00     0.060 A 
BRANCH  70  71
ATOM     71  S   UNL A   1      39.527  37.831  40.084  1.00  0.00     0.124 S 
ATOM     72  O   UNL A   1      39.407  37.071  41.323  1.00  0.00    -0.237 OA
ATOM     73  O   UNL A   1      40.782  38.555  39.905  1.00  0.00    -0.237 OA
ATOM     74  O   UNL A   1      38.329  38.555  39.670  1.00  0.00    -0.744 OA
ENDBRANCH  70  71
ENDBRANCH  38  63
ENDBRANCH  12  13
ENDBRANCH   5   7
ENDBRANCH   2   3
ENDBRANCH   1   2
BRANCH   1  75
ATOM     75  C   UNL A   1      35.673  23.621  25.653  1.00  0.00     0.023 C 
BRANCH  75  76
ATOM     76  C   UNL A   1      34.677  24.706  25.246  1.00  0.00     0.116 C 
BRANCH  76  77
ATOM     77  N   UNL A   1      34.306  24.737  23.837  1.00  0.00    -0.351 N 
ATOM     78  C   UNL A   1      33.689  25.747  23.113  1.00  0.00     0.272 C 
ATOM     79  H   UNL A   1      34.525  23.925  23.325  1.00  0.00     0.163 HD
ATOM     80  O   UNL A   1      33.769  25.774  21.888  1.00  0.00    -0.267 OA
BRANCH  78  81
ATOM     81  C   UNL A   1      33.013  26.856  23.812  1.00  0.00     0.159 A 
ATOM     82  N   UNL A   1      33.873  27.921  24.000  1.00  0.00    -0.247 NA
ATOM     83  C   UNL A   1      31.664  26.917  24.149  1.00  0.00     0.159 A 
ATOM     84  C   UNL A   1      33.359  29.043  24.528  1.00  0.00     0.132 A 
ATOM     85  N   UNL A   1      31.201  28.074  24.751  1.00  0.00    -0.247 NA
ATOM     86  C   UNL A   1      32.045  29.114  24.909  1.00  0.00     0.132 A 
BRANCH  83  87
ATOM     87  C   UNL A   1      30.492  26.001  23.842  1.00  0.00     0.276 C 
ATOM     88  O   UNL A   1      29.448  26.528  23.427  1.00  0.00    -0.267 OA
ATOM     89  N   UNL A   1      30.491  24.632  23.780  1.00  0.00    -0.320 N 
ATOM     90  H   UNL A   1      29.939  24.283  23.042  1.00  0.00     0.170 HD
BRANCH  89  91
ATOM     91  C   UNL A   1      31.094  23.626  24.527  1.00  0.00     0.045 A 
ATOM     92  C   UNL A   1      31.132  23.637  25.930  1.00  0.00     0.030 A 
ATOM     93  C   UNL A   1      31.658  22.567  23.803  1.00  0.00     0.076 A 
ATOM     94  C   UNL A   1      31.824  22.626  26.608  1.00  0.00     0.053 A 
ATOM     95  C   UNL A   1      32.417  21.654  24.496  1.00  0.00     0.167 A 
ATOM     96  C   UNL A   1      32.513  21.695  25.864  1.00  0.00     0.165 A 
ATOM     97  O   UNL A   1      33.187  20.676  23.950  1.00  0.00    -0.454 OA
ATOM     98  O   UNL A   1      33.369  20.759  26.350  1.00  0.00    -0.454 OA
ATOM     99  C   UNL A   1      33.905  20.228  25.117  1.00  0.00     0.468 C 
ENDBRANCH  89  91
ENDBRANCH  83  87
ENDBRANCH  78  81
ENDBRANCH  76  77
ENDBRANCH  75  76
ENDBRANCH   1  75
TORSDOF 16
ENDMDL
