MODEL 1
REMARK VINA RESULT:     -13.9      0.000      0.000
REMARK SMILES O=C(NCCCCNC(=O)c1nnn(-c2ccccc2C(F)(F)F)c1-c1cccc(Cl)c1)c1ccc(-c2c3nc(c(-c4c(F)cc(S(=O)(=O)[O-])cc4F)c4ccc([nH]4)c(-c4c(F)cc(S(=O)(=O)[O-])cc4F)c4nc(c(-c5c(F)cc(S(=O)(=O)[O-])cc5F)c5ccc2[nH]5)C=C4)C=C3)cc1
REMARK SMILES IDX 5 1 4 2 3 3 1 4 2 5 33 7 34 8 98 9 35 10 97 11 36 12 37 13
REMARK SMILES IDX 38 14 91 15 39 16 96 17 90 18 92 19 40 20 95 21 89 22 88 23
REMARK SMILES IDX 41 25 75 26 54 27 74 28 55 29 58 30 73 31 93 32 56 33 57 34
REMARK SMILES IDX 72 36 94 37 59 38 42 39 43 40 52 41 44 42 45 43 51 44 53 45
REMARK SMILES IDX 46 46 47 47 48 48 49 49 50 50 76 51 77 52 86 53 78 54 79 55
REMARK SMILES IDX 85 56 87 57 80 58 81 59 82 60 83 61 84 62 60 63 61 64 70 65
REMARK SMILES IDX 62 66 63 67 69 68 71 69 64 70 65 71 66 72 67 73 68 74 6 75
REMARK SMILES IDX 7 76 8 77 9 78 10 80 11 81 12 82 25 83 13 84 14 85 26 86
REMARK SMILES IDX 27 87 32 88 28 89 30 90 29 91 31 92 15 93 16 94 20 95 17 96
REMARK SMILES IDX 19 97 18 98 21 99 22 100 23 101 24 102
REMARK H PARENT 3 6 92 24 58 35 8 79
REMARK Flexibility Score: inf
ROOT
ATOM      1  C   UNL A   1      31.755  29.135  26.632  1.00  0.00     0.023 C 
ENDROOT
BRANCH   1   2
ATOM      2  C   UNL A   1      33.105  29.854  26.565  1.00  0.00     0.116 C 
BRANCH   2   3
ATOM      3  N   UNL A   1      33.212  31.076  27.335  1.00  0.00    -0.352 N 
ATOM      4  O   UNL A   1      34.015  32.953  28.183  1.00  0.00    -0.269 OA
ATOM      5  C   UNL A   1      34.268  31.798  27.827  1.00  0.00     0.251 C 
ATOM      6  H   UNL A   1      32.338  31.474  27.553  1.00  0.00     0.163 HD
BRANCH   5   7
ATOM      7  C   UNL A   1      35.634  31.256  28.050  1.00  0.00     0.039 A 
ATOM      8  C   UNL A   1      36.011  29.919  27.921  1.00  0.00     0.014 A 
ATOM      9  C   UNL A   1      36.595  32.186  28.488  1.00  0.00     0.014 A 
ATOM     10  C   UNL A   1      37.266  29.495  28.350  1.00  0.00     0.010 A 
ATOM     11  C   UNL A   1      37.858  31.775  28.896  1.00  0.00     0.010 A 
ATOM     12  C   UNL A   1      38.175  30.419  28.869  1.00  0.00    -0.014 A 
BRANCH  12  13
ATOM     13  C   UNL A   1      39.540  29.974  29.140  1.00  0.00     0.031 A 
ATOM     14  C   UNL A   1      39.858  29.965  30.596  1.00  0.00     0.074 A 
ATOM     15  C   UNL A   1      40.363  29.458  28.201  1.00  0.00     0.049 A 
ATOM     16  N   UNL A   1      40.716  30.695  31.231  1.00  0.00    -0.248 NA
ATOM     17  C   UNL A   1      38.978  29.182  31.484  1.00  0.00     0.031 C 
ATOM     18  C   UNL A   1      40.036  29.180  26.801  1.00  0.00     0.029 A 
ATOM     19  N   UNL A   1      41.632  28.966  28.314  1.00  0.00    -0.354 N 
ATOM     20  C   UNL A   1      40.671  30.255  32.553  1.00  0.00     0.074 A 
ATOM     21  C   UNL A   1      39.441  29.525  32.687  1.00  0.00     0.031 C 
ATOM     22  C   UNL A   1      40.976  28.361  26.276  1.00  0.00     0.029 A 
ATOM     23  C   UNL A   1      42.026  28.145  27.256  1.00  0.00     0.049 A 
ATOM     24  H   UNL A   1      42.220  29.173  29.076  1.00  0.00     0.167 HD
ATOM     25  C   UNL A   1      41.796  30.245  33.321  1.00  0.00     0.037 A 
ATOM     26  C   UNL A   1      43.094  27.299  27.216  1.00  0.00     0.037 A 
ATOM     27  C   UNL A   1      42.792  31.138  32.777  1.00  0.00     0.049 A 
ATOM     28  C   UNL A   1      44.040  27.736  28.273  1.00  0.00     0.074 A 
ATOM     29  C   UNL A   1      42.845  32.481  32.456  1.00  0.00     0.029 A 
ATOM     30  N   UNL A   1      43.866  30.562  32.145  1.00  0.00    -0.354 N 
ATOM     31  N   UNL A   1      44.694  28.863  28.242  1.00  0.00    -0.248 NA
ATOM     32  C   UNL A   1      43.916  27.126  29.587  1.00  0.00     0.031 C 
ATOM     33  C   UNL A   1      43.665  32.554  31.290  1.00  0.00     0.029 A 
ATOM     34  C   UNL A   1      44.122  31.268  31.004  1.00  0.00     0.049 A 
ATOM     35  H   UNL A   1      44.367  29.775  32.460  1.00  0.00     0.167 HD
ATOM     36  C   UNL A   1      44.658  29.327  29.548  1.00  0.00     0.074 A 
ATOM     37  C   UNL A   1      44.254  28.170  30.347  1.00  0.00     0.031 C 
ATOM     38  C   UNL A   1      44.674  30.666  29.813  1.00  0.00     0.037 A 
BRANCH  25  39
ATOM     39  C   UNL A   1      42.182  29.086  34.237  1.00  0.00     0.058 A 
ATOM     40  C   UNL A   1      42.090  27.772  33.726  1.00  0.00     0.135 A 
ATOM     41  C   UNL A   1      42.296  29.173  35.644  1.00  0.00     0.135 A 
ATOM     42  F   UNL A   1      42.012  27.556  32.403  1.00  0.00    -0.206 F 
ATOM     43  C   UNL A   1      41.961  26.653  34.550  1.00  0.00     0.059 A 
ATOM     44  C   UNL A   1      42.221  28.065  36.480  1.00  0.00     0.059 A 
ATOM     45  F   UNL A   1      42.403  30.331  36.300  1.00  0.00    -0.206 F 
ATOM     46  C   UNL A   1      42.001  26.817  35.929  1.00  0.00     0.060 A 
BRANCH  46  47
ATOM     47  S   UNL A   1      41.719  25.399  36.999  1.00  0.00     0.124 S 
ATOM     48  O   UNL A   1      40.504  25.804  37.696  1.00  0.00    -0.237 OA
ATOM     49  O   UNL A   1      41.574  24.318  36.030  1.00  0.00    -0.237 OA
ATOM     50  O   UNL A   1      42.931  25.349  37.811  1.00  0.00    -0.744 OA
ENDBRANCH  46  47
ENDBRANCH  25  39
BRANCH  26  51
ATOM     51  C   UNL A   1      43.198  25.954  26.573  1.00  0.00     0.058 A 
ATOM     52  C   UNL A   1      44.097  25.709  25.514  1.00  0.00     0.135 A 
ATOM     53  C   UNL A   1      42.635  24.807  27.168  1.00  0.00     0.135 A 
ATOM     54  F   UNL A   1      44.703  26.734  24.892  1.00  0.00    -0.206 F 
ATOM     55  C   UNL A   1      44.455  24.414  25.110  1.00  0.00     0.059 A 
ATOM     56  C   UNL A   1      42.964  23.510  26.775  1.00  0.00     0.059 A 
ATOM     57  F   UNL A   1      41.811  24.908  28.220  1.00  0.00    -0.206 F 
ATOM     58  C   UNL A   1      43.895  23.318  25.763  1.00  0.00     0.060 A 
BRANCH  58  59
ATOM     59  S   UNL A   1      44.473  21.645  25.377  1.00  0.00     0.124 S 
ATOM     60  O   UNL A   1      45.825  21.659  25.921  1.00  0.00    -0.237 OA
ATOM     61  O   UNL A   1      43.508  20.811  26.085  1.00  0.00    -0.237 OA
ATOM     62  O   UNL A   1      44.389  21.586  23.919  1.00  0.00    -0.744 OA
ENDBRANCH  58  59
ENDBRANCH  26  51
BRANCH  38  63
ATOM     63  C   UNL A   1      45.122  31.602  28.724  1.00  0.00     0.058 A 
ATOM     64  C   UNL A   1      44.327  32.031  27.647  1.00  0.00     0.135 A 
ATOM     65  C   UNL A   1      46.393  32.183  28.856  1.00  0.00     0.135 A 
ATOM     66  F   UNL A   1      43.062  31.608  27.508  1.00  0.00    -0.206 F 
ATOM     67  C   UNL A   1      44.799  32.956  26.712  1.00  0.00     0.059 A 
ATOM     68  C   UNL A   1      46.870  33.130  27.959  1.00  0.00     0.059 A 
ATOM     69  F   UNL A   1      47.176  31.859  29.899  1.00  0.00    -0.206 F 
ATOM     70  C   UNL A   1      46.074  33.498  26.877  1.00  0.00     0.060 A 
BRANCH  70  71
ATOM     71  S   UNL A   1      46.669  34.729  25.699  1.00  0.00     0.124 S 
ATOM     72  O   UNL A   1      46.510  35.972  26.448  1.00  0.00    -0.237 OA
ATOM     73  O   UNL A   1      48.046  34.303  25.465  1.00  0.00    -0.237 OA
ATOM     74  O   UNL A   1      45.775  34.571  24.556  1.00  0.00    -0.744 OA
ENDBRANCH  70  71
ENDBRANCH  38  63
ENDBRANCH  12  13
ENDBRANCH   5   7
ENDBRANCH   2   3
ENDBRANCH   1   2
BRANCH   1  75
ATOM     75  C   UNL A   1      31.735  27.810  27.393  1.00  0.00     0.023 C 
BRANCH  75  76
ATOM     76  C   UNL A   1      31.851  26.560  26.539  1.00  0.00     0.116 C 
BRANCH  76  77
ATOM     77  N   UNL A   1      30.755  25.626  26.710  1.00  0.00    -0.351 N 
ATOM     78  C   UNL A   1      30.806  24.253  26.802  1.00  0.00     0.274 C 
ATOM     79  H   UNL A   1      29.857  26.025  26.769  1.00  0.00     0.163 HD
ATOM     80  O   UNL A   1      29.743  23.631  26.883  1.00  0.00    -0.267 OA
BRANCH  78  81
ATOM     81  C   UNL A   1      32.092  23.571  26.805  1.00  0.00     0.178 A 
ATOM     82  N   UNL A   1      32.523  22.853  27.895  1.00  0.00    -0.124 NA
ATOM     83  C   UNL A   1      33.050  23.488  25.800  1.00  0.00     0.108 A 
ATOM     84  N   UNL A   1      33.675  22.275  27.588  1.00  0.00    -0.061 NA
ATOM     85  N   UNL A   1      34.073  22.761  26.397  1.00  0.00    -0.211 N 
BRANCH  83  86
ATOM     86  C   UNL A   1      33.049  23.933  24.408  1.00  0.00     0.004 A 
ATOM     87  C   UNL A   1      32.687  23.035  23.388  1.00  0.00     0.010 A 
ATOM     88  C   UNL A   1      33.368  25.253  24.075  1.00  0.00     0.031 A 
ATOM     89  C   UNL A   1      32.661  23.443  22.055  1.00  0.00     0.002 A 
ATOM     90  C   UNL A   1      33.357  25.650  22.737  1.00  0.00     0.041 A 
ATOM     91  C   UNL A   1      33.004  24.753  21.729  1.00  0.00     0.020 A 
ATOM     92  Cl  UNL A   1      33.790  27.263  22.326  1.00  0.00    -0.084 Cl
ENDBRANCH  83  86
BRANCH  85  93
ATOM     93  C   UNL A   1      35.309  22.385  25.822  1.00  0.00     0.079 A 
ATOM     94  C   UNL A   1      36.367  23.301  25.930  1.00  0.00     0.029 A 
ATOM     95  C   UNL A   1      35.519  21.099  25.286  1.00  0.00     0.081 A 
ATOM     96  C   UNL A   1      37.664  22.903  25.604  1.00  0.00     0.002 A 
ATOM     97  C   UNL A   1      36.838  20.722  24.974  1.00  0.00     0.015 A 
ATOM     98  C   UNL A   1      37.901  21.609  25.149  1.00  0.00     0.001 A 
BRANCH  95  99
ATOM     99  C   UNL A   1      34.417  20.124  24.933  1.00  0.00     0.418 C 
ATOM    100  F   UNL A   1      33.654  20.577  23.896  1.00  0.00    -0.166 F 
ATOM    101  F   UNL A   1      34.899  18.920  24.523  1.00  0.00    -0.166 F 
ATOM    102  F   UNL A   1      33.535  19.861  25.931  1.00  0.00    -0.166 F 
ENDBRANCH  95  99
ENDBRANCH  85  93
ENDBRANCH  78  81
ENDBRANCH  76  77
ENDBRANCH  75  76
ENDBRANCH   1  75
TORSDOF 17
ENDMDL
MODEL 2
REMARK VINA RESULT:     -13.7      1.772      2.571
REMARK SMILES O=C(NCCCCNC(=O)c1nnn(-c2ccccc2C(F)(F)F)c1-c1cccc(Cl)c1)c1ccc(-c2c3nc(c(-c4c(F)cc(S(=O)(=O)[O-])cc4F)c4ccc([nH]4)c(-c4c(F)cc(S(=O)(=O)[O-])cc4F)c4nc(c(-c5c(F)cc(S(=O)(=O)[O-])cc5F)c5ccc2[nH]5)C=C4)C=C3)cc1
REMARK SMILES IDX 5 1 4 2 3 3 1 4 2 5 33 7 34 8 98 9 35 10 97 11 36 12 37 13
REMARK SMILES IDX 38 14 91 15 39 16 96 17 90 18 92 19 40 20 95 21 89 22 88 23
REMARK SMILES IDX 41 25 75 26 54 27 74 28 55 29 58 30 73 31 93 32 56 33 57 34
REMARK SMILES IDX 72 36 94 37 59 38 42 39 43 40 52 41 44 42 45 43 51 44 53 45
REMARK SMILES IDX 46 46 47 47 48 48 49 49 50 50 76 51 77 52 86 53 78 54 79 55
REMARK SMILES IDX 85 56 87 57 80 58 81 59 82 60 83 61 84 62 60 63 61 64 70 65
REMARK SMILES IDX 62 66 63 67 69 68 71 69 64 70 65 71 66 72 67 73 68 74 6 75
REMARK SMILES IDX 7 76 8 77 9 78 10 80 11 81 12 82 25 83 13 84 14 85 26 86
REMARK SMILES IDX 27 87 32 88 28 89 30 90 29 91 31 92 15 93 16 94 20 95 17 96
REMARK SMILES IDX 19 97 18 98 21 99 22 100 23 101 24 102
REMARK H PARENT 3 6 92 24 58 35 8 79
REMARK Flexibility Score: inf
ROOT
ATOM      1  C   UNL A   1      32.955  29.446  25.134  1.00  0.00     0.023 C 
ENDROOT
BRANCH   1   2
ATOM      2  C   UNL A   1      32.899  29.442  26.664  1.00  0.00     0.116 C 
BRANCH   2   3
ATOM      3  N   UNL A   1      33.012  30.734  27.308  1.00  0.00    -0.352 N 
ATOM      4  O   UNL A   1      33.816  32.692  27.948  1.00  0.00    -0.269 OA
ATOM      5  C   UNL A   1      34.072  31.510  27.699  1.00  0.00     0.251 C 
ATOM      6  H   UNL A   1      32.140  31.144  27.508  1.00  0.00     0.163 HD
BRANCH   5   7
ATOM      7  C   UNL A   1      35.449  31.003  27.938  1.00  0.00     0.039 A 
ATOM      8  C   UNL A   1      35.851  29.670  27.864  1.00  0.00     0.014 A 
ATOM      9  C   UNL A   1      36.394  31.970  28.331  1.00  0.00     0.014 A 
ATOM     10  C   UNL A   1      37.115  29.289  28.305  1.00  0.00     0.010 A 
ATOM     11  C   UNL A   1      37.666  31.600  28.750  1.00  0.00     0.010 A 
ATOM     12  C   UNL A   1      38.009  30.251  28.779  1.00  0.00    -0.014 A 
BRANCH  12  13
ATOM     13  C   UNL A   1      39.384  29.843  29.062  1.00  0.00     0.031 A 
ATOM     14  C   UNL A   1      39.694  29.862  30.520  1.00  0.00     0.074 A 
ATOM     15  C   UNL A   1      40.223  29.335  28.134  1.00  0.00     0.049 A 
ATOM     16  N   UNL A   1      40.531  30.623  31.148  1.00  0.00    -0.248 NA
ATOM     17  C   UNL A   1      38.831  29.070  31.415  1.00  0.00     0.031 C 
ATOM     18  C   UNL A   1      39.910  29.030  26.737  1.00  0.00     0.029 A 
ATOM     19  N   UNL A   1      41.504  28.877  28.259  1.00  0.00    -0.354 N 
ATOM     20  C   UNL A   1      40.491  30.200  32.476  1.00  0.00     0.074 A 
ATOM     21  C   UNL A   1      39.280  29.441  32.615  1.00  0.00     0.031 C 
ATOM     22  C   UNL A   1      40.872  28.228  26.227  1.00  0.00     0.029 A 
ATOM     23  C   UNL A   1      41.923  28.051  27.215  1.00  0.00     0.049 A 
ATOM     24  H   UNL A   1      42.083  29.109  29.021  1.00  0.00     0.167 HD
ATOM     25  C   UNL A   1      41.613  30.228  33.249  1.00  0.00     0.037 A 
ATOM     26  C   UNL A   1      43.011  27.232  27.191  1.00  0.00     0.037 A 
ATOM     27  C   UNL A   1      42.589  31.138  32.697  1.00  0.00     0.049 A 
ATOM     28  C   UNL A   1      43.941  27.707  28.246  1.00  0.00     0.074 A 
ATOM     29  C   UNL A   1      42.610  32.477  32.357  1.00  0.00     0.029 A 
ATOM     30  N   UNL A   1      43.680  30.580  32.078  1.00  0.00    -0.354 N 
ATOM     31  N   UNL A   1      44.568  28.850  28.201  1.00  0.00    -0.248 NA
ATOM     32  C   UNL A   1      43.827  27.112  29.567  1.00  0.00     0.031 C 
ATOM     33  C   UNL A   1      43.433  32.555  31.194  1.00  0.00     0.029 A 
ATOM     34  C   UNL A   1      43.923  31.277  30.928  1.00  0.00     0.049 A 
ATOM     35  H   UNL A   1      44.199  29.811  32.406  1.00  0.00     0.167 HD
ATOM     36  C   UNL A   1      44.514  29.330  29.501  1.00  0.00     0.074 A 
ATOM     37  C   UNL A   1      44.135  28.174  30.314  1.00  0.00     0.031 C 
ATOM     38  C   UNL A   1      44.496  30.672  29.748  1.00  0.00     0.037 A 
BRANCH  25  39
ATOM     39  C   UNL A   1      42.023  29.092  34.183  1.00  0.00     0.058 A 
ATOM     40  C   UNL A   1      42.025  27.775  33.670  1.00  0.00     0.135 A 
ATOM     41  C   UNL A   1      42.073  29.185  35.593  1.00  0.00     0.135 A 
ATOM     42  F   UNL A   1      42.015  27.556  32.346  1.00  0.00    -0.206 F 
ATOM     43  C   UNL A   1      41.924  26.651  34.490  1.00  0.00     0.059 A 
ATOM     44  C   UNL A   1      42.024  28.074  36.427  1.00  0.00     0.059 A 
ATOM     45  F   UNL A   1      42.089  30.347  36.250  1.00  0.00    -0.206 F 
ATOM     46  C   UNL A   1      41.896  26.816  35.870  1.00  0.00     0.060 A 
BRANCH  46  47
ATOM     47  S   UNL A   1      41.649  25.384  36.930  1.00  0.00     0.124 S 
ATOM     48  O   UNL A   1      42.920  25.333  37.642  1.00  0.00    -0.237 OA
ATOM     49  O   UNL A   1      40.489  25.793  37.716  1.00  0.00    -0.237 OA
ATOM     50  O   UNL A   1      41.408  24.303  35.980  1.00  0.00    -0.744 OA
ENDBRANCH  46  47
ENDBRANCH  25  39
BRANCH  26  51
ATOM     51  C   UNL A   1      43.152  25.881  26.567  1.00  0.00     0.058 A 
ATOM     52  C   UNL A   1      44.000  25.663  25.460  1.00  0.00     0.135 A 
ATOM     53  C   UNL A   1      42.689  24.718  27.215  1.00  0.00     0.135 A 
ATOM     54  F   UNL A   1      44.510  26.705  24.785  1.00  0.00    -0.206 F 
ATOM     55  C   UNL A   1      44.404  24.381  25.060  1.00  0.00     0.059 A 
ATOM     56  C   UNL A   1      43.066  23.433  26.827  1.00  0.00     0.059 A 
ATOM     57  F   UNL A   1      41.924  24.796  28.313  1.00  0.00    -0.206 F 
ATOM     58  C   UNL A   1      43.945  23.270  25.765  1.00  0.00     0.060 A 
BRANCH  58  59
ATOM     59  S   UNL A   1      44.591  21.623  25.375  1.00  0.00     0.124 S 
ATOM     60  O   UNL A   1      45.912  21.662  25.990  1.00  0.00    -0.237 OA
ATOM     61  O   UNL A   1      43.615  20.746  26.012  1.00  0.00    -0.237 OA
ATOM     62  O   UNL A   1      44.586  21.595  23.913  1.00  0.00    -0.744 OA
ENDBRANCH  58  59
ENDBRANCH  26  51
BRANCH  38  63
ATOM     63  C   UNL A   1      44.925  31.605  28.648  1.00  0.00     0.058 A 
ATOM     64  C   UNL A   1      44.179  31.890  27.491  1.00  0.00     0.135 A 
ATOM     65  C   UNL A   1      46.108  32.333  28.846  1.00  0.00     0.135 A 
ATOM     66  F   UNL A   1      42.985  31.318  27.278  1.00  0.00    -0.206 F 
ATOM     67  C   UNL A   1      44.621  32.821  26.547  1.00  0.00     0.059 A 
ATOM     68  C   UNL A   1      46.550  33.288  27.938  1.00  0.00     0.059 A 
ATOM     69  F   UNL A   1      46.833  32.149  29.962  1.00  0.00    -0.206 F 
ATOM     70  C   UNL A   1      45.810  33.513  26.780  1.00  0.00     0.060 A 
BRANCH  70  71
ATOM     71  S   UNL A   1      46.360  34.751  25.588  1.00  0.00     0.124 S 
ATOM     72  O   UNL A   1      46.131  35.997  26.311  1.00  0.00    -0.237 OA
ATOM     73  O   UNL A   1      47.759  34.388  25.377  1.00  0.00    -0.237 OA
ATOM     74  O   UNL A   1      45.489  34.529  24.436  1.00  0.00    -0.744 OA
ENDBRANCH  70  71
ENDBRANCH  38  63
ENDBRANCH  12  13
ENDBRANCH   5   7
ENDBRANCH   2   3
ENDBRANCH   1   2
BRANCH   1  75
ATOM     75  C   UNL A   1      33.958  28.488  24.495  1.00  0.00     0.023 C 
BRANCH  75  76
ATOM     76  C   UNL A   1      33.931  28.425  22.977  1.00  0.00     0.116 C 
BRANCH  76  77
ATOM     77  N   UNL A   1      32.606  28.233  22.419  1.00  0.00    -0.351 N 
ATOM     78  C   UNL A   1      31.972  27.053  22.102  1.00  0.00     0.274 C 
ATOM     79  H   UNL A   1      32.093  29.055  22.244  1.00  0.00     0.163 HD
ATOM     80  O   UNL A   1      30.859  27.110  21.573  1.00  0.00    -0.267 OA
BRANCH  78  81
ATOM     81  C   UNL A   1      32.615  25.780  22.396  1.00  0.00     0.178 A 
ATOM     82  N   UNL A   1      33.635  25.293  21.613  1.00  0.00    -0.124 NA
ATOM     83  C   UNL A   1      32.375  24.889  23.436  1.00  0.00     0.108 A 
ATOM     84  N   UNL A   1      34.082  24.171  22.159  1.00  0.00    -0.061 NA
ATOM     85  N   UNL A   1      33.247  23.842  23.163  1.00  0.00    -0.211 N 
BRANCH  83  86
ATOM     86  C   UNL A   1      31.518  24.971  24.616  1.00  0.00     0.004 A 
ATOM     87  C   UNL A   1      31.210  26.227  25.170  1.00  0.00     0.010 A 
ATOM     88  C   UNL A   1      30.966  23.820  25.186  1.00  0.00     0.031 A 
ATOM     89  C   UNL A   1      30.379  26.330  26.285  1.00  0.00     0.002 A 
ATOM     90  C   UNL A   1      30.150  23.928  26.312  1.00  0.00     0.041 A 
ATOM     91  C   UNL A   1      29.854  25.176  26.862  1.00  0.00     0.020 A 
ATOM     92  Cl  UNL A   1      29.507  22.507  27.036  1.00  0.00    -0.084 Cl
ENDBRANCH  83  86
BRANCH  85  93
ATOM     93  C   UNL A   1      33.419  22.651  23.906  1.00  0.00     0.079 A 
ATOM     94  C   UNL A   1      32.660  21.538  23.510  1.00  0.00     0.029 A 
ATOM     95  C   UNL A   1      34.403  22.535  24.908  1.00  0.00     0.081 A 
ATOM     96  C   UNL A   1      32.952  20.279  24.035  1.00  0.00     0.002 A 
ATOM     97  C   UNL A   1      34.681  21.251  25.413  1.00  0.00     0.015 A 
ATOM     98  C   UNL A   1      33.975  20.133  24.968  1.00  0.00     0.001 A 
BRANCH  95  99
ATOM     99  C   UNL A   1      35.119  23.703  25.549  1.00  0.00     0.418 C 
ATOM    100  F   UNL A   1      35.888  24.381  24.647  1.00  0.00    -0.166 F 
ATOM    101  F   UNL A   1      34.259  24.628  26.053  1.00  0.00    -0.166 F 
ATOM    102  F   UNL A   1      35.965  23.378  26.561  1.00  0.00    -0.166 F 
ENDBRANCH  95  99
ENDBRANCH  85  93
ENDBRANCH  78  81
ENDBRANCH  76  77
ENDBRANCH  75  76
ENDBRANCH   1  75
TORSDOF 17
ENDMDL
MODEL 3
REMARK VINA RESULT:     -13.6      2.853      9.005
REMARK SMILES O=C(NCCCCNC(=O)c1nnn(-c2ccccc2C(F)(F)F)c1-c1cccc(Cl)c1)c1ccc(-c2c3nc(c(-c4c(F)cc(S(=O)(=O)[O-])cc4F)c4ccc([nH]4)c(-c4c(F)cc(S(=O)(=O)[O-])cc4F)c4nc(c(-c5c(F)cc(S(=O)(=O)[O-])cc5F)c5ccc2[nH]5)C=C4)C=C3)cc1
REMARK SMILES IDX 5 1 4 2 3 3 1 4 2 5 33 7 34 8 98 9 35 10 97 11 36 12 37 13
REMARK SMILES IDX 38 14 91 15 39 16 96 17 90 18 92 19 40 20 95 21 89 22 88 23
REMARK SMILES IDX 41 25 75 26 54 27 74 28 55 29 58 30 73 31 93 32 56 33 57 34
REMARK SMILES IDX 72 36 94 37 59 38 42 39 43 40 52 41 44 42 45 43 51 44 53 45
REMARK SMILES IDX 46 46 47 47 48 48 49 49 50 50 76 51 77 52 86 53 78 54 79 55
REMARK SMILES IDX 85 56 87 57 80 58 81 59 82 60 83 61 84 62 60 63 61 64 70 65
REMARK SMILES IDX 62 66 63 67 69 68 71 69 64 70 65 71 66 72 67 73 68 74 6 75
REMARK SMILES IDX 7 76 8 77 9 78 10 80 11 81 12 82 25 83 13 84 14 85 26 86
REMARK SMILES IDX 27 87 32 88 28 89 30 90 29 91 31 92 15 93 16 94 20 95 17 96
REMARK SMILES IDX 19 97 18 98 21 99 22 100 23 101 24 102
REMARK H PARENT 3 6 92 24 58 35 8 79
REMARK Flexibility Score: inf
ROOT
ATOM      1  C   UNL A   1      35.907  22.100  24.249  1.00  0.00     0.023 C 
ENDROOT
BRANCH   1   2
ATOM      2  C   UNL A   1      37.259  22.743  24.571  1.00  0.00     0.116 C 
BRANCH   2   3
ATOM      3  N   UNL A   1      38.279  21.854  25.089  1.00  0.00    -0.352 N 
ATOM      4  O   UNL A   1      39.684  20.865  26.479  1.00  0.00    -0.269 OA
ATOM      5  C   UNL A   1      39.158  21.928  26.137  1.00  0.00     0.251 C 
ATOM      6  H   UNL A   1      38.357  21.017  24.578  1.00  0.00     0.163 HD
BRANCH   5   7
ATOM      7  C   UNL A   1      39.585  23.190  26.798  1.00  0.00     0.039 A 
ATOM      8  C   UNL A   1      38.908  24.409  26.740  1.00  0.00     0.014 A 
ATOM      9  C   UNL A   1      40.812  23.134  27.483  1.00  0.00     0.014 A 
ATOM     10  C   UNL A   1      39.504  25.569  27.226  1.00  0.00     0.010 A 
ATOM     11  C   UNL A   1      41.403  24.284  27.993  1.00  0.00     0.010 A 
ATOM     12  C   UNL A   1      40.765  25.510  27.822  1.00  0.00    -0.014 A 
BRANCH  12  13
ATOM     13  C   UNL A   1      41.280  26.709  28.481  1.00  0.00     0.031 A 
ATOM     14  C   UNL A   1      42.539  27.206  27.857  1.00  0.00     0.074 A 
ATOM     15  C   UNL A   1      40.604  27.395  29.427  1.00  0.00     0.049 A 
ATOM     16  N   UNL A   1      43.721  27.261  28.379  1.00  0.00    -0.248 NA
ATOM     17  C   UNL A   1      42.518  27.499  26.412  1.00  0.00     0.031 C 
ATOM     18  C   UNL A   1      39.245  27.131  29.904  1.00  0.00     0.029 A 
ATOM     19  N   UNL A   1      40.935  28.542  30.093  1.00  0.00    -0.354 N 
ATOM     20  C   UNL A   1      44.526  27.859  27.410  1.00  0.00     0.074 A 
ATOM     21  C   UNL A   1      43.806  27.750  26.172  1.00  0.00     0.031 C 
ATOM     22  C   UNL A   1      38.789  28.210  30.581  1.00  0.00     0.029 A 
ATOM     23  C   UNL A   1      39.853  29.195  30.686  1.00  0.00     0.049 A 
ATOM     24  H   UNL A   1      41.858  28.879  30.149  1.00  0.00     0.167 HD
ATOM     25  C   UNL A   1      45.552  28.680  27.769  1.00  0.00     0.037 A 
ATOM     26  C   UNL A   1      39.814  30.471  31.161  1.00  0.00     0.037 A 
ATOM     27  C   UNL A   1      45.941  28.441  29.140  1.00  0.00     0.049 A 
ATOM     28  C   UNL A   1      41.217  30.897  31.390  1.00  0.00     0.074 A 
ATOM     29  C   UNL A   1      46.367  27.346  29.868  1.00  0.00     0.029 A 
ATOM     30  N   UNL A   1      45.572  29.384  30.066  1.00  0.00    -0.354 N 
ATOM     31  N   UNL A   1      41.993  30.382  32.303  1.00  0.00    -0.248 NA
ATOM     32  C   UNL A   1      41.902  31.581  30.306  1.00  0.00     0.031 C 
ATOM     33  C   UNL A   1      45.799  27.519  31.166  1.00  0.00     0.029 A 
ATOM     34  C   UNL A   1      45.120  28.736  31.180  1.00  0.00     0.049 A 
ATOM     35  H   UNL A   1      45.625  30.359  29.948  1.00  0.00     0.167 HD
ATOM     36  C   UNL A   1      43.231  30.270  31.688  1.00  0.00     0.074 A 
ATOM     37  C   UNL A   1      43.138  31.114  30.498  1.00  0.00     0.031 C 
ATOM     38  C   UNL A   1      44.101  29.280  32.047  1.00  0.00     0.037 A 
BRANCH  25  39
ATOM     39  C   UNL A   1      45.851  30.009  27.079  1.00  0.00     0.058 A 
ATOM     40  C   UNL A   1      47.203  30.383  26.908  1.00  0.00     0.135 A 
ATOM     41  C   UNL A   1      44.915  31.054  26.898  1.00  0.00     0.135 A 
ATOM     42  F   UNL A   1      48.184  29.473  27.019  1.00  0.00    -0.206 F 
ATOM     43  C   UNL A   1      47.599  31.709  26.733  1.00  0.00     0.059 A 
ATOM     44  C   UNL A   1      45.287  32.373  26.672  1.00  0.00     0.059 A 
ATOM     45  F   UNL A   1      43.596  30.881  27.010  1.00  0.00    -0.206 F 
ATOM     46  C   UNL A   1      46.630  32.701  26.644  1.00  0.00     0.060 A 
BRANCH  46  47
ATOM     47  S   UNL A   1      47.131  34.425  26.535  1.00  0.00     0.124 S 
ATOM     48  O   UNL A   1      47.066  34.652  25.096  1.00  0.00    -0.237 OA
ATOM     49  O   UNL A   1      46.106  35.085  27.337  1.00  0.00    -0.237 OA
ATOM     50  O   UNL A   1      48.469  34.420  27.118  1.00  0.00    -0.744 OA
ENDBRANCH  46  47
ENDBRANCH  25  39
BRANCH  26  51
ATOM     51  C   UNL A   1      38.691  31.456  31.107  1.00  0.00     0.058 A 
ATOM     52  C   UNL A   1      37.895  31.607  29.953  1.00  0.00     0.135 A 
ATOM     53  C   UNL A   1      38.188  32.063  32.275  1.00  0.00     0.135 A 
ATOM     54  F   UNL A   1      38.277  31.050  28.792  1.00  0.00    -0.206 F 
ATOM     55  C   UNL A   1      36.657  32.267  29.970  1.00  0.00     0.059 A 
ATOM     56  C   UNL A   1      36.967  32.737  32.314  1.00  0.00     0.059 A 
ATOM     57  F   UNL A   1      38.825  31.942  33.448  1.00  0.00    -0.206 F 
ATOM     58  C   UNL A   1      36.192  32.813  31.164  1.00  0.00     0.060 A 
BRANCH  58  59
ATOM     59  S   UNL A   1      34.524  33.514  31.247  1.00  0.00     0.124 S 
ATOM     60  O   UNL A   1      33.886  32.660  32.242  1.00  0.00    -0.237 OA
ATOM     61  O   UNL A   1      34.784  34.889  31.658  1.00  0.00    -0.237 OA
ATOM     62  O   UNL A   1      34.024  33.360  29.883  1.00  0.00    -0.744 OA
ENDBRANCH  58  59
ENDBRANCH  26  51
BRANCH  38  63
ATOM     63  C   UNL A   1      43.875  28.574  33.356  1.00  0.00     0.058 A 
ATOM     64  C   UNL A   1      44.321  29.029  34.610  1.00  0.00     0.135 A 
ATOM     65  C   UNL A   1      43.058  27.433  33.340  1.00  0.00     0.135 A 
ATOM     66  F   UNL A   1      45.015  30.171  34.725  1.00  0.00    -0.206 F 
ATOM     67  C   UNL A   1      44.011  28.345  35.788  1.00  0.00     0.059 A 
ATOM     68  C   UNL A   1      42.709  26.757  34.503  1.00  0.00     0.059 A 
ATOM     69  F   UNL A   1      42.550  26.985  32.180  1.00  0.00    -0.206 F 
ATOM     70  C   UNL A   1      43.206  27.208  35.723  1.00  0.00     0.060 A 
BRANCH  70  71
ATOM     71  S   UNL A   1      42.763  26.350  37.247  1.00  0.00     0.124 S 
ATOM     72  O   UNL A   1      41.363  26.724  37.414  1.00  0.00    -0.237 OA
ATOM     73  O   UNL A   1      43.010  24.952  36.907  1.00  0.00    -0.237 OA
ATOM     74  O   UNL A   1      43.681  26.912  38.236  1.00  0.00    -0.744 OA
ENDBRANCH  70  71
ENDBRANCH  38  63
ENDBRANCH  12  13
ENDBRANCH   5   7
ENDBRANCH   2   3
ENDBRANCH   1   2
BRANCH   1  75
ATOM     75  C   UNL A   1      34.675  22.975  24.471  1.00  0.00     0.023 C 
BRANCH  75  76
ATOM     76  C   UNL A   1      34.651  23.757  25.773  1.00  0.00     0.116 C 
BRANCH  76  77
ATOM     77  N   UNL A   1      33.627  23.322  26.703  1.00  0.00    -0.351 N 
ATOM     78  C   UNL A   1      32.272  23.564  26.660  1.00  0.00     0.274 C 
ATOM     79  H   UNL A   1      33.941  22.784  27.465  1.00  0.00     0.163 HD
ATOM     80  O   UNL A   1      31.573  23.154  27.591  1.00  0.00    -0.267 OA
BRANCH  78  81
ATOM     81  C   UNL A   1      31.697  24.283  25.533  1.00  0.00     0.178 A 
ATOM     82  N   UNL A   1      31.052  23.625  24.512  1.00  0.00    -0.124 NA
ATOM     83  C   UNL A   1      31.659  25.652  25.285  1.00  0.00     0.108 A 
ATOM     84  N   UNL A   1      30.560  24.527  23.676  1.00  0.00    -0.061 NA
ATOM     85  N   UNL A   1      31.037  25.732  24.045  1.00  0.00    -0.211 N 
BRANCH  83  86
ATOM     86  C   UNL A   1      32.056  26.803  26.092  1.00  0.00     0.004 A 
ATOM     87  C   UNL A   1      31.100  27.465  26.882  1.00  0.00     0.010 A 
ATOM     88  C   UNL A   1      33.384  27.238  26.120  1.00  0.00     0.031 A 
ATOM     89  C   UNL A   1      31.461  28.554  27.675  1.00  0.00     0.002 A 
ATOM     90  C   UNL A   1      33.735  28.340  26.901  1.00  0.00     0.041 A 
ATOM     91  C   UNL A   1      32.781  28.997  27.678  1.00  0.00     0.020 A 
ATOM     92  Cl  UNL A   1      35.362  28.898  26.901  1.00  0.00    -0.084 Cl
ENDBRANCH  83  86
BRANCH  85  93
ATOM     93  C   UNL A   1      30.743  26.900  23.305  1.00  0.00     0.079 A 
ATOM     94  C   UNL A   1      29.465  27.456  23.471  1.00  0.00     0.029 A 
ATOM     95  C   UNL A   1      31.725  27.563  22.541  1.00  0.00     0.081 A 
ATOM     96  C   UNL A   1      29.191  28.726  22.966  1.00  0.00     0.002 A 
ATOM     97  C   UNL A   1      31.423  28.847  22.051  1.00  0.00     0.015 A 
ATOM     98  C   UNL A   1      30.176  29.430  22.277  1.00  0.00     0.001 A 
BRANCH  95  99
ATOM     99  C   UNL A   1      33.049  26.957  22.129  1.00  0.00     0.418 C 
ATOM    100  F   UNL A   1      33.971  27.917  21.823  1.00  0.00    -0.166 F 
ATOM    101  F   UNL A   1      33.616  26.220  23.122  1.00  0.00    -0.166 F 
ATOM    102  F   UNL A   1      33.002  26.152  21.036  1.00  0.00    -0.166 F 
ENDBRANCH  95  99
ENDBRANCH  85  93
ENDBRANCH  78  81
ENDBRANCH  76  77
ENDBRANCH  75  76
ENDBRANCH   1  75
TORSDOF 17
ENDMDL
