MODEL 1
REMARK VINA RESULT:      -9.8      0.000      0.000
REMARK SMILES COC[C@H](C)[C@H](CC(C)C)C(=O)NCCCCNC(=O)c1ccc(-c2c3nc(c(-c4c(F)cc(S(=O)(=O)[O-])cc4F)c4ccc([nH]4)c(-c4c(F)cc(S(=O)(=O)[O-])cc4F)c4nc(c(-c5c(F)cc(S(=O)(=O)[O-])cc5F)c5ccc2[nH]5)C=C4)C=C3)cc1
REMARK SMILES IDX 15 1 14 2 13 3 11 4 12 5 6 7 4 8 5 9 3 10 2 11 1 12 7 13
REMARK SMILES IDX 8 14 9 15 10 16 16 17 17 18 18 19 19 20 20 22 21 23 22 24
REMARK SMILES IDX 86 25 23 26 85 27 24 28 25 29 26 30 79 31 27 32 84 33 78 34
REMARK SMILES IDX 80 35 28 36 83 37 77 38 76 39 29 41 63 42 42 43 62 44 43 45
REMARK SMILES IDX 46 46 61 47 81 48 44 49 45 50 60 52 82 53 47 54 30 55 31 56
REMARK SMILES IDX 40 57 32 58 33 59 39 60 41 61 34 62 35 63 36 64 37 65 38 66
REMARK SMILES IDX 64 67 65 68 74 69 66 70 67 71 73 72 75 73 68 74 69 75 70 76
REMARK SMILES IDX 71 77 72 78 48 79 49 80 58 81 50 82 51 83 57 84 59 85 52 86
REMARK SMILES IDX 53 87 54 88 55 89 56 90
REMARK H PARENT 13 6 18 21 80 40 46 51
REMARK Flexibility Score: inf
ROOT
ATOM      1  C   UNL A   1      37.449  20.865  24.635  1.00  0.00     0.023 C 
ENDROOT
BRANCH   1   2
ATOM      2  C   UNL A   1      35.982  20.789  25.036  1.00  0.00     0.116 C 
BRANCH   2   3
ATOM      3  N   UNL A   1      35.119  21.642  24.252  1.00  0.00    -0.356 N 
ATOM      4  C   UNL A   1      33.775  21.821  24.252  1.00  0.00     0.223 C 
ATOM      5  O   UNL A   1      33.332  22.640  23.441  1.00  0.00    -0.275 OA
ATOM      6  H   UNL A   1      35.596  22.197  23.594  1.00  0.00     0.163 HD
BRANCH   4   7
ATOM      7  C   UNL A   1      32.827  21.028  25.148  1.00  0.00     0.084 C 
BRANCH   7   8
ATOM      8  C   UNL A   1      32.391  19.627  24.578  1.00  0.00     0.024 C 
ATOM      9  C   UNL A   1      32.546  19.379  23.075  1.00  0.00     0.011 C 
BRANCH   8  10
ATOM     10  C   UNL A   1      32.947  18.404  25.353  1.00  0.00     0.163 C 
BRANCH  10  11
ATOM     11  O   UNL A   1      32.684  17.134  24.785  1.00  0.00    -0.384 OA
ATOM     12  C   UNL A   1      33.278  16.031  25.449  1.00  0.00     0.194 C 
ENDBRANCH  10  11
ENDBRANCH   8  10
ENDBRANCH   7   8
BRANCH   7  13
ATOM     13  C   UNL A   1      31.645  21.866  25.704  1.00  0.00     0.017 C 
BRANCH  13  14
ATOM     14  C   UNL A   1      31.834  22.742  26.978  1.00  0.00    -0.017 C 
ATOM     15  C   UNL A   1      33.113  22.579  27.799  1.00  0.00     0.007 C 
ATOM     16  C   UNL A   1      31.716  24.220  26.572  1.00  0.00     0.007 C 
ENDBRANCH  13  14
ENDBRANCH   7  13
ENDBRANCH   4   7
ENDBRANCH   2   3
ENDBRANCH   1   2
BRANCH   1  17
ATOM     17  C   UNL A   1      38.302  19.742  25.209  1.00  0.00     0.023 C 
BRANCH  17  18
ATOM     18  C   UNL A   1      39.451  20.235  26.075  1.00  0.00     0.116 C 
BRANCH  18  19
ATOM     19  N   UNL A   1      40.555  19.284  26.114  1.00  0.00    -0.352 N 
ATOM     20  C   UNL A   1      41.899  19.538  26.176  1.00  0.00     0.251 C 
ATOM     21  H   UNL A   1      40.301  18.333  26.092  1.00  0.00     0.163 HD
ATOM     22  O   UNL A   1      42.711  18.636  25.989  1.00  0.00    -0.269 OA
BRANCH  20  23
ATOM     23  C   UNL A   1      42.344  20.913  26.458  1.00  0.00     0.039 A 
ATOM     24  C   UNL A   1      42.589  21.297  27.775  1.00  0.00     0.014 A 
ATOM     25  C   UNL A   1      42.554  21.805  25.402  1.00  0.00     0.014 A 
ATOM     26  C   UNL A   1      43.073  22.578  28.030  1.00  0.00     0.010 A 
ATOM     27  C   UNL A   1      43.142  23.035  25.649  1.00  0.00     0.010 A 
ATOM     28  C   UNL A   1      43.368  23.450  26.968  1.00  0.00    -0.014 A 
BRANCH  28  29
ATOM     29  C   UNL A   1      43.839  24.832  27.221  1.00  0.00     0.031 A 
ATOM     30  C   UNL A   1      45.291  25.170  26.999  1.00  0.00     0.074 A 
ATOM     31  C   UNL A   1      42.976  25.761  27.673  1.00  0.00     0.049 A 
ATOM     32  N   UNL A   1      45.906  26.311  27.167  1.00  0.00    -0.248 NA
ATOM     33  C   UNL A   1      46.175  24.074  26.569  1.00  0.00     0.031 C 
ATOM     34  C   UNL A   1      41.562  25.529  27.979  1.00  0.00     0.029 A 
ATOM     35  N   UNL A   1      43.161  27.091  27.950  1.00  0.00    -0.354 N 
ATOM     36  C   UNL A   1      47.244  26.063  26.881  1.00  0.00     0.074 A 
ATOM     37  C   UNL A   1      47.366  24.651  26.604  1.00  0.00     0.031 C 
ATOM     38  C   UNL A   1      40.999  26.688  28.358  1.00  0.00     0.029 A 
ATOM     39  C   UNL A   1      42.016  27.734  28.356  1.00  0.00     0.049 A 
ATOM     40  H   UNL A   1      44.032  27.542  27.867  1.00  0.00     0.167 HD
ATOM     41  C   UNL A   1      48.274  26.939  26.821  1.00  0.00     0.037 A 
ATOM     42  C   UNL A   1      41.813  29.027  28.678  1.00  0.00     0.037 A 
ATOM     43  C   UNL A   1      48.131  28.349  27.062  1.00  0.00     0.049 A 
ATOM     44  C   UNL A   1      42.968  29.987  28.581  1.00  0.00     0.074 A 
ATOM     45  C   UNL A   1      49.091  29.341  26.967  1.00  0.00     0.029 A 
ATOM     46  N   UNL A   1      46.950  28.969  27.448  1.00  0.00    -0.354 N 
ATOM     47  N   UNL A   1      44.214  29.751  28.238  1.00  0.00    -0.248 NA
ATOM     48  C   UNL A   1      42.688  31.393  28.897  1.00  0.00     0.031 C 
ATOM     49  C   UNL A   1      48.503  30.552  27.345  1.00  0.00     0.029 A 
ATOM     50  C   UNL A   1      47.161  30.327  27.611  1.00  0.00     0.049 A 
ATOM     51  H   UNL A   1      46.090  28.510  27.583  1.00  0.00     0.167 HD
ATOM     52  C   UNL A   1      44.854  30.985  28.256  1.00  0.00     0.074 A 
ATOM     53  C   UNL A   1      43.855  31.964  28.636  1.00  0.00     0.031 C 
ATOM     54  C   UNL A   1      46.148  31.285  27.976  1.00  0.00     0.037 A 
BRANCH  41  55
ATOM     55  C   UNL A   1      49.635  26.396  26.480  1.00  0.00     0.058 A 
ATOM     56  C   UNL A   1      50.507  25.900  27.465  1.00  0.00     0.135 A 
ATOM     57  C   UNL A   1      50.070  26.352  25.145  1.00  0.00     0.135 A 
ATOM     58  F   UNL A   1      50.155  25.935  28.760  1.00  0.00    -0.206 F 
ATOM     59  C   UNL A   1      51.770  25.414  27.143  1.00  0.00     0.059 A 
ATOM     60  C   UNL A   1      51.315  25.838  24.797  1.00  0.00     0.059 A 
ATOM     61  F   UNL A   1      49.282  26.815  24.162  1.00  0.00    -0.206 F 
ATOM     62  C   UNL A   1      52.165  25.387  25.804  1.00  0.00     0.060 A 
BRANCH  62  63
ATOM     63  S   UNL A   1      53.805  24.747  25.404  1.00  0.00     0.124 S 
ATOM     64  O   UNL A   1      54.213  25.646  24.330  1.00  0.00    -0.237 OA
ATOM     65  O   UNL A   1      54.517  24.905  26.668  1.00  0.00    -0.237 OA
ATOM     66  O   UNL A   1      53.543  23.368  25.004  1.00  0.00    -0.744 OA
ENDBRANCH  62  63
ENDBRANCH  41  55
BRANCH  42  67
ATOM     67  C   UNL A   1      40.456  29.495  29.067  1.00  0.00     0.058 A 
ATOM     68  C   UNL A   1      39.457  29.697  28.102  1.00  0.00     0.135 A 
ATOM     69  C   UNL A   1      40.125  29.745  30.408  1.00  0.00     0.135 A 
ATOM     70  F   UNL A   1      39.723  29.473  26.806  1.00  0.00    -0.206 F 
ATOM     71  C   UNL A   1      38.189  30.153  28.447  1.00  0.00     0.059 A 
ATOM     72  C   UNL A   1      38.855  30.174  30.782  1.00  0.00     0.059 A 
ATOM     73  F   UNL A   1      41.037  29.549  31.373  1.00  0.00    -0.206 F 
ATOM     74  C   UNL A   1      37.897  30.388  29.791  1.00  0.00     0.060 A 
BRANCH  74  75
ATOM     75  S   UNL A   1      36.237  30.943  30.231  1.00  0.00     0.124 S 
ATOM     76  O   UNL A   1      35.482  30.592  29.033  1.00  0.00    -0.237 OA
ATOM     77  O   UNL A   1      35.953  30.148  31.422  1.00  0.00    -0.237 OA
ATOM     78  O   UNL A   1      36.412  32.373  30.469  1.00  0.00    -0.744 OA
ENDBRANCH  74  75
ENDBRANCH  42  67
BRANCH  54  79
ATOM     79  C   UNL A   1      46.541  32.737  28.006  1.00  0.00     0.058 A 
ATOM     80  C   UNL A   1      47.126  33.330  29.135  1.00  0.00     0.135 A 
ATOM     81  C   UNL A   1      46.356  33.539  26.866  1.00  0.00     0.135 A 
ATOM     82  F   UNL A   1      47.325  32.610  30.250  1.00  0.00    -0.206 F 
ATOM     83  C   UNL A   1      47.473  34.677  29.149  1.00  0.00     0.059 A 
ATOM     84  C   UNL A   1      46.727  34.877  26.847  1.00  0.00     0.059 A 
ATOM     85  F   UNL A   1      45.817  33.018  25.752  1.00  0.00    -0.206 F 
ATOM     86  C   UNL A   1      47.267  35.443  28.001  1.00  0.00     0.060 A 
BRANCH  86  87
ATOM     87  S   UNL A   1      47.722  37.189  28.031  1.00  0.00     0.124 S 
ATOM     88  O   UNL A   1      46.802  37.714  29.034  1.00  0.00    -0.237 OA
ATOM     89  O   UNL A   1      49.127  37.139  28.423  1.00  0.00    -0.237 OA
ATOM     90  O   UNL A   1      47.475  37.628  26.661  1.00  0.00    -0.744 OA
ENDBRANCH  86  87
ENDBRANCH  54  79
ENDBRANCH  28  29
ENDBRANCH  20  23
ENDBRANCH  18  19
ENDBRANCH  17  18
ENDBRANCH   1  17
TORSDOF 19
ENDMDL
MODEL 2
REMARK VINA RESULT:      -9.7      5.579     10.798
REMARK SMILES COC[C@H](C)[C@H](CC(C)C)C(=O)NCCCCNC(=O)c1ccc(-c2c3nc(c(-c4c(F)cc(S(=O)(=O)[O-])cc4F)c4ccc([nH]4)c(-c4c(F)cc(S(=O)(=O)[O-])cc4F)c4nc(c(-c5c(F)cc(S(=O)(=O)[O-])cc5F)c5ccc2[nH]5)C=C4)C=C3)cc1
REMARK SMILES IDX 15 1 14 2 13 3 11 4 12 5 6 7 4 8 5 9 3 10 2 11 1 12 7 13
REMARK SMILES IDX 8 14 9 15 10 16 16 17 17 18 18 19 19 20 20 22 21 23 22 24
REMARK SMILES IDX 86 25 23 26 85 27 24 28 25 29 26 30 79 31 27 32 84 33 78 34
REMARK SMILES IDX 80 35 28 36 83 37 77 38 76 39 29 41 63 42 42 43 62 44 43 45
REMARK SMILES IDX 46 46 61 47 81 48 44 49 45 50 60 52 82 53 47 54 30 55 31 56
REMARK SMILES IDX 40 57 32 58 33 59 39 60 41 61 34 62 35 63 36 64 37 65 38 66
REMARK SMILES IDX 64 67 65 68 74 69 66 70 67 71 73 72 75 73 68 74 69 75 70 76
REMARK SMILES IDX 71 77 72 78 48 79 49 80 58 81 50 82 51 83 57 84 59 85 52 86
REMARK SMILES IDX 53 87 54 88 55 89 56 90
REMARK H PARENT 13 6 18 21 80 40 46 51
REMARK Flexibility Score: inf
ROOT
ATOM      1  C   UNL A   1      33.026  26.785  24.987  1.00  0.00     0.023 C 
ENDROOT
BRANCH   1   2
ATOM      2  C   UNL A   1      34.129  25.736  25.037  1.00  0.00     0.116 C 
BRANCH   2   3
ATOM      3  N   UNL A   1      34.248  24.959  23.826  1.00  0.00    -0.356 N 
ATOM      4  C   UNL A   1      34.740  23.718  23.587  1.00  0.00     0.223 C 
ATOM      5  O   UNL A   1      34.702  23.329  22.415  1.00  0.00    -0.275 OA
ATOM      6  H   UNL A   1      33.908  25.415  23.022  1.00  0.00     0.163 HD
BRANCH   4   7
ATOM      7  C   UNL A   1      35.370  22.847  24.672  1.00  0.00     0.084 C 
BRANCH   7   8
ATOM      8  C   UNL A   1      36.916  23.058  24.878  1.00  0.00     0.024 C 
ATOM      9  C   UNL A   1      37.374  23.987  26.007  1.00  0.00     0.011 C 
BRANCH   8  10
ATOM     10  C   UNL A   1      37.754  21.754  24.924  1.00  0.00     0.163 C 
BRANCH  10  11
ATOM     11  O   UNL A   1      38.453  21.505  26.129  1.00  0.00    -0.384 OA
ATOM     12  C   UNL A   1      39.861  21.391  26.009  1.00  0.00     0.194 C 
ENDBRANCH  10  11
ENDBRANCH   8  10
ENDBRANCH   7   8
BRANCH   7  13
ATOM     13  C   UNL A   1      34.954  21.354  24.594  1.00  0.00     0.017 C 
BRANCH  13  14
ATOM     14  C   UNL A   1      34.018  20.742  25.678  1.00  0.00    -0.017 C 
ATOM     15  C   UNL A   1      33.853  21.479  27.008  1.00  0.00     0.007 C 
ATOM     16  C   UNL A   1      32.621  20.556  25.065  1.00  0.00     0.007 C 
ENDBRANCH  13  14
ENDBRANCH   7  13
ENDBRANCH   4   7
ENDBRANCH   2   3
ENDBRANCH   1   2
BRANCH   1  17
ATOM     17  C   UNL A   1      33.007  27.715  26.192  1.00  0.00     0.023 C 
BRANCH  17  18
ATOM     18  C   UNL A   1      34.223  28.623  26.279  1.00  0.00     0.116 C 
BRANCH  18  19
ATOM     19  N   UNL A   1      33.854  30.012  26.518  1.00  0.00    -0.352 N 
ATOM     20  C   UNL A   1      34.384  30.894  27.422  1.00  0.00     0.251 C 
ATOM     21  H   UNL A   1      33.126  30.364  25.954  1.00  0.00     0.163 HD
ATOM     22  O   UNL A   1      33.824  31.964  27.648  1.00  0.00    -0.269 OA
BRANCH  20  23
ATOM     23  C   UNL A   1      35.626  30.524  28.122  1.00  0.00     0.039 A 
ATOM     24  C   UNL A   1      35.557  29.722  29.259  1.00  0.00     0.014 A 
ATOM     25  C   UNL A   1      36.859  30.948  27.618  1.00  0.00     0.014 A 
ATOM     26  C   UNL A   1      36.738  29.321  29.879  1.00  0.00     0.010 A 
ATOM     27  C   UNL A   1      38.031  30.454  28.168  1.00  0.00     0.010 A 
ATOM     28  C   UNL A   1      37.983  29.670  29.328  1.00  0.00    -0.014 A 
BRANCH  28  29
ATOM     29  C   UNL A   1      39.250  29.294  29.999  1.00  0.00     0.031 A 
ATOM     30  C   UNL A   1      39.653  30.001  31.267  1.00  0.00     0.074 A 
ATOM     31  C   UNL A   1      40.041  28.350  29.456  1.00  0.00     0.049 A 
ATOM     32  N   UNL A   1      40.719  29.830  32.004  1.00  0.00    -0.248 NA
ATOM     33  C   UNL A   1      38.759  31.067  31.751  1.00  0.00     0.031 C 
ATOM     34  C   UNL A   1      39.779  27.642  28.200  1.00  0.00     0.029 A 
ATOM     35  N   UNL A   1      41.226  27.818  29.894  1.00  0.00    -0.354 N 
ATOM     36  C   UNL A   1      40.630  30.774  33.020  1.00  0.00     0.074 A 
ATOM     37  C   UNL A   1      39.449  31.565  32.765  1.00  0.00     0.031 C 
ATOM     38  C   UNL A   1      40.751  26.738  27.994  1.00  0.00     0.029 A 
ATOM     39  C   UNL A   1      41.720  26.826  29.081  1.00  0.00     0.049 A 
ATOM     40  H   UNL A   1      41.680  28.118  30.714  1.00  0.00     0.167 HD
ATOM     41  C   UNL A   1      41.441  30.945  34.091  1.00  0.00     0.037 A 
ATOM     42  C   UNL A   1      42.827  26.068  29.208  1.00  0.00     0.037 A 
ATOM     43  C   UNL A   1      42.592  30.125  34.353  1.00  0.00     0.049 A 
ATOM     44  C   UNL A   1      43.700  26.261  30.418  1.00  0.00     0.074 A 
ATOM     45  C   UNL A   1      43.448  30.165  35.439  1.00  0.00     0.029 A 
ATOM     46  N   UNL A   1      43.048  29.114  33.518  1.00  0.00    -0.354 N 
ATOM     47  N   UNL A   1      43.563  27.110  31.411  1.00  0.00    -0.248 NA
ATOM     48  C   UNL A   1      44.869  25.381  30.538  1.00  0.00     0.031 C 
ATOM     49  C   UNL A   1      44.453  29.213  35.235  1.00  0.00     0.029 A 
ATOM     50  C   UNL A   1      44.184  28.534  34.056  1.00  0.00     0.049 A 
ATOM     51  H   UNL A   1      42.625  28.848  32.671  1.00  0.00     0.167 HD
ATOM     52  C   UNL A   1      44.604  26.836  32.292  1.00  0.00     0.074 A 
ATOM     53  C   UNL A   1      45.355  25.739  31.717  1.00  0.00     0.031 C 
ATOM     54  C   UNL A   1      44.908  27.432  33.473  1.00  0.00     0.037 A 
BRANCH  41  55
ATOM     55  C   UNL A   1      41.106  32.055  35.051  1.00  0.00     0.058 A 
ATOM     56  C   UNL A   1      41.704  33.324  34.960  1.00  0.00     0.135 A 
ATOM     57  C   UNL A   1      40.159  31.854  36.069  1.00  0.00     0.135 A 
ATOM     58  F   UNL A   1      42.631  33.569  34.020  1.00  0.00    -0.206 F 
ATOM     59  C   UNL A   1      41.401  34.339  35.861  1.00  0.00     0.059 A 
ATOM     60  C   UNL A   1      39.816  32.866  36.960  1.00  0.00     0.059 A 
ATOM     61  F   UNL A   1      39.559  30.661  36.208  1.00  0.00    -0.206 F 
ATOM     62  C   UNL A   1      40.454  34.100  36.858  1.00  0.00     0.060 A 
BRANCH  62  63
ATOM     63  S   UNL A   1      40.069  35.431  38.015  1.00  0.00     0.124 S 
ATOM     64  O   UNL A   1      39.863  36.555  37.107  1.00  0.00    -0.237 OA
ATOM     65  O   UNL A   1      38.872  34.927  38.681  1.00  0.00    -0.237 OA
ATOM     66  O   UNL A   1      41.262  35.510  38.852  1.00  0.00    -0.744 OA
ENDBRANCH  62  63
ENDBRANCH  41  55
BRANCH  42  67
ATOM     67  C   UNL A   1      43.139  25.026  28.194  1.00  0.00     0.058 A 
ATOM     68  C   UNL A   1      43.789  25.355  26.995  1.00  0.00     0.135 A 
ATOM     69  C   UNL A   1      42.800  23.679  28.402  1.00  0.00     0.135 A 
ATOM     70  F   UNL A   1      44.133  26.629  26.748  1.00  0.00    -0.206 F 
ATOM     71  C   UNL A   1      44.070  24.396  26.028  1.00  0.00     0.059 A 
ATOM     72  C   UNL A   1      43.097  22.696  27.463  1.00  0.00     0.059 A 
ATOM     73  F   UNL A   1      42.195  23.306  29.541  1.00  0.00    -0.206 F 
ATOM     74  C   UNL A   1      43.720  23.067  26.273  1.00  0.00     0.060 A 
BRANCH  74  75
ATOM     75  S   UNL A   1      44.125  21.824  25.027  1.00  0.00     0.124 S 
ATOM     76  O   UNL A   1      45.530  21.563  25.317  1.00  0.00    -0.237 OA
ATOM     77  O   UNL A   1      43.194  20.747  25.355  1.00  0.00    -0.237 OA
ATOM     78  O   UNL A   1      43.858  22.511  23.767  1.00  0.00    -0.744 OA
ENDBRANCH  74  75
ENDBRANCH  42  67
BRANCH  54  79
ATOM     79  C   UNL A   1      46.062  26.867  34.254  1.00  0.00     0.058 A 
ATOM     80  C   UNL A   1      47.373  27.342  34.101  1.00  0.00     0.135 A 
ATOM     81  C   UNL A   1      45.841  25.849  35.198  1.00  0.00     0.135 A 
ATOM     82  F   UNL A   1      47.641  28.313  33.213  1.00  0.00    -0.206 F 
ATOM     83  C   UNL A   1      48.431  26.800  34.823  1.00  0.00     0.059 A 
ATOM     84  C   UNL A   1      46.877  25.317  35.956  1.00  0.00     0.059 A 
ATOM     85  F   UNL A   1      44.603  25.369  35.398  1.00  0.00    -0.206 F 
ATOM     86  C   UNL A   1      48.173  25.785  35.746  1.00  0.00     0.060 A 
BRANCH  86  87
ATOM     87  S   UNL A   1      49.553  25.090  36.678  1.00  0.00     0.124 S 
ATOM     88  O   UNL A   1      49.533  23.699  36.237  1.00  0.00    -0.237 OA
ATOM     89  O   UNL A   1      50.681  25.889  36.209  1.00  0.00    -0.237 OA
ATOM     90  O   UNL A   1      49.170  25.313  38.069  1.00  0.00    -0.744 OA
ENDBRANCH  86  87
ENDBRANCH  54  79
ENDBRANCH  28  29
ENDBRANCH  20  23
ENDBRANCH  18  19
ENDBRANCH  17  18
ENDBRANCH   1  17
TORSDOF 19
ENDMDL
MODEL 3
REMARK VINA RESULT:      -9.5      3.649      9.310
REMARK SMILES COC[C@H](C)[C@H](CC(C)C)C(=O)NCCCCNC(=O)c1ccc(-c2c3nc(c(-c4c(F)cc(S(=O)(=O)[O-])cc4F)c4ccc([nH]4)c(-c4c(F)cc(S(=O)(=O)[O-])cc4F)c4nc(c(-c5c(F)cc(S(=O)(=O)[O-])cc5F)c5ccc2[nH]5)C=C4)C=C3)cc1
REMARK SMILES IDX 15 1 14 2 13 3 11 4 12 5 6 7 4 8 5 9 3 10 2 11 1 12 7 13
REMARK SMILES IDX 8 14 9 15 10 16 16 17 17 18 18 19 19 20 20 22 21 23 22 24
REMARK SMILES IDX 86 25 23 26 85 27 24 28 25 29 26 30 79 31 27 32 84 33 78 34
REMARK SMILES IDX 80 35 28 36 83 37 77 38 76 39 29 41 63 42 42 43 62 44 43 45
REMARK SMILES IDX 46 46 61 47 81 48 44 49 45 50 60 52 82 53 47 54 30 55 31 56
REMARK SMILES IDX 40 57 32 58 33 59 39 60 41 61 34 62 35 63 36 64 37 65 38 66
REMARK SMILES IDX 64 67 65 68 74 69 66 70 67 71 73 72 75 73 68 74 69 75 70 76
REMARK SMILES IDX 71 77 72 78 48 79 49 80 58 81 50 82 51 83 57 84 59 85 52 86
REMARK SMILES IDX 53 87 54 88 55 89 56 90
REMARK H PARENT 13 6 18 21 80 40 46 51
REMARK Flexibility Score: inf
ROOT
ATOM      1  C   UNL A   1      33.244  26.777  24.751  1.00  0.00     0.023 C 
ENDROOT
BRANCH   1   2
ATOM      2  C   UNL A   1      33.561  25.293  24.879  1.00  0.00     0.116 C 
BRANCH   2   3
ATOM      3  N   UNL A   1      33.330  24.541  23.668  1.00  0.00    -0.356 N 
ATOM      4  C   UNL A   1      33.115  23.221  23.445  1.00  0.00     0.223 C 
ATOM      5  O   UNL A   1      32.950  22.884  22.269  1.00  0.00    -0.275 OA
ATOM      6  H   UNL A   1      33.327  25.090  22.851  1.00  0.00     0.163 HD
BRANCH   4   7
ATOM      7  C   UNL A   1      33.132  22.173  24.556  1.00  0.00     0.084 C 
BRANCH   7   8
ATOM      8  C   UNL A   1      33.869  20.831  24.192  1.00  0.00     0.024 C 
ATOM      9  C   UNL A   1      35.089  20.427  25.026  1.00  0.00     0.011 C 
BRANCH   8  10
ATOM     10  C   UNL A   1      32.941  19.600  24.023  1.00  0.00     0.163 C 
BRANCH  10  11
ATOM     11  O   UNL A   1      33.399  18.391  24.600  1.00  0.00    -0.384 OA
ATOM     12  C   UNL A   1      32.679  17.943  25.736  1.00  0.00     0.194 C 
ENDBRANCH  10  11
ENDBRANCH   8  10
ENDBRANCH   7   8
BRANCH   7  13
ATOM     13  C   UNL A   1      31.752  21.958  25.233  1.00  0.00     0.017 C 
BRANCH  13  14
ATOM     14  C   UNL A   1      31.467  22.560  26.641  1.00  0.00    -0.017 C 
ATOM     15  C   UNL A   1      32.648  22.876  27.560  1.00  0.00     0.007 C 
ATOM     16  C   UNL A   1      30.649  23.850  26.462  1.00  0.00     0.007 C 
ENDBRANCH  13  14
ENDBRANCH   7  13
ENDBRANCH   4   7
ENDBRANCH   2   3
ENDBRANCH   1   2
BRANCH   1  17
ATOM     17  C   UNL A   1      32.979  27.467  26.082  1.00  0.00     0.023 C 
BRANCH  17  18
ATOM     18  C   UNL A   1      34.183  28.220  26.626  1.00  0.00     0.116 C 
BRANCH  18  19
ATOM     19  N   UNL A   1      33.825  29.546  27.113  1.00  0.00    -0.352 N 
ATOM     20  C   UNL A   1      34.544  30.378  27.931  1.00  0.00     0.251 C 
ATOM     21  H   UNL A   1      32.951  29.889  26.816  1.00  0.00     0.163 HD
ATOM     22  O   UNL A   1      34.016  31.372  28.422  1.00  0.00    -0.269 OA
BRANCH  20  23
ATOM     23  C   UNL A   1      35.949  30.045  28.214  1.00  0.00     0.039 A 
ATOM     24  C   UNL A   1      36.291  29.521  29.460  1.00  0.00     0.014 A 
ATOM     25  C   UNL A   1      36.919  30.222  27.222  1.00  0.00     0.014 A 
ATOM     26  C   UNL A   1      37.611  29.148  29.700  1.00  0.00     0.010 A 
ATOM     27  C   UNL A   1      38.203  29.743  27.425  1.00  0.00     0.010 A 
ATOM     28  C   UNL A   1      38.572  29.240  28.679  1.00  0.00    -0.014 A 
BRANCH  28  29
ATOM     29  C   UNL A   1      39.991  28.893  28.929  1.00  0.00     0.031 A 
ATOM     30  C   UNL A   1      40.896  29.907  29.580  1.00  0.00     0.074 A 
ATOM     31  C   UNL A   1      40.464  27.692  28.548  1.00  0.00     0.049 A 
ATOM     32  N   UNL A   1      42.165  29.808  29.880  1.00  0.00    -0.248 NA
ATOM     33  C   UNL A   1      40.309  31.219  29.902  1.00  0.00     0.031 C 
ATOM     34  C   UNL A   1      39.692  26.656  27.856  1.00  0.00     0.029 A 
ATOM     35  N   UNL A   1      41.709  27.136  28.692  1.00  0.00    -0.354 N 
ATOM     36  C   UNL A   1      42.525  31.043  30.406  1.00  0.00     0.074 A 
ATOM     37  C   UNL A   1      41.367  31.900  30.314  1.00  0.00     0.031 C 
ATOM     38  C   UNL A   1      40.469  25.575  27.677  1.00  0.00     0.029 A 
ATOM     39  C   UNL A   1      41.799  25.853  28.208  1.00  0.00     0.049 A 
ATOM     40  H   UNL A   1      42.466  27.611  29.102  1.00  0.00     0.167 HD
ATOM     41  C   UNL A   1      43.707  31.420  30.948  1.00  0.00     0.037 A 
ATOM     42  C   UNL A   1      42.839  24.996  28.206  1.00  0.00     0.037 A 
ATOM     43  C   UNL A   1      44.841  30.544  31.068  1.00  0.00     0.049 A 
ATOM     44  C   UNL A   1      44.136  25.429  28.835  1.00  0.00     0.074 A 
ATOM     45  C   UNL A   1      46.066  30.798  31.657  1.00  0.00     0.029 A 
ATOM     46  N   UNL A   1      44.887  29.243  30.587  1.00  0.00    -0.354 N 
ATOM     47  N   UNL A   1      44.440  26.578  29.395  1.00  0.00    -0.248 NA
ATOM     48  C   UNL A   1      45.225  24.446  28.850  1.00  0.00     0.031 C 
ATOM     49  C   UNL A   1      46.872  29.668  31.487  1.00  0.00     0.029 A 
ATOM     50  C   UNL A   1      46.126  28.686  30.852  1.00  0.00     0.049 A 
ATOM     51  H   UNL A   1      44.148  28.783  30.128  1.00  0.00     0.167 HD
ATOM     52  C   UNL A   1      45.741  26.438  29.866  1.00  0.00     0.074 A 
ATOM     53  C   UNL A   1      46.160  25.093  29.531  1.00  0.00     0.031 C 
ATOM     54  C   UNL A   1      46.517  27.338  30.522  1.00  0.00     0.037 A 
BRANCH  41  55
ATOM     55  C   UNL A   1      43.825  32.834  31.451  1.00  0.00     0.058 A 
ATOM     56  C   UNL A   1      44.252  33.886  30.623  1.00  0.00     0.135 A 
ATOM     57  C   UNL A   1      43.491  33.147  32.779  1.00  0.00     0.135 A 
ATOM     58  F   UNL A   1      44.605  33.644  29.350  1.00  0.00    -0.206 F 
ATOM     59  C   UNL A   1      44.374  35.186  31.100  1.00  0.00     0.059 A 
ATOM     60  C   UNL A   1      43.572  34.447  33.268  1.00  0.00     0.059 A 
ATOM     61  F   UNL A   1      43.081  32.182  33.619  1.00  0.00    -0.206 F 
ATOM     62  C   UNL A   1      44.031  35.457  32.425  1.00  0.00     0.060 A 
BRANCH  62  63
ATOM     63  S   UNL A   1      44.189  37.152  33.026  1.00  0.00     0.124 S 
ATOM     64  O   UNL A   1      44.182  37.905  31.776  1.00  0.00    -0.237 OA
ATOM     65  O   UNL A   1      43.002  37.298  33.862  1.00  0.00    -0.237 OA
ATOM     66  O   UNL A   1      45.459  37.140  33.745  1.00  0.00    -0.744 OA
ENDBRANCH  62  63
ENDBRANCH  41  55
BRANCH  42  67
ATOM     67  C   UNL A   1      42.680  23.630  27.639  1.00  0.00     0.058 A 
ATOM     68  C   UNL A   1      42.399  22.532  28.466  1.00  0.00     0.135 A 
ATOM     69  C   UNL A   1      42.799  23.392  26.260  1.00  0.00     0.135 A 
ATOM     70  F   UNL A   1      42.277  22.707  29.791  1.00  0.00    -0.206 F 
ATOM     71  C   UNL A   1      42.266  21.246  27.954  1.00  0.00     0.059 A 
ATOM     72  C   UNL A   1      42.641  22.119  25.720  1.00  0.00     0.059 A 
ATOM     73  F   UNL A   1      43.046  24.410  25.421  1.00  0.00    -0.206 F 
ATOM     74  C   UNL A   1      42.389  21.049  26.578  1.00  0.00     0.060 A 
BRANCH  74  75
ATOM     75  S   UNL A   1      42.177  19.381  25.921  1.00  0.00     0.124 S 
ATOM     76  O   UNL A   1      42.649  18.565  27.033  1.00  0.00    -0.237 OA
ATOM     77  O   UNL A   1      40.742  19.335  25.658  1.00  0.00    -0.237 OA
ATOM     78  O   UNL A   1      43.025  19.379  24.731  1.00  0.00    -0.744 OA
ENDBRANCH  74  75
ENDBRANCH  42  67
BRANCH  54  79
ATOM     79  C   UNL A   1      47.873  26.874  30.980  1.00  0.00     0.058 A 
ATOM     80  C   UNL A   1      49.029  27.069  30.210  1.00  0.00     0.135 A 
ATOM     81  C   UNL A   1      48.017  26.252  32.232  1.00  0.00     0.135 A 
ATOM     82  F   UNL A   1      48.949  27.658  29.006  1.00  0.00    -0.206 F 
ATOM     83  C   UNL A   1      50.273  26.623  30.643  1.00  0.00     0.059 A 
ATOM     84  C   UNL A   1      49.255  25.831  32.701  1.00  0.00     0.059 A 
ATOM     85  F   UNL A   1      46.946  26.058  33.019  1.00  0.00    -0.206 F 
ATOM     86  C   UNL A   1      50.376  26.003  31.890  1.00  0.00     0.060 A 
BRANCH  86  87
ATOM     87  S   UNL A   1      51.995  25.431  32.442  1.00  0.00     0.124 S 
ATOM     88  O   UNL A   1      52.115  26.095  33.736  1.00  0.00    -0.237 OA
ATOM     89  O   UNL A   1      51.818  23.983  32.487  1.00  0.00    -0.237 OA
ATOM     90  O   UNL A   1      52.899  25.914  31.403  1.00  0.00    -0.744 OA
ENDBRANCH  86  87
ENDBRANCH  54  79
ENDBRANCH  28  29
ENDBRANCH  20  23
ENDBRANCH  18  19
ENDBRANCH  17  18
ENDBRANCH   1  17
TORSDOF 19
ENDMDL
