MODEL 1
REMARK VINA RESULT:     -10.9      0.000      0.000
REMARK SMILES CN(C(=O)N[C@@](C)(C(=O)NCCCCNC(=O)c1ccc(-c2c3nc(c(-c4c(F)cc(S(=O)(=O)[O-])cc4F)c4ccc([nH]4)c(-c4c(F)cc(S(=O)(=O)[O-])cc4F)c4nc(c(-c5c(F)cc(S(=O)(=O)[O-])cc5F)c5ccc2[nH]5)C=C4)C=C3)cc1)C(F)(F)F)c1ccc(F)cc1
REMARK SMILES IDX 12 1 11 2 10 3 8 4 9 5 6 7 7 8 5 9 3 10 4 11 2 13 1 14 88 15
REMARK SMILES IDX 89 16 94 17 90 18 93 19 91 20 92 21 84 22 85 23 86 24 87 25
REMARK SMILES IDX 13 26 14 27 15 28 16 29 17 31 18 32 19 33 83 34 20 35 82 36
REMARK SMILES IDX 21 37 22 38 23 39 76 40 24 41 81 42 75 43 77 44 25 45 80 46
REMARK SMILES IDX 74 47 73 48 26 50 60 51 39 52 59 53 40 54 43 55 58 56 78 57
REMARK SMILES IDX 41 58 42 59 57 61 79 62 44 63 27 64 28 65 37 66 29 67 30 68
REMARK SMILES IDX 36 69 38 70 31 71 32 72 33 73 34 74 35 75 61 76 62 77 71 78
REMARK SMILES IDX 63 79 64 80 70 81 72 82 65 83 66 84 67 85 68 86 69 87 45 88
REMARK SMILES IDX 46 89 55 90 47 91 48 92 54 93 56 94 49 95 50 96 51 97 52 98
REMARK SMILES IDX 53 99
REMARK H PARENT 10 6 5 12 15 30 77 49 43 60
REMARK Flexibility Score: inf
ROOT
ATOM      1  C   UNL A   1      31.259  27.987  26.315  1.00  0.00     0.023 C 
ENDROOT
BRANCH   1   2
ATOM      2  C   UNL A   1      30.675  26.752  25.632  1.00  0.00     0.116 C 
BRANCH   2   3
ATOM      3  N   UNL A   1      30.610  26.925  24.193  1.00  0.00    -0.354 N 
ATOM      4  C   UNL A   1      31.280  26.397  23.135  1.00  0.00     0.255 C 
ATOM      5  O   UNL A   1      30.983  26.913  22.052  1.00  0.00    -0.272 OA
ATOM      6  H   UNL A   1      29.922  27.573  23.920  1.00  0.00     0.163 HD
BRANCH   4   7
ATOM      7  C   UNL A   1      32.375  25.306  23.255  1.00  0.00     0.213 C 
ATOM      8  C   UNL A   1      32.802  24.745  21.884  1.00  0.00     0.056 C 
BRANCH   7   9
ATOM      9  N   UNL A   1      31.725  24.180  24.033  1.00  0.00    -0.316 N 
ATOM     10  C   UNL A   1      31.840  22.952  24.555  1.00  0.00     0.322 C 
ATOM     11  O   UNL A   1      30.909  22.694  25.331  1.00  0.00    -0.248 OA
ATOM     12  H   UNL A   1      30.816  24.487  24.253  1.00  0.00     0.166 HD
BRANCH  10  13
ATOM     13  N   UNL A   1      32.842  22.065  24.296  1.00  0.00    -0.298 N 
ATOM     14  C   UNL A   1      32.677  20.674  23.929  1.00  0.00     0.155 C 
BRANCH  13  15
ATOM     15  C   UNL A   1      34.206  22.388  24.605  1.00  0.00     0.045 A 
ATOM     16  C   UNL A   1      35.160  22.535  23.588  1.00  0.00     0.029 A 
ATOM     17  C   UNL A   1      34.546  22.752  25.919  1.00  0.00     0.029 A 
ATOM     18  C   UNL A   1      36.405  23.106  23.872  1.00  0.00     0.041 A 
ATOM     19  C   UNL A   1      35.798  23.299  26.205  1.00  0.00     0.041 A 
ATOM     20  C   UNL A   1      36.706  23.492  25.173  1.00  0.00     0.123 A 
ATOM     21  F   UNL A   1      37.881  24.082  25.432  1.00  0.00    -0.207 F 
ENDBRANCH  13  15
ENDBRANCH  10  13
ENDBRANCH   7   9
BRANCH   7  22
ATOM     22  C   UNL A   1      33.594  26.111  23.771  1.00  0.00     0.420 C 
ATOM     23  F   UNL A   1      33.458  27.446  23.672  1.00  0.00    -0.168 F 
ATOM     24  F   UNL A   1      33.863  25.824  25.072  1.00  0.00    -0.168 F 
ATOM     25  F   UNL A   1      34.733  25.764  23.115  1.00  0.00    -0.168 F 
ENDBRANCH   7  22
ENDBRANCH   4   7
ENDBRANCH   2   3
ENDBRANCH   1   2
BRANCH   1  26
ATOM     26  C   UNL A   1      32.341  27.709  27.362  1.00  0.00     0.023 C 
BRANCH  26  27
ATOM     27  C   UNL A   1      33.648  28.466  27.165  1.00  0.00     0.116 C 
BRANCH  27  28
ATOM     28  N   UNL A   1      33.560  29.856  27.583  1.00  0.00    -0.352 N 
ATOM     29  C   UNL A   1      34.500  30.635  28.213  1.00  0.00     0.251 C 
ATOM     30  H   UNL A   1      32.704  30.302  27.387  1.00  0.00     0.163 HD
ATOM     31  O   UNL A   1      34.189  31.745  28.637  1.00  0.00    -0.269 OA
BRANCH  29  32
ATOM     32  C   UNL A   1      35.873  30.119  28.403  1.00  0.00     0.039 A 
ATOM     33  C   UNL A   1      36.773  30.179  27.337  1.00  0.00     0.014 A 
ATOM     34  C   UNL A   1      36.276  29.599  29.635  1.00  0.00     0.014 A 
ATOM     35  C   UNL A   1      38.098  29.783  27.529  1.00  0.00     0.010 A 
ATOM     36  C   UNL A   1      37.615  29.284  29.847  1.00  0.00     0.010 A 
ATOM     37  C   UNL A   1      38.541  29.370  28.797  1.00  0.00    -0.014 A 
BRANCH  37  38
ATOM     38  C   UNL A   1      39.965  29.027  29.043  1.00  0.00     0.031 A 
ATOM     39  C   UNL A   1      40.894  30.044  29.648  1.00  0.00     0.074 A 
ATOM     40  C   UNL A   1      40.436  27.821  28.669  1.00  0.00     0.049 A 
ATOM     41  N   UNL A   1      42.176  29.952  29.893  1.00  0.00    -0.248 NA
ATOM     42  C   UNL A   1      40.310  31.348  30.001  1.00  0.00     0.031 C 
ATOM     43  C   UNL A   1      39.646  26.763  28.037  1.00  0.00     0.029 A 
ATOM     44  N   UNL A   1      41.694  27.281  28.764  1.00  0.00    -0.354 N 
ATOM     45  C   UNL A   1      42.552  31.182  30.421  1.00  0.00     0.074 A 
ATOM     46  C   UNL A   1      41.377  32.026  30.394  1.00  0.00     0.031 C 
ATOM     47  C   UNL A   1      40.426  25.689  27.837  1.00  0.00     0.029 A 
ATOM     48  C   UNL A   1      41.782  25.996  28.283  1.00  0.00     0.049 A 
ATOM     49  H   UNL A   1      42.462  27.769  29.141  1.00  0.00     0.167 HD
ATOM     50  C   UNL A   1      43.756  31.566  30.910  1.00  0.00     0.037 A 
ATOM     51  C   UNL A   1      42.836  25.159  28.211  1.00  0.00     0.037 A 
ATOM     52  C   UNL A   1      44.919  30.718  30.937  1.00  0.00     0.049 A 
ATOM     53  C   UNL A   1      44.174  25.619  28.722  1.00  0.00     0.074 A 
ATOM     54  C   UNL A   1      46.176  30.995  31.444  1.00  0.00     0.029 A 
ATOM     55  N   UNL A   1      44.971  29.426  30.430  1.00  0.00    -0.354 N 
ATOM     56  N   UNL A   1      44.498  26.766  29.270  1.00  0.00    -0.248 NA
ATOM     57  C   UNL A   1      45.290  24.670  28.606  1.00  0.00     0.031 C 
ATOM     58  C   UNL A   1      47.002  29.893  31.197  1.00  0.00     0.029 A 
ATOM     59  C   UNL A   1      46.245  28.904  30.589  1.00  0.00     0.049 A 
ATOM     60  H   UNL A   1      44.214  28.951  30.017  1.00  0.00     0.167 HD
ATOM     61  C   UNL A   1      45.846  26.664  29.598  1.00  0.00     0.074 A 
ATOM     62  C   UNL A   1      46.273  25.340  29.191  1.00  0.00     0.031 C 
ATOM     63  C   UNL A   1      46.655  27.581  30.184  1.00  0.00     0.037 A 
BRANCH  50  64
ATOM     64  C   UNL A   1      43.866  32.968  31.449  1.00  0.00     0.058 A 
ATOM     65  C   UNL A   1      43.542  33.274  32.782  1.00  0.00     0.135 A 
ATOM     66  C   UNL A   1      44.297  34.021  30.626  1.00  0.00     0.135 A 
ATOM     67  F   UNL A   1      43.113  32.309  33.612  1.00  0.00    -0.206 F 
ATOM     68  C   UNL A   1      43.590  34.578  33.264  1.00  0.00     0.059 A 
ATOM     69  C   UNL A   1      44.385  35.329  31.098  1.00  0.00     0.059 A 
ATOM     70  F   UNL A   1      44.624  33.790  29.345  1.00  0.00    -0.206 F 
ATOM     71  C   UNL A   1      44.006  35.600  32.412  1.00  0.00     0.060 A 
BRANCH  71  72
ATOM     72  S   UNL A   1      44.029  37.291  33.043  1.00  0.00     0.124 S 
ATOM     73  O   UNL A   1      43.855  38.060  31.814  1.00  0.00    -0.237 OA
ATOM     74  O   UNL A   1      42.893  37.297  33.959  1.00  0.00    -0.237 OA
ATOM     75  O   UNL A   1      45.340  37.402  33.672  1.00  0.00    -0.744 OA
ENDBRANCH  71  72
ENDBRANCH  50  64
BRANCH  51  76
ATOM     76  C   UNL A   1      42.656  23.783  27.671  1.00  0.00     0.058 A 
ATOM     77  C   UNL A   1      42.537  22.686  28.536  1.00  0.00     0.135 A 
ATOM     78  C   UNL A   1      42.583  23.537  26.291  1.00  0.00     0.135 A 
ATOM     79  F   UNL A   1      42.608  22.868  29.864  1.00  0.00    -0.206 F 
ATOM     80  C   UNL A   1      42.362  21.393  28.056  1.00  0.00     0.059 A 
ATOM     81  C   UNL A   1      42.382  22.256  25.786  1.00  0.00     0.059 A 
ATOM     82  F   UNL A   1      42.677  24.555  25.420  1.00  0.00    -0.206 F 
ATOM     83  C   UNL A   1      42.280  21.188  26.677  1.00  0.00     0.060 A 
BRANCH  83  84
ATOM     84  S   UNL A   1      41.996  19.511  26.069  1.00  0.00     0.124 S 
ATOM     85  O   UNL A   1      42.867  19.472  24.899  1.00  0.00    -0.237 OA
ATOM     86  O   UNL A   1      42.417  18.700  27.206  1.00  0.00    -0.237 OA
ATOM     87  O   UNL A   1      40.564  19.493  25.791  1.00  0.00    -0.744 OA
ENDBRANCH  83  84
ENDBRANCH  51  76
BRANCH  63  88
ATOM     88  C   UNL A   1      48.077  27.174  30.463  1.00  0.00     0.058 A 
ATOM     89  C   UNL A   1      49.136  27.556  29.624  1.00  0.00     0.135 A 
ATOM     90  C   UNL A   1      48.389  26.429  31.613  1.00  0.00     0.135 A 
ATOM     91  F   UNL A   1      48.894  28.260  28.507  1.00  0.00    -0.206 F 
ATOM     92  C   UNL A   1      50.451  27.193  29.903  1.00  0.00     0.059 A 
ATOM     93  C   UNL A   1      49.699  26.083  31.928  1.00  0.00     0.059 A 
ATOM     94  F   UNL A   1      47.416  26.047  32.455  1.00  0.00    -0.206 F 
ATOM     95  C   UNL A   1      50.723  26.459  31.059  1.00  0.00     0.060 A 
BRANCH  95  96
ATOM     96  S   UNL A   1      52.436  26.026  31.426  1.00  0.00     0.124 S 
ATOM     97  O   UNL A   1      53.030  26.017  30.093  1.00  0.00    -0.237 OA
ATOM     98  O   UNL A   1      52.853  27.119  32.300  1.00  0.00    -0.237 OA
ATOM     99  O   UNL A   1      52.327  24.723  32.074  1.00  0.00    -0.744 OA
ENDBRANCH  95  96
ENDBRANCH  63  88
ENDBRANCH  37  38
ENDBRANCH  29  32
ENDBRANCH  27  28
ENDBRANCH  26  27
ENDBRANCH   1  26
TORSDOF 18
ENDMDL
MODEL 2
REMARK VINA RESULT:     -10.5      2.597      3.459
REMARK SMILES CN(C(=O)N[C@@](C)(C(=O)NCCCCNC(=O)c1ccc(-c2c3nc(c(-c4c(F)cc(S(=O)(=O)[O-])cc4F)c4ccc([nH]4)c(-c4c(F)cc(S(=O)(=O)[O-])cc4F)c4nc(c(-c5c(F)cc(S(=O)(=O)[O-])cc5F)c5ccc2[nH]5)C=C4)C=C3)cc1)C(F)(F)F)c1ccc(F)cc1
REMARK SMILES IDX 12 1 11 2 10 3 8 4 9 5 6 7 7 8 5 9 3 10 4 11 2 13 1 14 88 15
REMARK SMILES IDX 89 16 94 17 90 18 93 19 91 20 92 21 84 22 85 23 86 24 87 25
REMARK SMILES IDX 13 26 14 27 15 28 16 29 17 31 18 32 19 33 83 34 20 35 82 36
REMARK SMILES IDX 21 37 22 38 23 39 76 40 24 41 81 42 75 43 77 44 25 45 80 46
REMARK SMILES IDX 74 47 73 48 26 50 60 51 39 52 59 53 40 54 43 55 58 56 78 57
REMARK SMILES IDX 41 58 42 59 57 61 79 62 44 63 27 64 28 65 37 66 29 67 30 68
REMARK SMILES IDX 36 69 38 70 31 71 32 72 33 73 34 74 35 75 61 76 62 77 71 78
REMARK SMILES IDX 63 79 64 80 70 81 72 82 65 83 66 84 67 85 68 86 69 87 45 88
REMARK SMILES IDX 46 89 55 90 47 91 48 92 54 93 56 94 49 95 50 96 51 97 52 98
REMARK SMILES IDX 53 99
REMARK H PARENT 10 6 5 12 15 30 77 49 43 60
REMARK Flexibility Score: inf
ROOT
ATOM      1  C   UNL A   1      32.971  29.586  27.142  1.00  0.00     0.023 C 
ENDROOT
BRANCH   1   2
ATOM      2  C   UNL A   1      31.815  28.708  26.665  1.00  0.00     0.116 C 
BRANCH   2   3
ATOM      3  N   UNL A   1      31.415  29.050  25.313  1.00  0.00    -0.354 N 
ATOM      4  C   UNL A   1      31.496  28.432  24.106  1.00  0.00     0.255 C 
ATOM      5  O   UNL A   1      31.128  29.137  23.161  1.00  0.00    -0.272 OA
ATOM      6  H   UNL A   1      30.986  29.934  25.258  1.00  0.00     0.163 HD
BRANCH   4   7
ATOM      7  C   UNL A   1      32.068  27.006  23.896  1.00  0.00     0.213 C 
ATOM      8  C   UNL A   1      31.514  26.329  22.626  1.00  0.00     0.056 C 
BRANCH   7   9
ATOM      9  N   UNL A   1      31.587  26.209  25.091  1.00  0.00    -0.316 N 
ATOM     10  C   UNL A   1      31.567  25.033  25.734  1.00  0.00     0.322 C 
ATOM     11  O   UNL A   1      31.122  25.148  26.885  1.00  0.00    -0.248 OA
ATOM     12  H   UNL A   1      31.055  26.830  25.639  1.00  0.00     0.166 HD
BRANCH  10  13
ATOM     13  N   UNL A   1      31.978  23.838  25.225  1.00  0.00    -0.298 N 
ATOM     14  C   UNL A   1      31.162  22.652  25.066  1.00  0.00     0.155 C 
BRANCH  13  15
ATOM     15  C   UNL A   1      33.372  23.572  25.010  1.00  0.00     0.045 A 
ATOM     16  C   UNL A   1      33.864  23.297  23.726  1.00  0.00     0.029 A 
ATOM     17  C   UNL A   1      34.282  23.781  26.060  1.00  0.00     0.029 A 
ATOM     18  C   UNL A   1      35.242  23.306  23.487  1.00  0.00     0.041 A 
ATOM     19  C   UNL A   1      35.657  23.766  25.824  1.00  0.00     0.041 A 
ATOM     20  C   UNL A   1      36.122  23.551  24.534  1.00  0.00     0.123 A 
ATOM     21  F   UNL A   1      37.439  23.605  24.292  1.00  0.00    -0.207 F 
ENDBRANCH  13  15
ENDBRANCH  10  13
ENDBRANCH   7   9
BRANCH   7  22
ATOM     22  C   UNL A   1      33.562  27.285  23.598  1.00  0.00     0.420 C 
ATOM     23  F   UNL A   1      34.419  26.523  24.303  1.00  0.00    -0.168 F 
ATOM     24  F   UNL A   1      33.848  27.108  22.281  1.00  0.00    -0.168 F 
ATOM     25  F   UNL A   1      33.882  28.586  23.832  1.00  0.00    -0.168 F 
ENDBRANCH   7  22
ENDBRANCH   4   7
ENDBRANCH   2   3
ENDBRANCH   1   2
BRANCH   1  26
ATOM     26  C   UNL A   1      34.361  28.951  27.045  1.00  0.00     0.023 C 
BRANCH  26  27
ATOM     27  C   UNL A   1      35.499  29.785  27.621  1.00  0.00     0.116 C 
BRANCH  27  28
ATOM     28  N   UNL A   1      35.344  30.036  29.046  1.00  0.00    -0.352 N 
ATOM     29  C   UNL A   1      36.280  29.957  30.048  1.00  0.00     0.251 C 
ATOM     30  H   UNL A   1      34.439  30.300  29.332  1.00  0.00     0.163 HD
ATOM     31  O   UNL A   1      35.928  30.047  31.221  1.00  0.00    -0.269 OA
BRANCH  29  32
ATOM     32  C   UNL A   1      37.702  29.735  29.709  1.00  0.00     0.039 A 
ATOM     33  C   UNL A   1      38.587  29.350  30.719  1.00  0.00     0.014 A 
ATOM     34  C   UNL A   1      38.154  29.883  28.396  1.00  0.00     0.014 A 
ATOM     35  C   UNL A   1      39.911  29.046  30.397  1.00  0.00     0.010 A 
ATOM     36  C   UNL A   1      39.450  29.500  28.064  1.00  0.00     0.010 A 
ATOM     37  C   UNL A   1      40.344  29.079  29.060  1.00  0.00    -0.014 A 
BRANCH  37  38
ATOM     38  C   UNL A   1      41.724  28.677  28.685  1.00  0.00     0.031 A 
ATOM     39  C   UNL A   1      42.834  29.692  28.681  1.00  0.00     0.074 A 
ATOM     40  C   UNL A   1      41.967  27.410  28.292  1.00  0.00     0.049 A 
ATOM     41  N   UNL A   1      44.088  29.547  28.337  1.00  0.00    -0.248 NA
ATOM     42  C   UNL A   1      42.481  31.060  29.093  1.00  0.00     0.031 C 
ATOM     43  C   UNL A   1      40.968  26.342  28.215  1.00  0.00     0.029 A 
ATOM     44  N   UNL A   1      43.129  26.806  27.881  1.00  0.00    -0.354 N 
ATOM     45  C   UNL A   1      44.670  30.800  28.485  1.00  0.00     0.074 A 
ATOM     46  C   UNL A   1      43.616  31.709  28.882  1.00  0.00     0.031 C 
ATOM     47  C   UNL A   1      41.567  25.207  27.821  1.00  0.00     0.029 A 
ATOM     48  C   UNL A   1      42.981  25.474  27.574  1.00  0.00     0.049 A 
ATOM     49  H   UNL A   1      43.987  27.283  27.812  1.00  0.00     0.167 HD
ATOM     50  C   UNL A   1      45.969  31.159  28.333  1.00  0.00     0.037 A 
ATOM     51  C   UNL A   1      43.882  24.570  27.142  1.00  0.00     0.037 A 
ATOM     52  C   UNL A   1      47.013  30.248  27.943  1.00  0.00     0.049 A 
ATOM     53  C   UNL A   1      45.310  24.999  26.941  1.00  0.00     0.074 A 
ATOM     54  C   UNL A   1      48.366  30.499  27.796  1.00  0.00     0.029 A 
ATOM     55  N   UNL A   1      46.821  28.909  27.629  1.00  0.00    -0.354 N 
ATOM     56  N   UNL A   1      45.856  26.175  27.140  1.00  0.00    -0.248 NA
ATOM     57  C   UNL A   1      46.248  23.975  26.457  1.00  0.00     0.031 C 
ATOM     58  C   UNL A   1      48.983  29.327  27.345  1.00  0.00     0.029 A 
ATOM     59  C   UNL A   1      48.025  28.329  27.266  1.00  0.00     0.049 A 
ATOM     60  H   UNL A   1      45.955  28.441  27.660  1.00  0.00     0.167 HD
ATOM     61  C   UNL A   1      47.206  26.024  26.842  1.00  0.00     0.074 A 
ATOM     62  C   UNL A   1      47.394  24.641  26.454  1.00  0.00     0.031 C 
ATOM     63  C   UNL A   1      48.199  26.946  26.887  1.00  0.00     0.037 A 
BRANCH  50  64
ATOM     64  C   UNL A   1      46.320  32.601  28.589  1.00  0.00     0.058 A 
ATOM     65  C   UNL A   1      46.686  33.056  29.868  1.00  0.00     0.135 A 
ATOM     66  C   UNL A   1      46.290  33.543  27.548  1.00  0.00     0.135 A 
ATOM     67  F   UNL A   1      46.721  32.203  30.905  1.00  0.00    -0.206 F 
ATOM     68  C   UNL A   1      46.956  34.398  30.115  1.00  0.00     0.059 A 
ATOM     69  C   UNL A   1      46.591  34.885  27.766  1.00  0.00     0.059 A 
ATOM     70  F   UNL A   1      45.953  33.167  26.304  1.00  0.00    -0.206 F 
ATOM     71  C   UNL A   1      46.899  35.306  29.059  1.00  0.00     0.060 A 
BRANCH  71  72
ATOM     72  S   UNL A   1      47.218  37.049  29.404  1.00  0.00     0.124 S 
ATOM     73  O   UNL A   1      45.912  37.642  29.129  1.00  0.00    -0.237 OA
ATOM     74  O   UNL A   1      47.618  37.021  30.807  1.00  0.00    -0.237 OA
ATOM     75  O   UNL A   1      48.274  37.395  28.459  1.00  0.00    -0.744 OA
ENDBRANCH  71  72
ENDBRANCH  50  64
BRANCH  51  76
ATOM     76  C   UNL A   1      43.469  23.159  26.914  1.00  0.00     0.058 A 
ATOM     77  C   UNL A   1      43.348  22.651  25.612  1.00  0.00     0.135 A 
ATOM     78  C   UNL A   1      43.204  22.287  27.981  1.00  0.00     0.135 A 
ATOM     79  F   UNL A   1      43.584  23.447  24.557  1.00  0.00    -0.206 F 
ATOM     80  C   UNL A   1      42.970  21.335  25.373  1.00  0.00     0.059 A 
ATOM     81  C   UNL A   1      42.850  20.958  27.770  1.00  0.00     0.059 A 
ATOM     82  F   UNL A   1      43.318  22.719  29.247  1.00  0.00    -0.206 F 
ATOM     83  C   UNL A   1      42.728  20.492  26.460  1.00  0.00     0.060 A 
BRANCH  83  84
ATOM     84  S   UNL A   1      42.292  18.770  26.137  1.00  0.00     0.124 S 
ATOM     85  O   UNL A   1      40.886  18.886  25.770  1.00  0.00    -0.237 OA
ATOM     86  O   UNL A   1      43.209  18.422  25.056  1.00  0.00    -0.237 OA
ATOM     87  O   UNL A   1      42.560  18.112  27.413  1.00  0.00    -0.744 OA
ENDBRANCH  83  84
ENDBRANCH  51  76
BRANCH  63  88
ATOM     88  C   UNL A   1      49.591  26.484  26.549  1.00  0.00     0.058 A 
ATOM     89  C   UNL A   1      50.451  25.946  27.520  1.00  0.00     0.135 A 
ATOM     90  C   UNL A   1      50.053  26.535  25.223  1.00  0.00     0.135 A 
ATOM     91  F   UNL A   1      50.064  25.880  28.804  1.00  0.00    -0.206 F 
ATOM     92  C   UNL A   1      51.728  25.500  27.193  1.00  0.00     0.059 A 
ATOM     93  C   UNL A   1      51.313  26.066  24.869  1.00  0.00     0.059 A 
ATOM     94  F   UNL A   1      49.268  27.030  24.253  1.00  0.00    -0.206 F 
ATOM     95  C   UNL A   1      52.149  25.561  25.864  1.00  0.00     0.060 A 
BRANCH  95  96
ATOM     96  S   UNL A   1      53.795  24.947  25.448  1.00  0.00     0.124 S 
ATOM     97  O   UNL A   1      53.507  23.570  25.059  1.00  0.00    -0.237 OA
ATOM     98  O   UNL A   1      54.197  25.842  24.367  1.00  0.00    -0.237 OA
ATOM     99  O   UNL A   1      54.542  25.105  26.692  1.00  0.00    -0.744 OA
ENDBRANCH  95  96
ENDBRANCH  63  88
ENDBRANCH  37  38
ENDBRANCH  29  32
ENDBRANCH  27  28
ENDBRANCH  26  27
ENDBRANCH   1  26
TORSDOF 18
ENDMDL
MODEL 3
REMARK VINA RESULT:     -10.4      2.806      3.952
REMARK SMILES CN(C(=O)N[C@@](C)(C(=O)NCCCCNC(=O)c1ccc(-c2c3nc(c(-c4c(F)cc(S(=O)(=O)[O-])cc4F)c4ccc([nH]4)c(-c4c(F)cc(S(=O)(=O)[O-])cc4F)c4nc(c(-c5c(F)cc(S(=O)(=O)[O-])cc5F)c5ccc2[nH]5)C=C4)C=C3)cc1)C(F)(F)F)c1ccc(F)cc1
REMARK SMILES IDX 12 1 11 2 10 3 8 4 9 5 6 7 7 8 5 9 3 10 4 11 2 13 1 14 88 15
REMARK SMILES IDX 89 16 94 17 90 18 93 19 91 20 92 21 84 22 85 23 86 24 87 25
REMARK SMILES IDX 13 26 14 27 15 28 16 29 17 31 18 32 19 33 83 34 20 35 82 36
REMARK SMILES IDX 21 37 22 38 23 39 76 40 24 41 81 42 75 43 77 44 25 45 80 46
REMARK SMILES IDX 74 47 73 48 26 50 60 51 39 52 59 53 40 54 43 55 58 56 78 57
REMARK SMILES IDX 41 58 42 59 57 61 79 62 44 63 27 64 28 65 37 66 29 67 30 68
REMARK SMILES IDX 36 69 38 70 31 71 32 72 33 73 34 74 35 75 61 76 62 77 71 78
REMARK SMILES IDX 63 79 64 80 70 81 72 82 65 83 66 84 67 85 68 86 69 87 45 88
REMARK SMILES IDX 46 89 55 90 47 91 48 92 54 93 56 94 49 95 50 96 51 97 52 98
REMARK SMILES IDX 53 99
REMARK H PARENT 10 6 5 12 15 30 77 49 43 60
REMARK Flexibility Score: inf
ROOT
ATOM      1  C   UNL A   1      33.524  26.216  25.361  1.00  0.00     0.023 C 
ENDROOT
BRANCH   1   2
ATOM      2  C   UNL A   1      34.515  25.101  25.691  1.00  0.00     0.116 C 
BRANCH   2   3
ATOM      3  N   UNL A   1      34.890  24.359  24.502  1.00  0.00    -0.354 N 
ATOM      4  C   UNL A   1      35.678  23.280  24.257  1.00  0.00     0.255 C 
ATOM      5  O   UNL A   1      35.822  23.032  23.055  1.00  0.00    -0.272 OA
ATOM      6  H   UNL A   1      34.478  24.720  23.685  1.00  0.00     0.163 HD
BRANCH   4   7
ATOM      7  C   UNL A   1      36.406  22.466  25.358  1.00  0.00     0.213 C 
ATOM      8  C   UNL A   1      37.003  21.150  24.822  1.00  0.00     0.056 C 
BRANCH   7   9
ATOM      9  N   UNL A   1      35.329  22.110  26.362  1.00  0.00    -0.316 N 
ATOM     10  C   UNL A   1      34.176  21.475  26.607  1.00  0.00     0.322 C 
ATOM     11  O   UNL A   1      33.940  21.404  27.822  1.00  0.00    -0.248 OA
ATOM     12  H   UNL A   1      35.595  22.533  27.211  1.00  0.00     0.166 HD
BRANCH  10  13
ATOM     13  N   UNL A   1      33.337  20.952  25.669  1.00  0.00    -0.298 N 
ATOM     14  C   UNL A   1      33.443  19.640  25.065  1.00  0.00     0.155 C 
BRANCH  13  15
ATOM     15  C   UNL A   1      32.372  21.781  25.003  1.00  0.00     0.045 A 
ATOM     16  C   UNL A   1      31.548  22.653  25.728  1.00  0.00     0.029 A 
ATOM     17  C   UNL A   1      32.388  21.864  23.601  1.00  0.00     0.029 A 
ATOM     18  C   UNL A   1      30.812  23.638  25.062  1.00  0.00     0.041 A 
ATOM     19  C   UNL A   1      31.634  22.831  22.936  1.00  0.00     0.041 A 
ATOM     20  C   UNL A   1      30.871  23.725  23.676  1.00  0.00     0.123 A 
ATOM     21  F   UNL A   1      30.201  24.699  23.045  1.00  0.00    -0.207 F 
ENDBRANCH  13  15
ENDBRANCH  10  13
ENDBRANCH   7   9
BRANCH   7  22
ATOM     22  C   UNL A   1      37.622  23.367  25.691  1.00  0.00     0.420 C 
ATOM     23  F   UNL A   1      37.968  24.217  24.707  1.00  0.00    -0.168 F 
ATOM     24  F   UNL A   1      37.401  24.107  26.809  1.00  0.00    -0.168 F 
ATOM     25  F   UNL A   1      38.721  22.626  25.999  1.00  0.00    -0.168 F 
ENDBRANCH   7  22
ENDBRANCH   4   7
ENDBRANCH   2   3
ENDBRANCH   1   2
BRANCH   1  26
ATOM     26  C   UNL A   1      33.601  27.451  26.263  1.00  0.00     0.023 C 
BRANCH  26  27
ATOM     27  C   UNL A   1      34.236  28.683  25.629  1.00  0.00     0.116 C 
BRANCH  27  28
ATOM     28  N   UNL A   1      33.830  29.920  26.277  1.00  0.00    -0.352 N 
ATOM     29  C   UNL A   1      34.380  30.550  27.367  1.00  0.00     0.251 C 
ATOM     30  H   UNL A   1      33.049  30.369  25.879  1.00  0.00     0.163 HD
ATOM     31  O   UNL A   1      33.802  31.506  27.876  1.00  0.00    -0.269 OA
BRANCH  29  32
ATOM     32  C   UNL A   1      35.651  30.055  27.937  1.00  0.00     0.039 A 
ATOM     33  C   UNL A   1      36.849  30.350  27.281  1.00  0.00     0.014 A 
ATOM     34  C   UNL A   1      35.663  29.322  29.126  1.00  0.00     0.014 A 
ATOM     35  C   UNL A   1      38.063  29.970  27.856  1.00  0.00     0.010 A 
ATOM     36  C   UNL A   1      36.875  29.018  29.738  1.00  0.00     0.010 A 
ATOM     37  C   UNL A   1      38.089  29.336  29.110  1.00  0.00    -0.014 A 
BRANCH  37  38
ATOM     38  C   UNL A   1      39.371  29.001  29.780  1.00  0.00     0.031 A 
ATOM     39  C   UNL A   1      39.819  29.776  30.990  1.00  0.00     0.074 A 
ATOM     40  C   UNL A   1      40.163  28.039  29.265  1.00  0.00     0.049 A 
ATOM     41  N   UNL A   1      40.924  29.668  31.680  1.00  0.00    -0.248 NA
ATOM     42  C   UNL A   1      38.913  30.831  31.472  1.00  0.00     0.031 C 
ATOM     43  C   UNL A   1      39.861  27.243  28.073  1.00  0.00     0.029 A 
ATOM     44  N   UNL A   1      41.385  27.567  29.676  1.00  0.00    -0.354 N 
ATOM     45  C   UNL A   1      40.851  30.640  32.671  1.00  0.00     0.074 A 
ATOM     46  C   UNL A   1      39.624  31.375  32.448  1.00  0.00     0.031 C 
ATOM     47  C   UNL A   1      40.850  26.358  27.873  1.00  0.00     0.029 A 
ATOM     48  C   UNL A   1      41.877  26.551  28.892  1.00  0.00     0.049 A 
ATOM     49  H   UNL A   1      41.863  27.925  30.458  1.00  0.00     0.167 HD
ATOM     50  C   UNL A   1      41.710  30.882  33.691  1.00  0.00     0.037 A 
ATOM     51  C   UNL A   1      43.026  25.853  28.984  1.00  0.00     0.037 A 
ATOM     52  C   UNL A   1      42.926  30.144  33.909  1.00  0.00     0.049 A 
ATOM     53  C   UNL A   1      43.985  26.165  30.100  1.00  0.00     0.074 A 
ATOM     54  C   UNL A   1      43.847  30.283  34.932  1.00  0.00     0.029 A 
ATOM     55  N   UNL A   1      43.396  29.129  33.087  1.00  0.00    -0.354 N 
ATOM     56  N   UNL A   1      43.873  27.051  31.062  1.00  0.00    -0.248 NA
ATOM     57  C   UNL A   1      45.228  25.382  30.145  1.00  0.00     0.031 C 
ATOM     58  C   UNL A   1      44.899  29.390  34.700  1.00  0.00     0.029 A 
ATOM     59  C   UNL A   1      44.605  28.651  33.564  1.00  0.00     0.049 A 
ATOM     60  H   UNL A   1      42.937  28.798  32.281  1.00  0.00     0.167 HD
ATOM     61  C   UNL A   1      45.012  26.906  31.847  1.00  0.00     0.074 A 
ATOM     62  C   UNL A   1      45.796  25.844  31.250  1.00  0.00     0.031 C 
ATOM     63  C   UNL A   1      45.374  27.588  32.962  1.00  0.00     0.037 A 
BRANCH  50  64
ATOM     64  C   UNL A   1      41.356  31.997  34.640  1.00  0.00     0.058 A 
ATOM     65  C   UNL A   1      40.548  31.777  35.769  1.00  0.00     0.135 A 
ATOM     66  C   UNL A   1      41.826  33.302  34.422  1.00  0.00     0.135 A 
ATOM     67  F   UNL A   1      40.059  30.551  36.022  1.00  0.00    -0.206 F 
ATOM     68  C   UNL A   1      40.175  32.817  36.614  1.00  0.00     0.059 A 
ATOM     69  C   UNL A   1      41.493  34.352  35.275  1.00  0.00     0.059 A 
ATOM     70  F   UNL A   1      42.605  33.573  33.363  1.00  0.00    -0.206 F 
ATOM     71  C   UNL A   1      40.648  34.103  36.354  1.00  0.00     0.060 A 
BRANCH  71  72
ATOM     72  S   UNL A   1      40.126  35.448  37.440  1.00  0.00     0.124 S 
ATOM     73  O   UNL A   1      38.896  34.902  38.006  1.00  0.00    -0.237 OA
ATOM     74  O   UNL A   1      41.252  35.559  38.362  1.00  0.00    -0.237 OA
ATOM     75  O   UNL A   1      39.951  36.573  36.528  1.00  0.00    -0.744 OA
ENDBRANCH  71  72
ENDBRANCH  50  64
BRANCH  51  76
ATOM     76  C   UNL A   1      43.311  24.760  28.015  1.00  0.00     0.058 A 
ATOM     77  C   UNL A   1      44.081  25.004  26.868  1.00  0.00     0.135 A 
ATOM     78  C   UNL A   1      42.842  23.453  28.220  1.00  0.00     0.135 A 
ATOM     79  F   UNL A   1      44.547  26.238  26.624  1.00  0.00    -0.206 F 
ATOM     80  C   UNL A   1      44.366  23.998  25.953  1.00  0.00     0.059 A 
ATOM     81  C   UNL A   1      43.136  22.423  27.332  1.00  0.00     0.059 A 
ATOM     82  F   UNL A   1      42.112  23.163  29.309  1.00  0.00    -0.206 F 
ATOM     83  C   UNL A   1      43.893  22.707  26.196  1.00  0.00     0.060 A 
BRANCH  83  84
ATOM     84  S   UNL A   1      44.319  21.397  25.028  1.00  0.00     0.124 S 
ATOM     85  O   UNL A   1      44.117  22.067  23.748  1.00  0.00    -0.237 OA
ATOM     86  O   UNL A   1      45.703  21.107  25.387  1.00  0.00    -0.237 OA
ATOM     87  O   UNL A   1      43.362  20.341  25.345  1.00  0.00    -0.744 OA
ENDBRANCH  83  84
ENDBRANCH  51  76
BRANCH  63  88
ATOM     88  C   UNL A   1      46.656  27.182  33.638  1.00  0.00     0.058 A 
ATOM     89  C   UNL A   1      46.694  26.169  34.610  1.00  0.00     0.135 A 
ATOM     90  C   UNL A   1      47.872  27.784  33.273  1.00  0.00     0.135 A 
ATOM     91  F   UNL A   1      45.561  25.565  35.002  1.00  0.00    -0.206 F 
ATOM     92  C   UNL A   1      47.888  25.785  35.213  1.00  0.00     0.059 A 
ATOM     93  C   UNL A   1      49.081  27.394  33.840  1.00  0.00     0.059 A 
ATOM     94  F   UNL A   1      47.895  28.751  32.342  1.00  0.00    -0.206 F 
ATOM     95  C   UNL A   1      49.077  26.401  34.819  1.00  0.00     0.060 A 
BRANCH  95  96
ATOM     96  S   UNL A   1      50.623  25.869  35.584  1.00  0.00     0.124 S 
ATOM     97  O   UNL A   1      50.390  24.438  35.756  1.00  0.00    -0.237 OA
ATOM     98  O   UNL A   1      51.612  26.234  34.574  1.00  0.00    -0.237 OA
ATOM     99  O   UNL A   1      50.679  26.649  36.816  1.00  0.00    -0.744 OA
ENDBRANCH  95  96
ENDBRANCH  63  88
ENDBRANCH  37  38
ENDBRANCH  29  32
ENDBRANCH  27  28
ENDBRANCH  26  27
ENDBRANCH   1  26
TORSDOF 18
ENDMDL
