MODEL 1
REMARK VINA RESULT:     -11.8      0.000      0.000
REMARK SMILES O=C(NCCCCNC(=O)c1ccc(-c2c3nc(c(-c4c(F)cc(S(=O)(=O)[O-])cc4F)c4ccc([nH]4)c(-c4c(F)cc(S(=O)(=O)[O-])cc4F)c4nc(c(-c5c(F)cc(S(=O)(=O)[O-])cc5F)c5ccc2[nH]5)C=C4)C=C3)cc1)C1=C(C(=O)NCCC2=CCCCC2)CCCC1
REMARK SMILES IDX 5 1 4 2 3 3 1 4 2 5 77 7 78 8 93 9 90 10 92 11 91 12 79 13
REMARK SMILES IDX 80 14 81 15 82 17 83 18 84 19 85 20 89 21 86 22 88 23 87 24
REMARK SMILES IDX 6 25 7 26 8 27 9 28 10 30 11 31 12 32 76 33 13 34 75 35
REMARK SMILES IDX 14 36 15 37 16 38 69 39 17 40 74 41 68 42 70 43 18 44 73 45
REMARK SMILES IDX 67 46 66 47 19 49 53 50 32 51 52 52 33 53 36 54 51 55 71 56
REMARK SMILES IDX 34 57 35 58 50 60 72 61 37 62 20 63 21 64 30 65 22 66 23 67
REMARK SMILES IDX 29 68 31 69 24 70 25 71 26 72 27 73 28 74 54 75 55 76 64 77
REMARK SMILES IDX 56 78 57 79 63 80 65 81 58 82 59 83 60 84 61 85 62 86 38 87
REMARK SMILES IDX 39 88 48 89 40 90 41 91 47 92 49 93 42 94 43 95 44 96 45 97
REMARK SMILES IDX 46 98
REMARK H PARENT 3 6 81 16 8 29 70 48 36 59
REMARK Flexibility Score: inf
ROOT
ATOM      1  C   UNL A   1      36.407  24.043  26.257  1.00  0.00     0.023 C 
ENDROOT
BRANCH   1   2
ATOM      2  C   UNL A   1      35.478  22.981  26.844  1.00  0.00     0.116 C 
BRANCH   2   3
ATOM      3  N   UNL A   1      35.710  21.678  26.253  1.00  0.00    -0.352 N 
ATOM      4  O   UNL A   1      35.583  19.999  24.788  1.00  0.00    -0.270 OA
ATOM      5  C   UNL A   1      35.262  21.148  25.088  1.00  0.00     0.247 C 
ATOM      6  H   UNL A   1      36.285  21.079  26.784  1.00  0.00     0.163 HD
BRANCH   5   7
ATOM      7  C   UNL A   1      34.330  21.908  24.217  1.00  0.00     0.026 C 
ATOM      8  C   UNL A   1      32.979  21.865  24.246  1.00  0.00     0.026 C 
ATOM      9  C   UNL A   1      35.104  22.830  23.292  1.00  0.00     0.042 C 
ATOM     10  C   UNL A   1      32.176  22.556  23.147  1.00  0.00     0.042 C 
ATOM     11  C   UNL A   1      34.239  23.775  22.462  1.00  0.00     0.005 C 
ATOM     12  C   UNL A   1      33.012  23.043  21.960  1.00  0.00     0.005 C 
BRANCH   8  13
ATOM     13  C   UNL A   1      32.080  21.125  25.199  1.00  0.00     0.247 C 
ATOM     14  O   UNL A   1      31.806  19.946  24.961  1.00  0.00    -0.270 OA
ATOM     15  N   UNL A   1      31.468  21.707  26.264  1.00  0.00    -0.352 N 
ATOM     16  H   UNL A   1      30.768  21.155  26.683  1.00  0.00     0.163 HD
BRANCH  15  17
ATOM     17  C   UNL A   1      31.664  22.999  26.893  1.00  0.00     0.120 C 
BRANCH  17  18
ATOM     18  C   UNL A   1      30.852  24.149  26.294  1.00  0.00     0.052 C 
BRANCH  18  19
ATOM     19  C   UNL A   1      31.615  25.398  25.898  1.00  0.00    -0.072 C 
ATOM     20  C   UNL A   1      32.948  25.355  25.709  1.00  0.00    -0.028 C 
ATOM     21  C   UNL A   1      30.859  26.710  25.855  1.00  0.00     0.031 C 
ATOM     22  C   UNL A   1      33.810  26.567  25.502  1.00  0.00     0.027 C 
ATOM     23  C   UNL A   1      31.681  27.873  25.292  1.00  0.00     0.005 C 
ATOM     24  C   UNL A   1      33.097  27.874  25.849  1.00  0.00     0.004 C 
ENDBRANCH  18  19
ENDBRANCH  17  18
ENDBRANCH  15  17
ENDBRANCH   8  13
ENDBRANCH   5   7
ENDBRANCH   2   3
ENDBRANCH   1   2
BRANCH   1  25
ATOM     25  C   UNL A   1      37.783  23.524  25.811  1.00  0.00     0.023 C 
BRANCH  25  26
ATOM     26  C   UNL A   1      38.927  23.777  26.792  1.00  0.00     0.116 C 
BRANCH  26  27
ATOM     27  N   UNL A   1      40.165  24.115  26.110  1.00  0.00    -0.352 N 
ATOM     28  C   UNL A   1      40.998  25.198  26.246  1.00  0.00     0.251 C 
ATOM     29  H   UNL A   1      40.454  23.457  25.438  1.00  0.00     0.163 HD
ATOM     30  O   UNL A   1      41.853  25.400  25.384  1.00  0.00    -0.269 OA
BRANCH  28  31
ATOM     31  C   UNL A   1      40.893  26.125  27.400  1.00  0.00     0.039 A 
ATOM     32  C   UNL A   1      39.968  25.845  28.411  1.00  0.00     0.014 A 
ATOM     33  C   UNL A   1      41.624  27.313  27.455  1.00  0.00     0.014 A 
ATOM     34  C   UNL A   1      39.808  26.731  29.483  1.00  0.00     0.010 A 
ATOM     35  C   UNL A   1      41.522  28.158  28.563  1.00  0.00     0.010 A 
ATOM     36  C   UNL A   1      40.598  27.888  29.583  1.00  0.00    -0.014 A 
BRANCH  36  37
ATOM     37  C   UNL A   1      40.432  28.839  30.718  1.00  0.00     0.031 A 
ATOM     38  C   UNL A   1      41.296  28.714  31.950  1.00  0.00     0.074 A 
ATOM     39  C   UNL A   1      39.490  29.802  30.659  1.00  0.00     0.049 A 
ATOM     40  N   UNL A   1      41.265  29.414  33.056  1.00  0.00    -0.248 NA
ATOM     41  C   UNL A   1      42.309  27.647  31.948  1.00  0.00     0.031 C 
ATOM     42  C   UNL A   1      38.554  30.006  29.551  1.00  0.00     0.029 A 
ATOM     43  N   UNL A   1      39.156  30.788  31.556  1.00  0.00    -0.354 N 
ATOM     44  C   UNL A   1      42.250  28.873  33.878  1.00  0.00     0.074 A 
ATOM     45  C   UNL A   1      42.814  27.746  33.169  1.00  0.00     0.031 C 
ATOM     46  C   UNL A   1      37.767  31.059  29.825  1.00  0.00     0.029 A 
ATOM     47  C   UNL A   1      38.119  31.589  31.139  1.00  0.00     0.049 A 
ATOM     48  H   UNL A   1      39.617  30.909  32.418  1.00  0.00     0.167 HD
ATOM     49  C   UNL A   1      42.671  29.294  35.096  1.00  0.00     0.037 A 
ATOM     50  C   UNL A   1      37.518  32.632  31.745  1.00  0.00     0.037 A 
ATOM     51  C   UNL A   1      42.128  30.431  35.793  1.00  0.00     0.049 A 
ATOM     52  C   UNL A   1      38.019  33.092  33.090  1.00  0.00     0.074 A 
ATOM     53  C   UNL A   1      42.493  30.939  37.029  1.00  0.00     0.029 A 
ATOM     54  N   UNL A   1      41.118  31.248  35.310  1.00  0.00    -0.354 N 
ATOM     55  N   UNL A   1      38.970  32.583  33.835  1.00  0.00    -0.248 NA
ATOM     56  C   UNL A   1      37.377  34.283  33.666  1.00  0.00     0.031 C 
ATOM     57  C   UNL A   1      41.690  32.053  37.302  1.00  0.00     0.029 A 
ATOM     58  C   UNL A   1      40.854  32.262  36.217  1.00  0.00     0.049 A 
ATOM     59  H   UNL A   1      40.655  31.127  34.450  1.00  0.00     0.167 HD
ATOM     60  C   UNL A   1      39.067  33.414  34.947  1.00  0.00     0.074 A 
ATOM     61  C   UNL A   1      38.086  34.463  34.772  1.00  0.00     0.031 C 
ATOM     62  C   UNL A   1      39.894  33.316  36.018  1.00  0.00     0.037 A 
BRANCH  49  63
ATOM     63  C   UNL A   1      43.797  28.536  35.744  1.00  0.00     0.058 A 
ATOM     64  C   UNL A   1      45.138  28.878  35.503  1.00  0.00     0.135 A 
ATOM     65  C   UNL A   1      43.541  27.497  36.653  1.00  0.00     0.135 A 
ATOM     66  F   UNL A   1      45.441  29.852  34.630  1.00  0.00    -0.206 F 
ATOM     67  C   UNL A   1      46.185  28.203  36.123  1.00  0.00     0.059 A 
ATOM     68  C   UNL A   1      44.573  26.826  37.305  1.00  0.00     0.059 A 
ATOM     69  F   UNL A   1      42.279  27.129  36.921  1.00  0.00    -0.206 F 
ATOM     70  C   UNL A   1      45.892  27.180  37.025  1.00  0.00     0.060 A 
BRANCH  70  71
ATOM     71  S   UNL A   1      47.263  26.331  37.837  1.00  0.00     0.124 S 
ATOM     72  O   UNL A   1      48.373  26.655  36.947  1.00  0.00    -0.237 OA
ATOM     73  O   UNL A   1      47.294  26.969  39.148  1.00  0.00    -0.237 OA
ATOM     74  O   UNL A   1      46.846  24.932  37.833  1.00  0.00    -0.744 OA
ENDBRANCH  70  71
ENDBRANCH  49  63
BRANCH  50  75
ATOM     75  C   UNL A   1      36.385  33.334  31.084  1.00  0.00     0.058 A 
ATOM     76  C   UNL A   1      36.582  34.097  29.923  1.00  0.00     0.135 A 
ATOM     77  C   UNL A   1      35.089  33.283  31.619  1.00  0.00     0.135 A 
ATOM     78  F   UNL A   1      37.803  34.181  29.374  1.00  0.00    -0.206 F 
ATOM     79  C   UNL A   1      35.545  34.818  29.339  1.00  0.00     0.059 A 
ATOM     80  C   UNL A   1      34.030  33.972  31.037  1.00  0.00     0.059 A 
ATOM     81  F   UNL A   1      34.842  32.549  32.715  1.00  0.00    -0.206 F 
ATOM     82  C   UNL A   1      34.272  34.754  29.908  1.00  0.00     0.060 A 
BRANCH  82  83
ATOM     83  S   UNL A   1      32.929  35.687  29.143  1.00  0.00     0.124 S 
ATOM     84  O   UNL A   1      33.650  36.806  28.552  1.00  0.00    -0.237 OA
ATOM     85  O   UNL A   1      32.373  34.716  28.205  1.00  0.00    -0.237 OA
ATOM     86  O   UNL A   1      32.065  36.017  30.274  1.00  0.00    -0.744 OA
ENDBRANCH  82  83
ENDBRANCH  50  75
BRANCH  62  87
ATOM     87  C   UNL A   1      39.822  34.411  37.047  1.00  0.00     0.058 A 
ATOM     88  C   UNL A   1      40.463  35.646  36.866  1.00  0.00     0.135 A 
ATOM     89  C   UNL A   1      39.086  34.221  38.228  1.00  0.00     0.135 A 
ATOM     90  F   UNL A   1      41.181  35.879  35.755  1.00  0.00    -0.206 F 
ATOM     91  C   UNL A   1      40.411  36.641  37.838  1.00  0.00     0.059 A 
ATOM     92  C   UNL A   1      38.998  35.212  39.201  1.00  0.00     0.059 A 
ATOM     93  F   UNL A   1      38.443  33.063  38.446  1.00  0.00    -0.206 F 
ATOM     94  C   UNL A   1      39.681  36.411  39.006  1.00  0.00     0.060 A 
BRANCH  94  95
ATOM     95  S   UNL A   1      39.622  37.705  40.263  1.00  0.00     0.124 S 
ATOM     96  O   UNL A   1      38.870  38.749  39.575  1.00  0.00    -0.237 OA
ATOM     97  O   UNL A   1      38.926  37.043  41.364  1.00  0.00    -0.237 OA
ATOM     98  O   UNL A   1      41.030  38.003  40.510  1.00  0.00    -0.744 OA
ENDBRANCH  94  95
ENDBRANCH  62  87
ENDBRANCH  36  37
ENDBRANCH  28  31
ENDBRANCH  26  27
ENDBRANCH  25  26
ENDBRANCH   1  25
TORSDOF 18
ENDMDL
MODEL 2
REMARK VINA RESULT:     -11.8      1.546      2.838
REMARK SMILES O=C(NCCCCNC(=O)c1ccc(-c2c3nc(c(-c4c(F)cc(S(=O)(=O)[O-])cc4F)c4ccc([nH]4)c(-c4c(F)cc(S(=O)(=O)[O-])cc4F)c4nc(c(-c5c(F)cc(S(=O)(=O)[O-])cc5F)c5ccc2[nH]5)C=C4)C=C3)cc1)C1=C(C(=O)NCCC2=CCCCC2)CCCC1
REMARK SMILES IDX 5 1 4 2 3 3 1 4 2 5 77 7 78 8 93 9 90 10 92 11 91 12 79 13
REMARK SMILES IDX 80 14 81 15 82 17 83 18 84 19 85 20 89 21 86 22 88 23 87 24
REMARK SMILES IDX 6 25 7 26 8 27 9 28 10 30 11 31 12 32 76 33 13 34 75 35
REMARK SMILES IDX 14 36 15 37 16 38 69 39 17 40 74 41 68 42 70 43 18 44 73 45
REMARK SMILES IDX 67 46 66 47 19 49 53 50 32 51 52 52 33 53 36 54 51 55 71 56
REMARK SMILES IDX 34 57 35 58 50 60 72 61 37 62 20 63 21 64 30 65 22 66 23 67
REMARK SMILES IDX 29 68 31 69 24 70 25 71 26 72 27 73 28 74 54 75 55 76 64 77
REMARK SMILES IDX 56 78 57 79 63 80 65 81 58 82 59 83 60 84 61 85 62 86 38 87
REMARK SMILES IDX 39 88 48 89 40 90 41 91 47 92 49 93 42 94 43 95 44 96 45 97
REMARK SMILES IDX 46 98
REMARK H PARENT 3 6 81 16 8 29 70 48 36 59
REMARK Flexibility Score: inf
ROOT
ATOM      1  C   UNL A   1      36.005  23.058  25.935  1.00  0.00     0.023 C 
ENDROOT
BRANCH   1   2
ATOM      2  C   UNL A   1      34.802  23.997  26.004  1.00  0.00     0.116 C 
BRANCH   2   3
ATOM      3  N   UNL A   1      34.460  24.530  24.700  1.00  0.00    -0.352 N 
ATOM      4  O   UNL A   1      33.583  25.897  23.169  1.00  0.00    -0.270 OA
ATOM      5  C   UNL A   1      33.763  25.642  24.359  1.00  0.00     0.247 C 
ATOM      6  H   UNL A   1      34.785  23.998  23.937  1.00  0.00     0.163 HD
BRANCH   5   7
ATOM      7  C   UNL A   1      33.152  26.505  25.401  1.00  0.00     0.026 C 
ATOM      8  C   UNL A   1      32.022  26.253  26.099  1.00  0.00     0.026 C 
ATOM      9  C   UNL A   1      34.018  27.726  25.652  1.00  0.00     0.042 C 
ATOM     10  C   UNL A   1      31.424  27.339  26.991  1.00  0.00     0.042 C 
ATOM     11  C   UNL A   1      33.566  28.601  26.817  1.00  0.00     0.005 C 
ATOM     12  C   UNL A   1      32.056  28.723  26.815  1.00  0.00     0.005 C 
BRANCH   8  13
ATOM     13  C   UNL A   1      31.150  25.026  26.072  1.00  0.00     0.247 C 
ATOM     14  O   UNL A   1      31.187  24.251  27.031  1.00  0.00    -0.270 OA
ATOM     15  N   UNL A   1      30.390  24.665  25.004  1.00  0.00    -0.352 N 
ATOM     16  H   UNL A   1      30.025  23.752  25.055  1.00  0.00     0.163 HD
BRANCH  15  17
ATOM     17  C   UNL A   1      30.022  25.388  23.802  1.00  0.00     0.120 C 
BRANCH  17  18
ATOM     18  C   UNL A   1      28.768  26.257  23.919  1.00  0.00     0.052 C 
BRANCH  18  19
ATOM     19  C   UNL A   1      28.899  27.712  23.513  1.00  0.00    -0.072 C 
ATOM     20  C   UNL A   1      30.080  28.350  23.621  1.00  0.00    -0.028 C 
ATOM     21  C   UNL A   1      27.640  28.454  23.114  1.00  0.00     0.031 C 
ATOM     22  C   UNL A   1      30.261  29.828  23.425  1.00  0.00     0.027 C 
ATOM     23  C   UNL A   1      27.904  29.863  22.572  1.00  0.00     0.005 C 
ATOM     24  C   UNL A   1      28.940  30.596  23.412  1.00  0.00     0.004 C 
ENDBRANCH  18  19
ENDBRANCH  17  18
ENDBRANCH  15  17
ENDBRANCH   8  13
ENDBRANCH   5   7
ENDBRANCH   2   3
ENDBRANCH   1   2
BRANCH   1  25
ATOM     25  C   UNL A   1      37.327  23.727  25.528  1.00  0.00     0.023 C 
BRANCH  25  26
ATOM     26  C   UNL A   1      38.407  23.754  26.608  1.00  0.00     0.116 C 
BRANCH  26  27
ATOM     27  N   UNL A   1      39.732  23.960  26.049  1.00  0.00    -0.352 N 
ATOM     28  C   UNL A   1      40.639  24.975  26.235  1.00  0.00     0.251 C 
ATOM     29  H   UNL A   1      40.031  23.251  25.434  1.00  0.00     0.163 HD
ATOM     30  O   UNL A   1      41.591  25.068  25.461  1.00  0.00    -0.269 OA
BRANCH  28  31
ATOM     31  C   UNL A   1      40.498  25.955  27.339  1.00  0.00     0.039 A 
ATOM     32  C   UNL A   1      41.186  27.169  27.258  1.00  0.00     0.014 A 
ATOM     33  C   UNL A   1      39.775  25.658  28.496  1.00  0.00     0.014 A 
ATOM     34  C   UNL A   1      41.117  28.090  28.311  1.00  0.00     0.010 A 
ATOM     35  C   UNL A   1      39.642  26.607  29.513  1.00  0.00     0.010 A 
ATOM     36  C   UNL A   1      40.327  27.828  29.442  1.00  0.00    -0.014 A 
BRANCH  36  37
ATOM     37  C   UNL A   1      40.250  28.799  30.570  1.00  0.00     0.031 A 
ATOM     38  C   UNL A   1      41.150  28.644  31.772  1.00  0.00     0.074 A 
ATOM     39  C   UNL A   1      39.356  29.808  30.533  1.00  0.00     0.049 A 
ATOM     40  N   UNL A   1      41.195  29.357  32.870  1.00  0.00    -0.248 NA
ATOM     41  C   UNL A   1      42.108  27.526  31.748  1.00  0.00     0.031 C 
ATOM     42  C   UNL A   1      38.392  30.047  29.456  1.00  0.00     0.029 A 
ATOM     43  N   UNL A   1      39.105  30.819  31.428  1.00  0.00    -0.354 N 
ATOM     44  C   UNL A   1      42.180  28.776  33.663  1.00  0.00     0.074 A 
ATOM     45  C   UNL A   1      42.661  27.613  32.948  1.00  0.00     0.031 C 
ATOM     46  C   UNL A   1      37.669  31.142  29.744  1.00  0.00     0.029 A 
ATOM     47  C   UNL A   1      38.095  31.668  31.038  1.00  0.00     0.049 A 
ATOM     48  H   UNL A   1      39.602  30.926  32.272  1.00  0.00     0.167 HD
ATOM     49  C   UNL A   1      42.666  29.188  34.860  1.00  0.00     0.037 A 
ATOM     50  C   UNL A   1      37.570  32.746  31.652  1.00  0.00     0.037 A 
ATOM     51  C   UNL A   1      42.207  30.358  35.561  1.00  0.00     0.049 A 
ATOM     52  C   UNL A   1      38.141  33.195  32.971  1.00  0.00     0.074 A 
ATOM     53  C   UNL A   1      42.642  30.861  36.777  1.00  0.00     0.029 A 
ATOM     54  N   UNL A   1      41.222  31.221  35.104  1.00  0.00    -0.354 N 
ATOM     55  N   UNL A   1      39.092  32.647  33.689  1.00  0.00    -0.248 NA
ATOM     56  C   UNL A   1      37.582  34.423  33.555  1.00  0.00     0.031 C 
ATOM     57  C   UNL A   1      41.906  32.018  37.063  1.00  0.00     0.029 A 
ATOM     58  C   UNL A   1      41.042  32.257  36.007  1.00  0.00     0.049 A 
ATOM     59  H   UNL A   1      40.723  31.113  34.263  1.00  0.00     0.167 HD
ATOM     60  C   UNL A   1      39.271  33.484  34.786  1.00  0.00     0.074 A 
ATOM     61  C   UNL A   1      38.338  34.580  34.632  1.00  0.00     0.031 C 
ATOM     62  C   UNL A   1      40.130  33.356  35.828  1.00  0.00     0.037 A 
BRANCH  49  63
ATOM     63  C   UNL A   1      43.776  28.381  35.477  1.00  0.00     0.058 A 
ATOM     64  C   UNL A   1      43.503  27.344  36.385  1.00  0.00     0.135 A 
ATOM     65  C   UNL A   1      45.116  28.605  35.124  1.00  0.00     0.135 A 
ATOM     66  F   UNL A   1      42.242  27.098  36.771  1.00  0.00    -0.206 F 
ATOM     67  C   UNL A   1      44.521  26.572  36.936  1.00  0.00     0.059 A 
ATOM     68  C   UNL A   1      46.148  27.827  35.643  1.00  0.00     0.059 A 
ATOM     69  F   UNL A   1      45.433  29.583  34.261  1.00  0.00    -0.206 F 
ATOM     70  C   UNL A   1      45.841  26.820  36.556  1.00  0.00     0.060 A 
BRANCH  70  71
ATOM     71  S   UNL A   1      47.146  25.793  37.265  1.00  0.00     0.124 S 
ATOM     72  O   UNL A   1      46.448  24.526  37.455  1.00  0.00    -0.237 OA
ATOM     73  O   UNL A   1      48.160  25.808  36.215  1.00  0.00    -0.237 OA
ATOM     74  O   UNL A   1      47.506  26.500  38.490  1.00  0.00    -0.744 OA
ENDBRANCH  70  71
ENDBRANCH  49  63
BRANCH  50  75
ATOM     75  C   UNL A   1      36.450  33.498  31.022  1.00  0.00     0.058 A 
ATOM     76  C   UNL A   1      35.150  33.440  31.548  1.00  0.00     0.135 A 
ATOM     77  C   UNL A   1      36.652  34.261  29.862  1.00  0.00     0.135 A 
ATOM     78  F   UNL A   1      34.906  32.720  32.654  1.00  0.00    -0.206 F 
ATOM     79  C   UNL A   1      34.082  34.077  30.925  1.00  0.00     0.059 A 
ATOM     80  C   UNL A   1      35.605  34.931  29.238  1.00  0.00     0.059 A 
ATOM     81  F   UNL A   1      37.879  34.368  29.332  1.00  0.00    -0.206 F 
ATOM     82  C   UNL A   1      34.319  34.816  29.765  1.00  0.00     0.060 A 
BRANCH  82  83
ATOM     83  S   UNL A   1      32.930  35.646  28.964  1.00  0.00     0.124 S 
ATOM     84  O   UNL A   1      32.405  34.584  28.115  1.00  0.00    -0.237 OA
ATOM     85  O   UNL A   1      32.098  36.027  30.101  1.00  0.00    -0.237 OA
ATOM     86  O   UNL A   1      33.566  36.760  28.264  1.00  0.00    -0.744 OA
ENDBRANCH  82  83
ENDBRANCH  50  75
BRANCH  62  87
ATOM     87  C   UNL A   1      40.151  34.464  36.845  1.00  0.00     0.058 A 
ATOM     88  C   UNL A   1      41.030  35.553  36.742  1.00  0.00     0.135 A 
ATOM     89  C   UNL A   1      39.263  34.439  37.934  1.00  0.00     0.135 A 
ATOM     90  F   UNL A   1      41.900  35.625  35.721  1.00  0.00    -0.206 F 
ATOM     91  C   UNL A   1      41.058  36.558  37.704  1.00  0.00     0.059 A 
ATOM     92  C   UNL A   1      39.255  35.447  38.893  1.00  0.00     0.059 A 
ATOM     93  F   UNL A   1      38.393  33.427  38.074  1.00  0.00    -0.206 F 
ATOM     94  C   UNL A   1      40.171  36.492  38.780  1.00  0.00     0.060 A 
BRANCH  94  95
ATOM     95  S   UNL A   1      40.216  37.798  40.026  1.00  0.00     0.124 S 
ATOM     96  O   UNL A   1      41.469  38.471  39.700  1.00  0.00    -0.237 OA
ATOM     97  O   UNL A   1      38.999  38.551  39.736  1.00  0.00    -0.237 OA
ATOM     98  O   UNL A   1      40.205  37.064  41.287  1.00  0.00    -0.744 OA
ENDBRANCH  94  95
ENDBRANCH  62  87
ENDBRANCH  36  37
ENDBRANCH  28  31
ENDBRANCH  26  27
ENDBRANCH  25  26
ENDBRANCH   1  25
TORSDOF 18
ENDMDL
MODEL 3
REMARK VINA RESULT:     -11.7      1.384      3.007
REMARK SMILES O=C(NCCCCNC(=O)c1ccc(-c2c3nc(c(-c4c(F)cc(S(=O)(=O)[O-])cc4F)c4ccc([nH]4)c(-c4c(F)cc(S(=O)(=O)[O-])cc4F)c4nc(c(-c5c(F)cc(S(=O)(=O)[O-])cc5F)c5ccc2[nH]5)C=C4)C=C3)cc1)C1=C(C(=O)NCCC2=CCCCC2)CCCC1
REMARK SMILES IDX 5 1 4 2 3 3 1 4 2 5 77 7 78 8 93 9 90 10 92 11 91 12 79 13
REMARK SMILES IDX 80 14 81 15 82 17 83 18 84 19 85 20 89 21 86 22 88 23 87 24
REMARK SMILES IDX 6 25 7 26 8 27 9 28 10 30 11 31 12 32 76 33 13 34 75 35
REMARK SMILES IDX 14 36 15 37 16 38 69 39 17 40 74 41 68 42 70 43 18 44 73 45
REMARK SMILES IDX 67 46 66 47 19 49 53 50 32 51 52 52 33 53 36 54 51 55 71 56
REMARK SMILES IDX 34 57 35 58 50 60 72 61 37 62 20 63 21 64 30 65 22 66 23 67
REMARK SMILES IDX 29 68 31 69 24 70 25 71 26 72 27 73 28 74 54 75 55 76 64 77
REMARK SMILES IDX 56 78 57 79 63 80 65 81 58 82 59 83 60 84 61 85 62 86 38 87
REMARK SMILES IDX 39 88 48 89 40 90 41 91 47 92 49 93 42 94 43 95 44 96 45 97
REMARK SMILES IDX 46 98
REMARK H PARENT 3 6 81 16 8 29 70 48 36 59
REMARK Flexibility Score: inf
ROOT
ATOM      1  C   UNL A   1      38.681  23.734  25.980  1.00  0.00     0.023 C 
ENDROOT
BRANCH   1   2
ATOM      2  C   UNL A   1      37.186  23.420  25.937  1.00  0.00     0.116 C 
BRANCH   2   3
ATOM      3  N   UNL A   1      36.935  22.050  25.535  1.00  0.00    -0.352 N 
ATOM      4  O   UNL A   1      35.794  20.198  25.036  1.00  0.00    -0.270 OA
ATOM      5  C   UNL A   1      35.767  21.378  25.384  1.00  0.00     0.247 C 
ATOM      6  H   UNL A   1      37.743  21.521  25.340  1.00  0.00     0.163 HD
BRANCH   5   7
ATOM      7  C   UNL A   1      34.471  22.024  25.707  1.00  0.00     0.026 C 
ATOM      8  C   UNL A   1      33.642  22.652  24.844  1.00  0.00     0.026 C 
ATOM      9  C   UNL A   1      34.135  21.832  27.175  1.00  0.00     0.042 C 
ATOM     10  C   UNL A   1      32.445  23.436  25.376  1.00  0.00     0.042 C 
ATOM     11  C   UNL A   1      32.748  22.319  27.583  1.00  0.00     0.005 C 
ATOM     12  C   UNL A   1      32.440  23.633  26.895  1.00  0.00     0.005 C 
BRANCH   8  13
ATOM     13  C   UNL A   1      33.763  22.786  23.349  1.00  0.00     0.247 C 
ATOM     14  O   UNL A   1      34.644  23.517  22.889  1.00  0.00    -0.270 OA
ATOM     15  N   UNL A   1      32.895  22.222  22.469  1.00  0.00    -0.352 N 
ATOM     16  H   UNL A   1      32.986  22.546  21.543  1.00  0.00     0.163 HD
BRANCH  15  17
ATOM     17  C   UNL A   1      31.857  21.225  22.652  1.00  0.00     0.120 C 
BRANCH  17  18
ATOM     18  C   UNL A   1      32.235  19.802  22.238  1.00  0.00     0.052 C 
BRANCH  18  19
ATOM     19  C   UNL A   1      32.616  18.841  23.347  1.00  0.00    -0.072 C 
ATOM     20  C   UNL A   1      33.073  17.607  23.057  1.00  0.00    -0.028 C 
ATOM     21  C   UNL A   1      32.341  19.260  24.777  1.00  0.00     0.031 C 
ATOM     22  C   UNL A   1      33.294  16.529  24.079  1.00  0.00     0.027 C 
ATOM     23  C   UNL A   1      32.907  18.290  25.819  1.00  0.00     0.005 C 
ATOM     24  C   UNL A   1      32.650  16.842  25.429  1.00  0.00     0.004 C 
ENDBRANCH  18  19
ENDBRANCH  17  18
ENDBRANCH  15  17
ENDBRANCH   8  13
ENDBRANCH   5   7
ENDBRANCH   2   3
ENDBRANCH   1   2
BRANCH   1  25
ATOM     25  C   UNL A   1      39.565  22.602  26.526  1.00  0.00     0.023 C 
BRANCH  25  26
ATOM     26  C   UNL A   1      40.930  23.036  27.058  1.00  0.00     0.116 C 
BRANCH  26  27
ATOM     27  N   UNL A   1      41.677  23.806  26.078  1.00  0.00    -0.352 N 
ATOM     28  C   UNL A   1      41.961  25.149  26.018  1.00  0.00     0.251 C 
ATOM     29  H   UNL A   1      42.040  23.277  25.332  1.00  0.00     0.163 HD
ATOM     30  O   UNL A   1      42.390  25.617  24.964  1.00  0.00    -0.269 OA
BRANCH  28  31
ATOM     31  C   UNL A   1      41.764  26.042  27.186  1.00  0.00     0.039 A 
ATOM     32  C   UNL A   1      40.733  25.760  28.087  1.00  0.00     0.014 A 
ATOM     33  C   UNL A   1      42.517  27.206  27.354  1.00  0.00     0.014 A 
ATOM     34  C   UNL A   1      40.488  26.617  29.167  1.00  0.00     0.010 A 
ATOM     35  C   UNL A   1      42.325  28.019  28.474  1.00  0.00     0.010 A 
ATOM     36  C   UNL A   1      41.295  27.746  29.385  1.00  0.00    -0.014 A 
BRANCH  36  37
ATOM     37  C   UNL A   1      41.040  28.667  30.529  1.00  0.00     0.031 A 
ATOM     38  C   UNL A   1      41.861  28.560  31.791  1.00  0.00     0.074 A 
ATOM     39  C   UNL A   1      40.054  29.584  30.450  1.00  0.00     0.049 A 
ATOM     40  N   UNL A   1      41.755  29.238  32.907  1.00  0.00    -0.248 NA
ATOM     41  C   UNL A   1      42.925  27.544  31.811  1.00  0.00     0.031 C 
ATOM     42  C   UNL A   1      39.152  29.764  29.309  1.00  0.00     0.029 A 
ATOM     43  N   UNL A   1      39.639  30.535  31.350  1.00  0.00    -0.354 N 
ATOM     44  C   UNL A   1      42.732  28.730  33.757  1.00  0.00     0.074 A 
ATOM     45  C   UNL A   1      43.378  27.644  33.051  1.00  0.00     0.031 C 
ATOM     46  C   UNL A   1      38.304  30.772  29.571  1.00  0.00     0.029 A 
ATOM     47  C   UNL A   1      38.580  31.294  30.906  1.00  0.00     0.049 A 
ATOM     48  H   UNL A   1      40.060  30.663  32.231  1.00  0.00     0.167 HD
ATOM     49  C   UNL A   1      43.086  29.148  34.997  1.00  0.00     0.037 A 
ATOM     50  C   UNL A   1      37.907  32.295  31.506  1.00  0.00     0.037 A 
ATOM     51  C   UNL A   1      42.462  30.243  35.692  1.00  0.00     0.049 A 
ATOM     52  C   UNL A   1      38.333  32.753  32.876  1.00  0.00     0.074 A 
ATOM     53  C   UNL A   1      42.755  30.746  36.950  1.00  0.00     0.029 A 
ATOM     54  N   UNL A   1      41.432  31.020  35.184  1.00  0.00    -0.354 N 
ATOM     55  N   UNL A   1      39.279  32.277  33.649  1.00  0.00    -0.248 NA
ATOM     56  C   UNL A   1      37.613  33.901  33.447  1.00  0.00     0.031 C 
ATOM     57  C   UNL A   1      41.889  31.815  37.209  1.00  0.00     0.029 A 
ATOM     58  C   UNL A   1      41.085  32.003  36.097  1.00  0.00     0.049 A 
ATOM     59  H   UNL A   1      41.009  30.893  34.305  1.00  0.00     0.167 HD
ATOM     60  C   UNL A   1      39.293  33.091  34.778  1.00  0.00     0.074 A 
ATOM     61  C   UNL A   1      38.269  34.095  34.582  1.00  0.00     0.031 C 
ATOM     62  C   UNL A   1      40.083  33.013  35.878  1.00  0.00     0.037 A 
BRANCH  49  63
ATOM     63  C   UNL A   1      44.223  28.433  35.676  1.00  0.00     0.058 A 
ATOM     64  C   UNL A   1      43.994  27.318  36.499  1.00  0.00     0.135 A 
ATOM     65  C   UNL A   1      45.554  28.826  35.464  1.00  0.00     0.135 A 
ATOM     66  F   UNL A   1      42.740  26.909  36.750  1.00  0.00    -0.206 F 
ATOM     67  C   UNL A   1      45.042  26.633  37.105  1.00  0.00     0.059 A 
ATOM     68  C   UNL A   1      46.619  28.138  36.039  1.00  0.00     0.059 A 
ATOM     69  F   UNL A   1      45.830  29.885  34.687  1.00  0.00    -0.206 F 
ATOM     70  C   UNL A   1      46.352  27.049  36.866  1.00  0.00     0.060 A 
BRANCH  70  71
ATOM     71  S   UNL A   1      47.700  26.132  37.643  1.00  0.00     0.124 S 
ATOM     72  O   UNL A   1      48.624  25.971  36.524  1.00  0.00    -0.237 OA
ATOM     73  O   UNL A   1      48.133  27.045  38.696  1.00  0.00    -0.237 OA
ATOM     74  O   UNL A   1      47.055  24.907  38.105  1.00  0.00    -0.744 OA
ENDBRANCH  70  71
ENDBRANCH  49  63
BRANCH  50  75
ATOM     75  C   UNL A   1      36.766  32.954  30.813  1.00  0.00     0.058 A 
ATOM     76  C   UNL A   1      36.981  33.920  29.818  1.00  0.00     0.135 A 
ATOM     77  C   UNL A   1      35.439  32.654  31.156  1.00  0.00     0.135 A 
ATOM     78  F   UNL A   1      38.232  34.244  29.457  1.00  0.00    -0.206 F 
ATOM     79  C   UNL A   1      35.924  34.596  29.217  1.00  0.00     0.059 A 
ATOM     80  C   UNL A   1      34.364  33.295  30.548  1.00  0.00     0.059 A 
ATOM     81  F   UNL A   1      35.178  31.722  32.085  1.00  0.00    -0.206 F 
ATOM     82  C   UNL A   1      34.618  34.280  29.594  1.00  0.00     0.060 A 
BRANCH  82  83
ATOM     83  S   UNL A   1      33.250  35.156  28.806  1.00  0.00     0.124 S 
ATOM     84  O   UNL A   1      32.652  34.100  28.000  1.00  0.00    -0.237 OA
ATOM     85  O   UNL A   1      32.467  35.605  29.954  1.00  0.00    -0.237 OA
ATOM     86  O   UNL A   1      33.919  36.219  28.061  1.00  0.00    -0.744 OA
ENDBRANCH  82  83
ENDBRANCH  50  75
BRANCH  62  87
ATOM     87  C   UNL A   1      39.918  34.083  36.923  1.00  0.00     0.058 A 
ATOM     88  C   UNL A   1      40.647  35.282  36.881  1.00  0.00     0.135 A 
ATOM     89  C   UNL A   1      39.003  33.909  37.974  1.00  0.00     0.135 A 
ATOM     90  F   UNL A   1      41.536  35.499  35.897  1.00  0.00    -0.206 F 
ATOM     91  C   UNL A   1      40.506  36.253  37.868  1.00  0.00     0.059 A 
ATOM     92  C   UNL A   1      38.826  34.878  38.956  1.00  0.00     0.059 A 
ATOM     93  F   UNL A   1      38.271  32.787  38.054  1.00  0.00    -0.206 F 
ATOM     94  C   UNL A   1      39.597  36.038  38.905  1.00  0.00     0.060 A 
BRANCH  94  95
ATOM     95  S   UNL A   1      39.422  37.301  40.184  1.00  0.00     0.124 S 
ATOM     96  O   UNL A   1      40.817  37.614  40.480  1.00  0.00    -0.237 OA
ATOM     97  O   UNL A   1      38.671  38.346  39.493  1.00  0.00    -0.237 OA
ATOM     98  O   UNL A   1      38.693  36.612  41.244  1.00  0.00    -0.744 OA
ENDBRANCH  94  95
ENDBRANCH  62  87
ENDBRANCH  36  37
ENDBRANCH  28  31
ENDBRANCH  26  27
ENDBRANCH  25  26
ENDBRANCH   1  25
TORSDOF 18
ENDMDL
