MODEL 1
REMARK VINA RESULT:     -10.1      0.000      0.000
REMARK SMILES CCC(CC)Oc1cc(C(=O)NCCCCNC(=O)c2ccc(-c3c4nc(c(-c5c(F)cc(S(=O)(=O)[O-])cc5F)c5ccc([nH]5)c(-c5c(F)cc(S(=O)(=O)[O-])cc5F)c5nc(c(-c6c(F)cc(S(=O)(=O)[O-])cc6F)c6ccc3[nH]6)C=C5)C=C4)cc2)c(N)cc1OC
REMARK SMILES IDX 14 1 13 2 12 3 10 4 11 5 9 7 7 8 8 9 89 10 88 11 86 12 6 13
REMARK SMILES IDX 3 14 2 15 1 16 4 17 5 18 90 19 91 20 87 21 15 24 16 25 17 26
REMARK SMILES IDX 18 27 19 29 20 30 21 31 85 32 22 33 84 34 23 35 24 36 25 37
REMARK SMILES IDX 78 38 26 39 83 40 77 41 79 42 27 43 82 44 76 45 75 46 28 48
REMARK SMILES IDX 62 49 41 50 61 51 42 52 45 53 60 54 80 55 43 56 44 57 59 59
REMARK SMILES IDX 81 60 46 61 29 62 30 63 39 64 31 65 32 66 38 67 40 68 33 69
REMARK SMILES IDX 34 70 35 71 36 72 37 73 63 74 64 75 73 76 65 77 66 78 72 79
REMARK SMILES IDX 74 80 67 81 68 82 69 83 70 84 71 85 47 86 48 87 57 88 49 89
REMARK SMILES IDX 50 90 56 91 58 92 51 93 52 94 53 95 54 96 55 97
REMARK H PARENT 12 6 87 22 87 23 17 28 79 47 45 58
REMARK Flexibility Score: inf
ROOT
ATOM      1  C   UNL A   1      35.062  21.919  25.943  1.00  0.00     0.023 C 
ENDROOT
BRANCH   1   2
ATOM      2  C   UNL A   1      34.821  22.794  27.169  1.00  0.00     0.116 C 
BRANCH   2   3
ATOM      3  N   UNL A   1      33.441  22.861  27.617  1.00  0.00    -0.352 N 
ATOM      4  C   UNL A   1      32.347  23.435  27.010  1.00  0.00     0.253 C 
ATOM      5  O   UNL A   1      31.246  23.321  27.550  1.00  0.00    -0.269 OA
ATOM      6  H   UNL A   1      33.262  22.431  28.485  1.00  0.00     0.163 HD
BRANCH   4   7
ATOM      7  C   UNL A   1      32.464  24.271  25.783  1.00  0.00     0.066 A 
ATOM      8  C   UNL A   1      33.072  26.501  24.952  1.00  0.00     0.162 A 
ATOM      9  C   UNL A   1      32.815  25.619  26.006  1.00  0.00     0.066 A 
ATOM     10  C   UNL A   1      32.961  26.020  23.642  1.00  0.00     0.162 A 
ATOM     11  C   UNL A   1      32.543  24.695  23.428  1.00  0.00     0.076 A 
ATOM     12  C   UNL A   1      32.197  23.838  24.479  1.00  0.00     0.048 A 
BRANCH   8  13
ATOM     13  O   UNL A   1      33.298  27.826  25.172  1.00  0.00    -0.487 OA
BRANCH  13  14
ATOM     14  C   UNL A   1      33.437  28.378  26.494  1.00  0.00     0.173 C 
BRANCH  14  15
ATOM     15  C   UNL A   1      34.779  29.085  26.747  1.00  0.00     0.042 C 
ATOM     16  C   UNL A   1      34.649  30.342  27.597  1.00  0.00     0.008 C 
ENDBRANCH  14  15
BRANCH  14  17
ATOM     17  C   UNL A   1      32.177  29.081  27.034  1.00  0.00     0.042 C 
ATOM     18  C   UNL A   1      31.233  28.240  27.878  1.00  0.00     0.008 C 
ENDBRANCH  14  17
ENDBRANCH  13  14
ENDBRANCH   8  13
BRANCH  10  19
ATOM     19  O   UNL A   1      33.210  26.674  22.463  1.00  0.00    -0.493 OA
ATOM     20  C   UNL A   1      32.925  26.012  21.242  1.00  0.00     0.278 C 
ENDBRANCH  10  19
BRANCH  12  21
ATOM     21  N   UNL A   1      31.671  22.589  24.164  1.00  0.00    -0.398 N 
ATOM     22  H   UNL A   1      30.830  22.290  24.580  1.00  0.00     0.156 HD
ATOM     23  H   UNL A   1      32.140  22.004  23.527  1.00  0.00     0.156 HD
ENDBRANCH  12  21
ENDBRANCH   4   7
ENDBRANCH   2   3
ENDBRANCH   1   2
BRANCH   1  24
ATOM     24  C   UNL A   1      35.889  22.531  24.812  1.00  0.00     0.023 C 
BRANCH  24  25
ATOM     25  C   UNL A   1      37.110  23.351  25.219  1.00  0.00     0.116 C 
BRANCH  25  26
ATOM     26  N   UNL A   1      38.316  22.560  25.414  1.00  0.00    -0.352 N 
ATOM     27  C   UNL A   1      39.489  22.873  26.063  1.00  0.00     0.251 C 
ATOM     28  H   UNL A   1      38.289  21.659  25.018  1.00  0.00     0.163 HD
ATOM     29  O   UNL A   1      40.426  22.079  26.045  1.00  0.00    -0.269 OA
BRANCH  27  30
ATOM     30  C   UNL A   1      39.643  24.180  26.739  1.00  0.00     0.039 A 
ATOM     31  C   UNL A   1      39.062  24.362  27.998  1.00  0.00     0.014 A 
ATOM     32  C   UNL A   1      40.380  25.213  26.156  1.00  0.00     0.014 A 
ATOM     33  C   UNL A   1      39.310  25.535  28.716  1.00  0.00     0.010 A 
ATOM     34  C   UNL A   1      40.695  26.343  26.906  1.00  0.00     0.010 A 
ATOM     35  C   UNL A   1      40.177  26.511  28.200  1.00  0.00    -0.014 A 
BRANCH  35  36
ATOM     36  C   UNL A   1      40.580  27.705  28.991  1.00  0.00     0.031 A 
ATOM     37  C   UNL A   1      41.848  27.678  29.799  1.00  0.00     0.074 A 
ATOM     38  C   UNL A   1      39.750  28.764  29.078  1.00  0.00     0.049 A 
ATOM     39  N   UNL A   1      42.286  28.539  30.682  1.00  0.00    -0.248 NA
ATOM     40  C   UNL A   1      42.721  26.509  29.612  1.00  0.00     0.031 C 
ATOM     41  C   UNL A   1      38.466  28.894  28.385  1.00  0.00     0.029 A 
ATOM     42  N   UNL A   1      39.850  29.924  29.808  1.00  0.00    -0.354 N 
ATOM     43  C   UNL A   1      43.468  28.002  31.177  1.00  0.00     0.074 A 
ATOM     44  C   UNL A   1      43.654  26.721  30.528  1.00  0.00     0.031 C 
ATOM     45  C   UNL A   1      37.899  30.064  28.724  1.00  0.00     0.029 A 
ATOM     46  C   UNL A   1      38.756  30.748  29.687  1.00  0.00     0.049 A 
ATOM     47  H   UNL A   1      40.631  30.143  30.365  1.00  0.00     0.167 HD
ATOM     48  C   UNL A   1      44.332  28.535  32.075  1.00  0.00     0.037 A 
ATOM     49  C   UNL A   1      38.462  31.913  30.298  1.00  0.00     0.037 A 
ATOM     50  C   UNL A   1      44.157  29.822  32.695  1.00  0.00     0.049 A 
ATOM     51  C   UNL A   1      39.441  32.501  31.276  1.00  0.00     0.074 A 
ATOM     52  C   UNL A   1      45.001  30.473  33.578  1.00  0.00     0.029 A 
ATOM     53  N   UNL A   1      43.065  30.655  32.496  1.00  0.00    -0.354 N 
ATOM     54  N   UNL A   1      40.580  32.005  31.696  1.00  0.00    -0.248 NA
ATOM     55  C   UNL A   1      39.103  33.807  31.859  1.00  0.00     0.031 C 
ATOM     56  C   UNL A   1      44.404  31.688  33.936  1.00  0.00     0.029 A 
ATOM     57  C   UNL A   1      43.207  31.810  33.245  1.00  0.00     0.049 A 
ATOM     58  H   UNL A   1      42.301  30.453  31.909  1.00  0.00     0.167 HD
ATOM     59  C   UNL A   1      41.107  32.946  32.573  1.00  0.00     0.074 A 
ATOM     60  C   UNL A   1      40.163  34.044  32.621  1.00  0.00     0.031 C 
ATOM     61  C   UNL A   1      42.266  32.903  33.271  1.00  0.00     0.037 A 
BRANCH  48  62
ATOM     62  C   UNL A   1      45.541  27.716  32.433  1.00  0.00     0.058 A 
ATOM     63  C   UNL A   1      46.743  27.828  31.716  1.00  0.00     0.135 A 
ATOM     64  C   UNL A   1      45.496  26.800  33.496  1.00  0.00     0.135 A 
ATOM     65  F   UNL A   1      46.837  28.680  30.682  1.00  0.00    -0.206 F 
ATOM     66  C   UNL A   1      47.840  27.023  32.005  1.00  0.00     0.059 A 
ATOM     67  C   UNL A   1      46.592  26.006  33.822  1.00  0.00     0.059 A 
ATOM     68  F   UNL A   1      44.374  26.656  34.220  1.00  0.00    -0.206 F 
ATOM     69  C   UNL A   1      47.751  26.106  33.053  1.00  0.00     0.060 A 
BRANCH  69  70
ATOM     70  S   UNL A   1      49.165  25.038  33.390  1.00  0.00     0.124 S 
ATOM     71  O   UNL A   1      48.519  23.903  34.043  1.00  0.00    -0.237 OA
ATOM     72  O   UNL A   1      49.693  24.782  32.054  1.00  0.00    -0.237 OA
ATOM     73  O   UNL A   1      50.013  25.858  34.248  1.00  0.00    -0.744 OA
ENDBRANCH  69  70
ENDBRANCH  48  62
BRANCH  49  74
ATOM     74  C   UNL A   1      37.182  32.601  29.982  1.00  0.00     0.058 A 
ATOM     75  C   UNL A   1      36.007  32.297  30.686  1.00  0.00     0.135 A 
ATOM     76  C   UNL A   1      37.120  33.613  29.011  1.00  0.00     0.135 A 
ATOM     77  F   UNL A   1      36.016  31.332  31.618  1.00  0.00    -0.206 F 
ATOM     78  C   UNL A   1      34.816  32.971  30.439  1.00  0.00     0.059 A 
ATOM     79  C   UNL A   1      35.945  34.315  28.761  1.00  0.00     0.059 A 
ATOM     80  F   UNL A   1      38.221  33.951  28.323  1.00  0.00    -0.206 F 
ATOM     81  C   UNL A   1      34.796  33.985  29.480  1.00  0.00     0.060 A 
BRANCH  81  82
ATOM     82  S   UNL A   1      33.266  34.911  29.227  1.00  0.00     0.124 S 
ATOM     83  O   UNL A   1      32.721  34.954  30.579  1.00  0.00    -0.237 OA
ATOM     84  O   UNL A   1      33.758  36.178  28.695  1.00  0.00    -0.237 OA
ATOM     85  O   UNL A   1      32.529  34.085  28.274  1.00  0.00    -0.744 OA
ENDBRANCH  81  82
ENDBRANCH  49  74
BRANCH  61  86
ATOM     86  C   UNL A   1      42.613  34.089  34.126  1.00  0.00     0.058 A 
ATOM     87  C   UNL A   1      42.276  34.140  35.487  1.00  0.00     0.135 A 
ATOM     88  C   UNL A   1      43.375  35.143  33.597  1.00  0.00     0.135 A 
ATOM     89  F   UNL A   1      41.541  33.160  36.038  1.00  0.00    -0.206 F 
ATOM     90  C   UNL A   1      42.683  35.197  36.295  1.00  0.00     0.059 A 
ATOM     91  C   UNL A   1      43.810  36.199  34.391  1.00  0.00     0.059 A 
ATOM     92  F   UNL A   1      43.727  35.139  32.301  1.00  0.00    -0.206 F 
ATOM     93  C   UNL A   1      43.457  36.219  35.740  1.00  0.00     0.060 A 
BRANCH  93  94
ATOM     94  S   UNL A   1      44.042  37.546  36.816  1.00  0.00     0.124 S 
ATOM     95  O   UNL A   1      43.024  37.548  37.861  1.00  0.00    -0.237 OA
ATOM     96  O   UNL A   1      45.361  37.066  37.216  1.00  0.00    -0.237 OA
ATOM     97  O   UNL A   1      44.047  38.714  35.941  1.00  0.00    -0.744 OA
ENDBRANCH  93  94
ENDBRANCH  61  86
ENDBRANCH  35  36
ENDBRANCH  27  30
ENDBRANCH  25  26
ENDBRANCH  24  25
ENDBRANCH   1  24
TORSDOF 20
ENDMDL
MODEL 2
REMARK VINA RESULT:      -9.8      1.166      2.044
REMARK SMILES CCC(CC)Oc1cc(C(=O)NCCCCNC(=O)c2ccc(-c3c4nc(c(-c5c(F)cc(S(=O)(=O)[O-])cc5F)c5ccc([nH]5)c(-c5c(F)cc(S(=O)(=O)[O-])cc5F)c5nc(c(-c6c(F)cc(S(=O)(=O)[O-])cc6F)c6ccc3[nH]6)C=C5)C=C4)cc2)c(N)cc1OC
REMARK SMILES IDX 14 1 13 2 12 3 10 4 11 5 9 7 7 8 8 9 89 10 88 11 86 12 6 13
REMARK SMILES IDX 3 14 2 15 1 16 4 17 5 18 90 19 91 20 87 21 15 24 16 25 17 26
REMARK SMILES IDX 18 27 19 29 20 30 21 31 85 32 22 33 84 34 23 35 24 36 25 37
REMARK SMILES IDX 78 38 26 39 83 40 77 41 79 42 27 43 82 44 76 45 75 46 28 48
REMARK SMILES IDX 62 49 41 50 61 51 42 52 45 53 60 54 80 55 43 56 44 57 59 59
REMARK SMILES IDX 81 60 46 61 29 62 30 63 39 64 31 65 32 66 38 67 40 68 33 69
REMARK SMILES IDX 34 70 35 71 36 72 37 73 63 74 64 75 73 76 65 77 66 78 72 79
REMARK SMILES IDX 74 80 67 81 68 82 69 83 70 84 71 85 47 86 48 87 57 88 49 89
REMARK SMILES IDX 50 90 56 91 58 92 51 93 52 94 53 95 54 96 55 97
REMARK H PARENT 12 6 87 22 87 23 17 28 79 47 45 58
REMARK Flexibility Score: inf
ROOT
ATOM      1  C   UNL A   1      35.901  21.739  24.119  1.00  0.00     0.023 C 
ENDROOT
BRANCH   1   2
ATOM      2  C   UNL A   1      35.260  21.266  25.420  1.00  0.00     0.116 C 
BRANCH   2   3
ATOM      3  N   UNL A   1      34.123  20.376  25.258  1.00  0.00    -0.352 N 
ATOM      4  C   UNL A   1      32.777  20.664  25.238  1.00  0.00     0.253 C 
ATOM      5  O   UNL A   1      31.983  19.747  25.028  1.00  0.00    -0.269 OA
ATOM      6  H   UNL A   1      34.351  19.424  25.146  1.00  0.00     0.163 HD
BRANCH   4   7
ATOM      7  C   UNL A   1      32.247  22.017  25.561  1.00  0.00     0.066 A 
ATOM      8  C   UNL A   1      31.212  24.024  24.596  1.00  0.00     0.162 A 
ATOM      9  C   UNL A   1      31.834  22.781  24.449  1.00  0.00     0.066 A 
ATOM     10  C   UNL A   1      31.012  24.519  25.890  1.00  0.00     0.162 A 
ATOM     11  C   UNL A   1      31.488  23.783  26.989  1.00  0.00     0.076 A 
ATOM     12  C   UNL A   1      32.192  22.583  26.840  1.00  0.00     0.048 A 
BRANCH   8  13
ATOM     13  O   UNL A   1      30.920  24.805  23.519  1.00  0.00    -0.487 OA
BRANCH  13  14
ATOM     14  C   UNL A   1      31.682  25.981  23.187  1.00  0.00     0.173 C 
BRANCH  14  15
ATOM     15  C   UNL A   1      33.179  25.719  22.951  1.00  0.00     0.042 C 
ATOM     16  C   UNL A   1      34.043  26.017  24.169  1.00  0.00     0.008 C 
ENDBRANCH  14  15
BRANCH  14  17
ATOM     17  C   UNL A   1      30.988  26.940  22.201  1.00  0.00     0.042 C 
ATOM     18  C   UNL A   1      30.032  27.961  22.798  1.00  0.00     0.008 C 
ENDBRANCH  14  17
ENDBRANCH  13  14
ENDBRANCH   8  13
BRANCH  10  19
ATOM     19  O   UNL A   1      30.386  25.674  26.282  1.00  0.00    -0.493 OA
ATOM     20  C   UNL A   1      31.155  26.859  26.404  1.00  0.00     0.278 C 
ENDBRANCH  10  19
BRANCH  12  21
ATOM     21  N   UNL A   1      32.738  21.994  27.977  1.00  0.00    -0.398 N 
ATOM     22  H   UNL A   1      32.332  21.178  28.352  1.00  0.00     0.156 HD
ATOM     23  H   UNL A   1      33.529  22.391  28.406  1.00  0.00     0.156 HD
ENDBRANCH  12  21
ENDBRANCH   4   7
ENDBRANCH   2   3
ENDBRANCH   1   2
BRANCH   1  24
ATOM     24  C   UNL A   1      36.433  23.173  24.096  1.00  0.00     0.023 C 
BRANCH  24  25
ATOM     25  C   UNL A   1      37.283  23.611  25.285  1.00  0.00     0.116 C 
BRANCH  25  26
ATOM     26  N   UNL A   1      38.503  22.836  25.457  1.00  0.00    -0.352 N 
ATOM     27  C   UNL A   1      39.674  23.155  26.108  1.00  0.00     0.251 C 
ATOM     28  H   UNL A   1      38.489  21.943  25.043  1.00  0.00     0.163 HD
ATOM     29  O   UNL A   1      40.624  22.378  26.069  1.00  0.00    -0.269 OA
BRANCH  27  30
ATOM     30  C   UNL A   1      39.810  24.450  26.811  1.00  0.00     0.039 A 
ATOM     31  C   UNL A   1      39.184  24.614  28.051  1.00  0.00     0.014 A 
ATOM     32  C   UNL A   1      40.572  25.488  26.272  1.00  0.00     0.014 A 
ATOM     33  C   UNL A   1      39.412  25.774  28.797  1.00  0.00     0.010 A 
ATOM     34  C   UNL A   1      40.865  26.604  27.051  1.00  0.00     0.010 A 
ATOM     35  C   UNL A   1      40.301  26.753  28.328  1.00  0.00    -0.014 A 
BRANCH  35  36
ATOM     36  C   UNL A   1      40.681  27.932  29.154  1.00  0.00     0.031 A 
ATOM     37  C   UNL A   1      41.935  27.896  29.983  1.00  0.00     0.074 A 
ATOM     38  C   UNL A   1      39.842  28.983  29.250  1.00  0.00     0.049 A 
ATOM     39  N   UNL A   1      42.351  28.740  30.893  1.00  0.00    -0.248 NA
ATOM     40  C   UNL A   1      42.821  26.739  29.785  1.00  0.00     0.031 C 
ATOM     41  C   UNL A   1      38.569  29.119  28.537  1.00  0.00     0.029 A 
ATOM     42  N   UNL A   1      39.920  30.126  30.008  1.00  0.00    -0.354 N 
ATOM     43  C   UNL A   1      43.528  28.201  31.397  1.00  0.00     0.074 A 
ATOM     44  C   UNL A   1      43.735  26.936  30.723  1.00  0.00     0.031 C 
ATOM     45  C   UNL A   1      37.987  30.276  28.892  1.00  0.00     0.029 A 
ATOM     46  C   UNL A   1      38.822  30.945  29.886  1.00  0.00     0.049 A 
ATOM     47  H   UNL A   1      40.689  30.338  30.584  1.00  0.00     0.167 HD
ATOM     48  C   UNL A   1      44.372  28.719  32.321  1.00  0.00     0.037 A 
ATOM     49  C   UNL A   1      38.508  32.093  30.518  1.00  0.00     0.037 A 
ATOM     50  C   UNL A   1      44.176  29.991  32.967  1.00  0.00     0.049 A 
ATOM     51  C   UNL A   1      39.464  32.667  31.526  1.00  0.00     0.074 A 
ATOM     52  C   UNL A   1      44.999  30.628  33.880  1.00  0.00     0.029 A 
ATOM     53  N   UNL A   1      43.081  30.820  32.768  1.00  0.00    -0.354 N 
ATOM     54  N   UNL A   1      40.600  32.169  31.954  1.00  0.00    -0.248 NA
ATOM     55  C   UNL A   1      39.106  33.956  32.133  1.00  0.00     0.031 C 
ATOM     56  C   UNL A   1      44.387  31.830  34.254  1.00  0.00     0.029 A 
ATOM     57  C   UNL A   1      43.201  31.959  33.546  1.00  0.00     0.049 A 
ATOM     58  H   UNL A   1      42.329  30.626  32.164  1.00  0.00     0.167 HD
ATOM     59  C   UNL A   1      41.104  33.094  32.862  1.00  0.00     0.074 A 
ATOM     60  C   UNL A   1      40.151  34.184  32.919  1.00  0.00     0.031 C 
ATOM     61  C   UNL A   1      42.251  33.044  33.580  1.00  0.00     0.037 A 
BRANCH  48  62
ATOM     62  C   UNL A   1      45.580  27.901  32.683  1.00  0.00     0.058 A 
ATOM     63  C   UNL A   1      46.807  28.070  32.019  1.00  0.00     0.135 A 
ATOM     64  C   UNL A   1      45.511  26.930  33.694  1.00  0.00     0.135 A 
ATOM     65  F   UNL A   1      46.923  28.976  31.035  1.00  0.00    -0.206 F 
ATOM     66  C   UNL A   1      47.906  27.268  32.307  1.00  0.00     0.059 A 
ATOM     67  C   UNL A   1      46.609  26.137  34.020  1.00  0.00     0.059 A 
ATOM     68  F   UNL A   1      44.367  26.731  34.366  1.00  0.00    -0.206 F 
ATOM     69  C   UNL A   1      47.794  26.296  33.302  1.00  0.00     0.060 A 
BRANCH  69  70
ATOM     70  S   UNL A   1      49.213  25.233  33.637  1.00  0.00     0.124 S 
ATOM     71  O   UNL A   1      50.077  26.136  34.392  1.00  0.00    -0.237 OA
ATOM     72  O   UNL A   1      48.616  24.143  34.402  1.00  0.00    -0.237 OA
ATOM     73  O   UNL A   1      49.689  24.873  32.306  1.00  0.00    -0.744 OA
ENDBRANCH  69  70
ENDBRANCH  48  62
BRANCH  49  74
ATOM     74  C   UNL A   1      37.228  32.779  30.195  1.00  0.00     0.058 A 
ATOM     75  C   UNL A   1      36.054  32.484  30.903  1.00  0.00     0.135 A 
ATOM     76  C   UNL A   1      37.167  33.779  29.212  1.00  0.00     0.135 A 
ATOM     77  F   UNL A   1      36.062  31.530  31.846  1.00  0.00    -0.206 F 
ATOM     78  C   UNL A   1      34.862  33.157  30.649  1.00  0.00     0.059 A 
ATOM     79  C   UNL A   1      35.992  34.480  28.955  1.00  0.00     0.059 A 
ATOM     80  F   UNL A   1      38.267  34.109  28.520  1.00  0.00    -0.206 F 
ATOM     81  C   UNL A   1      34.843  34.159  29.679  1.00  0.00     0.060 A 
BRANCH  81  82
ATOM     82  S   UNL A   1      33.314  35.083  29.416  1.00  0.00     0.124 S 
ATOM     83  O   UNL A   1      32.781  35.163  30.771  1.00  0.00    -0.237 OA
ATOM     84  O   UNL A   1      33.805  36.335  28.848  1.00  0.00    -0.237 OA
ATOM     85  O   UNL A   1      32.565  34.236  28.490  1.00  0.00    -0.744 OA
ENDBRANCH  81  82
ENDBRANCH  49  74
BRANCH  61  86
ATOM     86  C   UNL A   1      42.574  34.212  34.467  1.00  0.00     0.058 A 
ATOM     87  C   UNL A   1      42.135  34.270  35.798  1.00  0.00     0.135 A 
ATOM     88  C   UNL A   1      43.412  35.240  34.006  1.00  0.00     0.135 A 
ATOM     89  F   UNL A   1      41.325  33.315  36.284  1.00  0.00    -0.206 F 
ATOM     90  C   UNL A   1      42.516  35.307  36.643  1.00  0.00     0.059 A 
ATOM     91  C   UNL A   1      43.822  36.276  34.839  1.00  0.00     0.059 A 
ATOM     92  F   UNL A   1      43.863  35.229  32.741  1.00  0.00    -0.206 F 
ATOM     93  C   UNL A   1      43.367  36.303  36.157  1.00  0.00     0.060 A 
BRANCH  93  94
ATOM     94  S   UNL A   1      43.914  37.603  37.284  1.00  0.00     0.124 S 
ATOM     95  O   UNL A   1      45.145  37.030  37.818  1.00  0.00    -0.237 OA
ATOM     96  O   UNL A   1      44.082  38.744  36.388  1.00  0.00    -0.237 OA
ATOM     97  O   UNL A   1      42.811  37.717  38.232  1.00  0.00    -0.744 OA
ENDBRANCH  93  94
ENDBRANCH  61  86
ENDBRANCH  35  36
ENDBRANCH  27  30
ENDBRANCH  25  26
ENDBRANCH  24  25
ENDBRANCH   1  24
TORSDOF 20
ENDMDL
MODEL 3
REMARK VINA RESULT:      -9.7      2.612      3.810
REMARK SMILES CCC(CC)Oc1cc(C(=O)NCCCCNC(=O)c2ccc(-c3c4nc(c(-c5c(F)cc(S(=O)(=O)[O-])cc5F)c5ccc([nH]5)c(-c5c(F)cc(S(=O)(=O)[O-])cc5F)c5nc(c(-c6c(F)cc(S(=O)(=O)[O-])cc6F)c6ccc3[nH]6)C=C5)C=C4)cc2)c(N)cc1OC
REMARK SMILES IDX 14 1 13 2 12 3 10 4 11 5 9 7 7 8 8 9 89 10 88 11 86 12 6 13
REMARK SMILES IDX 3 14 2 15 1 16 4 17 5 18 90 19 91 20 87 21 15 24 16 25 17 26
REMARK SMILES IDX 18 27 19 29 20 30 21 31 85 32 22 33 84 34 23 35 24 36 25 37
REMARK SMILES IDX 78 38 26 39 83 40 77 41 79 42 27 43 82 44 76 45 75 46 28 48
REMARK SMILES IDX 62 49 41 50 61 51 42 52 45 53 60 54 80 55 43 56 44 57 59 59
REMARK SMILES IDX 81 60 46 61 29 62 30 63 39 64 31 65 32 66 38 67 40 68 33 69
REMARK SMILES IDX 34 70 35 71 36 72 37 73 63 74 64 75 73 76 65 77 66 78 72 79
REMARK SMILES IDX 74 80 67 81 68 82 69 83 70 84 71 85 47 86 48 87 57 88 49 89
REMARK SMILES IDX 50 90 56 91 58 92 51 93 52 94 53 95 54 96 55 97
REMARK H PARENT 12 6 87 22 87 23 17 28 79 47 45 58
REMARK Flexibility Score: inf
ROOT
ATOM      1  C   UNL A   1      39.527  21.863  26.318  1.00  0.00     0.023 C 
ENDROOT
BRANCH   1   2
ATOM      2  C   UNL A   1      38.258  22.670  26.061  1.00  0.00     0.116 C 
BRANCH   2   3
ATOM      3  N   UNL A   1      37.795  22.668  24.684  1.00  0.00    -0.352 N 
ATOM      4  C   UNL A   1      36.538  22.916  24.179  1.00  0.00     0.253 C 
ATOM      5  O   UNL A   1      36.384  22.915  22.958  1.00  0.00    -0.269 OA
ATOM      6  H   UNL A   1      38.483  22.457  24.012  1.00  0.00     0.163 HD
BRANCH   4   7
ATOM      7  C   UNL A   1      35.346  23.083  25.056  1.00  0.00     0.066 A 
ATOM      8  C   UNL A   1      33.789  24.735  25.994  1.00  0.00     0.162 A 
ATOM      9  C   UNL A   1      34.952  24.418  25.286  1.00  0.00     0.066 A 
ATOM     10  C   UNL A   1      33.010  23.685  26.495  1.00  0.00     0.162 A 
ATOM     11  C   UNL A   1      33.446  22.360  26.321  1.00  0.00     0.076 A 
ATOM     12  C   UNL A   1      34.656  22.045  25.693  1.00  0.00     0.048 A 
BRANCH   8  13
ATOM     13  O   UNL A   1      33.476  26.022  26.309  1.00  0.00    -0.487 OA
BRANCH  13  14
ATOM     14  C   UNL A   1      32.580  26.817  25.512  1.00  0.00     0.173 C 
BRANCH  14  15
ATOM     15  C   UNL A   1      32.339  26.271  24.094  1.00  0.00     0.042 C 
ATOM     16  C   UNL A   1      33.230  26.913  23.039  1.00  0.00     0.008 C 
ENDBRANCH  14  15
BRANCH  14  17
ATOM     17  C   UNL A   1      31.344  27.345  26.265  1.00  0.00     0.042 C 
ATOM     18  C   UNL A   1      31.604  28.178  27.509  1.00  0.00     0.008 C 
ENDBRANCH  14  17
ENDBRANCH  13  14
ENDBRANCH   8  13
BRANCH  10  19
ATOM     19  O   UNL A   1      31.817  23.746  27.167  1.00  0.00    -0.493 OA
ATOM     20  C   UNL A   1      30.611  23.689  26.424  1.00  0.00     0.278 C 
ENDBRANCH  10  19
BRANCH  12  21
ATOM     21  N   UNL A   1      35.066  20.715  25.682  1.00  0.00    -0.398 N 
ATOM     22  H   UNL A   1      34.409  19.996  25.829  1.00  0.00     0.156 HD
ATOM     23  H   UNL A   1      36.012  20.493  25.529  1.00  0.00     0.156 HD
ENDBRANCH  12  21
ENDBRANCH   4   7
ENDBRANCH   2   3
ENDBRANCH   1   2
BRANCH   1  24
ATOM     24  C   UNL A   1      40.399  22.307  27.493  1.00  0.00     0.023 C 
BRANCH  24  25
ATOM     25  C   UNL A   1      41.752  22.925  27.151  1.00  0.00     0.116 C 
BRANCH  25  26
ATOM     26  N   UNL A   1      41.711  23.852  26.029  1.00  0.00    -0.352 N 
ATOM     27  C   UNL A   1      41.614  25.225  26.014  1.00  0.00     0.251 C 
ATOM     28  H   UNL A   1      41.760  23.430  25.140  1.00  0.00     0.163 HD
ATOM     29  O   UNL A   1      41.517  25.817  24.943  1.00  0.00    -0.269 OA
BRANCH  27  30
ATOM     30  C   UNL A   1      41.578  25.986  27.283  1.00  0.00     0.039 A 
ATOM     31  C   UNL A   1      42.685  26.763  27.636  1.00  0.00     0.014 A 
ATOM     32  C   UNL A   1      40.451  25.962  28.107  1.00  0.00     0.014 A 
ATOM     33  C   UNL A   1      42.621  27.597  28.756  1.00  0.00     0.010 A 
ATOM     34  C   UNL A   1      40.357  26.854  29.172  1.00  0.00     0.010 A 
ATOM     35  C   UNL A   1      41.434  27.693  29.500  1.00  0.00    -0.014 A 
BRANCH  35  36
ATOM     36  C   UNL A   1      41.277  28.672  30.609  1.00  0.00     0.031 A 
ATOM     37  C   UNL A   1      42.106  28.535  31.856  1.00  0.00     0.074 A 
ATOM     38  C   UNL A   1      40.309  29.610  30.545  1.00  0.00     0.049 A 
ATOM     39  N   UNL A   1      42.002  29.172  32.994  1.00  0.00    -0.248 NA
ATOM     40  C   UNL A   1      43.171  27.521  31.828  1.00  0.00     0.031 C 
ATOM     41  C   UNL A   1      39.402  29.816  29.414  1.00  0.00     0.029 A 
ATOM     42  N   UNL A   1      39.909  30.549  31.465  1.00  0.00    -0.354 N 
ATOM     43  C   UNL A   1      42.966  28.617  33.826  1.00  0.00     0.074 A 
ATOM     44  C   UNL A   1      43.613  27.561  33.076  1.00  0.00     0.031 C 
ATOM     45  C   UNL A   1      38.553  30.814  29.706  1.00  0.00     0.029 A 
ATOM     46  C   UNL A   1      38.826  31.293  31.058  1.00  0.00     0.049 A 
ATOM     47  H   UNL A   1      40.354  30.676  32.333  1.00  0.00     0.167 HD
ATOM     48  C   UNL A   1      43.298  28.966  35.093  1.00  0.00     0.037 A 
ATOM     49  C   UNL A   1      38.116  32.238  31.706  1.00  0.00     0.037 A 
ATOM     50  C   UNL A   1      42.671  30.035  35.824  1.00  0.00     0.049 A 
ATOM     51  C   UNL A   1      38.510  32.628  33.103  1.00  0.00     0.074 A 
ATOM     52  C   UNL A   1      42.969  30.501  37.093  1.00  0.00     0.029 A 
ATOM     53  N   UNL A   1      41.619  30.807  35.351  1.00  0.00    -0.354 N 
ATOM     54  N   UNL A   1      39.459  32.128  33.859  1.00  0.00    -0.248 NA
ATOM     55  C   UNL A   1      37.747  33.713  33.736  1.00  0.00     0.031 C 
ATOM     56  C   UNL A   1      42.078  31.536  37.399  1.00  0.00     0.029 A 
ATOM     57  C   UNL A   1      41.250  31.741  36.305  1.00  0.00     0.049 A 
ATOM     58  H   UNL A   1      41.197  30.705  34.468  1.00  0.00     0.167 HD
ATOM     59  C   UNL A   1      39.423  32.850  35.045  1.00  0.00     0.074 A 
ATOM     60  C   UNL A   1      38.361  33.827  34.907  1.00  0.00     0.031 C 
ATOM     61  C   UNL A   1      40.200  32.718  36.147  1.00  0.00     0.037 A 
BRANCH  48  62
ATOM     62  C   UNL A   1      44.389  28.175  35.759  1.00  0.00     0.058 A 
ATOM     63  C   UNL A   1      45.745  28.490  35.570  1.00  0.00     0.135 A 
ATOM     64  C   UNL A   1      44.080  27.083  36.586  1.00  0.00     0.135 A 
ATOM     65  F   UNL A   1      46.096  29.516  34.778  1.00  0.00    -0.206 F 
ATOM     66  C   UNL A   1      46.756  27.718  36.132  1.00  0.00     0.059 A 
ATOM     67  C   UNL A   1      45.076  26.316  37.184  1.00  0.00     0.059 A 
ATOM     68  F   UNL A   1      42.801  26.742  36.808  1.00  0.00    -0.206 F 
ATOM     69  C   UNL A   1      46.412  26.625  36.928  1.00  0.00     0.060 A 
BRANCH  69  70
ATOM     70  S   UNL A   1      47.732  25.606  37.617  1.00  0.00     0.124 S 
ATOM     71  O   UNL A   1      47.805  24.528  36.636  1.00  0.00    -0.237 OA
ATOM     72  O   UNL A   1      48.865  26.526  37.631  1.00  0.00    -0.237 OA
ATOM     73  O   UNL A   1      47.220  25.229  38.930  1.00  0.00    -0.744 OA
ENDBRANCH  69  70
ENDBRANCH  48  62
BRANCH  49  74
ATOM     74  C   UNL A   1      36.967  32.886  31.021  1.00  0.00     0.058 A 
ATOM     75  C   UNL A   1      37.173  33.836  30.010  1.00  0.00     0.135 A 
ATOM     76  C   UNL A   1      35.643  32.531  31.326  1.00  0.00     0.135 A 
ATOM     77  F   UNL A   1      38.419  34.213  29.689  1.00  0.00    -0.206 F 
ATOM     78  C   UNL A   1      36.108  34.411  29.323  1.00  0.00     0.059 A 
ATOM     79  C   UNL A   1      34.563  33.077  30.638  1.00  0.00     0.059 A 
ATOM     80  F   UNL A   1      35.395  31.615  32.274  1.00  0.00    -0.206 F 
ATOM     81  C   UNL A   1      34.806  34.018  29.639  1.00  0.00     0.060 A 
BRANCH  81  82
ATOM     82  S   UNL A   1      33.437  34.707  28.684  1.00  0.00     0.124 S 
ATOM     83  O   UNL A   1      32.474  35.020  29.733  1.00  0.00    -0.237 OA
ATOM     84  O   UNL A   1      34.064  35.852  28.030  1.00  0.00    -0.237 OA
ATOM     85  O   UNL A   1      33.067  33.612  27.791  1.00  0.00    -0.744 OA
ENDBRANCH  81  82
ENDBRANCH  49  74
BRANCH  61  86
ATOM     86  C   UNL A   1      39.969  33.668  37.286  1.00  0.00     0.058 A 
ATOM     87  C   UNL A   1      39.051  33.383  38.309  1.00  0.00     0.135 A 
ATOM     88  C   UNL A   1      40.744  34.833  37.404  1.00  0.00     0.135 A 
ATOM     89  F   UNL A   1      38.280  32.286  38.238  1.00  0.00    -0.206 F 
ATOM     90  C   UNL A   1      38.910  34.222  39.410  1.00  0.00     0.059 A 
ATOM     91  C   UNL A   1      40.634  35.674  38.506  1.00  0.00     0.059 A 
ATOM     92  F   UNL A   1      41.640  35.148  36.454  1.00  0.00    -0.206 F 
ATOM     93  C   UNL A   1      39.712  35.361  39.504  1.00  0.00     0.060 A 
BRANCH  93  94
ATOM     94  S   UNL A   1      39.573  36.401  40.975  1.00  0.00     0.124 S 
ATOM     95  O   UNL A   1      40.969  36.738  41.230  1.00  0.00    -0.237 OA
ATOM     96  O   UNL A   1      38.731  37.497  40.505  1.00  0.00    -0.237 OA
ATOM     97  O   UNL A   1      38.950  35.518  41.956  1.00  0.00    -0.744 OA
ENDBRANCH  93  94
ENDBRANCH  61  86
ENDBRANCH  35  36
ENDBRANCH  27  30
ENDBRANCH  25  26
ENDBRANCH  24  25
ENDBRANCH   1  24
TORSDOF 20
ENDMDL
