MODEL 1
REMARK VINA RESULT:     -11.3      0.000      0.000
REMARK SMILES Cn1nc(C(=O)N2C[C@@H](O)C[C@H]2C(=O)NCCCCNC(=O)c2ccc(-c3c4nc(c(-c5c(F)cc(S(=O)(=O)[O-])cc5F)c5ccc([nH]5)c(-c5c(F)cc(S(=O)(=O)[O-])cc5F)c5nc(c(-c6c(F)cc(S(=O)(=O)[O-])cc6F)c6ccc3[nH]6)C=C5)C=C4)cc2)ccc1=O
REMARK SMILES IDX 18 1 17 2 16 3 15 4 13 5 14 6 12 8 7 9 8 10 9 11 11 12 5 13
REMARK SMILES IDX 6 14 4 15 1 16 2 17 3 18 91 19 90 20 92 21 89 22 10 23 19 25
REMARK SMILES IDX 20 26 21 27 22 29 23 30 24 31 88 32 25 33 87 34 26 35 27 36
REMARK SMILES IDX 28 37 81 38 29 39 86 40 80 41 82 42 30 43 85 44 79 45 78 46
REMARK SMILES IDX 31 48 65 49 44 50 64 51 45 52 48 53 63 54 83 55 46 56 47 57
REMARK SMILES IDX 62 59 84 60 49 61 32 62 33 63 42 64 34 65 35 66 41 67 43 68
REMARK SMILES IDX 36 69 37 70 38 71 39 72 40 73 66 74 67 75 76 76 68 77 69 78
REMARK SMILES IDX 75 79 77 80 70 81 71 82 72 83 73 84 74 85 50 86 51 87 60 88
REMARK SMILES IDX 52 89 53 90 59 91 61 92 54 93 55 94 56 95 57 96 58 97
REMARK H PARENT 15 7 10 24 20 28 82 47 48 58
REMARK Flexibility Score: inf
ROOT
ATOM      1  C   UNL A   1      33.527  27.162  25.399  1.00  0.00     0.023 C 
ENDROOT
BRANCH   1   2
ATOM      2  C   UNL A   1      32.471  26.157  25.868  1.00  0.00     0.023 C 
BRANCH   2   3
ATOM      3  C   UNL A   1      32.767  24.712  25.494  1.00  0.00     0.116 C 
BRANCH   3   4
ATOM      4  N   UNL A   1      33.640  24.596  24.347  1.00  0.00    -0.354 N 
ATOM      5  C   UNL A   1      34.822  23.935  24.195  1.00  0.00     0.242 C 
ATOM      6  O   UNL A   1      35.224  23.772  23.038  1.00  0.00    -0.273 OA
ATOM      7  H   UNL A   1      33.329  25.074  23.545  1.00  0.00     0.163 HD
BRANCH   5   8
ATOM      8  C   UNL A   1      35.544  23.244  25.368  1.00  0.00     0.177 C 
ATOM      9  N   UNL A   1      35.612  21.781  25.349  1.00  0.00    -0.323 N 
ATOM     10  C   UNL A   1      36.983  21.305  25.426  1.00  0.00     0.152 C 
ATOM     11  C   UNL A   1      37.772  22.493  25.972  1.00  0.00     0.136 C 
ATOM     12  C   UNL A   1      36.992  23.724  25.512  1.00  0.00     0.069 C 
BRANCH   9  13
ATOM     13  C   UNL A   1      34.455  21.085  25.672  1.00  0.00     0.275 C 
ATOM     14  O   UNL A   1      33.936  21.112  26.782  1.00  0.00    -0.267 OA
BRANCH  13  15
ATOM     15  C   UNL A   1      33.852  20.137  24.645  1.00  0.00     0.149 A 
ATOM     16  C   UNL A   1      34.190  16.694  23.725  1.00  0.00     0.178 C 
ATOM     17  N   UNL A   1      33.662  18.045  23.734  1.00  0.00    -0.232 N 
ATOM     18  N   UNL A   1      34.256  18.904  24.632  1.00  0.00    -0.165 NA
ATOM     19  C   UNL A   1      32.606  18.399  22.903  1.00  0.00     0.266 A 
ATOM     20  C   UNL A   1      32.169  19.812  22.981  1.00  0.00     0.076 A 
ATOM     21  O   UNL A   1      32.032  17.639  22.127  1.00  0.00    -0.268 OA
ATOM     22  C   UNL A   1      32.771  20.677  23.800  1.00  0.00     0.042 A 
ENDBRANCH  13  15
ENDBRANCH   9  13
BRANCH  11  23
ATOM     23  O   UNL A   1      39.109  22.522  25.494  1.00  0.00    -0.391 OA
ATOM     24  H   UNL A   1      39.304  23.402  25.135  1.00  0.00     0.211 HD
ENDBRANCH  11  23
ENDBRANCH   5   8
ENDBRANCH   3   4
ENDBRANCH   2   3
ENDBRANCH   1   2
BRANCH   1  25
ATOM     25  C   UNL A   1      34.323  27.847  26.509  1.00  0.00     0.116 C 
BRANCH  25  26
ATOM     26  N   UNL A   1      33.789  29.150  26.877  1.00  0.00    -0.352 N 
ATOM     27  C   UNL A   1      34.414  30.147  27.586  1.00  0.00     0.251 C 
ATOM     28  H   UNL A   1      32.870  29.340  26.581  1.00  0.00     0.163 HD
ATOM     29  O   UNL A   1      33.808  31.167  27.898  1.00  0.00    -0.269 OA
BRANCH  27  30
ATOM     30  C   UNL A   1      35.817  29.949  27.995  1.00  0.00     0.039 A 
ATOM     31  C   UNL A   1      36.084  29.504  29.291  1.00  0.00     0.014 A 
ATOM     32  C   UNL A   1      36.850  30.133  27.070  1.00  0.00     0.014 A 
ATOM     33  C   UNL A   1      37.395  29.182  29.646  1.00  0.00     0.010 A 
ATOM     34  C   UNL A   1      38.149  29.774  27.415  1.00  0.00     0.010 A 
ATOM     35  C   UNL A   1      38.429  29.288  28.703  1.00  0.00    -0.014 A 
BRANCH  35  36
ATOM     36  C   UNL A   1      39.818  28.911  29.052  1.00  0.00     0.031 A 
ATOM     37  C   UNL A   1      40.687  29.884  29.792  1.00  0.00     0.074 A 
ATOM     38  C   UNL A   1      40.298  27.708  28.680  1.00  0.00     0.049 A 
ATOM     39  N   UNL A   1      41.939  29.767  30.147  1.00  0.00    -0.248 NA
ATOM     40  C   UNL A   1      40.069  31.165  30.173  1.00  0.00     0.031 C 
ATOM     41  C   UNL A   1      39.548  26.684  27.949  1.00  0.00     0.029 A 
ATOM     42  N   UNL A   1      41.534  27.143  28.867  1.00  0.00    -0.354 N 
ATOM     43  C   UNL A   1      42.257  30.948  30.803  1.00  0.00     0.074 A 
ATOM     44  C   UNL A   1      41.083  31.793  30.749  1.00  0.00     0.031 C 
ATOM     45  C   UNL A   1      40.332  25.607  27.773  1.00  0.00     0.029 A 
ATOM     46  C   UNL A   1      41.646  25.874  28.351  1.00  0.00     0.049 A 
ATOM     47  H   UNL A   1      42.272  27.604  29.327  1.00  0.00     0.167 HD
ATOM     48  C   UNL A   1      43.414  31.287  31.419  1.00  0.00     0.037 A 
ATOM     49  C   UNL A   1      42.691  25.024  28.350  1.00  0.00     0.037 A 
ATOM     50  C   UNL A   1      44.576  30.443  31.474  1.00  0.00     0.049 A 
ATOM     51  C   UNL A   1      43.983  25.447  28.996  1.00  0.00     0.074 A 
ATOM     52  C   UNL A   1      45.800  30.700  32.069  1.00  0.00     0.029 A 
ATOM     53  N   UNL A   1      44.658  29.174  30.922  1.00  0.00    -0.354 N 
ATOM     54  N   UNL A   1      44.265  26.567  29.616  1.00  0.00    -0.248 NA
ATOM     55  C   UNL A   1      45.099  24.492  28.939  1.00  0.00     0.031 C 
ATOM     56  C   UNL A   1      46.627  29.591  31.859  1.00  0.00     0.029 A 
ATOM     57  C   UNL A   1      45.910  28.635  31.159  1.00  0.00     0.049 A 
ATOM     58  H   UNL A   1      43.932  28.722  30.433  1.00  0.00     0.167 HD
ATOM     59  C   UNL A   1      45.580  26.441  30.048  1.00  0.00     0.074 A 
ATOM     60  C   UNL A   1      46.038  25.135  29.620  1.00  0.00     0.031 C 
ATOM     61  C   UNL A   1      46.339  27.326  30.737  1.00  0.00     0.037 A 
BRANCH  48  62
ATOM     62  C   UNL A   1      43.464  32.621  32.104  1.00  0.00     0.058 A 
ATOM     63  C   UNL A   1      43.923  33.762  31.427  1.00  0.00     0.135 A 
ATOM     64  C   UNL A   1      43.025  32.771  33.428  1.00  0.00     0.135 A 
ATOM     65  F   UNL A   1      44.372  33.665  30.166  1.00  0.00    -0.206 F 
ATOM     66  C   UNL A   1      43.959  35.006  32.046  1.00  0.00     0.059 A 
ATOM     67  C   UNL A   1      43.035  34.011  34.061  1.00  0.00     0.059 A 
ATOM     68  F   UNL A   1      42.585  31.708  34.120  1.00  0.00    -0.206 F 
ATOM     69  C   UNL A   1      43.514  35.121  33.364  1.00  0.00     0.060 A 
BRANCH  69  70
ATOM     70  S   UNL A   1      43.561  36.745  34.149  1.00  0.00     0.124 S 
ATOM     71  O   UNL A   1      42.467  36.635  35.108  1.00  0.00    -0.237 OA
ATOM     72  O   UNL A   1      44.903  36.778  34.720  1.00  0.00    -0.237 OA
ATOM     73  O   UNL A   1      43.333  37.666  33.039  1.00  0.00    -0.744 OA
ENDBRANCH  69  70
ENDBRANCH  48  62
BRANCH  49  74
ATOM     74  C   UNL A   1      42.556  23.672  27.750  1.00  0.00     0.058 A 
ATOM     75  C   UNL A   1      42.310  22.554  28.560  1.00  0.00     0.135 A 
ATOM     76  C   UNL A   1      42.675  23.468  26.367  1.00  0.00     0.135 A 
ATOM     77  F   UNL A   1      42.195  22.702  29.888  1.00  0.00    -0.206 F 
ATOM     78  C   UNL A   1      42.205  21.275  28.023  1.00  0.00     0.059 A 
ATOM     79  C   UNL A   1      42.556  22.200  25.805  1.00  0.00     0.059 A 
ATOM     80  F   UNL A   1      42.898  24.509  25.550  1.00  0.00    -0.206 F 
ATOM     81  C   UNL A   1      42.332  21.109  26.643  1.00  0.00     0.060 A 
BRANCH  81  82
ATOM     82  S   UNL A   1      42.159  19.448  25.953  1.00  0.00     0.124 S 
ATOM     83  O   UNL A   1      40.722  19.377  25.717  1.00  0.00    -0.237 OA
ATOM     84  O   UNL A   1      43.001  19.520  24.763  1.00  0.00    -0.237 OA
ATOM     85  O   UNL A   1      42.669  18.590  27.019  1.00  0.00    -0.744 OA
ENDBRANCH  81  82
ENDBRANCH  49  74
BRANCH  61  86
ATOM     86  C   UNL A   1      47.733  26.906  31.104  1.00  0.00     0.058 A 
ATOM     87  C   UNL A   1      47.986  26.134  32.247  1.00  0.00     0.135 A 
ATOM     88  C   UNL A   1      48.811  27.214  30.261  1.00  0.00     0.135 A 
ATOM     89  F   UNL A   1      46.987  25.821  33.086  1.00  0.00    -0.206 F 
ATOM     90  C   UNL A   1      49.268  25.685  32.546  1.00  0.00     0.059 A 
ATOM     91  C   UNL A   1      50.098  26.760  30.530  1.00  0.00     0.059 A 
ATOM     92  F   UNL A   1      48.615  27.945  29.151  1.00  0.00    -0.206 F 
ATOM     93  C   UNL A   1      50.318  26.000  31.679  1.00  0.00     0.060 A 
BRANCH  93  94
ATOM     94  S   UNL A   1      51.965  25.361  32.046  1.00  0.00     0.124 S 
ATOM     95  O   UNL A   1      52.717  25.794  30.873  1.00  0.00    -0.237 OA
ATOM     96  O   UNL A   1      52.293  26.040  33.296  1.00  0.00    -0.237 OA
ATOM     97  O   UNL A   1      51.752  23.921  32.160  1.00  0.00    -0.744 OA
ENDBRANCH  93  94
ENDBRANCH  61  86
ENDBRANCH  35  36
ENDBRANCH  27  30
ENDBRANCH  25  26
ENDBRANCH   1  25
TORSDOF 17
ENDMDL
MODEL 2
REMARK VINA RESULT:     -11.1      1.228      2.198
REMARK SMILES Cn1nc(C(=O)N2C[C@@H](O)C[C@H]2C(=O)NCCCCNC(=O)c2ccc(-c3c4nc(c(-c5c(F)cc(S(=O)(=O)[O-])cc5F)c5ccc([nH]5)c(-c5c(F)cc(S(=O)(=O)[O-])cc5F)c5nc(c(-c6c(F)cc(S(=O)(=O)[O-])cc6F)c6ccc3[nH]6)C=C5)C=C4)cc2)ccc1=O
REMARK SMILES IDX 18 1 17 2 16 3 15 4 13 5 14 6 12 8 7 9 8 10 9 11 11 12 5 13
REMARK SMILES IDX 6 14 4 15 1 16 2 17 3 18 91 19 90 20 92 21 89 22 10 23 19 25
REMARK SMILES IDX 20 26 21 27 22 29 23 30 24 31 88 32 25 33 87 34 26 35 27 36
REMARK SMILES IDX 28 37 81 38 29 39 86 40 80 41 82 42 30 43 85 44 79 45 78 46
REMARK SMILES IDX 31 48 65 49 44 50 64 51 45 52 48 53 63 54 83 55 46 56 47 57
REMARK SMILES IDX 62 59 84 60 49 61 32 62 33 63 42 64 34 65 35 66 41 67 43 68
REMARK SMILES IDX 36 69 37 70 38 71 39 72 40 73 66 74 67 75 76 76 68 77 69 78
REMARK SMILES IDX 75 79 77 80 70 81 71 82 72 83 73 84 74 85 50 86 51 87 60 88
REMARK SMILES IDX 52 89 53 90 59 91 61 92 54 93 55 94 56 95 57 96 58 97
REMARK H PARENT 15 7 10 24 20 28 82 47 48 58
REMARK Flexibility Score: inf
ROOT
ATOM      1  C   UNL A   1      32.359  27.708  26.473  1.00  0.00     0.023 C 
ENDROOT
BRANCH   1   2
ATOM      2  C   UNL A   1      32.684  26.772  25.307  1.00  0.00     0.023 C 
BRANCH   2   3
ATOM      3  C   UNL A   1      33.946  25.942  25.497  1.00  0.00     0.116 C 
BRANCH   3   4
ATOM      4  N   UNL A   1      34.423  25.355  24.265  1.00  0.00    -0.354 N 
ATOM      5  C   UNL A   1      35.117  24.204  24.042  1.00  0.00     0.242 C 
ATOM      6  O   UNL A   1      35.162  23.798  22.875  1.00  0.00    -0.273 OA
ATOM      7  H   UNL A   1      34.212  25.873  23.455  1.00  0.00     0.163 HD
BRANCH   5   8
ATOM      8  C   UNL A   1      35.661  23.326  25.186  1.00  0.00     0.177 C 
ATOM      9  N   UNL A   1      35.526  21.874  25.044  1.00  0.00    -0.323 N 
ATOM     10  C   UNL A   1      36.810  21.202  25.150  1.00  0.00     0.152 C 
ATOM     11  C   UNL A   1      37.720  22.217  25.836  1.00  0.00     0.136 C 
ATOM     12  C   UNL A   1      37.149  23.581  25.445  1.00  0.00     0.069 C 
BRANCH   9  13
ATOM     13  C   UNL A   1      34.265  21.329  25.246  1.00  0.00     0.275 C 
ATOM     14  O   UNL A   1      34.000  20.147  25.057  1.00  0.00    -0.267 OA
BRANCH  13  15
ATOM     15  C   UNL A   1      33.109  22.253  25.603  1.00  0.00     0.149 A 
ATOM     16  C   UNL A   1      30.516  24.011  23.871  1.00  0.00     0.178 C 
ATOM     17  N   UNL A   1      31.286  23.492  24.986  1.00  0.00    -0.232 N 
ATOM     18  N   UNL A   1      32.360  22.702  24.643  1.00  0.00    -0.165 NA
ATOM     19  C   UNL A   1      30.910  23.768  26.295  1.00  0.00     0.266 A 
ATOM     20  C   UNL A   1      31.787  23.207  27.349  1.00  0.00     0.076 A 
ATOM     21  O   UNL A   1      29.932  24.433  26.625  1.00  0.00    -0.268 OA
ATOM     22  C   UNL A   1      32.869  22.489  27.038  1.00  0.00     0.042 A 
ENDBRANCH  13  15
ENDBRANCH   9  13
BRANCH  11  23
ATOM     23  O   UNL A   1      39.075  22.091  25.432  1.00  0.00    -0.391 OA
ATOM     24  H   UNL A   1      39.111  21.732  24.532  1.00  0.00     0.211 HD
ENDBRANCH  11  23
ENDBRANCH   5   8
ENDBRANCH   3   4
ENDBRANCH   2   3
ENDBRANCH   1   2
BRANCH   1  25
ATOM     25  C   UNL A   1      33.566  28.307  27.192  1.00  0.00     0.116 C 
BRANCH  25  26
ATOM     26  N   UNL A   1      33.402  29.718  27.510  1.00  0.00    -0.352 N 
ATOM     27  C   UNL A   1      34.336  30.578  28.038  1.00  0.00     0.251 C 
ATOM     28  H   UNL A   1      32.516  30.103  27.324  1.00  0.00     0.163 HD
ATOM     29  O   UNL A   1      34.028  31.727  28.335  1.00  0.00    -0.269 OA
BRANCH  27  30
ATOM     30  C   UNL A   1      35.702  30.077  28.272  1.00  0.00     0.039 A 
ATOM     31  C   UNL A   1      36.624  30.118  27.224  1.00  0.00     0.014 A 
ATOM     32  C   UNL A   1      36.080  29.640  29.546  1.00  0.00     0.014 A 
ATOM     33  C   UNL A   1      37.954  29.776  27.471  1.00  0.00     0.010 A 
ATOM     34  C   UNL A   1      37.415  29.337  29.797  1.00  0.00     0.010 A 
ATOM     35  C   UNL A   1      38.362  29.411  28.763  1.00  0.00    -0.014 A 
BRANCH  35  36
ATOM     36  C   UNL A   1      39.778  29.085  29.049  1.00  0.00     0.031 A 
ATOM     37  C   UNL A   1      40.657  30.109  29.704  1.00  0.00     0.074 A 
ATOM     38  C   UNL A   1      40.272  27.882  28.696  1.00  0.00     0.049 A 
ATOM     39  N   UNL A   1      41.930  30.039  29.994  1.00  0.00    -0.248 NA
ATOM     40  C   UNL A   1      40.024  31.387  30.072  1.00  0.00     0.031 C 
ATOM     41  C   UNL A   1      39.514  26.812  28.045  1.00  0.00     0.029 A 
ATOM     42  N   UNL A   1      41.532  27.359  28.835  1.00  0.00    -0.354 N 
ATOM     43  C   UNL A   1      42.248  31.253  30.589  1.00  0.00     0.074 A 
ATOM     44  C   UNL A   1      41.049  32.063  30.569  1.00  0.00     0.031 C 
ATOM     45  C   UNL A   1      40.319  25.750  27.865  1.00  0.00     0.029 A 
ATOM     46  C   UNL A   1      41.653  26.075  28.360  1.00  0.00     0.049 A 
ATOM     47  H   UNL A   1      42.281  27.857  29.237  1.00  0.00     0.167 HD
ATOM     48  C   UNL A   1      43.426  31.645  31.128  1.00  0.00     0.037 A 
ATOM     49  C   UNL A   1      42.721  25.254  28.333  1.00  0.00     0.037 A 
ATOM     50  C   UNL A   1      44.614  30.836  31.149  1.00  0.00     0.049 A 
ATOM     51  C   UNL A   1      44.033  25.736  28.891  1.00  0.00     0.074 A 
ATOM     52  C   UNL A   1      45.859  31.149  31.666  1.00  0.00     0.029 A 
ATOM     53  N   UNL A   1      44.702  29.549  30.641  1.00  0.00    -0.354 N 
ATOM     54  N   UNL A   1      44.315  26.886  29.453  1.00  0.00    -0.248 NA
ATOM     55  C   UNL A   1      45.172  24.810  28.808  1.00  0.00     0.031 C 
ATOM     56  C   UNL A   1      46.706  30.055  31.452  1.00  0.00     0.029 A 
ATOM     57  C   UNL A   1      45.980  29.054  30.827  1.00  0.00     0.049 A 
ATOM     58  H   UNL A   1      43.964  29.060  30.208  1.00  0.00     0.167 HD
ATOM     59  C   UNL A   1      45.655  26.811  29.817  1.00  0.00     0.074 A 
ATOM     60  C   UNL A   1      46.127  25.503  29.412  1.00  0.00     0.031 C 
ATOM     61  C   UNL A   1      46.424  27.742  30.431  1.00  0.00     0.037 A 
BRANCH  48  62
ATOM     62  C   UNL A   1      43.474  33.005  31.760  1.00  0.00     0.058 A 
ATOM     63  C   UNL A   1      43.793  34.143  31.000  1.00  0.00     0.135 A 
ATOM     64  C   UNL A   1      43.172  33.183  33.118  1.00  0.00     0.135 A 
ATOM     65  F   UNL A   1      44.109  34.022  29.702  1.00  0.00    -0.206 F 
ATOM     66  C   UNL A   1      43.825  35.410  31.571  1.00  0.00     0.059 A 
ATOM     67  C   UNL A   1      43.180  34.444  33.706  1.00  0.00     0.059 A 
ATOM     68  F   UNL A   1      42.869  32.125  33.888  1.00  0.00    -0.206 F 
ATOM     69  C   UNL A   1      43.519  35.550  32.926  1.00  0.00     0.060 A 
BRANCH  69  70
ATOM     70  S   UNL A   1      43.558  37.204  33.649  1.00  0.00     0.124 S 
ATOM     71  O   UNL A   1      44.723  37.111  34.521  1.00  0.00    -0.237 OA
ATOM     72  O   UNL A   1      43.712  38.055  32.473  1.00  0.00    -0.237 OA
ATOM     73  O   UNL A   1      42.270  37.307  34.329  1.00  0.00    -0.744 OA
ENDBRANCH  69  70
ENDBRANCH  48  62
BRANCH  49  74
ATOM     74  C   UNL A   1      42.593  23.877  27.790  1.00  0.00     0.058 A 
ATOM     75  C   UNL A   1      42.612  23.651  26.406  1.00  0.00     0.135 A 
ATOM     76  C   UNL A   1      42.443  22.767  28.634  1.00  0.00     0.135 A 
ATOM     77  F   UNL A   1      42.748  24.685  25.561  1.00  0.00    -0.206 F 
ATOM     78  C   UNL A   1      42.469  22.374  25.874  1.00  0.00     0.059 A 
ATOM     79  C   UNL A   1      42.316  21.477  28.126  1.00  0.00     0.059 A 
ATOM     80  F   UNL A   1      42.432  22.931  29.966  1.00  0.00    -0.206 F 
ATOM     81  C   UNL A   1      42.319  21.293  26.744  1.00  0.00     0.060 A 
BRANCH  81  82
ATOM     82  S   UNL A   1      42.169  19.635  26.043  1.00  0.00     0.124 S 
ATOM     83  O   UNL A   1      43.097  19.706  24.921  1.00  0.00    -0.237 OA
ATOM     84  O   UNL A   1      42.578  18.790  27.160  1.00  0.00    -0.237 OA
ATOM     85  O   UNL A   1      40.754  19.549  25.689  1.00  0.00    -0.744 OA
ENDBRANCH  81  82
ENDBRANCH  49  74
BRANCH  61  86
ATOM     86  C   UNL A   1      47.847  27.374  30.735  1.00  0.00     0.058 A 
ATOM     87  C   UNL A   1      48.204  26.790  31.959  1.00  0.00     0.135 A 
ATOM     88  C   UNL A   1      48.845  27.537  29.763  1.00  0.00     0.135 A 
ATOM     89  F   UNL A   1      47.285  26.620  32.922  1.00  0.00    -0.206 F 
ATOM     90  C   UNL A   1      49.510  26.384  32.211  1.00  0.00     0.059 A 
ATOM     91  C   UNL A   1      50.154  27.121  29.987  1.00  0.00     0.059 A 
ATOM     92  F   UNL A   1      48.548  28.086  28.574  1.00  0.00    -0.206 F 
ATOM     93  C   UNL A   1      50.478  26.549  31.217  1.00  0.00     0.060 A 
BRANCH  93  94
ATOM     94  S   UNL A   1      52.155  25.964  31.535  1.00  0.00     0.124 S 
ATOM     95  O   UNL A   1      52.786  26.157  30.234  1.00  0.00    -0.237 OA
ATOM     96  O   UNL A   1      52.604  26.859  32.596  1.00  0.00    -0.237 OA
ATOM     97  O   UNL A   1      51.958  24.574  31.938  1.00  0.00    -0.744 OA
ENDBRANCH  93  94
ENDBRANCH  61  86
ENDBRANCH  35  36
ENDBRANCH  27  30
ENDBRANCH  25  26
ENDBRANCH   1  25
TORSDOF 17
ENDMDL
MODEL 3
REMARK VINA RESULT:     -11.1      3.136      9.730
REMARK SMILES Cn1nc(C(=O)N2C[C@@H](O)C[C@H]2C(=O)NCCCCNC(=O)c2ccc(-c3c4nc(c(-c5c(F)cc(S(=O)(=O)[O-])cc5F)c5ccc([nH]5)c(-c5c(F)cc(S(=O)(=O)[O-])cc5F)c5nc(c(-c6c(F)cc(S(=O)(=O)[O-])cc6F)c6ccc3[nH]6)C=C5)C=C4)cc2)ccc1=O
REMARK SMILES IDX 18 1 17 2 16 3 15 4 13 5 14 6 12 8 7 9 8 10 9 11 11 12 5 13
REMARK SMILES IDX 6 14 4 15 1 16 2 17 3 18 91 19 90 20 92 21 89 22 10 23 19 25
REMARK SMILES IDX 20 26 21 27 22 29 23 30 24 31 88 32 25 33 87 34 26 35 27 36
REMARK SMILES IDX 28 37 81 38 29 39 86 40 80 41 82 42 30 43 85 44 79 45 78 46
REMARK SMILES IDX 31 48 65 49 44 50 64 51 45 52 48 53 63 54 83 55 46 56 47 57
REMARK SMILES IDX 62 59 84 60 49 61 32 62 33 63 42 64 34 65 35 66 41 67 43 68
REMARK SMILES IDX 36 69 37 70 38 71 39 72 40 73 66 74 67 75 76 76 68 77 69 78
REMARK SMILES IDX 75 79 77 80 70 81 71 82 72 83 73 84 74 85 50 86 51 87 60 88
REMARK SMILES IDX 52 89 53 90 59 91 61 92 54 93 55 94 56 95 57 96 58 97
REMARK H PARENT 15 7 10 24 20 28 82 47 48 58
REMARK Flexibility Score: inf
ROOT
ATOM      1  C   UNL A   1      35.841  23.382  24.054  1.00  0.00     0.023 C 
ENDROOT
BRANCH   1   2
ATOM      2  C   UNL A   1      34.427  23.900  24.329  1.00  0.00     0.023 C 
BRANCH   2   3
ATOM      3  C   UNL A   1      34.367  25.340  24.818  1.00  0.00     0.116 C 
BRANCH   3   4
ATOM      4  N   UNL A   1      33.325  25.558  25.797  1.00  0.00    -0.354 N 
ATOM      5  C   UNL A   1      32.778  26.714  26.266  1.00  0.00     0.242 C 
ATOM      6  O   UNL A   1      31.719  26.613  26.896  1.00  0.00    -0.273 OA
ATOM      7  H   UNL A   1      32.951  24.736  26.188  1.00  0.00     0.163 HD
BRANCH   5   8
ATOM      8  C   UNL A   1      33.319  28.106  25.883  1.00  0.00     0.177 C 
ATOM      9  N   UNL A   1      32.356  29.087  25.378  1.00  0.00    -0.323 N 
ATOM     10  C   UNL A   1      32.372  30.310  26.163  1.00  0.00     0.152 C 
ATOM     11  C   UNL A   1      33.707  30.274  26.903  1.00  0.00     0.136 C 
ATOM     12  C   UNL A   1      34.028  28.787  27.058  1.00  0.00     0.069 C 
BRANCH   9  13
ATOM     13  C   UNL A   1      31.902  28.923  24.076  1.00  0.00     0.275 C 
ATOM     14  O   UNL A   1      32.644  28.867  23.102  1.00  0.00    -0.267 OA
BRANCH  13  15
ATOM     15  C   UNL A   1      30.403  28.932  23.810  1.00  0.00     0.149 A 
ATOM     16  C   UNL A   1      27.883  31.357  23.043  1.00  0.00     0.178 C 
ATOM     17  N   UNL A   1      28.484  30.055  23.263  1.00  0.00    -0.232 N 
ATOM     18  N   UNL A   1      29.829  30.069  23.557  1.00  0.00    -0.165 NA
ATOM     19  C   UNL A   1      27.727  28.896  23.143  1.00  0.00     0.266 A 
ATOM     20  C   UNL A   1      28.441  27.627  23.417  1.00  0.00     0.076 A 
ATOM     21  O   UNL A   1      26.537  28.856  22.840  1.00  0.00    -0.268 OA
ATOM     22  C   UNL A   1      29.731  27.621  23.763  1.00  0.00     0.042 A 
ENDBRANCH  13  15
ENDBRANCH   9  13
BRANCH  11  23
ATOM     23  O   UNL A   1      33.646  30.922  28.164  1.00  0.00    -0.391 OA
ATOM     24  H   UNL A   1      32.719  31.007  28.439  1.00  0.00     0.211 HD
ENDBRANCH  11  23
ENDBRANCH   5   8
ENDBRANCH   3   4
ENDBRANCH   2   3
ENDBRANCH   1   2
BRANCH   1  25
ATOM     25  C   UNL A   1      36.897  23.769  25.088  1.00  0.00     0.116 C 
BRANCH  25  26
ATOM     26  N   UNL A   1      37.917  22.749  25.274  1.00  0.00    -0.352 N 
ATOM     27  C   UNL A   1      39.095  22.852  25.975  1.00  0.00     0.251 C 
ATOM     28  H   UNL A   1      37.743  21.880  24.846  1.00  0.00     0.163 HD
ATOM     29  O   UNL A   1      39.905  21.931  25.975  1.00  0.00    -0.269 OA
BRANCH  27  30
ATOM     30  C   UNL A   1      39.378  24.106  26.696  1.00  0.00     0.039 A 
ATOM     31  C   UNL A   1      38.923  24.247  28.009  1.00  0.00     0.014 A 
ATOM     32  C   UNL A   1      40.154  25.102  26.094  1.00  0.00     0.014 A 
ATOM     33  C   UNL A   1      39.302  25.369  28.747  1.00  0.00     0.010 A 
ATOM     34  C   UNL A   1      40.561  26.201  26.844  1.00  0.00     0.010 A 
ATOM     35  C   UNL A   1      40.145  26.337  28.179  1.00  0.00    -0.014 A 
BRANCH  35  36
ATOM     36  C   UNL A   1      40.588  27.513  28.962  1.00  0.00     0.031 A 
ATOM     37  C   UNL A   1      41.954  27.519  29.582  1.00  0.00     0.074 A 
ATOM     38  C   UNL A   1      39.752  28.556  29.135  1.00  0.00     0.049 A 
ATOM     39  N   UNL A   1      42.511  28.425  30.341  1.00  0.00    -0.248 NA
ATOM     40  C   UNL A   1      42.804  26.345  29.322  1.00  0.00     0.031 C 
ATOM     41  C   UNL A   1      38.397  28.656  28.588  1.00  0.00     0.029 A 
ATOM     42  N   UNL A   1      39.920  29.731  29.821  1.00  0.00    -0.354 N 
ATOM     43  C   UNL A   1      43.777  27.940  30.640  1.00  0.00     0.074 A 
ATOM     44  C   UNL A   1      43.888  26.635  30.026  1.00  0.00     0.031 C 
ATOM     45  C   UNL A   1      37.868  29.841  28.940  1.00  0.00     0.029 A 
ATOM     46  C   UNL A   1      38.833  30.569  29.758  1.00  0.00     0.049 A 
ATOM     47  H   UNL A   1      40.743  29.953  30.314  1.00  0.00     0.167 HD
ATOM     48  C   UNL A   1      44.768  28.542  31.339  1.00  0.00     0.037 A 
ATOM     49  C   UNL A   1      38.641  31.788  30.298  1.00  0.00     0.037 A 
ATOM     50  C   UNL A   1      44.656  29.841  31.944  1.00  0.00     0.049 A 
ATOM     51  C   UNL A   1      39.740  32.411  31.116  1.00  0.00     0.074 A 
ATOM     52  C   UNL A   1      45.603  30.532  32.680  1.00  0.00     0.029 A 
ATOM     53  N   UNL A   1      43.532  30.650  31.876  1.00  0.00    -0.354 N 
ATOM     54  N   UNL A   1      40.934  31.940  31.385  1.00  0.00    -0.248 NA
ATOM     55  C   UNL A   1      39.466  33.729  31.706  1.00  0.00     0.031 C 
ATOM     56  C   UNL A   1      45.042  31.753  33.072  1.00  0.00     0.029 A 
ATOM     57  C   UNL A   1      43.758  31.832  32.557  1.00  0.00     0.049 A 
ATOM     58  H   UNL A   1      42.695  30.416  31.411  1.00  0.00     0.167 HD
ATOM     59  C   UNL A   1      41.563  32.915  32.151  1.00  0.00     0.074 A 
ATOM     60  C   UNL A   1      40.619  34.003  32.302  1.00  0.00     0.031 C 
ATOM     61  C   UNL A   1      42.809  32.909  32.680  1.00  0.00     0.037 A 
BRANCH  48  62
ATOM     62  C   UNL A   1      46.068  27.803  31.463  1.00  0.00     0.058 A 
ATOM     63  C   UNL A   1      46.307  26.939  32.543  1.00  0.00     0.135 A 
ATOM     64  C   UNL A   1      47.069  27.932  30.488  1.00  0.00     0.135 A 
ATOM     65  F   UNL A   1      45.389  26.798  33.511  1.00  0.00    -0.206 F 
ATOM     66  C   UNL A   1      47.501  26.238  32.661  1.00  0.00     0.059 A 
ATOM     67  C   UNL A   1      48.265  27.226  30.575  1.00  0.00     0.059 A 
ATOM     68  F   UNL A   1      46.891  28.753  29.440  1.00  0.00    -0.206 F 
ATOM     69  C   UNL A   1      48.475  26.389  31.672  1.00  0.00     0.060 A 
BRANCH  69  70
ATOM     70  S   UNL A   1      50.017  25.464  31.836  1.00  0.00     0.124 S 
ATOM     71  O   UNL A   1      50.217  24.990  30.471  1.00  0.00    -0.237 OA
ATOM     72  O   UNL A   1      50.948  26.489  32.295  1.00  0.00    -0.237 OA
ATOM     73  O   UNL A   1      49.692  24.433  32.817  1.00  0.00    -0.744 OA
ENDBRANCH  69  70
ENDBRANCH  48  62
BRANCH  49  74
ATOM     74  C   UNL A   1      37.373  32.523  30.058  1.00  0.00     0.058 A 
ATOM     75  C   UNL A   1      36.231  32.243  30.823  1.00  0.00     0.135 A 
ATOM     76  C   UNL A   1      37.271  33.506  29.062  1.00  0.00     0.135 A 
ATOM     77  F   UNL A   1      36.280  31.306  31.781  1.00  0.00    -0.206 F 
ATOM     78  C   UNL A   1      35.025  32.900  30.599  1.00  0.00     0.059 A 
ATOM     79  C   UNL A   1      36.080  34.189  28.832  1.00  0.00     0.059 A 
ATOM     80  F   UNL A   1      38.340  33.817  28.313  1.00  0.00    -0.206 F 
ATOM     81  C   UNL A   1      34.961  33.870  29.598  1.00  0.00     0.060 A 
BRANCH  81  82
ATOM     82  S   UNL A   1      33.399  34.741  29.340  1.00  0.00     0.124 S 
ATOM     83  O   UNL A   1      32.951  34.952  30.711  1.00  0.00    -0.237 OA
ATOM     84  O   UNL A   1      33.828  35.934  28.616  1.00  0.00    -0.237 OA
ATOM     85  O   UNL A   1      32.614  33.792  28.555  1.00  0.00    -0.744 OA
ENDBRANCH  81  82
ENDBRANCH  49  74
BRANCH  61  86
ATOM     86  C   UNL A   1      43.243  34.126  33.445  1.00  0.00     0.058 A 
ATOM     87  C   UNL A   1      43.700  35.277  32.788  1.00  0.00     0.135 A 
ATOM     88  C   UNL A   1      43.126  34.164  34.843  1.00  0.00     0.135 A 
ATOM     89  F   UNL A   1      43.835  35.284  31.452  1.00  0.00    -0.206 F 
ATOM     90  C   UNL A   1      44.033  36.428  33.493  1.00  0.00     0.059 A 
ATOM     91  C   UNL A   1      43.435  35.311  35.568  1.00  0.00     0.059 A 
ATOM     92  F   UNL A   1      42.686  33.088  35.514  1.00  0.00    -0.206 F 
ATOM     93  C   UNL A   1      43.893  36.437  34.883  1.00  0.00     0.060 A 
BRANCH  93  94
ATOM     94  S   UNL A   1      44.271  37.956  35.782  1.00  0.00     0.124 S 
ATOM     95  O   UNL A   1      43.417  37.824  36.957  1.00  0.00    -0.237 OA
ATOM     96  O   UNL A   1      45.705  37.829  36.023  1.00  0.00    -0.237 OA
ATOM     97  O   UNL A   1      43.891  39.008  34.843  1.00  0.00    -0.744 OA
ENDBRANCH  93  94
ENDBRANCH  61  86
ENDBRANCH  35  36
ENDBRANCH  27  30
ENDBRANCH  25  26
ENDBRANCH   1  25
TORSDOF 17
ENDMDL
