MODEL 1
REMARK VINA RESULT:     -10.6      0.000      0.000
REMARK SMILES Cc1ccc(O)c(C[C@H](NC=O)C(=O)NCCCCNC(=O)c2ccc(-c3c4nc(c(-c5c(F)cc(S(=O)(=O)[O-])cc5F)c5ccc([nH]5)c(-c5c(F)cc(S(=O)(=O)[O-])cc5F)c5nc(c(-c6c(F)cc(S(=O)(=O)[O-])cc6F)c6ccc3[nH]6)C=C5)C=C4)cc2)n1
REMARK SMILES IDX 17 1 16 2 15 3 13 4 14 5 9 7 8 8 7 9 1 10 2 11 3 12 89 13
REMARK SMILES IDX 4 14 5 15 6 16 10 18 11 19 12 21 18 22 19 23 20 24 21 25
REMARK SMILES IDX 22 27 23 28 24 29 88 30 25 31 87 32 26 33 27 34 28 35 81 36
REMARK SMILES IDX 29 37 86 38 80 39 82 40 30 41 85 42 79 43 78 44 31 46 65 47
REMARK SMILES IDX 44 48 64 49 45 50 48 51 63 52 83 53 46 54 47 55 62 57 84 58
REMARK SMILES IDX 49 59 32 60 33 61 42 62 34 63 35 64 41 65 43 66 36 67 37 68
REMARK SMILES IDX 38 69 39 70 40 71 66 72 67 73 76 74 68 75 69 76 75 77 77 78
REMARK SMILES IDX 70 79 71 80 72 81 73 82 74 83 50 84 51 85 60 86 52 87 53 88
REMARK SMILES IDX 59 89 61 90 54 91 55 92 56 93 57 94 58 95
REMARK H PARENT 15 6 6 17 10 20 20 26 82 45 48 56
REMARK Flexibility Score: inf
ROOT
ATOM      1  C   UNL A   1      33.620  26.759  25.373  1.00  0.00     0.023 C 
ENDROOT
BRANCH   1   2
ATOM      2  C   UNL A   1      33.590  25.384  26.028  1.00  0.00     0.116 C 
BRANCH   2   3
ATOM      3  N   UNL A   1      32.300  25.093  26.629  1.00  0.00    -0.354 N 
ATOM      4  C   UNL A   1      31.395  24.123  26.295  1.00  0.00     0.242 C 
ATOM      5  O   UNL A   1      30.466  23.893  27.075  1.00  0.00    -0.273 OA
ATOM      6  H   UNL A   1      32.041  25.675  27.381  1.00  0.00     0.163 HD
BRANCH   4   7
ATOM      7  C   UNL A   1      31.516  23.357  24.963  1.00  0.00     0.177 C 
BRANCH   7   8
ATOM      8  C   UNL A   1      30.560  23.811  23.842  1.00  0.00     0.095 C 
BRANCH   8   9
ATOM      9  C   UNL A   1      30.693  25.256  23.435  1.00  0.00     0.085 A 
ATOM     10  C   UNL A   1      33.261  27.086  21.536  1.00  0.00     0.067 C 
ATOM     11  C   UNL A   1      32.023  26.838  22.342  1.00  0.00     0.038 A 
ATOM     12  C   UNL A   1      31.113  27.848  22.611  1.00  0.00     0.027 A 
ATOM     13  N   UNL A   1      31.836  25.571  22.776  1.00  0.00    -0.254 NA
ATOM     14  C   UNL A   1      29.960  27.536  23.330  1.00  0.00     0.050 A 
ATOM     15  C   UNL A   1      29.742  26.223  23.740  1.00  0.00     0.137 A 
BRANCH  15  16
ATOM     16  O   UNL A   1      28.617  25.895  24.438  1.00  0.00    -0.506 OA
ATOM     17  H   UNL A   1      27.829  25.677  23.981  1.00  0.00     0.293 HD
ENDBRANCH  15  16
ENDBRANCH   8   9
ENDBRANCH   7   8
BRANCH   7  18
ATOM     18  N   UNL A   1      31.386  21.926  25.281  1.00  0.00    -0.347 N 
ATOM     19  C   UNL A   1      32.248  20.946  24.918  1.00  0.00     0.337 C 
ATOM     20  H   UNL A   1      30.597  21.656  25.807  1.00  0.00     0.164 HD
ATOM     21  O   UNL A   1      32.073  19.770  25.209  1.00  0.00    -0.279 OA
ENDBRANCH   7  18
ENDBRANCH   4   7
ENDBRANCH   2   3
ENDBRANCH   1   2
BRANCH   1  22
ATOM     22  C   UNL A   1      32.831  27.832  26.121  1.00  0.00     0.023 C 
BRANCH  22  23
ATOM     23  C   UNL A   1      33.446  28.285  27.441  1.00  0.00     0.116 C 
BRANCH  23  24
ATOM     24  N   UNL A   1      33.414  29.731  27.611  1.00  0.00    -0.352 N 
ATOM     25  C   UNL A   1      34.403  30.572  28.061  1.00  0.00     0.251 C 
ATOM     26  H   UNL A   1      32.564  30.166  27.370  1.00  0.00     0.163 HD
ATOM     27  O   UNL A   1      34.151  31.750  28.297  1.00  0.00    -0.269 OA
BRANCH  25  28
ATOM     28  C   UNL A   1      35.764  30.042  28.284  1.00  0.00     0.039 A 
ATOM     29  C   UNL A   1      36.681  30.064  27.230  1.00  0.00     0.014 A 
ATOM     30  C   UNL A   1      36.142  29.551  29.536  1.00  0.00     0.014 A 
ATOM     31  C   UNL A   1      37.999  29.662  27.456  1.00  0.00     0.010 A 
ATOM     32  C   UNL A   1      37.473  29.228  29.779  1.00  0.00     0.010 A 
ATOM     33  C   UNL A   1      38.417  29.280  28.742  1.00  0.00    -0.014 A 
BRANCH  33  34
ATOM     34  C   UNL A   1      39.838  28.942  29.022  1.00  0.00     0.031 A 
ATOM     35  C   UNL A   1      40.756  29.973  29.619  1.00  0.00     0.074 A 
ATOM     36  C   UNL A   1      40.314  27.727  28.683  1.00  0.00     0.049 A 
ATOM     37  N   UNL A   1      42.035  29.886  29.880  1.00  0.00    -0.248 NA
ATOM     38  C   UNL A   1      40.167  31.282  29.944  1.00  0.00     0.031 C 
ATOM     39  C   UNL A   1      39.533  26.657  28.054  1.00  0.00     0.029 A 
ATOM     40  N   UNL A   1      41.568  27.186  28.812  1.00  0.00    -0.354 N 
ATOM     41  C   UNL A   1      42.405  31.125  30.390  1.00  0.00     0.074 A 
ATOM     42  C   UNL A   1      41.228  31.966  30.346  1.00  0.00     0.031 C 
ATOM     43  C   UNL A   1      40.320  25.583  27.878  1.00  0.00     0.029 A 
ATOM     44  C   UNL A   1      41.668  25.898  28.339  1.00  0.00     0.049 A 
ATOM     45  H   UNL A   1      42.327  27.675  29.206  1.00  0.00     0.167 HD
ATOM     46  C   UNL A   1      43.606  31.519  30.876  1.00  0.00     0.037 A 
ATOM     47  C   UNL A   1      42.728  25.067  28.275  1.00  0.00     0.037 A 
ATOM     48  C   UNL A   1      44.768  30.671  30.932  1.00  0.00     0.049 A 
ATOM     49  C   UNL A   1      44.058  25.536  28.801  1.00  0.00     0.074 A 
ATOM     50  C   UNL A   1      46.018  30.959  31.452  1.00  0.00     0.029 A 
ATOM     51  N   UNL A   1      44.827  29.371  30.451  1.00  0.00    -0.354 N 
ATOM     52  N   UNL A   1      44.372  26.690  29.340  1.00  0.00    -0.248 NA
ATOM     53  C   UNL A   1      45.177  24.588  28.716  1.00  0.00     0.031 C 
ATOM     54  C   UNL A   1      46.848  29.855  31.237  1.00  0.00     0.029 A 
ATOM     55  C   UNL A   1      46.100  28.854  30.638  1.00  0.00     0.049 A 
ATOM     56  H   UNL A   1      44.076  28.887  30.037  1.00  0.00     0.167 HD
ATOM     57  C   UNL A   1      45.717  26.595  29.685  1.00  0.00     0.074 A 
ATOM     58  C   UNL A   1      46.151  25.267  29.307  1.00  0.00     0.031 C 
ATOM     59  C   UNL A   1      46.517  27.525  30.263  1.00  0.00     0.037 A 
BRANCH  46  60
ATOM     60  C   UNL A   1      43.724  32.929  31.391  1.00  0.00     0.058 A 
ATOM     61  C   UNL A   1      44.049  33.999  30.541  1.00  0.00     0.135 A 
ATOM     62  C   UNL A   1      43.469  33.221  32.741  1.00  0.00     0.135 A 
ATOM     63  F   UNL A   1      44.318  33.777  29.245  1.00  0.00    -0.206 F 
ATOM     64  C   UNL A   1      44.147  35.303  31.018  1.00  0.00     0.059 A 
ATOM     65  C   UNL A   1      43.530  34.522  33.232  1.00  0.00     0.059 A 
ATOM     66  F   UNL A   1      43.154  32.237  33.598  1.00  0.00    -0.206 F 
ATOM     67  C   UNL A   1      43.885  35.555  32.365  1.00  0.00     0.060 A 
BRANCH  67  68
ATOM     68  S   UNL A   1      44.012  37.253  32.963  1.00  0.00     0.124 S 
ATOM     69  O   UNL A   1      43.908  38.008  31.717  1.00  0.00    -0.237 OA
ATOM     70  O   UNL A   1      42.867  37.353  33.861  1.00  0.00    -0.237 OA
ATOM     71  O   UNL A   1      45.320  37.290  33.609  1.00  0.00    -0.744 OA
ENDBRANCH  67  68
ENDBRANCH  46  60
BRANCH  47  72
ATOM     72  C   UNL A   1      42.572  23.700  27.707  1.00  0.00     0.058 A 
ATOM     73  C   UNL A   1      42.389  22.588  28.541  1.00  0.00     0.135 A 
ATOM     74  C   UNL A   1      42.603  23.477  26.321  1.00  0.00     0.135 A 
ATOM     75  F   UNL A   1      42.359  22.747  29.873  1.00  0.00    -0.206 F 
ATOM     76  C   UNL A   1      42.265  21.301  28.026  1.00  0.00     0.059 A 
ATOM     77  C   UNL A   1      42.452  22.204  25.780  1.00  0.00     0.059 A 
ATOM     78  F   UNL A   1      42.759  24.510  25.477  1.00  0.00    -0.206 F 
ATOM     79  C   UNL A   1      42.297  21.120  26.642  1.00  0.00     0.060 A 
BRANCH  79  80
ATOM     80  S   UNL A   1      42.098  19.450  25.984  1.00  0.00     0.124 S 
ATOM     81  O   UNL A   1      40.657  19.393  25.763  1.00  0.00    -0.237 OA
ATOM     82  O   UNL A   1      42.927  19.492  24.785  1.00  0.00    -0.237 OA
ATOM     83  O   UNL A   1      42.604  18.603  27.060  1.00  0.00    -0.744 OA
ENDBRANCH  79  80
ENDBRANCH  47  72
BRANCH  59  84
ATOM     84  C   UNL A   1      47.939  27.129  30.560  1.00  0.00     0.058 A 
ATOM     85  C   UNL A   1      48.970  27.317  29.627  1.00  0.00     0.135 A 
ATOM     86  C   UNL A   1      48.281  26.602  31.816  1.00  0.00     0.135 A 
ATOM     87  F   UNL A   1      48.698  27.810  28.408  1.00  0.00    -0.206 F 
ATOM     88  C   UNL A   1      50.286  26.973  29.919  1.00  0.00     0.059 A 
ATOM     89  C   UNL A   1      49.595  26.282  32.141  1.00  0.00     0.059 A 
ATOM     90  F   UNL A   1      47.336  26.412  32.751  1.00  0.00    -0.206 F 
ATOM     91  C   UNL A   1      50.590  26.459  31.181  1.00  0.00     0.060 A 
BRANCH  91  92
ATOM     92  S   UNL A   1      52.307  26.052  31.559  1.00  0.00     0.124 S 
ATOM     93  O   UNL A   1      52.935  26.178  30.249  1.00  0.00    -0.237 OA
ATOM     94  O   UNL A   1      52.663  27.078  32.534  1.00  0.00    -0.237 OA
ATOM     95  O   UNL A   1      52.227  24.694  32.089  1.00  0.00    -0.744 OA
ENDBRANCH  91  92
ENDBRANCH  59  84
ENDBRANCH  33  34
ENDBRANCH  25  28
ENDBRANCH  23  24
ENDBRANCH  22  23
ENDBRANCH   1  22
TORSDOF 18
ENDMDL
MODEL 2
REMARK VINA RESULT:     -10.5      1.060      2.729
REMARK SMILES Cc1ccc(O)c(C[C@H](NC=O)C(=O)NCCCCNC(=O)c2ccc(-c3c4nc(c(-c5c(F)cc(S(=O)(=O)[O-])cc5F)c5ccc([nH]5)c(-c5c(F)cc(S(=O)(=O)[O-])cc5F)c5nc(c(-c6c(F)cc(S(=O)(=O)[O-])cc6F)c6ccc3[nH]6)C=C5)C=C4)cc2)n1
REMARK SMILES IDX 17 1 16 2 15 3 13 4 14 5 9 7 8 8 7 9 1 10 2 11 3 12 89 13
REMARK SMILES IDX 4 14 5 15 6 16 10 18 11 19 12 21 18 22 19 23 20 24 21 25
REMARK SMILES IDX 22 27 23 28 24 29 88 30 25 31 87 32 26 33 27 34 28 35 81 36
REMARK SMILES IDX 29 37 86 38 80 39 82 40 30 41 85 42 79 43 78 44 31 46 65 47
REMARK SMILES IDX 44 48 64 49 45 50 48 51 63 52 83 53 46 54 47 55 62 57 84 58
REMARK SMILES IDX 49 59 32 60 33 61 42 62 34 63 35 64 41 65 43 66 36 67 37 68
REMARK SMILES IDX 38 69 39 70 40 71 66 72 67 73 76 74 68 75 69 76 75 77 77 78
REMARK SMILES IDX 70 79 71 80 72 81 73 82 74 83 50 84 51 85 60 86 52 87 53 88
REMARK SMILES IDX 59 89 61 90 54 91 55 92 56 93 57 94 58 95
REMARK H PARENT 15 6 6 17 10 20 20 26 82 45 48 56
REMARK Flexibility Score: inf
ROOT
ATOM      1  C   UNL A   1      33.301  29.226  24.922  1.00  0.00     0.023 C 
ENDROOT
BRANCH   1   2
ATOM      2  C   UNL A   1      31.922  29.309  24.283  1.00  0.00     0.116 C 
BRANCH   2   3
ATOM      3  N   UNL A   1      31.813  28.465  23.106  1.00  0.00    -0.354 N 
ATOM      4  C   UNL A   1      30.795  27.628  22.738  1.00  0.00     0.242 C 
ATOM      5  O   UNL A   1      30.791  27.178  21.589  1.00  0.00    -0.273 OA
ATOM      6  H   UNL A   1      32.578  28.501  22.486  1.00  0.00     0.163 HD
BRANCH   4   7
ATOM      7  C   UNL A   1      29.696  27.234  23.745  1.00  0.00     0.177 C 
BRANCH   7   8
ATOM      8  C   UNL A   1      29.577  25.727  24.047  1.00  0.00     0.095 C 
BRANCH   8   9
ATOM      9  C   UNL A   1      30.714  25.144  24.847  1.00  0.00     0.085 A 
ATOM     10  C   UNL A   1      34.314  24.785  24.170  1.00  0.00     0.067 C 
ATOM     11  C   UNL A   1      33.002  24.667  24.883  1.00  0.00     0.038 A 
ATOM     12  C   UNL A   1      32.909  24.119  26.153  1.00  0.00     0.027 A 
ATOM     13  N   UNL A   1      31.919  25.139  24.225  1.00  0.00    -0.254 NA
ATOM     14  C   UNL A   1      31.662  24.080  26.775  1.00  0.00     0.050 A 
ATOM     15  C   UNL A   1      30.551  24.606  26.119  1.00  0.00     0.137 A 
BRANCH  15  16
ATOM     16  O   UNL A   1      29.324  24.584  26.712  1.00  0.00    -0.506 OA
ATOM     17  H   UNL A   1      28.929  25.383  27.002  1.00  0.00     0.293 HD
ENDBRANCH  15  16
ENDBRANCH   8   9
ENDBRANCH   7   8
BRANCH   7  18
ATOM     18  N   UNL A   1      28.439  27.820  23.255  1.00  0.00    -0.347 N 
ATOM     19  C   UNL A   1      28.195  29.140  23.065  1.00  0.00     0.337 C 
ATOM     20  H   UNL A   1      27.707  27.195  23.047  1.00  0.00     0.164 HD
ATOM     21  O   UNL A   1      27.118  29.562  22.663  1.00  0.00    -0.279 OA
ENDBRANCH   7  18
ENDBRANCH   4   7
ENDBRANCH   2   3
ENDBRANCH   1   2
BRANCH   1  22
ATOM     22  C   UNL A   1      33.493  28.034  25.858  1.00  0.00     0.023 C 
BRANCH  22  23
ATOM     23  C   UNL A   1      33.434  28.362  27.346  1.00  0.00     0.116 C 
BRANCH  23  24
ATOM     24  N   UNL A   1      33.379  29.794  27.606  1.00  0.00    -0.352 N 
ATOM     25  C   UNL A   1      34.348  30.617  28.127  1.00  0.00     0.251 C 
ATOM     26  H   UNL A   1      32.528  30.233  27.376  1.00  0.00     0.163 HD
ATOM     27  O   UNL A   1      34.076  31.775  28.431  1.00  0.00    -0.269 OA
BRANCH  25  28
ATOM     28  C   UNL A   1      35.712  30.091  28.342  1.00  0.00     0.039 A 
ATOM     29  C   UNL A   1      36.611  30.081  27.273  1.00  0.00     0.014 A 
ATOM     30  C   UNL A   1      36.111  29.637  29.602  1.00  0.00     0.014 A 
ATOM     31  C   UNL A   1      37.933  29.683  27.487  1.00  0.00     0.010 A 
ATOM     32  C   UNL A   1      37.445  29.318  29.831  1.00  0.00     0.010 A 
ATOM     33  C   UNL A   1      38.371  29.338  28.777  1.00  0.00    -0.014 A 
BRANCH  33  34
ATOM     34  C   UNL A   1      39.796  29.006  29.043  1.00  0.00     0.031 A 
ATOM     35  C   UNL A   1      40.722  30.047  29.612  1.00  0.00     0.074 A 
ATOM     36  C   UNL A   1      40.269  27.786  28.716  1.00  0.00     0.049 A 
ATOM     37  N   UNL A   1      42.004  29.965  29.857  1.00  0.00    -0.248 NA
ATOM     38  C   UNL A   1      40.135  31.360  29.925  1.00  0.00     0.031 C 
ATOM     39  C   UNL A   1      39.482  26.706  28.113  1.00  0.00     0.029 A 
ATOM     40  N   UNL A   1      41.526  27.248  28.836  1.00  0.00    -0.354 N 
ATOM     41  C   UNL A   1      42.379  31.211  30.344  1.00  0.00     0.074 A 
ATOM     42  C   UNL A   1      41.201  32.050  30.303  1.00  0.00     0.031 C 
ATOM     43  C   UNL A   1      40.267  25.631  27.943  1.00  0.00     0.029 A 
ATOM     44  C   UNL A   1      41.621  25.953  28.381  1.00  0.00     0.049 A 
ATOM     45  H   UNL A   1      42.290  27.744  29.212  1.00  0.00     0.167 HD
ATOM     46  C   UNL A   1      43.586  31.614  30.807  1.00  0.00     0.037 A 
ATOM     47  C   UNL A   1      42.681  25.123  28.315  1.00  0.00     0.037 A 
ATOM     48  C   UNL A   1      44.750  30.768  30.860  1.00  0.00     0.049 A 
ATOM     49  C   UNL A   1      44.018  25.601  28.816  1.00  0.00     0.074 A 
ATOM     50  C   UNL A   1      46.007  31.065  31.358  1.00  0.00     0.029 A 
ATOM     51  N   UNL A   1      44.805  29.460  30.398  1.00  0.00    -0.354 N 
ATOM     52  N   UNL A   1      44.338  26.763  29.334  1.00  0.00    -0.248 NA
ATOM     53  C   UNL A   1      45.137  24.653  28.730  1.00  0.00     0.031 C 
ATOM     54  C   UNL A   1      46.835  29.958  31.149  1.00  0.00     0.029 A 
ATOM     55  C   UNL A   1      46.080  28.948  30.575  1.00  0.00     0.049 A 
ATOM     56  H   UNL A   1      44.048  28.970  30.001  1.00  0.00     0.167 HD
ATOM     57  C   UNL A   1      45.686  26.675  29.662  1.00  0.00     0.074 A 
ATOM     58  C   UNL A   1      46.117  25.342  29.297  1.00  0.00     0.031 C 
ATOM     59  C   UNL A   1      46.493  27.614  30.215  1.00  0.00     0.037 A 
BRANCH  46  60
ATOM     60  C   UNL A   1      43.710  33.031  31.299  1.00  0.00     0.058 A 
ATOM     61  C   UNL A   1      43.523  33.361  32.652  1.00  0.00     0.135 A 
ATOM     62  C   UNL A   1      44.059  34.067  30.418  1.00  0.00     0.135 A 
ATOM     63  F   UNL A   1      43.173  32.415  33.538  1.00  0.00    -0.206 F 
ATOM     64  C   UNL A   1      43.648  34.670  33.106  1.00  0.00     0.059 A 
ATOM     65  C   UNL A   1      44.220  35.378  30.855  1.00  0.00     0.059 A 
ATOM     66  F   UNL A   1      44.249  33.809  29.114  1.00  0.00    -0.206 F 
ATOM     67  C   UNL A   1      43.998  35.672  32.201  1.00  0.00     0.060 A 
BRANCH  67  68
ATOM     68  S   UNL A   1      44.161  37.363  32.809  1.00  0.00     0.124 S 
ATOM     69  O   UNL A   1      44.073  38.128  31.568  1.00  0.00    -0.237 OA
ATOM     70  O   UNL A   1      43.018  37.482  33.709  1.00  0.00    -0.237 OA
ATOM     71  O   UNL A   1      45.469  37.368  33.456  1.00  0.00    -0.744 OA
ENDBRANCH  67  68
ENDBRANCH  46  60
BRANCH  47  72
ATOM     72  C   UNL A   1      42.519  23.747  27.769  1.00  0.00     0.058 A 
ATOM     73  C   UNL A   1      42.451  23.522  26.387  1.00  0.00     0.135 A 
ATOM     74  C   UNL A   1      42.428  22.632  28.617  1.00  0.00     0.135 A 
ATOM     75  F   UNL A   1      42.526  24.556  25.535  1.00  0.00    -0.206 F 
ATOM     76  C   UNL A   1      42.276  22.245  25.863  1.00  0.00     0.059 A 
ATOM     77  C   UNL A   1      42.282  21.342  28.116  1.00  0.00     0.059 A 
ATOM     78  F   UNL A   1      42.503  22.790  29.948  1.00  0.00    -0.206 F 
ATOM     79  C   UNL A   1      42.194  21.160  26.737  1.00  0.00     0.060 A 
BRANCH  79  80
ATOM     80  S   UNL A   1      42.005  19.503  26.044  1.00  0.00     0.124 S 
ATOM     81  O   UNL A   1      42.444  18.668  27.156  1.00  0.00    -0.237 OA
ATOM     82  O   UNL A   1      40.580  19.461  25.736  1.00  0.00    -0.237 OA
ATOM     83  O   UNL A   1      42.891  19.523  24.883  1.00  0.00    -0.744 OA
ENDBRANCH  79  80
ENDBRANCH  47  72
BRANCH  59  84
ATOM     84  C   UNL A   1      47.920  27.224  30.498  1.00  0.00     0.058 A 
ATOM     85  C   UNL A   1      48.935  27.384  29.542  1.00  0.00     0.135 A 
ATOM     86  C   UNL A   1      48.283  26.730  31.762  1.00  0.00     0.135 A 
ATOM     87  F   UNL A   1      48.643  27.845  28.315  1.00  0.00    -0.206 F 
ATOM     88  C   UNL A   1      50.255  27.047  29.822  1.00  0.00     0.059 A 
ATOM     89  C   UNL A   1      49.602  26.417  32.073  1.00  0.00     0.059 A 
ATOM     90  F   UNL A   1      47.354  26.568  32.717  1.00  0.00    -0.206 F 
ATOM     91  C   UNL A   1      50.580  26.567  31.092  1.00  0.00     0.060 A 
BRANCH  91  92
ATOM     92  S   UNL A   1      52.303  26.167  31.451  1.00  0.00     0.124 S 
ATOM     93  O   UNL A   1      52.932  26.380  30.153  1.00  0.00    -0.237 OA
ATOM     94  O   UNL A   1      52.639  27.141  32.486  1.00  0.00    -0.237 OA
ATOM     95  O   UNL A   1      52.245  24.780  31.902  1.00  0.00    -0.744 OA
ENDBRANCH  91  92
ENDBRANCH  59  84
ENDBRANCH  33  34
ENDBRANCH  25  28
ENDBRANCH  23  24
ENDBRANCH  22  23
ENDBRANCH   1  22
TORSDOF 18
ENDMDL
MODEL 3
REMARK VINA RESULT:     -10.5      4.814     10.325
REMARK SMILES Cc1ccc(O)c(C[C@H](NC=O)C(=O)NCCCCNC(=O)c2ccc(-c3c4nc(c(-c5c(F)cc(S(=O)(=O)[O-])cc5F)c5ccc([nH]5)c(-c5c(F)cc(S(=O)(=O)[O-])cc5F)c5nc(c(-c6c(F)cc(S(=O)(=O)[O-])cc6F)c6ccc3[nH]6)C=C5)C=C4)cc2)n1
REMARK SMILES IDX 17 1 16 2 15 3 13 4 14 5 9 7 8 8 7 9 1 10 2 11 3 12 89 13
REMARK SMILES IDX 4 14 5 15 6 16 10 18 11 19 12 21 18 22 19 23 20 24 21 25
REMARK SMILES IDX 22 27 23 28 24 29 88 30 25 31 87 32 26 33 27 34 28 35 81 36
REMARK SMILES IDX 29 37 86 38 80 39 82 40 30 41 85 42 79 43 78 44 31 46 65 47
REMARK SMILES IDX 44 48 64 49 45 50 48 51 63 52 83 53 46 54 47 55 62 57 84 58
REMARK SMILES IDX 49 59 32 60 33 61 42 62 34 63 35 64 41 65 43 66 36 67 37 68
REMARK SMILES IDX 38 69 39 70 40 71 66 72 67 73 76 74 68 75 69 76 75 77 77 78
REMARK SMILES IDX 70 79 71 80 72 81 73 82 74 83 50 84 51 85 60 86 52 87 53 88
REMARK SMILES IDX 59 89 61 90 54 91 55 92 56 93 57 94 58 95
REMARK H PARENT 15 6 6 17 10 20 20 26 82 45 48 56
REMARK Flexibility Score: inf
ROOT
ATOM      1  C   UNL A   1      36.692  23.258  24.767  1.00  0.00     0.023 C 
ENDROOT
BRANCH   1   2
ATOM      2  C   UNL A   1      35.247  22.812  24.944  1.00  0.00     0.116 C 
BRANCH   2   3
ATOM      3  N   UNL A   1      34.802  22.937  26.321  1.00  0.00    -0.354 N 
ATOM      4  C   UNL A   1      33.571  22.668  26.855  1.00  0.00     0.242 C 
ATOM      5  O   UNL A   1      33.461  22.617  28.083  1.00  0.00    -0.273 OA
ATOM      6  H   UNL A   1      35.480  23.259  26.960  1.00  0.00     0.163 HD
BRANCH   4   7
ATOM      7  C   UNL A   1      32.344  22.465  25.943  1.00  0.00     0.177 C 
BRANCH   7   8
ATOM      8  C   UNL A   1      31.074  23.237  26.351  1.00  0.00     0.095 C 
BRANCH   8   9
ATOM      9  C   UNL A   1      30.996  24.654  25.842  1.00  0.00     0.085 A 
ATOM     10  C   UNL A   1      31.779  27.905  27.382  1.00  0.00     0.067 C 
ATOM     11  C   UNL A   1      31.313  26.911  26.362  1.00  0.00     0.038 A 
ATOM     12  C   UNL A   1      30.915  27.301  25.093  1.00  0.00     0.027 A 
ATOM     13  N   UNL A   1      31.320  25.614  26.743  1.00  0.00    -0.254 NA
ATOM     14  C   UNL A   1      30.535  26.318  24.180  1.00  0.00     0.050 A 
ATOM     15  C   UNL A   1      30.584  24.978  24.554  1.00  0.00     0.137 A 
BRANCH  15  16
ATOM     16  O   UNL A   1      30.224  24.001  23.674  1.00  0.00    -0.506 OA
ATOM     17  H   UNL A   1      29.318  23.827  23.512  1.00  0.00     0.293 HD
ENDBRANCH  15  16
ENDBRANCH   8   9
ENDBRANCH   7   8
BRANCH   7  18
ATOM     18  N   UNL A   1      32.123  21.014  25.843  1.00  0.00    -0.347 N 
ATOM     19  C   UNL A   1      32.460  20.226  24.794  1.00  0.00     0.337 C 
ATOM     20  H   UNL A   1      31.689  20.575  26.611  1.00  0.00     0.164 HD
ATOM     21  O   UNL A   1      32.238  19.022  24.772  1.00  0.00    -0.279 OA
ENDBRANCH   7  18
ENDBRANCH   4   7
ENDBRANCH   2   3
ENDBRANCH   1   2
BRANCH   1  22
ATOM     22  C   UNL A   1      37.596  22.961  25.962  1.00  0.00     0.023 C 
BRANCH  22  23
ATOM     23  C   UNL A   1      38.431  24.139  26.452  1.00  0.00     0.116 C 
BRANCH  23  24
ATOM     24  N   UNL A   1      39.852  23.975  26.181  1.00  0.00    -0.352 N 
ATOM     25  C   UNL A   1      40.908  24.752  26.595  1.00  0.00     0.251 C 
ATOM     26  H   UNL A   1      40.089  23.199  25.624  1.00  0.00     0.163 HD
ATOM     27  O   UNL A   1      42.031  24.560  26.138  1.00  0.00    -0.269 OA
BRANCH  25  28
ATOM     28  C   UNL A   1      40.676  25.835  27.573  1.00  0.00     0.039 A 
ATOM     29  C   UNL A   1      39.694  25.665  28.552  1.00  0.00     0.014 A 
ATOM     30  C   UNL A   1      41.445  27.001  27.540  1.00  0.00     0.014 A 
ATOM     31  C   UNL A   1      39.536  26.636  29.544  1.00  0.00     0.010 A 
ATOM     32  C   UNL A   1      41.340  27.927  28.573  1.00  0.00     0.010 A 
ATOM     33  C   UNL A   1      40.386  27.755  29.587  1.00  0.00    -0.014 A 
BRANCH  33  34
ATOM     34  C   UNL A   1      40.296  28.748  30.690  1.00  0.00     0.031 A 
ATOM     35  C   UNL A   1      41.173  28.610  31.904  1.00  0.00     0.074 A 
ATOM     36  C   UNL A   1      39.383  29.738  30.623  1.00  0.00     0.049 A 
ATOM     37  N   UNL A   1      41.199  29.340  32.990  1.00  0.00    -0.248 NA
ATOM     38  C   UNL A   1      42.131  27.493  31.911  1.00  0.00     0.031 C 
ATOM     39  C   UNL A   1      38.442  29.950  29.519  1.00  0.00     0.029 A 
ATOM     40  N   UNL A   1      39.089  30.749  31.504  1.00  0.00    -0.354 N 
ATOM     41  C   UNL A   1      42.165  28.768  33.809  1.00  0.00     0.074 A 
ATOM     42  C   UNL A   1      42.660  27.596  33.121  1.00  0.00     0.031 C 
ATOM     43  C   UNL A   1      37.697  31.036  29.777  1.00  0.00     0.029 A 
ATOM     44  C   UNL A   1      38.073  31.575  31.080  1.00  0.00     0.049 A 
ATOM     45  H   UNL A   1      39.561  30.872  32.359  1.00  0.00     0.167 HD
ATOM     46  C   UNL A   1      42.618  29.194  35.013  1.00  0.00     0.037 A 
ATOM     47  C   UNL A   1      37.502  32.640  31.678  1.00  0.00     0.037 A 
ATOM     48  C   UNL A   1      42.132  30.372  35.684  1.00  0.00     0.049 A 
ATOM     49  C   UNL A   1      38.008  33.081  33.026  1.00  0.00     0.074 A 
ATOM     50  C   UNL A   1      42.560  30.916  36.882  1.00  0.00     0.029 A 
ATOM     51  N   UNL A   1      41.109  31.186  35.220  1.00  0.00    -0.354 N 
ATOM     52  N   UNL A   1      38.968  32.566  33.756  1.00  0.00    -0.248 NA
ATOM     53  C   UNL A   1      37.358  34.252  33.628  1.00  0.00     0.031 C 
ATOM     54  C   UNL A   1      41.762  32.028  37.169  1.00  0.00     0.029 A 
ATOM     55  C   UNL A   1      40.874  32.213  36.121  1.00  0.00     0.049 A 
ATOM     56  H   UNL A   1      40.620  31.053  34.375  1.00  0.00     0.167 HD
ATOM     57  C   UNL A   1      39.056  33.367  34.889  1.00  0.00     0.074 A 
ATOM     58  C   UNL A   1      38.063  34.409  34.740  1.00  0.00     0.031 C 
ATOM     59  C   UNL A   1      39.886  33.250  35.956  1.00  0.00     0.037 A 
BRANCH  46  60
ATOM     60  C   UNL A   1      43.698  28.385  35.680  1.00  0.00     0.058 A 
ATOM     61  C   UNL A   1      45.060  28.623  35.428  1.00  0.00     0.135 A 
ATOM     62  C   UNL A   1      43.372  27.389  36.614  1.00  0.00     0.135 A 
ATOM     63  F   UNL A   1      45.430  29.553  34.533  1.00  0.00    -0.206 F 
ATOM     64  C   UNL A   1      46.056  27.881  36.053  1.00  0.00     0.059 A 
ATOM     65  C   UNL A   1      44.353  26.656  37.275  1.00  0.00     0.059 A 
ATOM     66  F   UNL A   1      42.087  27.119  36.894  1.00  0.00    -0.206 F 
ATOM     67  C   UNL A   1      45.694  26.900  36.977  1.00  0.00     0.060 A 
BRANCH  67  68
ATOM     68  S   UNL A   1      47.001  25.952  37.783  1.00  0.00     0.124 S 
ATOM     69  O   UNL A   1      47.838  27.017  38.328  1.00  0.00    -0.237 OA
ATOM     70  O   UNL A   1      46.257  25.166  38.762  1.00  0.00    -0.237 OA
ATOM     71  O   UNL A   1      47.593  25.189  36.688  1.00  0.00    -0.744 OA
ENDBRANCH  67  68
ENDBRANCH  46  60
BRANCH  47  72
ATOM     72  C   UNL A   1      36.399  33.375  31.000  1.00  0.00     0.058 A 
ATOM     73  C   UNL A   1      36.650  34.183  29.882  1.00  0.00     0.135 A 
ATOM     74  C   UNL A   1      35.074  33.285  31.455  1.00  0.00     0.135 A 
ATOM     75  F   UNL A   1      37.901  34.308  29.413  1.00  0.00    -0.206 F 
ATOM     76  C   UNL A   1      35.634  34.895  29.252  1.00  0.00     0.059 A 
ATOM     77  C   UNL A   1      34.035  33.963  30.825  1.00  0.00     0.059 A 
ATOM     78  F   UNL A   1      34.776  32.512  32.512  1.00  0.00    -0.206 F 
ATOM     79  C   UNL A   1      34.328  34.776  29.731  1.00  0.00     0.060 A 
BRANCH  79  80
ATOM     80  S   UNL A   1      33.012  35.675  28.882  1.00  0.00     0.124 S 
ATOM     81  O   UNL A   1      32.241  36.195  30.006  1.00  0.00    -0.237 OA
ATOM     82  O   UNL A   1      33.761  36.660  28.110  1.00  0.00    -0.237 OA
ATOM     83  O   UNL A   1      32.353  34.638  28.093  1.00  0.00    -0.744 OA
ENDBRANCH  79  80
ENDBRANCH  47  72
BRANCH  59  84
ATOM     84  C   UNL A   1      39.784  34.297  37.033  1.00  0.00     0.058 A 
ATOM     85  C   UNL A   1      39.057  34.077  38.213  1.00  0.00     0.135 A 
ATOM     86  C   UNL A   1      40.468  35.517  36.903  1.00  0.00     0.135 A 
ATOM     87  F   UNL A   1      38.379  32.931  38.386  1.00  0.00    -0.206 F 
ATOM     88  C   UNL A   1      38.991  35.039  39.215  1.00  0.00     0.059 A 
ATOM     89  C   UNL A   1      40.442  36.479  37.907  1.00  0.00     0.059 A 
ATOM     90  F   UNL A   1      41.188  35.775  35.801  1.00  0.00    -0.206 F 
ATOM     91  C   UNL A   1      39.690  36.237  39.055  1.00  0.00     0.060 A 
BRANCH  91  92
ATOM     92  S   UNL A   1      39.624  37.461  40.380  1.00  0.00     0.124 S 
ATOM     93  O   UNL A   1      38.364  38.137  40.094  1.00  0.00    -0.237 OA
ATOM     94  O   UNL A   1      39.637  36.625  41.576  1.00  0.00    -0.237 OA
ATOM     95  O   UNL A   1      40.828  38.259  40.167  1.00  0.00    -0.744 OA
ENDBRANCH  91  92
ENDBRANCH  59  84
ENDBRANCH  33  34
ENDBRANCH  25  28
ENDBRANCH  23  24
ENDBRANCH  22  23
ENDBRANCH   1  22
TORSDOF 18
ENDMDL
