MODEL 1
REMARK VINA RESULT:     -12.1      0.000      0.000
REMARK SMILES Cc1nc(CCNc2nccc(-c3cc(C(=O)NCCCCNC(=O)c4ccc(-c5c6nc(c(-c7c(F)cc(S(=O)(=O)[O-])cc7F)c7ccc([nH]7)c(-c7c(F)cc(S(=O)(=O)[O-])cc7F)c7nc(c(-c8c(F)cc(S(=O)(=O)[O-])cc8F)c8ccc5[nH]8)C=C7)C=C6)cc4)ccn3)n2)cc(=O)[nH]1
REMARK SMILES IDX 19 1 18 2 16 3 17 4 15 6 13 7 14 8 94 9 93 10 92 11 12 12
REMARK SMILES IDX 8 13 9 14 95 15 10 16 11 17 7 18 6 20 5 21 4 22 1 23 2 24
REMARK SMILES IDX 3 25 99 26 97 27 96 29 98 30 20 31 21 32 22 33 23 34 24 35
REMARK SMILES IDX 25 37 26 38 27 39 91 40 28 41 90 42 29 43 30 44 31 45 84 46
REMARK SMILES IDX 32 47 89 48 83 49 85 50 33 51 88 52 82 53 81 54 34 56 68 57
REMARK SMILES IDX 47 58 67 59 48 60 51 61 66 62 86 63 49 64 50 65 65 67 87 68
REMARK SMILES IDX 52 69 35 70 36 71 45 72 37 73 38 74 44 75 46 76 39 77 40 78
REMARK SMILES IDX 41 79 42 80 43 81 69 82 70 83 79 84 71 85 72 86 78 87 80 88
REMARK SMILES IDX 73 89 74 90 75 91 76 92 77 93 53 94 54 95 63 96 55 97 56 98
REMARK SMILES IDX 62 99 64 100 57 101 58 102 59 103 60 104 61 105
REMARK H PARENT 18 5 7 19 99 28 23 36 85 55 51 66
REMARK Flexibility Score: inf
ROOT
ATOM      1  C   UNL A   1      32.219  29.059  23.834  1.00  0.00     0.116 C 
ENDROOT
BRANCH   1   2
ATOM      2  N   UNL A   1      31.154  28.126  24.152  1.00  0.00    -0.352 N 
ATOM      3  C   UNL A   1      30.950  26.803  23.849  1.00  0.00     0.251 C 
ATOM      4  O   UNL A   1      29.935  26.264  24.289  1.00  0.00    -0.269 OA
ATOM      5  H   UNL A   1      30.432  28.521  24.692  1.00  0.00     0.163 HD
BRANCH   3   6
ATOM      6  C   UNL A   1      31.920  25.976  23.084  1.00  0.00     0.043 A 
ATOM      7  C   UNL A   1      33.647  24.331  22.867  1.00  0.00     0.090 A 
ATOM      8  C   UNL A   1      32.913  25.198  23.665  1.00  0.00     0.044 A 
ATOM      9  N   UNL A   1      33.516  24.294  21.519  1.00  0.00    -0.255 NA
ATOM     10  C   UNL A   1      32.638  25.150  20.959  1.00  0.00     0.112 A 
ATOM     11  C   UNL A   1      31.813  25.982  21.691  1.00  0.00     0.034 A 
BRANCH   7  12
ATOM     12  C   UNL A   1      34.529  23.338  23.481  1.00  0.00     0.094 A 
ATOM     13  C   UNL A   1      34.747  21.596  24.938  1.00  0.00     0.223 A 
ATOM     14  N   UNL A   1      36.070  21.509  24.742  1.00  0.00    -0.222 NA
ATOM     15  N   UNL A   1      33.944  22.453  24.311  1.00  0.00    -0.211 NA
ATOM     16  C   UNL A   1      36.608  22.350  23.845  1.00  0.00     0.117 A 
ATOM     17  C   UNL A   1      35.880  23.308  23.189  1.00  0.00     0.051 A 
BRANCH  13  18
ATOM     18  N   UNL A   1      34.234  20.766  25.895  1.00  0.00    -0.354 N 
ATOM     19  H   UNL A   1      34.834  20.353  26.557  1.00  0.00     0.163 HD
BRANCH  18  20
ATOM     20  C   UNL A   1      32.813  20.487  25.939  1.00  0.00     0.122 C 
BRANCH  20  21
ATOM     21  C   UNL A   1      32.328  19.874  24.611  1.00  0.00     0.077 C 
BRANCH  21  22
ATOM     22  C   UNL A   1      32.687  18.407  24.467  1.00  0.00     0.050 A 
ATOM     23  C   UNL A   1      32.050  15.329  26.391  1.00  0.00     0.087 C 
ATOM     24  C   UNL A   1      32.548  16.322  25.384  1.00  0.00     0.105 A 
ATOM     25  N   UNL A   1      32.235  17.575  25.468  1.00  0.00    -0.240 NA
ATOM     26  N   UNL A   1      33.335  15.803  24.396  1.00  0.00    -0.311 N 
ATOM     27  C   UNL A   1      33.816  16.570  23.380  1.00  0.00     0.251 A 
ATOM     28  H   UNL A   1      33.560  14.845  24.419  1.00  0.00     0.171 HD
ATOM     29  C   UNL A   1      33.381  17.971  23.403  1.00  0.00     0.095 A 
ATOM     30  O   UNL A   1      34.570  16.142  22.520  1.00  0.00    -0.270 OA
ENDBRANCH  21  22
ENDBRANCH  20  21
ENDBRANCH  18  20
ENDBRANCH  13  18
ENDBRANCH   7  12
ENDBRANCH   3   6
ENDBRANCH   1   2
BRANCH   1  31
ATOM     31  C   UNL A   1      32.985  29.453  25.100  1.00  0.00     0.023 C 
BRANCH  31  32
ATOM     32  C   UNL A   1      33.533  28.259  25.883  1.00  0.00     0.023 C 
BRANCH  32  33
ATOM     33  C   UNL A   1      33.664  28.487  27.386  1.00  0.00     0.116 C 
BRANCH  33  34
ATOM     34  N   UNL A   1      33.610  29.894  27.758  1.00  0.00    -0.352 N 
ATOM     35  C   UNL A   1      34.605  30.667  28.309  1.00  0.00     0.251 C 
ATOM     36  H   UNL A   1      32.752  30.349  27.597  1.00  0.00     0.163 HD
ATOM     37  O   UNL A   1      34.368  31.812  28.678  1.00  0.00    -0.269 OA
BRANCH  35  38
ATOM     38  C   UNL A   1      35.949  30.079  28.485  1.00  0.00     0.039 A 
ATOM     39  C   UNL A   1      36.855  30.135  27.424  1.00  0.00     0.014 A 
ATOM     40  C   UNL A   1      36.328  29.539  29.717  1.00  0.00     0.014 A 
ATOM     41  C   UNL A   1      38.171  29.717  27.624  1.00  0.00     0.010 A 
ATOM     42  C   UNL A   1      37.657  29.193  29.934  1.00  0.00     0.010 A 
ATOM     43  C   UNL A   1      38.593  29.285  28.893  1.00  0.00    -0.014 A 
BRANCH  43  44
ATOM     44  C   UNL A   1      40.014  28.950  29.161  1.00  0.00     0.031 A 
ATOM     45  C   UNL A   1      40.941  29.992  29.724  1.00  0.00     0.074 A 
ATOM     46  C   UNL A   1      40.485  27.732  28.827  1.00  0.00     0.049 A 
ATOM     47  N   UNL A   1      42.227  29.919  29.947  1.00  0.00    -0.248 NA
ATOM     48  C   UNL A   1      40.348  31.298  30.057  1.00  0.00     0.031 C 
ATOM     49  C   UNL A   1      39.693  26.653  28.231  1.00  0.00     0.029 A 
ATOM     50  N   UNL A   1      41.746  27.199  28.925  1.00  0.00    -0.354 N 
ATOM     51  C   UNL A   1      42.599  31.165  30.434  1.00  0.00     0.074 A 
ATOM     52  C   UNL A   1      41.413  31.994  30.423  1.00  0.00     0.031 C 
ATOM     53  C   UNL A   1      40.481  25.583  28.035  1.00  0.00     0.029 A 
ATOM     54  C   UNL A   1      41.841  25.913  28.447  1.00  0.00     0.049 A 
ATOM     55  H   UNL A   1      42.511  27.691  29.302  1.00  0.00     0.167 HD
ATOM     56  C   UNL A   1      43.814  31.574  30.871  1.00  0.00     0.037 A 
ATOM     57  C   UNL A   1      42.908  25.095  28.338  1.00  0.00     0.037 A 
ATOM     58  C   UNL A   1      44.986  30.737  30.892  1.00  0.00     0.049 A 
ATOM     59  C   UNL A   1      44.252  25.582  28.806  1.00  0.00     0.074 A 
ATOM     60  C   UNL A   1      46.249  31.037  31.370  1.00  0.00     0.029 A 
ATOM     61  N   UNL A   1      45.042  29.437  30.406  1.00  0.00    -0.354 N 
ATOM     62  N   UNL A   1      44.571  26.741  29.332  1.00  0.00    -0.248 NA
ATOM     63  C   UNL A   1      45.381  24.651  28.669  1.00  0.00     0.031 C 
ATOM     64  C   UNL A   1      47.082  29.943  31.121  1.00  0.00     0.029 A 
ATOM     65  C   UNL A   1      46.326  28.936  30.543  1.00  0.00     0.049 A 
ATOM     66  H   UNL A   1      44.281  28.945  30.021  1.00  0.00     0.167 HD
ATOM     67  C   UNL A   1      45.933  26.671  29.607  1.00  0.00     0.074 A 
ATOM     68  C   UNL A   1      46.371  25.349  29.210  1.00  0.00     0.031 C 
ATOM     69  C   UNL A   1      46.748  27.616  30.139  1.00  0.00     0.037 A 
BRANCH  56  70
ATOM     70  C   UNL A   1      43.941  32.991  31.363  1.00  0.00     0.058 A 
ATOM     71  C   UNL A   1      43.796  33.318  32.721  1.00  0.00     0.135 A 
ATOM     72  C   UNL A   1      44.249  34.032  30.471  1.00  0.00     0.135 A 
ATOM     73  F   UNL A   1      43.485  32.368  33.616  1.00  0.00    -0.206 F 
ATOM     74  C   UNL A   1      43.922  34.628  33.172  1.00  0.00     0.059 A 
ATOM     75  C   UNL A   1      44.413  35.344  30.905  1.00  0.00     0.059 A 
ATOM     76  F   UNL A   1      44.398  33.777  29.160  1.00  0.00    -0.206 F 
ATOM     77  C   UNL A   1      44.234  35.634  32.256  1.00  0.00     0.060 A 
BRANCH  77  78
ATOM     78  S   UNL A   1      44.403  37.326  32.862  1.00  0.00     0.124 S 
ATOM     79  O   UNL A   1      45.806  37.352  33.264  1.00  0.00    -0.237 OA
ATOM     80  O   UNL A   1      44.068  38.115  31.681  1.00  0.00    -0.237 OA
ATOM     81  O   UNL A   1      43.438  37.396  33.954  1.00  0.00    -0.744 OA
ENDBRANCH  77  78
ENDBRANCH  56  70
BRANCH  57  82
ATOM     82  C   UNL A   1      42.745  23.732  27.765  1.00  0.00     0.058 A 
ATOM     83  C   UNL A   1      42.852  23.509  26.385  1.00  0.00     0.135 A 
ATOM     84  C   UNL A   1      42.487  22.621  28.585  1.00  0.00     0.135 A 
ATOM     85  F   UNL A   1      43.090  24.539  25.557  1.00  0.00    -0.206 F 
ATOM     86  C   UNL A   1      42.694  22.242  25.834  1.00  0.00     0.059 A 
ATOM     87  C   UNL A   1      42.354  21.338  28.063  1.00  0.00     0.059 A 
ATOM     88  F   UNL A   1      42.390  22.775  29.915  1.00  0.00    -0.206 F 
ATOM     89  C   UNL A   1      42.449  21.160  26.683  1.00  0.00     0.060 A 
BRANCH  89  90
ATOM     90  S   UNL A   1      42.294  19.512  25.963  1.00  0.00     0.124 S 
ATOM     91  O   UNL A   1      40.858  19.432  25.718  1.00  0.00    -0.237 OA
ATOM     92  O   UNL A   1      43.140  19.617  24.778  1.00  0.00    -0.237 OA
ATOM     93  O   UNL A   1      42.804  18.637  27.013  1.00  0.00    -0.744 OA
ENDBRANCH  89  90
ENDBRANCH  57  82
BRANCH  69  94
ATOM     94  C   UNL A   1      48.194  27.251  30.340  1.00  0.00     0.058 A 
ATOM     95  C   UNL A   1      49.146  27.424  29.325  1.00  0.00     0.135 A 
ATOM     96  C   UNL A   1      48.641  26.771  31.583  1.00  0.00     0.135 A 
ATOM     97  F   UNL A   1      48.772  27.872  28.115  1.00  0.00    -0.206 F 
ATOM     98  C   UNL A   1      50.487  27.112  29.525  1.00  0.00     0.059 A 
ATOM     99  C   UNL A   1      49.982  26.483  31.815  1.00  0.00     0.059 A 
ATOM    100  F   UNL A   1      47.774  26.597  32.593  1.00  0.00    -0.206 F 
ATOM    101  C   UNL A   1      50.896  26.646  30.775  1.00  0.00     0.060 A 
BRANCH 101 102
ATOM    102  S   UNL A   1      52.646  26.282  31.031  1.00  0.00     0.124 S 
ATOM    103  O   UNL A   1      53.050  27.376  31.909  1.00  0.00    -0.237 OA
ATOM    104  O   UNL A   1      52.601  24.959  31.646  1.00  0.00    -0.237 OA
ATOM    105  O   UNL A   1      53.203  26.321  29.682  1.00  0.00    -0.744 OA
ENDBRANCH 101 102
ENDBRANCH  69  94
ENDBRANCH  43  44
ENDBRANCH  35  38
ENDBRANCH  33  34
ENDBRANCH  32  33
ENDBRANCH  31  32
ENDBRANCH   1  31
TORSDOF 19
ENDMDL
MODEL 2
REMARK VINA RESULT:     -11.8      2.814      3.772
REMARK SMILES Cc1nc(CCNc2nccc(-c3cc(C(=O)NCCCCNC(=O)c4ccc(-c5c6nc(c(-c7c(F)cc(S(=O)(=O)[O-])cc7F)c7ccc([nH]7)c(-c7c(F)cc(S(=O)(=O)[O-])cc7F)c7nc(c(-c8c(F)cc(S(=O)(=O)[O-])cc8F)c8ccc5[nH]8)C=C7)C=C6)cc4)ccn3)n2)cc(=O)[nH]1
REMARK SMILES IDX 19 1 18 2 16 3 17 4 15 6 13 7 14 8 94 9 93 10 92 11 12 12
REMARK SMILES IDX 8 13 9 14 95 15 10 16 11 17 7 18 6 20 5 21 4 22 1 23 2 24
REMARK SMILES IDX 3 25 99 26 97 27 96 29 98 30 20 31 21 32 22 33 23 34 24 35
REMARK SMILES IDX 25 37 26 38 27 39 91 40 28 41 90 42 29 43 30 44 31 45 84 46
REMARK SMILES IDX 32 47 89 48 83 49 85 50 33 51 88 52 82 53 81 54 34 56 68 57
REMARK SMILES IDX 47 58 67 59 48 60 51 61 66 62 86 63 49 64 50 65 65 67 87 68
REMARK SMILES IDX 52 69 35 70 36 71 45 72 37 73 38 74 44 75 46 76 39 77 40 78
REMARK SMILES IDX 41 79 42 80 43 81 69 82 70 83 79 84 71 85 72 86 78 87 80 88
REMARK SMILES IDX 73 89 74 90 75 91 76 92 77 93 53 94 54 95 63 96 55 97 56 98
REMARK SMILES IDX 62 99 64 100 57 101 58 102 59 103 60 104 61 105
REMARK H PARENT 18 5 7 19 99 28 23 36 85 55 51 66
REMARK Flexibility Score: inf
ROOT
ATOM      1  C   UNL A   1      32.470  30.073  26.232  1.00  0.00     0.116 C 
ENDROOT
BRANCH   1   2
ATOM      2  N   UNL A   1      32.974  29.866  24.887  1.00  0.00    -0.352 N 
ATOM      3  C   UNL A   1      32.943  28.793  24.033  1.00  0.00     0.251 C 
ATOM      4  O   UNL A   1      33.451  28.930  22.920  1.00  0.00    -0.269 OA
ATOM      5  H   UNL A   1      33.432  30.652  24.513  1.00  0.00     0.163 HD
BRANCH   3   6
ATOM      6  C   UNL A   1      32.268  27.507  24.353  1.00  0.00     0.043 A 
ATOM      7  C   UNL A   1      32.133  25.338  25.358  1.00  0.00     0.090 A 
ATOM      8  C   UNL A   1      32.898  26.420  24.945  1.00  0.00     0.044 A 
ATOM      9  N   UNL A   1      30.805  25.244  25.105  1.00  0.00    -0.255 NA
ATOM     10  C   UNL A   1      30.235  26.252  24.414  1.00  0.00     0.112 A 
ATOM     11  C   UNL A   1      30.910  27.398  24.041  1.00  0.00     0.034 A 
BRANCH   7  12
ATOM     12  C   UNL A   1      32.729  24.292  26.189  1.00  0.00     0.094 A 
ATOM     13  C   UNL A   1      34.613  23.155  26.796  1.00  0.00     0.223 A 
ATOM     14  N   UNL A   1      33.936  22.335  27.611  1.00  0.00    -0.222 NA
ATOM     15  N   UNL A   1      34.067  24.156  26.108  1.00  0.00    -0.211 NA
ATOM     16  C   UNL A   1      32.617  22.551  27.734  1.00  0.00     0.117 A 
ATOM     17  C   UNL A   1      31.950  23.516  27.027  1.00  0.00     0.051 A 
BRANCH  13  18
ATOM     18  N   UNL A   1      35.942  22.879  26.647  1.00  0.00    -0.354 N 
ATOM     19  H   UNL A   1      36.530  22.864  27.437  1.00  0.00     0.163 HD
BRANCH  18  20
ATOM     20  C   UNL A   1      36.494  22.612  25.334  1.00  0.00     0.122 C 
BRANCH  20  21
ATOM     21  C   UNL A   1      36.261  21.145  24.924  1.00  0.00     0.077 C 
BRANCH  21  22
ATOM     22  C   UNL A   1      34.801  20.827  24.656  1.00  0.00     0.050 A 
ATOM     23  C   UNL A   1      32.015  22.485  22.904  1.00  0.00     0.087 C 
ATOM     24  C   UNL A   1      32.846  21.543  23.722  1.00  0.00     0.105 A 
ATOM     25  N   UNL A   1      34.099  21.776  23.944  1.00  0.00    -0.240 NA
ATOM     26  N   UNL A   1      32.185  20.445  24.195  1.00  0.00    -0.311 N 
ATOM     27  C   UNL A   1      32.818  19.474  24.907  1.00  0.00     0.251 A 
ATOM     28  H   UNL A   1      31.221  20.355  24.016  1.00  0.00     0.171 HD
ATOM     29  C   UNL A   1      34.262  19.671  25.075  1.00  0.00     0.095 A 
ATOM     30  O   UNL A   1      32.236  18.515  25.392  1.00  0.00    -0.270 OA
ENDBRANCH  21  22
ENDBRANCH  20  21
ENDBRANCH  18  20
ENDBRANCH  13  18
ENDBRANCH   7  12
ENDBRANCH   3   6
ENDBRANCH   1   2
BRANCH   1  31
ATOM     31  C   UNL A   1      33.377  29.388  27.259  1.00  0.00     0.023 C 
BRANCH  31  32
ATOM     32  C   UNL A   1      34.868  29.504  26.935  1.00  0.00     0.023 C 
BRANCH  32  33
ATOM     33  C   UNL A   1      35.622  30.539  27.765  1.00  0.00     0.116 C 
BRANCH  33  34
ATOM     34  N   UNL A   1      35.442  30.365  29.200  1.00  0.00    -0.352 N 
ATOM     35  C   UNL A   1      36.383  30.014  30.138  1.00  0.00     0.251 C 
ATOM     36  H   UNL A   1      34.531  30.516  29.540  1.00  0.00     0.163 HD
ATOM     37  O   UNL A   1      36.049  29.791  31.297  1.00  0.00    -0.269 OA
BRANCH  35  38
ATOM     38  C   UNL A   1      37.791  29.871  29.717  1.00  0.00     0.039 A 
ATOM     39  C   UNL A   1      38.802  30.073  30.658  1.00  0.00     0.014 A 
ATOM     40  C   UNL A   1      38.101  29.472  28.414  1.00  0.00     0.014 A 
ATOM     41  C   UNL A   1      40.125  29.800  30.312  1.00  0.00     0.010 A 
ATOM     42  C   UNL A   1      39.411  29.130  28.095  1.00  0.00     0.010 A 
ATOM     43  C   UNL A   1      40.435  29.283  29.042  1.00  0.00    -0.014 A 
BRANCH  43  44
ATOM     44  C   UNL A   1      41.817  28.870  28.693  1.00  0.00     0.031 A 
ATOM     45  C   UNL A   1      42.918  29.893  28.636  1.00  0.00     0.074 A 
ATOM     46  C   UNL A   1      42.062  27.589  28.354  1.00  0.00     0.049 A 
ATOM     47  N   UNL A   1      44.165  29.743  28.272  1.00  0.00    -0.248 NA
ATOM     48  C   UNL A   1      42.565  31.271  29.016  1.00  0.00     0.031 C 
ATOM     49  C   UNL A   1      41.065  26.515  28.326  1.00  0.00     0.029 A 
ATOM     50  N   UNL A   1      43.221  26.972  27.953  1.00  0.00    -0.354 N 
ATOM     51  C   UNL A   1      44.741  31.004  28.366  1.00  0.00     0.074 A 
ATOM     52  C   UNL A   1      43.694  31.917  28.771  1.00  0.00     0.031 C 
ATOM     53  C   UNL A   1      41.659  25.371  27.949  1.00  0.00     0.029 A 
ATOM     54  C   UNL A   1      43.065  25.636  27.664  1.00  0.00     0.049 A 
ATOM     55  H   UNL A   1      44.083  27.442  27.879  1.00  0.00     0.167 HD
ATOM     56  C   UNL A   1      46.030  31.362  28.157  1.00  0.00     0.037 A 
ATOM     57  C   UNL A   1      43.951  24.730  27.204  1.00  0.00     0.037 A 
ATOM     58  C   UNL A   1      47.068  30.442  27.769  1.00  0.00     0.049 A 
ATOM     59  C   UNL A   1      45.372  25.159  26.954  1.00  0.00     0.074 A 
ATOM     60  C   UNL A   1      48.417  30.694  27.589  1.00  0.00     0.029 A 
ATOM     61  N   UNL A   1      46.874  29.096  27.492  1.00  0.00    -0.354 N 
ATOM     62  N   UNL A   1      45.916  26.341  27.119  1.00  0.00    -0.248 NA
ATOM     63  C   UNL A   1      46.298  24.133  26.458  1.00  0.00     0.031 C 
ATOM     64  C   UNL A   1      49.027  29.516  27.148  1.00  0.00     0.029 A 
ATOM     65  C   UNL A   1      48.071  28.514  27.110  1.00  0.00     0.049 A 
ATOM     66  H   UNL A   1      46.012  28.625  27.556  1.00  0.00     0.167 HD
ATOM     67  C   UNL A   1      47.254  26.196  26.766  1.00  0.00     0.074 A 
ATOM     68  C   UNL A   1      47.439  24.807  26.400  1.00  0.00     0.031 C 
ATOM     69  C   UNL A   1      48.239  27.127  26.745  1.00  0.00     0.037 A 
BRANCH  56  70
ATOM     70  C   UNL A   1      46.393  32.812  28.342  1.00  0.00     0.058 A 
ATOM     71  C   UNL A   1      46.868  33.304  29.568  1.00  0.00     0.135 A 
ATOM     72  C   UNL A   1      46.301  33.713  27.269  1.00  0.00     0.135 A 
ATOM     73  F   UNL A   1      46.961  32.492  30.634  1.00  0.00    -0.206 F 
ATOM     74  C   UNL A   1      47.210  34.642  29.733  1.00  0.00     0.059 A 
ATOM     75  C   UNL A   1      46.669  35.049  27.402  1.00  0.00     0.059 A 
ATOM     76  F   UNL A   1      45.852  33.298  26.073  1.00  0.00    -0.206 F 
ATOM     77  C   UNL A   1      47.110  35.507  28.641  1.00  0.00     0.060 A 
BRANCH  77  78
ATOM     78  S   UNL A   1      47.567  37.238  28.872  1.00  0.00     0.124 S 
ATOM     79  O   UNL A   1      47.932  37.257  30.285  1.00  0.00    -0.237 OA
ATOM     80  O   UNL A   1      48.672  37.395  27.931  1.00  0.00    -0.237 OA
ATOM     81  O   UNL A   1      46.348  37.962  28.530  1.00  0.00    -0.744 OA
ENDBRANCH  77  78
ENDBRANCH  56  70
BRANCH  57  82
ATOM     82  C   UNL A   1      43.521  23.327  26.956  1.00  0.00     0.058 A 
ATOM     83  C   UNL A   1      43.309  22.438  28.019  1.00  0.00     0.135 A 
ATOM     84  C   UNL A   1      43.303  22.849  25.654  1.00  0.00     0.135 A 
ATOM     85  F   UNL A   1      43.511  22.843  29.283  1.00  0.00    -0.206 F 
ATOM     86  C   UNL A   1      42.915  21.121  27.803  1.00  0.00     0.059 A 
ATOM     87  C   UNL A   1      42.880  21.546  25.412  1.00  0.00     0.059 A 
ATOM     88  F   UNL A   1      43.476  23.664  24.601  1.00  0.00    -0.206 F 
ATOM     89  C   UNL A   1      42.698  20.685  26.494  1.00  0.00     0.060 A 
BRANCH  89  90
ATOM     90  S   UNL A   1      42.140  18.990  26.227  1.00  0.00     0.124 S 
ATOM     91  O   UNL A   1      42.274  18.422  27.565  1.00  0.00    -0.237 OA
ATOM     92  O   UNL A   1      40.774  19.190  25.752  1.00  0.00    -0.237 OA
ATOM     93  O   UNL A   1      43.075  18.481  25.229  1.00  0.00    -0.744 OA
ENDBRANCH  89  90
ENDBRANCH  57  82
BRANCH  69  94
ATOM     94  C   UNL A   1      49.613  26.674  26.330  1.00  0.00     0.058 A 
ATOM     95  C   UNL A   1      50.073  26.826  25.013  1.00  0.00     0.135 A 
ATOM     96  C   UNL A   1      50.499  26.128  27.274  1.00  0.00     0.135 A 
ATOM     97  F   UNL A   1      49.265  27.334  24.069  1.00  0.00    -0.206 F 
ATOM     98  C   UNL A   1      51.354  26.432  24.641  1.00  0.00     0.059 A 
ATOM     99  C   UNL A   1      51.795  25.757  26.931  1.00  0.00     0.059 A 
ATOM    100  F   UNL A   1      50.114  25.971  28.551  1.00  0.00    -0.206 F 
ATOM    101  C   UNL A   1      52.210  25.903  25.608  1.00  0.00     0.060 A 
BRANCH 101 102
ATOM    102  S   UNL A   1      53.882  25.431  25.117  1.00  0.00     0.124 S 
ATOM    103  O   UNL A   1      54.603  25.545  26.381  1.00  0.00    -0.237 OA
ATOM    104  O   UNL A   1      53.688  24.073  24.619  1.00  0.00    -0.237 OA
ATOM    105  O   UNL A   1      54.231  26.421  24.103  1.00  0.00    -0.744 OA
ENDBRANCH 101 102
ENDBRANCH  69  94
ENDBRANCH  43  44
ENDBRANCH  35  38
ENDBRANCH  33  34
ENDBRANCH  32  33
ENDBRANCH  31  32
ENDBRANCH   1  31
TORSDOF 19
ENDMDL
MODEL 3
REMARK VINA RESULT:     -11.4      4.758      9.493
REMARK SMILES Cc1nc(CCNc2nccc(-c3cc(C(=O)NCCCCNC(=O)c4ccc(-c5c6nc(c(-c7c(F)cc(S(=O)(=O)[O-])cc7F)c7ccc([nH]7)c(-c7c(F)cc(S(=O)(=O)[O-])cc7F)c7nc(c(-c8c(F)cc(S(=O)(=O)[O-])cc8F)c8ccc5[nH]8)C=C7)C=C6)cc4)ccn3)n2)cc(=O)[nH]1
REMARK SMILES IDX 19 1 18 2 16 3 17 4 15 6 13 7 14 8 94 9 93 10 92 11 12 12
REMARK SMILES IDX 8 13 9 14 95 15 10 16 11 17 7 18 6 20 5 21 4 22 1 23 2 24
REMARK SMILES IDX 3 25 99 26 97 27 96 29 98 30 20 31 21 32 22 33 23 34 24 35
REMARK SMILES IDX 25 37 26 38 27 39 91 40 28 41 90 42 29 43 30 44 31 45 84 46
REMARK SMILES IDX 32 47 89 48 83 49 85 50 33 51 88 52 82 53 81 54 34 56 68 57
REMARK SMILES IDX 47 58 67 59 48 60 51 61 66 62 86 63 49 64 50 65 65 67 87 68
REMARK SMILES IDX 52 69 35 70 36 71 45 72 37 73 38 74 44 75 46 76 39 77 40 78
REMARK SMILES IDX 41 79 42 80 43 81 69 82 70 83 79 84 71 85 72 86 78 87 80 88
REMARK SMILES IDX 73 89 74 90 75 91 76 92 77 93 53 94 54 95 63 96 55 97 56 98
REMARK SMILES IDX 62 99 64 100 57 101 58 102 59 103 60 104 61 105
REMARK H PARENT 18 5 7 19 99 28 23 36 85 55 51 66
REMARK Flexibility Score: inf
ROOT
ATOM      1  C   UNL A   1      34.944  30.008  27.303  1.00  0.00     0.116 C 
ENDROOT
BRANCH   1   2
ATOM      2  N   UNL A   1      33.590  29.639  27.673  1.00  0.00    -0.352 N 
ATOM      3  C   UNL A   1      32.564  29.042  26.986  1.00  0.00     0.251 C 
ATOM      4  O   UNL A   1      31.512  28.836  27.590  1.00  0.00    -0.269 OA
ATOM      5  H   UNL A   1      33.361  29.864  28.603  1.00  0.00     0.163 HD
BRANCH   3   6
ATOM      6  C   UNL A   1      32.681  28.569  25.581  1.00  0.00     0.043 A 
ATOM      7  C   UNL A   1      33.170  26.947  23.889  1.00  0.00     0.090 A 
ATOM      8  C   UNL A   1      33.273  27.370  25.207  1.00  0.00     0.044 A 
ATOM      9  N   UNL A   1      32.613  27.713  22.919  1.00  0.00    -0.255 NA
ATOM     10  C   UNL A   1      32.159  28.930  23.277  1.00  0.00     0.112 A 
ATOM     11  C   UNL A   1      32.151  29.387  24.581  1.00  0.00     0.034 A 
BRANCH   7  12
ATOM     12  C   UNL A   1      33.575  25.591  23.519  1.00  0.00     0.094 A 
ATOM     13  C   UNL A   1      35.061  23.881  23.798  1.00  0.00     0.223 A 
ATOM     14  N   UNL A   1      34.471  23.126  22.862  1.00  0.00    -0.222 NA
ATOM     15  N   UNL A   1      34.632  25.082  24.182  1.00  0.00    -0.211 NA
ATOM     16  C   UNL A   1      33.369  23.627  22.280  1.00  0.00     0.117 A 
ATOM     17  C   UNL A   1      32.880  24.876  22.561  1.00  0.00     0.051 A 
BRANCH  13  18
ATOM     18  N   UNL A   1      36.209  23.371  24.334  1.00  0.00    -0.354 N 
ATOM     19  H   UNL A   1      36.641  23.830  25.091  1.00  0.00     0.163 HD
BRANCH  18  20
ATOM     20  C   UNL A   1      36.795  22.160  23.797  1.00  0.00     0.122 C 
BRANCH  20  21
ATOM     21  C   UNL A   1      36.721  21.009  24.818  1.00  0.00     0.077 C 
BRANCH  21  22
ATOM     22  C   UNL A   1      35.327  20.803  25.383  1.00  0.00     0.050 A 
ATOM     23  C   UNL A   1      33.324  22.307  28.085  1.00  0.00     0.087 C 
ATOM     24  C   UNL A   1      33.812  21.437  26.965  1.00  0.00     0.105 A 
ATOM     25  N   UNL A   1      34.985  21.608  26.448  1.00  0.00    -0.240 NA
ATOM     26  N   UNL A   1      32.932  20.480  26.548  1.00  0.00    -0.311 N 
ATOM     27  C   UNL A   1      33.210  19.651  25.506  1.00  0.00     0.251 A 
ATOM     28  H   UNL A   1      32.071  20.386  27.016  1.00  0.00     0.171 HD
ATOM     29  C   UNL A   1      34.493  19.903  24.839  1.00  0.00     0.095 A 
ATOM     30  O   UNL A   1      32.466  18.748  25.154  1.00  0.00    -0.270 OA
ENDBRANCH  21  22
ENDBRANCH  20  21
ENDBRANCH  18  20
ENDBRANCH  13  18
ENDBRANCH   7  12
ENDBRANCH   3   6
ENDBRANCH   1   2
BRANCH   1  31
ATOM     31  C   UNL A   1      35.258  31.435  27.762  1.00  0.00     0.023 C 
BRANCH  31  32
ATOM     32  C   UNL A   1      34.017  32.246  28.140  1.00  0.00     0.023 C 
BRANCH  32  33
ATOM     33  C   UNL A   1      34.171  33.756  27.989  1.00  0.00     0.116 C 
BRANCH  33  34
ATOM     34  N   UNL A   1      33.210  34.512  28.779  1.00  0.00    -0.352 N 
ATOM     35  C   UNL A   1      33.223  34.752  30.133  1.00  0.00     0.251 C 
ATOM     36  H   UNL A   1      32.454  34.899  28.281  1.00  0.00     0.163 HD
ATOM     37  O   UNL A   1      32.274  35.310  30.672  1.00  0.00    -0.269 OA
BRANCH  35  38
ATOM     38  C   UNL A   1      34.379  34.290  30.927  1.00  0.00     0.039 A 
ATOM     39  C   UNL A   1      34.232  33.166  31.742  1.00  0.00     0.014 A 
ATOM     40  C   UNL A   1      35.617  34.928  30.810  1.00  0.00     0.014 A 
ATOM     41  C   UNL A   1      35.351  32.633  32.383  1.00  0.00     0.010 A 
ATOM     42  C   UNL A   1      36.742  34.352  31.390  1.00  0.00     0.010 A 
ATOM     43  C   UNL A   1      36.622  33.196  32.176  1.00  0.00    -0.014 A 
BRANCH  43  44
ATOM     44  C   UNL A   1      37.843  32.575  32.748  1.00  0.00     0.031 A 
ATOM     45  C   UNL A   1      38.509  31.427  32.040  1.00  0.00     0.074 A 
ATOM     46  C   UNL A   1      38.306  32.997  33.942  1.00  0.00     0.049 A 
ATOM     47  N   UNL A   1      39.528  30.703  32.421  1.00  0.00    -0.248 NA
ATOM     48  C   UNL A   1      37.937  31.025  30.745  1.00  0.00     0.031 C 
ATOM     49  C   UNL A   1      37.718  34.072  34.746  1.00  0.00     0.029 A 
ATOM     50  N   UNL A   1      39.368  32.566  34.697  1.00  0.00    -0.354 N 
ATOM     51  C   UNL A   1      39.713  29.755  31.423  1.00  0.00     0.074 A 
ATOM     52  C   UNL A   1      38.667  29.961  30.445  1.00  0.00     0.031 C 
ATOM     53  C   UNL A   1      38.438  34.227  35.869  1.00  0.00     0.029 A 
ATOM     54  C   UNL A   1      39.508  33.236  35.889  1.00  0.00     0.049 A 
ATOM     55  H   UNL A   1      39.974  31.843  34.411  1.00  0.00     0.167 HD
ATOM     56  C   UNL A   1      40.681  28.813  31.320  1.00  0.00     0.037 A 
ATOM     57  C   UNL A   1      40.390  33.063  36.894  1.00  0.00     0.037 A 
ATOM     58  C   UNL A   1      41.728  28.625  32.292  1.00  0.00     0.049 A 
ATOM     59  C   UNL A   1      41.440  31.992  36.768  1.00  0.00     0.074 A 
ATOM     60  C   UNL A   1      42.789  27.738  32.251  1.00  0.00     0.029 A 
ATOM     61  N   UNL A   1      41.840  29.327  33.484  1.00  0.00    -0.354 N 
ATOM     62  N   UNL A   1      41.644  31.151  35.781  1.00  0.00    -0.248 NA
ATOM     63  C   UNL A   1      42.379  31.846  37.888  1.00  0.00     0.031 C 
ATOM     64  C   UNL A   1      43.509  27.864  33.443  1.00  0.00     0.029 A 
ATOM     65  C   UNL A   1      42.934  28.871  34.201  1.00  0.00     0.049 A 
ATOM     66  H   UNL A   1      41.232  30.044  33.776  1.00  0.00     0.167 HD
ATOM     67  C   UNL A   1      42.748  30.390  36.154  1.00  0.00     0.074 A 
ATOM     68  C   UNL A   1      43.178  30.886  37.445  1.00  0.00     0.031 C 
ATOM     69  C   UNL A   1      43.349  29.373  35.489  1.00  0.00     0.037 A 
BRANCH  56  70
ATOM     70  C   UNL A   1      40.655  27.911  30.115  1.00  0.00     0.058 A 
ATOM     71  C   UNL A   1      39.680  26.912  29.960  1.00  0.00     0.135 A 
ATOM     72  C   UNL A   1      41.593  28.072  29.082  1.00  0.00     0.135 A 
ATOM     73  F   UNL A   1      38.768  26.701  30.923  1.00  0.00    -0.206 F 
ATOM     74  C   UNL A   1      39.654  26.086  28.841  1.00  0.00     0.059 A 
ATOM     75  C   UNL A   1      41.566  27.279  27.938  1.00  0.00     0.059 A 
ATOM     76  F   UNL A   1      42.549  29.011  29.177  1.00  0.00    -0.206 F 
ATOM     77  C   UNL A   1      40.601  26.280  27.834  1.00  0.00     0.060 A 
BRANCH  77  78
ATOM     78  S   UNL A   1      40.546  25.204  26.385  1.00  0.00     0.124 S 
ATOM     79  O   UNL A   1      39.126  24.874  26.322  1.00  0.00    -0.237 OA
ATOM     80  O   UNL A   1      41.039  26.082  25.328  1.00  0.00    -0.237 OA
ATOM     81  O   UNL A   1      41.430  24.101  26.744  1.00  0.00    -0.744 OA
ENDBRANCH  77  78
ENDBRANCH  56  70
BRANCH  57  82
ATOM     82  C   UNL A   1      40.320  33.927  38.104  1.00  0.00     0.058 A 
ATOM     83  C   UNL A   1      41.098  35.088  38.208  1.00  0.00     0.135 A 
ATOM     84  C   UNL A   1      39.468  33.614  39.176  1.00  0.00     0.135 A 
ATOM     85  F   UNL A   1      41.935  35.426  37.214  1.00  0.00    -0.206 F 
ATOM     86  C   UNL A   1      41.050  35.901  39.336  1.00  0.00     0.059 A 
ATOM     87  C   UNL A   1      39.379  34.426  40.302  1.00  0.00     0.059 A 
ATOM     88  F   UNL A   1      38.690  32.522  39.121  1.00  0.00    -0.206 F 
ATOM     89  C   UNL A   1      40.183  35.564  40.377  1.00  0.00     0.060 A 
BRANCH  89  90
ATOM     90  S   UNL A   1      40.092  36.652  41.815  1.00  0.00     0.124 S 
ATOM     91  O   UNL A   1      39.109  37.637  41.377  1.00  0.00    -0.237 OA
ATOM     92  O   UNL A   1      39.655  35.735  42.864  1.00  0.00    -0.237 OA
ATOM     93  O   UNL A   1      41.459  37.143  41.952  1.00  0.00    -0.744 OA
ENDBRANCH  89  90
ENDBRANCH  57  82
BRANCH  69  94
ATOM     94  C   UNL A   1      44.551  28.736  36.134  1.00  0.00     0.058 A 
ATOM     95  C   UNL A   1      45.841  29.263  35.972  1.00  0.00     0.135 A 
ATOM     96  C   UNL A   1      44.401  27.614  36.967  1.00  0.00     0.135 A 
ATOM     97  F   UNL A   1      46.041  30.328  35.179  1.00  0.00    -0.206 F 
ATOM     98  C   UNL A   1      46.944  28.688  36.593  1.00  0.00     0.059 A 
ATOM     99  C   UNL A   1      45.486  27.043  37.624  1.00  0.00     0.059 A 
ATOM    100  F   UNL A   1      43.188  27.076  37.166  1.00  0.00    -0.206 F 
ATOM    101  C   UNL A   1      46.756  27.580  37.422  1.00  0.00     0.060 A 
BRANCH 101 102
ATOM    102  S   UNL A   1      48.193  26.868  38.251  1.00  0.00     0.124 S 
ATOM    103  O   UNL A   1      47.741  26.827  39.638  1.00  0.00    -0.237 OA
ATOM    104  O   UNL A   1      48.325  25.574  37.588  1.00  0.00    -0.237 OA
ATOM    105  O   UNL A   1      49.259  27.824  37.967  1.00  0.00    -0.744 OA
ENDBRANCH 101 102
ENDBRANCH  69  94
ENDBRANCH  43  44
ENDBRANCH  35  38
ENDBRANCH  33  34
ENDBRANCH  32  33
ENDBRANCH  31  32
ENDBRANCH   1  31
TORSDOF 19
ENDMDL
