MODEL 1
REMARK VINA RESULT:     -12.2      0.000      0.000
REMARK SMILES [NH3+][C@@H](CCCCC(=O)NCCCCNC(=O)c1ccc(-c2c3nc(c(-c4c(F)cc(S(=O)(=O)[O-])cc4F)c4ccc([nH]4)c(-c4c(F)cc(S(=O)(=O)[O-])cc4F)c4nc(c(-c5c(F)cc(S(=O)(=O)[O-])cc5F)c5ccc2[nH]5)C=C4)C=C3)cc1)c1ccc2[nH]c(=O)[nH]c2c1
REMARK SMILES IDX 10 1 9 2 7 3 8 4 6 6 5 7 4 8 3 9 2 10 1 11 83 15 84 16 92 17
REMARK SMILES IDX 85 18 91 19 86 20 90 21 87 22 88 23 89 26 11 27 12 28 13 29
REMARK SMILES IDX 14 30 15 31 16 33 17 34 18 35 82 36 19 37 81 38 20 39 21 40
REMARK SMILES IDX 22 41 75 42 23 43 80 44 74 45 76 46 24 47 79 48 73 49 72 50
REMARK SMILES IDX 25 52 59 53 38 54 58 55 39 56 42 57 57 58 77 59 40 60 41 61
REMARK SMILES IDX 56 63 78 64 43 65 26 66 27 67 36 68 28 69 29 70 35 71 37 72
REMARK SMILES IDX 30 73 31 74 32 75 33 76 34 77 60 78 61 79 70 80 62 81 63 82
REMARK SMILES IDX 69 83 71 84 64 85 65 86 66 87 67 88 68 89 44 90 45 91 54 92
REMARK SMILES IDX 46 93 47 94 53 95 55 96 48 97 49 98 50 99 51 100 52 101
REMARK H PARENT 9 5 1 12 1 13 1 14 90 24 87 25 14 32 76 51 42 62
REMARK Flexibility Score: inf
ROOT
ATOM      1  C   UNL A   1      37.239  23.709  26.067  1.00  0.00     0.116 C 
ENDROOT
BRANCH   1   2
ATOM      2  N   UNL A   1      37.387  23.445  24.656  1.00  0.00    -0.356 N 
ATOM      3  C   UNL A   1      36.413  23.197  23.738  1.00  0.00     0.219 C 
ATOM      4  O   UNL A   1      36.734  23.007  22.565  1.00  0.00    -0.275 OA
ATOM      5  H   UNL A   1      38.310  23.445  24.312  1.00  0.00     0.163 HD
BRANCH   3   6
ATOM      6  C   UNL A   1      34.954  23.187  24.166  1.00  0.00     0.100 C 
BRANCH   6   7
ATOM      7  C   UNL A   1      33.992  23.752  23.116  1.00  0.00     0.010 C 
BRANCH   7   8
ATOM      8  C   UNL A   1      32.462  23.783  23.363  1.00  0.00     0.007 C 
BRANCH   8   9
ATOM      9  C   UNL A   1      31.599  22.520  23.173  1.00  0.00     0.070 C 
BRANCH   9  10
ATOM     10  C   UNL A   1      32.242  21.276  22.517  1.00  0.00     0.212 C 
BRANCH  10  11
ATOM     11  N   UNL A   1      31.504  20.794  21.354  1.00  0.00    -0.351 N 
ATOM     12  H   UNL A   1      31.490  19.773  21.359  1.00  0.00     0.345 HD
ATOM     13  H   UNL A   1      31.957  21.123  20.502  1.00  0.00     0.345 HD
ATOM     14  H   UNL A   1      30.548  21.147  21.389  1.00  0.00     0.345 HD
ENDBRANCH  10  11
BRANCH  10  15
ATOM     15  C   UNL A   1      32.537  20.163  23.504  1.00  0.00     0.011 A 
ATOM     16  C   UNL A   1      32.659  20.462  24.889  1.00  0.00     0.012 A 
ATOM     17  C   UNL A   1      32.661  18.830  23.080  1.00  0.00     0.038 A 
ATOM     18  C   UNL A   1      32.837  19.458  25.851  1.00  0.00     0.029 A 
ATOM     19  C   UNL A   1      32.779  17.862  24.041  1.00  0.00     0.067 A 
ATOM     20  C   UNL A   1      32.868  18.164  25.393  1.00  0.00     0.066 A 
ATOM     21  N   UNL A   1      32.813  16.482  23.896  1.00  0.00    -0.306 N 
ATOM     22  N   UNL A   1      32.973  16.964  26.088  1.00  0.00    -0.306 N 
ATOM     23  C   UNL A   1      32.932  15.903  25.167  1.00  0.00     0.323 A 
ATOM     24  H   UNL A   1      32.761  15.990  23.045  1.00  0.00     0.171 HD
ATOM     25  H   UNL A   1      33.062  16.872  27.064  1.00  0.00     0.171 HD
ATOM     26  O   UNL A   1      32.990  14.716  25.423  1.00  0.00    -0.248 OA
ENDBRANCH  10  15
ENDBRANCH   9  10
ENDBRANCH   8   9
ENDBRANCH   7   8
ENDBRANCH   6   7
ENDBRANCH   3   6
ENDBRANCH   1   2
BRANCH   1  27
ATOM     27  C   UNL A   1      38.588  23.947  26.739  1.00  0.00     0.023 C 
BRANCH  27  28
ATOM     28  C   UNL A   1      39.603  22.837  26.533  1.00  0.00     0.023 C 
BRANCH  28  29
ATOM     29  C   UNL A   1      41.042  23.268  26.752  1.00  0.00     0.116 C 
BRANCH  29  30
ATOM     30  N   UNL A   1      41.527  24.219  25.755  1.00  0.00    -0.352 N 
ATOM     31  C   UNL A   1      41.847  25.545  25.946  1.00  0.00     0.251 C 
ATOM     32  H   UNL A   1      41.636  23.873  24.840  1.00  0.00     0.163 HD
ATOM     33  O   UNL A   1      42.154  26.266  25.006  1.00  0.00    -0.269 OA
BRANCH  31  34
ATOM     34  C   UNL A   1      41.752  26.077  27.320  1.00  0.00     0.039 A 
ATOM     35  C   UNL A   1      42.879  26.665  27.894  1.00  0.00     0.014 A 
ATOM     36  C   UNL A   1      40.500  26.169  27.932  1.00  0.00     0.014 A 
ATOM     37  C   UNL A   1      42.724  27.451  29.036  1.00  0.00     0.010 A 
ATOM     38  C   UNL A   1      40.336  27.034  29.006  1.00  0.00     0.010 A 
ATOM     39  C   UNL A   1      41.443  27.699  29.557  1.00  0.00    -0.014 A 
BRANCH  39  40
ATOM     40  C   UNL A   1      41.227  28.683  30.649  1.00  0.00     0.031 A 
ATOM     41  C   UNL A   1      42.041  28.587  31.910  1.00  0.00     0.074 A 
ATOM     42  C   UNL A   1      40.240  29.597  30.541  1.00  0.00     0.049 A 
ATOM     43  N   UNL A   1      41.937  29.285  33.010  1.00  0.00    -0.248 NA
ATOM     44  C   UNL A   1      43.089  27.552  31.954  1.00  0.00     0.031 C 
ATOM     45  C   UNL A   1      39.335  29.742  29.395  1.00  0.00     0.029 A 
ATOM     46  N   UNL A   1      39.814  30.568  31.415  1.00  0.00    -0.354 N 
ATOM     47  C   UNL A   1      42.886  28.762  33.880  1.00  0.00     0.074 A 
ATOM     48  C   UNL A   1      43.524  27.657  33.201  1.00  0.00     0.031 C 
ATOM     49  C   UNL A   1      38.480  30.751  29.629  1.00  0.00     0.029 A 
ATOM     50  C   UNL A   1      38.739  31.297  30.956  1.00  0.00     0.049 A 
ATOM     51  H   UNL A   1      40.239  30.729  32.288  1.00  0.00     0.167 HD
ATOM     52  C   UNL A   1      43.211  29.182  35.124  1.00  0.00     0.037 A 
ATOM     53  C   UNL A   1      38.029  32.279  31.547  1.00  0.00     0.037 A 
ATOM     54  C   UNL A   1      42.601  30.311  35.775  1.00  0.00     0.049 A 
ATOM     55  C   UNL A   1      38.416  32.726  32.933  1.00  0.00     0.074 A 
ATOM     56  C   UNL A   1      42.931  30.876  36.994  1.00  0.00     0.029 A 
ATOM     57  N   UNL A   1      41.536  31.040  35.268  1.00  0.00    -0.354 N 
ATOM     58  N   UNL A   1      39.389  32.287  33.696  1.00  0.00    -0.248 NA
ATOM     59  C   UNL A   1      37.615  33.797  33.538  1.00  0.00     0.031 C 
ATOM     60  C   UNL A   1      42.029  31.911  37.252  1.00  0.00     0.029 A 
ATOM     61  C   UNL A   1      41.170  32.025  36.169  1.00  0.00     0.049 A 
ATOM     62  H   UNL A   1      41.104  30.881  34.398  1.00  0.00     0.167 HD
ATOM     63  C   UNL A   1      39.323  33.040  34.864  1.00  0.00     0.074 A 
ATOM     64  C   UNL A   1      38.235  33.980  34.695  1.00  0.00     0.031 C 
ATOM     65  C   UNL A   1      40.087  32.956  35.980  1.00  0.00     0.037 A 
BRANCH  52  66
ATOM     66  C   UNL A   1      44.283  28.438  35.867  1.00  0.00     0.058 A 
ATOM     67  C   UNL A   1      43.980  27.361  36.714  1.00  0.00     0.135 A 
ATOM     68  C   UNL A   1      45.637  28.748  35.657  1.00  0.00     0.135 A 
ATOM     69  F   UNL A   1      42.702  27.036  36.967  1.00  0.00    -0.206 F 
ATOM     70  C   UNL A   1      44.981  26.616  37.327  1.00  0.00     0.059 A 
ATOM     71  C   UNL A   1      46.655  28.000  36.239  1.00  0.00     0.059 A 
ATOM     72  F   UNL A   1      45.979  29.774  34.863  1.00  0.00    -0.206 F 
ATOM     73  C   UNL A   1      46.316  26.936  37.075  1.00  0.00     0.060 A 
BRANCH  73  74
ATOM     74  S   UNL A   1      47.602  25.919  37.830  1.00  0.00     0.124 S 
ATOM     75  O   UNL A   1      46.848  24.724  38.199  1.00  0.00    -0.237 OA
ATOM     76  O   UNL A   1      48.550  25.755  36.732  1.00  0.00    -0.237 OA
ATOM     77  O   UNL A   1      48.072  26.734  38.945  1.00  0.00    -0.744 OA
ENDBRANCH  73  74
ENDBRANCH  52  66
BRANCH  53  78
ATOM     78  C   UNL A   1      36.866  32.898  30.851  1.00  0.00     0.058 A 
ATOM     79  C   UNL A   1      37.044  33.937  29.924  1.00  0.00     0.135 A 
ATOM     80  C   UNL A   1      35.551  32.489  31.125  1.00  0.00     0.135 A 
ATOM     81  F   UNL A   1      38.279  34.370  29.631  1.00  0.00    -0.206 F 
ATOM     82  C   UNL A   1      35.960  34.573  29.322  1.00  0.00     0.059 A 
ATOM     83  C   UNL A   1      34.455  33.088  30.513  1.00  0.00     0.059 A 
ATOM     84  F   UNL A   1      35.324  31.487  31.990  1.00  0.00    -0.206 F 
ATOM     85  C   UNL A   1      34.669  34.143  29.627  1.00  0.00     0.060 A 
BRANCH  85  86
ATOM     86  S   UNL A   1      33.270  34.967  28.836  1.00  0.00     0.124 S 
ATOM     87  O   UNL A   1      32.411  35.249  29.981  1.00  0.00    -0.237 OA
ATOM     88  O   UNL A   1      33.907  36.124  28.215  1.00  0.00    -0.237 OA
ATOM     89  O   UNL A   1      32.771  33.960  27.905  1.00  0.00    -0.744 OA
ENDBRANCH  85  86
ENDBRANCH  53  78
BRANCH  65  90
ATOM     90  C   UNL A   1      39.787  33.910  37.102  1.00  0.00     0.058 A 
ATOM     91  C   UNL A   1      38.952  33.545  38.169  1.00  0.00     0.135 A 
ATOM     92  C   UNL A   1      40.393  35.176  37.145  1.00  0.00     0.135 A 
ATOM     93  F   UNL A   1      38.342  32.348  38.173  1.00  0.00    -0.206 F 
ATOM     94  C   UNL A   1      38.715  34.409  39.233  1.00  0.00     0.059 A 
ATOM     95  C   UNL A   1      40.194  36.044  38.214  1.00  0.00     0.059 A 
ATOM     96  F   UNL A   1      41.208  35.570  36.154  1.00  0.00    -0.206 F 
ATOM     97  C   UNL A   1      39.346  35.654  39.249  1.00  0.00     0.060 A 
BRANCH  97  98
ATOM     98  S   UNL A   1      39.066  36.743  40.661  1.00  0.00     0.124 S 
ATOM     99  O   UNL A   1      40.431  37.082  41.047  1.00  0.00    -0.237 OA
ATOM    100  O   UNL A   1      38.285  37.826  40.069  1.00  0.00    -0.237 OA
ATOM    101  O   UNL A   1      38.338  35.898  41.603  1.00  0.00    -0.744 OA
ENDBRANCH  97  98
ENDBRANCH  65  90
ENDBRANCH  39  40
ENDBRANCH  31  34
ENDBRANCH  29  30
ENDBRANCH  28  29
ENDBRANCH  27  28
ENDBRANCH   1  27
TORSDOF 20
ENDMDL
MODEL 2
REMARK VINA RESULT:     -12.0      4.950     10.176
REMARK SMILES [NH3+][C@@H](CCCCC(=O)NCCCCNC(=O)c1ccc(-c2c3nc(c(-c4c(F)cc(S(=O)(=O)[O-])cc4F)c4ccc([nH]4)c(-c4c(F)cc(S(=O)(=O)[O-])cc4F)c4nc(c(-c5c(F)cc(S(=O)(=O)[O-])cc5F)c5ccc2[nH]5)C=C4)C=C3)cc1)c1ccc2[nH]c(=O)[nH]c2c1
REMARK SMILES IDX 10 1 9 2 7 3 8 4 6 6 5 7 4 8 3 9 2 10 1 11 83 15 84 16 92 17
REMARK SMILES IDX 85 18 91 19 86 20 90 21 87 22 88 23 89 26 11 27 12 28 13 29
REMARK SMILES IDX 14 30 15 31 16 33 17 34 18 35 82 36 19 37 81 38 20 39 21 40
REMARK SMILES IDX 22 41 75 42 23 43 80 44 74 45 76 46 24 47 79 48 73 49 72 50
REMARK SMILES IDX 25 52 59 53 38 54 58 55 39 56 42 57 57 58 77 59 40 60 41 61
REMARK SMILES IDX 56 63 78 64 43 65 26 66 27 67 36 68 28 69 29 70 35 71 37 72
REMARK SMILES IDX 30 73 31 74 32 75 33 76 34 77 60 78 61 79 70 80 62 81 63 82
REMARK SMILES IDX 69 83 71 84 64 85 65 86 66 87 67 88 68 89 44 90 45 91 54 92
REMARK SMILES IDX 46 93 47 94 53 95 55 96 48 97 49 98 50 99 51 100 52 101
REMARK H PARENT 9 5 1 12 1 13 1 14 90 24 87 25 14 32 76 51 42 62
REMARK Flexibility Score: inf
ROOT
ATOM      1  C   UNL A   1      33.369  28.681  23.314  1.00  0.00     0.116 C 
ENDROOT
BRANCH   1   2
ATOM      2  N   UNL A   1      33.760  27.595  22.448  1.00  0.00    -0.356 N 
ATOM      3  C   UNL A   1      33.040  26.493  22.099  1.00  0.00     0.219 C 
ATOM      4  O   UNL A   1      33.540  25.674  21.329  1.00  0.00    -0.275 OA
ATOM      5  H   UNL A   1      34.663  27.658  22.058  1.00  0.00     0.163 HD
BRANCH   3   6
ATOM      6  C   UNL A   1      31.630  26.308  22.639  1.00  0.00     0.100 C 
BRANCH   6   7
ATOM      7  C   UNL A   1      31.523  25.268  23.757  1.00  0.00     0.010 C 
BRANCH   7   8
ATOM      8  C   UNL A   1      31.323  23.764  23.438  1.00  0.00     0.007 C 
BRANCH   8   9
ATOM      9  C   UNL A   1      31.449  22.693  24.538  1.00  0.00     0.070 C 
BRANCH   9  10
ATOM     10  C   UNL A   1      32.801  21.961  24.707  1.00  0.00     0.212 C 
BRANCH  10  11
ATOM     11  N   UNL A   1      33.882  22.567  23.937  1.00  0.00    -0.351 N 
ATOM     12  H   UNL A   1      33.510  22.942  23.064  1.00  0.00     0.345 HD
ATOM     13  H   UNL A   1      34.589  21.863  23.730  1.00  0.00     0.345 HD
ATOM     14  H   UNL A   1      34.303  23.322  24.480  1.00  0.00     0.345 HD
ENDBRANCH  10  11
BRANCH  10  15
ATOM     15  C   UNL A   1      32.706  20.465  24.472  1.00  0.00     0.011 A 
ATOM     16  C   UNL A   1      32.330  19.975  23.190  1.00  0.00     0.012 A 
ATOM     17  C   UNL A   1      33.016  19.549  25.490  1.00  0.00     0.038 A 
ATOM     18  C   UNL A   1      32.320  18.604  22.895  1.00  0.00     0.029 A 
ATOM     19  C   UNL A   1      33.052  18.220  25.163  1.00  0.00     0.067 A 
ATOM     20  C   UNL A   1      32.711  17.754  23.900  1.00  0.00     0.066 A 
ATOM     21  N   UNL A   1      33.425  17.134  25.944  1.00  0.00    -0.306 N 
ATOM     22  N   UNL A   1      32.858  16.372  23.905  1.00  0.00    -0.306 N 
ATOM     23  C   UNL A   1      33.311  15.970  25.173  1.00  0.00     0.323 A 
ATOM     24  H   UNL A   1      33.720  17.174  26.883  1.00  0.00     0.171 HD
ATOM     25  H   UNL A   1      32.676  15.773  23.145  1.00  0.00     0.171 HD
ATOM     26  O   UNL A   1      33.556  14.834  25.530  1.00  0.00    -0.248 OA
ENDBRANCH  10  15
ENDBRANCH   9  10
ENDBRANCH   8   9
ENDBRANCH   7   8
ENDBRANCH   6   7
ENDBRANCH   3   6
ENDBRANCH   1   2
BRANCH   1  27
ATOM     27  C   UNL A   1      33.742  28.404  24.767  1.00  0.00     0.023 C 
BRANCH  27  28
ATOM     28  C   UNL A   1      32.695  28.828  25.781  1.00  0.00     0.023 C 
BRANCH  28  29
ATOM     29  C   UNL A   1      33.221  28.945  27.201  1.00  0.00     0.116 C 
BRANCH  29  30
ATOM     30  N   UNL A   1      33.325  30.323  27.675  1.00  0.00    -0.352 N 
ATOM     31  C   UNL A   1      34.418  30.931  28.252  1.00  0.00     0.251 C 
ATOM     32  H   UNL A   1      32.521  30.880  27.572  1.00  0.00     0.163 HD
ATOM     33  O   UNL A   1      34.350  32.070  28.696  1.00  0.00    -0.269 OA
BRANCH  31  34
ATOM     34  C   UNL A   1      35.658  30.139  28.363  1.00  0.00     0.039 A 
ATOM     35  C   UNL A   1      36.537  30.107  27.281  1.00  0.00     0.014 A 
ATOM     36  C   UNL A   1      36.025  29.613  29.605  1.00  0.00     0.014 A 
ATOM     37  C   UNL A   1      37.839  29.647  27.480  1.00  0.00     0.010 A 
ATOM     38  C   UNL A   1      37.348  29.254  29.822  1.00  0.00     0.010 A 
ATOM     39  C   UNL A   1      38.274  29.286  28.767  1.00  0.00    -0.014 A 
BRANCH  39  40
ATOM     40  C   UNL A   1      39.701  28.978  29.045  1.00  0.00     0.031 A 
ATOM     41  C   UNL A   1      40.603  30.052  29.587  1.00  0.00     0.074 A 
ATOM     42  C   UNL A   1      40.199  27.766  28.722  1.00  0.00     0.049 A 
ATOM     43  N   UNL A   1      41.891  30.012  29.802  1.00  0.00    -0.248 NA
ATOM     44  C   UNL A   1      39.984  31.352  29.900  1.00  0.00     0.031 C 
ATOM     45  C   UNL A   1      39.438  26.665  28.122  1.00  0.00     0.029 A 
ATOM     46  N   UNL A   1      41.471  27.259  28.832  1.00  0.00    -0.354 N 
ATOM     47  C   UNL A   1      42.239  31.280  30.253  1.00  0.00     0.074 A 
ATOM     48  C   UNL A   1      41.037  32.083  30.235  1.00  0.00     0.031 C 
ATOM     49  C   UNL A   1      40.251  25.612  27.937  1.00  0.00     0.029 A 
ATOM     50  C   UNL A   1      41.600  25.971  28.358  1.00  0.00     0.049 A 
ATOM     51  H   UNL A   1      42.221  27.768  29.214  1.00  0.00     0.167 HD
ATOM     52  C   UNL A   1      43.447  31.725  30.667  1.00  0.00     0.037 A 
ATOM     53  C   UNL A   1      42.685  25.179  28.256  1.00  0.00     0.037 A 
ATOM     54  C   UNL A   1      44.628  30.905  30.725  1.00  0.00     0.049 A 
ATOM     55  C   UNL A   1      44.017  25.703  28.728  1.00  0.00     0.074 A 
ATOM     56  C   UNL A   1      45.875  31.236  31.224  1.00  0.00     0.029 A 
ATOM     57  N   UNL A   1      44.712  29.600  30.263  1.00  0.00    -0.354 N 
ATOM     58  N   UNL A   1      44.302  26.872  29.251  1.00  0.00    -0.248 NA
ATOM     59  C   UNL A   1      45.173  24.806  28.596  1.00  0.00     0.031 C 
ATOM     60  C   UNL A   1      46.730  30.152  31.012  1.00  0.00     0.029 A 
ATOM     61  C   UNL A   1      46.002  29.126  30.430  1.00  0.00     0.049 A 
ATOM     62  H   UNL A   1      43.966  29.088  29.876  1.00  0.00     0.167 HD
ATOM     63  C   UNL A   1      45.666  26.842  29.524  1.00  0.00     0.074 A 
ATOM     64  C   UNL A   1      46.143  25.532  29.135  1.00  0.00     0.031 C 
ATOM     65  C   UNL A   1      46.456  27.815  30.041  1.00  0.00     0.037 A 
BRANCH  52  66
ATOM     66  C   UNL A   1      43.563  33.155  31.110  1.00  0.00     0.058 A 
ATOM     67  C   UNL A   1      43.466  33.519  32.461  1.00  0.00     0.135 A 
ATOM     68  C   UNL A   1      43.868  34.162  30.179  1.00  0.00     0.135 A 
ATOM     69  F   UNL A   1      43.155  32.600  33.389  1.00  0.00    -0.206 F 
ATOM     70  C   UNL A   1      43.666  34.830  32.876  1.00  0.00     0.059 A 
ATOM     71  C   UNL A   1      44.099  35.475  30.575  1.00  0.00     0.059 A 
ATOM     72  F   UNL A   1      43.963  33.869  28.873  1.00  0.00    -0.206 F 
ATOM     73  C   UNL A   1      43.994  35.800  31.927  1.00  0.00     0.060 A 
BRANCH  73  74
ATOM     74  S   UNL A   1      44.312  37.484  32.492  1.00  0.00     0.124 S 
ATOM     75  O   UNL A   1      44.125  38.245  31.260  1.00  0.00    -0.237 OA
ATOM     76  O   UNL A   1      43.284  37.667  33.512  1.00  0.00    -0.237 OA
ATOM     77  O   UNL A   1      45.683  37.423  32.990  1.00  0.00    -0.744 OA
ENDBRANCH  73  74
ENDBRANCH  52  66
BRANCH  53  78
ATOM     78  C   UNL A   1      42.576  23.815  27.667  1.00  0.00     0.058 A 
ATOM     79  C   UNL A   1      42.467  22.678  28.483  1.00  0.00     0.135 A 
ATOM     80  C   UNL A   1      42.614  23.617  26.278  1.00  0.00     0.135 A 
ATOM     81  F   UNL A   1      42.433  22.811  29.817  1.00  0.00    -0.206 F 
ATOM     82  C   UNL A   1      42.439  21.393  27.946  1.00  0.00     0.059 A 
ATOM     83  C   UNL A   1      42.555  22.345  25.717  1.00  0.00     0.059 A 
ATOM     84  F   UNL A   1      42.699  24.670  25.449  1.00  0.00    -0.206 F 
ATOM     85  C   UNL A   1      42.488  21.237  26.561  1.00  0.00     0.060 A 
BRANCH  85  86
ATOM     86  S   UNL A   1      42.441  19.568  25.872  1.00  0.00     0.124 S 
ATOM     87  O   UNL A   1      43.448  19.657  24.821  1.00  0.00    -0.237 OA
ATOM     88  O   UNL A   1      42.794  18.750  27.028  1.00  0.00    -0.237 OA
ATOM     89  O   UNL A   1      41.061  19.433  25.416  1.00  0.00    -0.744 OA
ENDBRANCH  85  86
ENDBRANCH  53  78
BRANCH  65  90
ATOM     90  C   UNL A   1      47.914  27.499  30.230  1.00  0.00     0.058 A 
ATOM     91  C   UNL A   1      48.874  27.886  29.283  1.00  0.00     0.135 A 
ATOM     92  C   UNL A   1      48.362  26.866  31.400  1.00  0.00     0.135 A 
ATOM     93  F   UNL A   1      48.497  28.488  28.144  1.00  0.00    -0.206 F 
ATOM     94  C   UNL A   1      50.229  27.640  29.482  1.00  0.00     0.059 A 
ATOM     95  C   UNL A   1      49.713  26.637  31.634  1.00  0.00     0.059 A 
ATOM     96  F   UNL A   1      47.484  26.485  32.341  1.00  0.00    -0.206 F 
ATOM     97  C   UNL A   1      50.639  27.020  30.664  1.00  0.00     0.060 A 
BRANCH  97  98
ATOM     98  S   UNL A   1      52.404  26.752  30.927  1.00  0.00     0.124 S 
ATOM     99  O   UNL A   1      52.871  28.108  31.193  1.00  0.00    -0.237 OA
ATOM    100  O   UNL A   1      52.414  25.841  32.068  1.00  0.00    -0.237 OA
ATOM    101  O   UNL A   1      52.851  26.170  29.665  1.00  0.00    -0.744 OA
ENDBRANCH  97  98
ENDBRANCH  65  90
ENDBRANCH  39  40
ENDBRANCH  31  34
ENDBRANCH  29  30
ENDBRANCH  28  29
ENDBRANCH  27  28
ENDBRANCH   1  27
TORSDOF 20
ENDMDL
MODEL 3
REMARK VINA RESULT:     -11.7      2.895      4.925
REMARK SMILES [NH3+][C@@H](CCCCC(=O)NCCCCNC(=O)c1ccc(-c2c3nc(c(-c4c(F)cc(S(=O)(=O)[O-])cc4F)c4ccc([nH]4)c(-c4c(F)cc(S(=O)(=O)[O-])cc4F)c4nc(c(-c5c(F)cc(S(=O)(=O)[O-])cc5F)c5ccc2[nH]5)C=C4)C=C3)cc1)c1ccc2[nH]c(=O)[nH]c2c1
REMARK SMILES IDX 10 1 9 2 7 3 8 4 6 6 5 7 4 8 3 9 2 10 1 11 83 15 84 16 92 17
REMARK SMILES IDX 85 18 91 19 86 20 90 21 87 22 88 23 89 26 11 27 12 28 13 29
REMARK SMILES IDX 14 30 15 31 16 33 17 34 18 35 82 36 19 37 81 38 20 39 21 40
REMARK SMILES IDX 22 41 75 42 23 43 80 44 74 45 76 46 24 47 79 48 73 49 72 50
REMARK SMILES IDX 25 52 59 53 38 54 58 55 39 56 42 57 57 58 77 59 40 60 41 61
REMARK SMILES IDX 56 63 78 64 43 65 26 66 27 67 36 68 28 69 29 70 35 71 37 72
REMARK SMILES IDX 30 73 31 74 32 75 33 76 34 77 60 78 61 79 70 80 62 81 63 82
REMARK SMILES IDX 69 83 71 84 64 85 65 86 66 87 67 88 68 89 44 90 45 91 54 92
REMARK SMILES IDX 46 93 47 94 53 95 55 96 48 97 49 98 50 99 51 100 52 101
REMARK H PARENT 9 5 1 12 1 13 1 14 90 24 87 25 14 32 76 51 42 62
REMARK Flexibility Score: inf
ROOT
ATOM      1  C   UNL A   1      37.528  23.148  25.847  1.00  0.00     0.116 C 
ENDROOT
BRANCH   1   2
ATOM      2  N   UNL A   1      36.228  22.939  26.439  1.00  0.00    -0.356 N 
ATOM      3  C   UNL A   1      35.038  23.490  26.075  1.00  0.00     0.219 C 
ATOM      4  O   UNL A   1      34.022  23.177  26.696  1.00  0.00    -0.275 OA
ATOM      5  H   UNL A   1      36.198  22.318  27.203  1.00  0.00     0.163 HD
BRANCH   3   6
ATOM      6  C   UNL A   1      34.977  24.453  24.900  1.00  0.00     0.100 C 
BRANCH   6   7
ATOM      7  C   UNL A   1      33.945  25.573  25.065  1.00  0.00     0.010 C 
BRANCH   7   8
ATOM      8  C   UNL A   1      33.638  26.559  23.909  1.00  0.00     0.007 C 
BRANCH   8   9
ATOM      9  C   UNL A   1      32.340  27.388  23.894  1.00  0.00     0.070 C 
BRANCH   9  10
ATOM     10  C   UNL A   1      31.224  26.998  22.896  1.00  0.00     0.212 C 
BRANCH  10  11
ATOM     11  N   UNL A   1      31.738  26.553  21.605  1.00  0.00    -0.351 N 
ATOM     12  H   UNL A   1      30.989  26.105  21.077  1.00  0.00     0.345 HD
ATOM     13  H   UNL A   1      32.496  25.886  21.752  1.00  0.00     0.345 HD
ATOM     14  H   UNL A   1      32.088  27.356  21.084  1.00  0.00     0.345 HD
ENDBRANCH  10  11
BRANCH  10  15
ATOM     15  C   UNL A   1      30.156  28.065  22.745  1.00  0.00     0.011 A 
ATOM     16  C   UNL A   1      28.823  27.791  23.159  1.00  0.00     0.012 A 
ATOM     17  C   UNL A   1      30.465  29.334  22.232  1.00  0.00     0.038 A 
ATOM     18  C   UNL A   1      27.821  28.772  23.127  1.00  0.00     0.029 A 
ATOM     19  C   UNL A   1      29.486  30.291  22.263  1.00  0.00     0.067 A 
ATOM     20  C   UNL A   1      28.195  30.021  22.696  1.00  0.00     0.066 A 
ATOM     21  N   UNL A   1      29.560  31.634  21.917  1.00  0.00    -0.306 N 
ATOM     22  N   UNL A   1      27.463  31.198  22.603  1.00  0.00    -0.306 N 
ATOM     23  C   UNL A   1      28.304  32.218  22.126  1.00  0.00     0.323 A 
ATOM     24  H   UNL A   1      30.361  32.100  21.583  1.00  0.00     0.171 HD
ATOM     25  H   UNL A   1      26.511  31.302  22.835  1.00  0.00     0.171 HD
ATOM     26  O   UNL A   1      28.000  33.379  21.932  1.00  0.00    -0.248 OA
ENDBRANCH  10  15
ENDBRANCH   9  10
ENDBRANCH   8   9
ENDBRANCH   7   8
ENDBRANCH   6   7
ENDBRANCH   3   6
ENDBRANCH   1   2
BRANCH   1  27
ATOM     27  C   UNL A   1      38.325  21.850  25.766  1.00  0.00     0.023 C 
BRANCH  27  28
ATOM     28  C   UNL A   1      39.619  21.850  26.561  1.00  0.00     0.023 C 
BRANCH  28  29
ATOM     29  C   UNL A   1      40.044  23.223  27.048  1.00  0.00     0.116 C 
BRANCH  29  30
ATOM     30  N   UNL A   1      40.633  24.059  26.005  1.00  0.00    -0.352 N 
ATOM     31  C   UNL A   1      41.151  25.329  26.141  1.00  0.00     0.251 C 
ATOM     32  H   UNL A   1      40.662  23.671  25.102  1.00  0.00     0.163 HD
ATOM     33  O   UNL A   1      41.533  25.965  25.167  1.00  0.00    -0.269 OA
BRANCH  31  34
ATOM     34  C   UNL A   1      41.179  25.912  27.495  1.00  0.00     0.039 A 
ATOM     35  C   UNL A   1      42.350  26.521  27.944  1.00  0.00     0.014 A 
ATOM     36  C   UNL A   1      39.985  26.029  28.214  1.00  0.00     0.014 A 
ATOM     37  C   UNL A   1      42.296  27.350  29.064  1.00  0.00     0.010 A 
ATOM     38  C   UNL A   1      39.916  26.934  29.264  1.00  0.00     0.010 A 
ATOM     39  C   UNL A   1      41.066  27.619  29.688  1.00  0.00    -0.014 A 
BRANCH  39  40
ATOM     40  C   UNL A   1      40.947  28.644  30.757  1.00  0.00     0.031 A 
ATOM     41  C   UNL A   1      41.790  28.530  31.996  1.00  0.00     0.074 A 
ATOM     42  C   UNL A   1      40.017  29.617  30.650  1.00  0.00     0.049 A 
ATOM     43  N   UNL A   1      41.764  29.263  33.079  1.00  0.00    -0.248 NA
ATOM     44  C   UNL A   1      42.770  27.431  32.041  1.00  0.00     0.031 C 
ATOM     45  C   UNL A   1      39.090  29.788  29.527  1.00  0.00     0.029 A 
ATOM     46  N   UNL A   1      39.680  30.636  31.507  1.00  0.00    -0.354 N 
ATOM     47  C   UNL A   1      42.703  28.703  33.936  1.00  0.00     0.074 A 
ATOM     48  C   UNL A   1      43.249  27.542  33.272  1.00  0.00     0.031 C 
ATOM     49  C   UNL A   1      38.308  30.857  29.755  1.00  0.00     0.029 A 
ATOM     50  C   UNL A   1      38.640  31.420  31.058  1.00  0.00     0.049 A 
ATOM     51  H   UNL A   1      40.140  30.793  32.362  1.00  0.00     0.167 HD
ATOM     52  C   UNL A   1      43.091  29.135  35.158  1.00  0.00     0.037 A 
ATOM     53  C   UNL A   1      38.013  32.462  31.639  1.00  0.00     0.037 A 
ATOM     54  C   UNL A   1      42.575  30.319  35.793  1.00  0.00     0.049 A 
ATOM     55  C   UNL A   1      38.469  32.921  33.000  1.00  0.00     0.074 A 
ATOM     56  C   UNL A   1      42.976  30.894  36.985  1.00  0.00     0.029 A 
ATOM     57  N   UNL A   1      41.543  31.101  35.295  1.00  0.00    -0.354 N 
ATOM     58  N   UNL A   1      39.434  32.441  33.748  1.00  0.00    -0.248 NA
ATOM     59  C   UNL A   1      37.756  34.058  33.596  1.00  0.00     0.031 C 
ATOM     60  C   UNL A   1      42.150  31.992  37.238  1.00  0.00     0.029 A 
ATOM     61  C   UNL A   1      41.268  32.132  36.177  1.00  0.00     0.049 A 
ATOM     62  H   UNL A   1      41.076  30.946  34.442  1.00  0.00     0.167 HD
ATOM     63  C   UNL A   1      39.451  33.228  34.895  1.00  0.00     0.074 A 
ATOM     64  C   UNL A   1      38.421  34.231  34.730  1.00  0.00     0.031 C 
ATOM     65  C   UNL A   1      40.242  33.125  35.992  1.00  0.00     0.037 A 
BRANCH  52  66
ATOM     66  C   UNL A   1      44.135  28.344  35.892  1.00  0.00     0.058 A 
ATOM     67  C   UNL A   1      43.792  27.289  36.751  1.00  0.00     0.135 A 
ATOM     68  C   UNL A   1      45.500  28.585  35.661  1.00  0.00     0.135 A 
ATOM     69  F   UNL A   1      42.503  27.030  37.023  1.00  0.00    -0.206 F 
ATOM     70  C   UNL A   1      44.763  26.499  37.356  1.00  0.00     0.059 A 
ATOM     71  C   UNL A   1      46.488  27.791  36.235  1.00  0.00     0.059 A 
ATOM     72  F   UNL A   1      45.882  29.588  34.856  1.00  0.00    -0.206 F 
ATOM     73  C   UNL A   1      46.109  26.752  37.083  1.00  0.00     0.060 A 
BRANCH  73  74
ATOM     74  S   UNL A   1      47.353  25.677  37.828  1.00  0.00     0.124 S 
ATOM     75  O   UNL A   1      46.895  25.618  39.213  1.00  0.00    -0.237 OA
ATOM     76  O   UNL A   1      47.198  24.446  37.058  1.00  0.00    -0.237 OA
ATOM     77  O   UNL A   1      48.602  26.398  37.610  1.00  0.00    -0.744 OA
ENDBRANCH  73  74
ENDBRANCH  52  66
BRANCH  53  78
ATOM     78  C   UNL A   1      36.871  33.136  30.959  1.00  0.00     0.058 A 
ATOM     79  C   UNL A   1      35.544  32.871  31.333  1.00  0.00     0.135 A 
ATOM     80  C   UNL A   1      37.082  34.032  29.898  1.00  0.00     0.135 A 
ATOM     81  F   UNL A   1      35.288  32.019  32.336  1.00  0.00    -0.206 F 
ATOM     82  C   UNL A   1      34.468  33.439  30.656  1.00  0.00     0.059 A 
ATOM     83  C   UNL A   1      36.023  34.635  29.228  1.00  0.00     0.059 A 
ATOM     84  F   UNL A   1      38.331  34.335  29.511  1.00  0.00    -0.206 F 
ATOM     85  C   UNL A   1      34.718  34.317  29.602  1.00  0.00     0.060 A 
BRANCH  85  86
ATOM     86  S   UNL A   1      33.315  35.056  28.735  1.00  0.00     0.124 S 
ATOM     87  O   UNL A   1      33.970  36.103  27.959  1.00  0.00    -0.237 OA
ATOM     88  O   UNL A   1      32.796  33.925  27.973  1.00  0.00    -0.237 OA
ATOM     89  O   UNL A   1      32.456  35.517  29.822  1.00  0.00    -0.744 OA
ENDBRANCH  85  86
ENDBRANCH  53  78
BRANCH  65  90
ATOM     90  C   UNL A   1      40.036  34.127  37.093  1.00  0.00     0.058 A 
ATOM     91  C   UNL A   1      40.678  35.375  37.076  1.00  0.00     0.135 A 
ATOM     92  C   UNL A   1      39.137  33.864  38.139  1.00  0.00     0.135 A 
ATOM     93  F   UNL A   1      41.553  35.672  36.102  1.00  0.00    -0.206 F 
ATOM     94  C   UNL A   1      40.448  36.322  38.068  1.00  0.00     0.059 A 
ATOM     95  C   UNL A   1      38.869  34.808  39.125  1.00  0.00     0.059 A 
ATOM     96  F   UNL A   1      38.490  32.690  38.195  1.00  0.00    -0.206 F 
ATOM     97  C   UNL A   1      39.536  36.032  39.085  1.00  0.00     0.060 A 
BRANCH  97  98
ATOM     98  S   UNL A   1      39.213  37.290  40.337  1.00  0.00     0.124 S 
ATOM     99  O   UNL A   1      38.409  38.250  39.590  1.00  0.00    -0.237 OA
ATOM    100  O   UNL A   1      38.506  36.533  41.366  1.00  0.00    -0.237 OA
ATOM    101  O   UNL A   1      40.549  37.748  40.712  1.00  0.00    -0.744 OA
ENDBRANCH  97  98
ENDBRANCH  65  90
ENDBRANCH  39  40
ENDBRANCH  31  34
ENDBRANCH  29  30
ENDBRANCH  28  29
ENDBRANCH  27  28
ENDBRANCH   1  27
TORSDOF 20
ENDMDL
