MODEL 1
REMARK VINA RESULT:     -11.7      0.000      0.000
REMARK SMILES COc1ccc(OC)c(/C=N/[NH+]=C2/NC(=O)[C@@H](CC(=O)NCCCCNC(=O)c3ccc(-c4c5nc(c(-c6c(F)cc(S(=O)(=O)[O-])cc6F)c6ccc([nH]6)c(-c6c(F)cc(S(=O)(=O)[O-])cc6F)c6nc(c(-c7c(F)cc(S(=O)(=O)[O-])cc7F)c7ccc4[nH]7)C=C6)C=C5)cc3)S2)c1
REMARK SMILES IDX 23 1 22 2 21 3 19 4 20 5 18 7 17 8 12 9 13 10 14 12 95 13
REMARK SMILES IDX 15 14 16 16 11 17 10 18 9 19 3 20 4 21 96 22 5 23 6 24 2 25
REMARK SMILES IDX 1 26 7 27 8 28 24 29 25 30 26 31 27 32 28 34 29 35 30 36
REMARK SMILES IDX 94 37 31 38 93 39 32 40 33 41 34 42 87 43 35 44 92 45 86 46
REMARK SMILES IDX 88 47 36 48 91 49 85 50 84 51 37 53 71 54 50 55 70 56 51 57
REMARK SMILES IDX 54 58 69 59 89 60 52 61 53 62 68 64 90 65 55 66 38 67 39 68
REMARK SMILES IDX 48 69 40 70 41 71 47 72 49 73 42 74 43 75 44 76 45 77 46 78
REMARK SMILES IDX 72 79 73 80 82 81 74 82 75 83 81 84 83 85 76 86 77 87 78 88
REMARK SMILES IDX 79 89 80 90 56 91 57 92 66 93 58 94 59 95 65 96 67 97 60 98
REMARK SMILES IDX 61 99 62 100 63 101 64 102
REMARK H PARENT 21 6 12 11 14 15 26 33 88 52 54 63
REMARK Flexibility Score: inf
ROOT
ATOM      1  C   UNL A   1      32.948  29.879  26.968  1.00  0.00     0.023 C 
ENDROOT
BRANCH   1   2
ATOM      2  C   UNL A   1      32.933  29.198  25.602  1.00  0.00     0.116 C 
BRANCH   2   3
ATOM      3  N   UNL A   1      33.565  27.891  25.650  1.00  0.00    -0.356 N 
ATOM      4  C   UNL A   1      33.251  26.721  25.034  1.00  0.00     0.221 C 
ATOM      5  O   UNL A   1      33.963  25.741  25.255  1.00  0.00    -0.275 OA
ATOM      6  H   UNL A   1      34.360  27.845  26.229  1.00  0.00     0.163 HD
BRANCH   4   7
ATOM      7  C   UNL A   1      32.077  26.625  24.085  1.00  0.00     0.127 C 
BRANCH   7   8
ATOM      8  C   UNL A   1      30.904  25.744  24.518  1.00  0.00     0.183 C 
ATOM      9  N   UNL A   1      31.222  22.387  26.370  1.00  0.00    -0.142 N 
ATOM     10  C   UNL A   1      30.928  23.501  25.795  1.00  0.00     0.337 C 
ATOM     11  H   UNL A   1      31.137  22.301  27.347  1.00  0.00     0.343 HD
ATOM     12  N   UNL A   1      30.638  24.567  26.577  1.00  0.00    -0.202 N 
ATOM     13  S   UNL A   1      30.972  23.961  24.125  1.00  0.00    -0.020 SA
ATOM     14  C   UNL A   1      30.692  25.806  26.018  1.00  0.00     0.322 C 
ATOM     15  H   UNL A   1      30.394  24.450  27.524  1.00  0.00     0.316 HD
ATOM     16  O   UNL A   1      30.629  26.839  26.675  1.00  0.00    -0.246 OA
BRANCH   9  17
ATOM     17  N   UNL A   1      31.660  21.297  25.609  1.00  0.00    -0.093 NA
ATOM     18  C   UNL A   1      32.949  21.152  25.611  1.00  0.00     0.170 C 
BRANCH  18  19
ATOM     19  C   UNL A   1      33.654  19.929  25.199  1.00  0.00     0.042 A 
ATOM     20  C   UNL A   1      33.470  17.656  24.398  1.00  0.00     0.119 A 
ATOM     21  C   UNL A   1      34.855  17.579  24.283  1.00  0.00     0.050 A 
ATOM     22  C   UNL A   1      32.861  18.823  24.858  1.00  0.00     0.060 A 
ATOM     23  C   UNL A   1      35.641  18.690  24.595  1.00  0.00     0.051 A 
ATOM     24  C   UNL A   1      35.044  19.877  25.031  1.00  0.00     0.128 A 
BRANCH  20  25
ATOM     25  O   UNL A   1      32.740  16.525  24.158  1.00  0.00    -0.497 OA
ATOM     26  C   UNL A   1      32.980  15.524  25.147  1.00  0.00     0.278 C 
ENDBRANCH  20  25
BRANCH  24  27
ATOM     27  O   UNL A   1      35.908  20.903  25.304  1.00  0.00    -0.496 OA
ATOM     28  C   UNL A   1      37.249  20.663  24.877  1.00  0.00     0.278 C 
ENDBRANCH  24  27
ENDBRANCH  18  19
ENDBRANCH   9  17
ENDBRANCH   7   8
ENDBRANCH   4   7
ENDBRANCH   2   3
ENDBRANCH   1   2
BRANCH   1  29
ATOM     29  C   UNL A   1      34.193  30.716  27.258  1.00  0.00     0.023 C 
BRANCH  29  30
ATOM     30  C   UNL A   1      35.207  30.033  28.155  1.00  0.00     0.116 C 
BRANCH  30  31
ATOM     31  N   UNL A   1      35.319  30.694  29.447  1.00  0.00    -0.352 N 
ATOM     32  C   UNL A   1      36.380  30.741  30.319  1.00  0.00     0.251 C 
ATOM     33  H   UNL A   1      34.515  31.178  29.741  1.00  0.00     0.163 HD
ATOM     34  O   UNL A   1      36.215  31.199  31.447  1.00  0.00    -0.269 OA
BRANCH  32  35
ATOM     35  C   UNL A   1      37.704  30.217  29.913  1.00  0.00     0.039 A 
ATOM     36  C   UNL A   1      38.065  30.254  28.563  1.00  0.00     0.014 A 
ATOM     37  C   UNL A   1      38.591  29.691  30.856  1.00  0.00     0.014 A 
ATOM     38  C   UNL A   1      39.336  29.823  28.173  1.00  0.00     0.010 A 
ATOM     39  C   UNL A   1      39.889  29.365  30.483  1.00  0.00     0.010 A 
ATOM     40  C   UNL A   1      40.271  29.409  29.135  1.00  0.00    -0.014 A 
BRANCH  40  41
ATOM     41  C   UNL A   1      41.645  28.983  28.761  1.00  0.00     0.031 A 
ATOM     42  C   UNL A   1      42.758  29.999  28.730  1.00  0.00     0.074 A 
ATOM     43  C   UNL A   1      41.872  27.713  28.371  1.00  0.00     0.049 A 
ATOM     44  N   UNL A   1      43.990  29.864  28.311  1.00  0.00    -0.248 NA
ATOM     45  C   UNL A   1      42.429  31.359  29.189  1.00  0.00     0.031 C 
ATOM     46  C   UNL A   1      40.864  26.653  28.300  1.00  0.00     0.029 A 
ATOM     47  N   UNL A   1      43.024  27.102  27.946  1.00  0.00    -0.354 N 
ATOM     48  C   UNL A   1      44.568  31.123  28.426  1.00  0.00     0.074 A 
ATOM     49  C   UNL A   1      43.537  32.022  28.895  1.00  0.00     0.031 C 
ATOM     50  C   UNL A   1      41.448  25.516  27.888  1.00  0.00     0.029 A 
ATOM     51  C   UNL A   1      42.860  25.774  27.626  1.00  0.00     0.049 A 
ATOM     52  H   UNL A   1      43.888  27.569  27.878  1.00  0.00     0.167 HD
ATOM     53  C   UNL A   1      45.848  31.493  28.189  1.00  0.00     0.037 A 
ATOM     54  C   UNL A   1      43.748  24.870  27.170  1.00  0.00     0.037 A 
ATOM     55  C   UNL A   1      46.883  30.580  27.779  1.00  0.00     0.049 A 
ATOM     56  C   UNL A   1      45.176  25.292  26.957  1.00  0.00     0.074 A 
ATOM     57  C   UNL A   1      48.228  30.835  27.584  1.00  0.00     0.029 A 
ATOM     58  N   UNL A   1      46.686  29.231  27.517  1.00  0.00    -0.354 N 
ATOM     59  N   UNL A   1      45.718  26.477  27.121  1.00  0.00    -0.248 NA
ATOM     60  C   UNL A   1      46.116  24.258  26.503  1.00  0.00     0.031 C 
ATOM     61  C   UNL A   1      48.841  29.646  27.172  1.00  0.00     0.029 A 
ATOM     62  C   UNL A   1      47.885  28.643  27.151  1.00  0.00     0.049 A 
ATOM     63  H   UNL A   1      45.822  28.763  27.580  1.00  0.00     0.167 HD
ATOM     64  C   UNL A   1      47.066  26.323  26.816  1.00  0.00     0.074 A 
ATOM     65  C   UNL A   1      47.259  24.930  26.468  1.00  0.00     0.031 C 
ATOM     66  C   UNL A   1      48.055  27.250  26.822  1.00  0.00     0.037 A 
BRANCH  53  67
ATOM     67  C   UNL A   1      46.205  32.941  28.384  1.00  0.00     0.058 A 
ATOM     68  C   UNL A   1      46.140  33.865  27.328  1.00  0.00     0.135 A 
ATOM     69  C   UNL A   1      46.595  33.418  29.646  1.00  0.00     0.135 A 
ATOM     70  F   UNL A   1      45.791  33.461  26.096  1.00  0.00    -0.206 F 
ATOM     71  C   UNL A   1      46.483  35.201  27.507  1.00  0.00     0.059 A 
ATOM     72  C   UNL A   1      46.914  34.757  29.855  1.00  0.00     0.059 A 
ATOM     73  F   UNL A   1      46.675  32.579  30.690  1.00  0.00    -0.206 F 
ATOM     74  C   UNL A   1      46.870  35.637  28.774  1.00  0.00     0.060 A 
BRANCH  74  75
ATOM     75  S   UNL A   1      47.313  37.374  28.990  1.00  0.00     0.124 S 
ATOM     76  O   UNL A   1      46.485  37.743  30.134  1.00  0.00    -0.237 OA
ATOM     77  O   UNL A   1      48.749  37.301  29.245  1.00  0.00    -0.237 OA
ATOM     78  O   UNL A   1      46.935  37.982  27.718  1.00  0.00    -0.744 OA
ENDBRANCH  74  75
ENDBRANCH  53  67
BRANCH  54  79
ATOM     79  C   UNL A   1      43.319  23.469  26.916  1.00  0.00     0.058 A 
ATOM     80  C   UNL A   1      43.137  23.000  25.607  1.00  0.00     0.135 A 
ATOM     81  C   UNL A   1      43.097  22.569  27.970  1.00  0.00     0.135 A 
ATOM     82  F   UNL A   1      43.336  23.824  24.566  1.00  0.00    -0.206 F 
ATOM     83  C   UNL A   1      42.731  21.695  25.348  1.00  0.00     0.059 A 
ATOM     84  C   UNL A   1      42.713  21.251  27.737  1.00  0.00     0.059 A 
ATOM     85  F   UNL A   1      43.277  22.962  29.240  1.00  0.00    -0.206 F 
ATOM     86  C   UNL A   1      42.521  20.828  26.422  1.00  0.00     0.060 A 
BRANCH  86  87
ATOM     87  S   UNL A   1      42.038  19.122  26.075  1.00  0.00     0.124 S 
ATOM     88  O   UNL A   1      42.856  18.820  24.905  1.00  0.00    -0.237 OA
ATOM     89  O   UNL A   1      42.410  18.440  27.310  1.00  0.00    -0.237 OA
ATOM     90  O   UNL A   1      40.603  19.226  25.832  1.00  0.00    -0.744 OA
ENDBRANCH  86  87
ENDBRANCH  54  79
BRANCH  66  91
ATOM     91  C   UNL A   1      49.440  26.785  26.476  1.00  0.00     0.058 A 
ATOM     92  C   UNL A   1      50.264  26.159  27.423  1.00  0.00     0.135 A 
ATOM     93  C   UNL A   1      49.924  26.914  25.164  1.00  0.00     0.135 A 
ATOM     94  F   UNL A   1      49.849  26.017  28.691  1.00  0.00    -0.206 F 
ATOM     95  C   UNL A   1      51.531  25.694  27.086  1.00  0.00     0.059 A 
ATOM     96  C   UNL A   1      51.177  26.435  24.798  1.00  0.00     0.059 A 
ATOM     97  F   UNL A   1      49.169  27.496  24.218  1.00  0.00    -0.206 F 
ATOM     98  C   UNL A   1      51.978  25.835  25.770  1.00  0.00     0.060 A 
BRANCH  98  99
ATOM     99  S   UNL A   1      53.608  25.190  25.336  1.00  0.00     0.124 S 
ATOM    100  O   UNL A   1      53.782  25.719  23.987  1.00  0.00    -0.237 OA
ATOM    101  O   UNL A   1      54.462  25.778  26.362  1.00  0.00    -0.237 OA
ATOM    102  O   UNL A   1      53.434  23.744  25.427  1.00  0.00    -0.744 OA
ENDBRANCH  98  99
ENDBRANCH  66  91
ENDBRANCH  40  41
ENDBRANCH  32  35
ENDBRANCH  30  31
ENDBRANCH  29  30
ENDBRANCH   1  29
TORSDOF 19
ENDMDL
MODEL 2
REMARK VINA RESULT:     -11.7      1.450      2.103
REMARK SMILES COc1ccc(OC)c(/C=N/[NH+]=C2/NC(=O)[C@@H](CC(=O)NCCCCNC(=O)c3ccc(-c4c5nc(c(-c6c(F)cc(S(=O)(=O)[O-])cc6F)c6ccc([nH]6)c(-c6c(F)cc(S(=O)(=O)[O-])cc6F)c6nc(c(-c7c(F)cc(S(=O)(=O)[O-])cc7F)c7ccc4[nH]7)C=C6)C=C5)cc3)S2)c1
REMARK SMILES IDX 23 1 22 2 21 3 19 4 20 5 18 7 17 8 12 9 13 10 14 12 95 13
REMARK SMILES IDX 15 14 16 16 11 17 10 18 9 19 3 20 4 21 96 22 5 23 6 24 2 25
REMARK SMILES IDX 1 26 7 27 8 28 24 29 25 30 26 31 27 32 28 34 29 35 30 36
REMARK SMILES IDX 94 37 31 38 93 39 32 40 33 41 34 42 87 43 35 44 92 45 86 46
REMARK SMILES IDX 88 47 36 48 91 49 85 50 84 51 37 53 71 54 50 55 70 56 51 57
REMARK SMILES IDX 54 58 69 59 89 60 52 61 53 62 68 64 90 65 55 66 38 67 39 68
REMARK SMILES IDX 48 69 40 70 41 71 47 72 49 73 42 74 43 75 44 76 45 77 46 78
REMARK SMILES IDX 72 79 73 80 82 81 74 82 75 83 81 84 83 85 76 86 77 87 78 88
REMARK SMILES IDX 79 89 80 90 56 91 57 92 66 93 58 94 59 95 65 96 67 97 60 98
REMARK SMILES IDX 61 99 62 100 63 101 64 102
REMARK H PARENT 21 6 12 11 14 15 26 33 88 52 54 63
REMARK Flexibility Score: inf
ROOT
ATOM      1  C   UNL A   1      34.488  28.932  26.807  1.00  0.00     0.023 C 
ENDROOT
BRANCH   1   2
ATOM      2  C   UNL A   1      33.007  28.867  27.166  1.00  0.00     0.116 C 
BRANCH   2   3
ATOM      3  N   UNL A   1      32.254  29.928  26.521  1.00  0.00    -0.356 N 
ATOM      4  C   UNL A   1      31.414  29.908  25.452  1.00  0.00     0.221 C 
ATOM      5  O   UNL A   1      30.900  30.970  25.100  1.00  0.00    -0.275 OA
ATOM      6  H   UNL A   1      32.372  30.817  26.927  1.00  0.00     0.163 HD
BRANCH   4   7
ATOM      7  C   UNL A   1      31.097  28.618  24.729  1.00  0.00     0.127 C 
BRANCH   7   8
ATOM      8  C   UNL A   1      31.910  28.310  23.470  1.00  0.00     0.183 C 
ATOM      9  N   UNL A   1      32.346  24.819  21.914  1.00  0.00    -0.142 N 
ATOM     10  C   UNL A   1      32.275  26.055  22.270  1.00  0.00     0.337 C 
ATOM     11  H   UNL A   1      31.798  24.492  21.165  1.00  0.00     0.343 HD
ATOM     12  N   UNL A   1      31.340  26.837  21.682  1.00  0.00    -0.202 N 
ATOM     13  S   UNL A   1      33.096  26.921  23.527  1.00  0.00    -0.020 SA
ATOM     14  C   UNL A   1      31.007  28.007  22.291  1.00  0.00     0.322 C 
ATOM     15  H   UNL A   1      30.913  26.567  20.837  1.00  0.00     0.316 HD
ATOM     16  O   UNL A   1      30.052  28.693  21.944  1.00  0.00    -0.246 OA
BRANCH   9  17
ATOM     17  N   UNL A   1      33.202  23.941  22.590  1.00  0.00    -0.093 NA
ATOM     18  C   UNL A   1      32.581  23.125  23.384  1.00  0.00     0.170 C 
BRANCH  18  19
ATOM     19  C   UNL A   1      33.165  21.897  23.943  1.00  0.00     0.042 A 
ATOM     20  C   UNL A   1      32.906  19.526  24.336  1.00  0.00     0.119 A 
ATOM     21  C   UNL A   1      34.195  19.467  24.859  1.00  0.00     0.050 A 
ATOM     22  C   UNL A   1      32.381  20.735  23.880  1.00  0.00     0.060 A 
ATOM     23  C   UNL A   1      34.983  20.618  24.895  1.00  0.00     0.051 A 
ATOM     24  C   UNL A   1      34.483  21.833  24.416  1.00  0.00     0.128 A 
BRANCH  20  25
ATOM     25  O   UNL A   1      32.137  18.396  24.389  1.00  0.00    -0.497 OA
ATOM     26  C   UNL A   1      32.545  17.532  25.449  1.00  0.00     0.278 C 
ENDBRANCH  20  25
BRANCH  24  27
ATOM     27  O   UNL A   1      35.342  22.895  24.495  1.00  0.00    -0.496 OA
ATOM     28  C   UNL A   1      36.516  22.636  25.266  1.00  0.00     0.278 C 
ENDBRANCH  24  27
ENDBRANCH  18  19
ENDBRANCH   9  17
ENDBRANCH   7   8
ENDBRANCH   4   7
ENDBRANCH   2   3
ENDBRANCH   1   2
BRANCH   1  29
ATOM     29  C   UNL A   1      35.419  29.284  27.967  1.00  0.00     0.023 C 
BRANCH  29  30
ATOM     30  C   UNL A   1      35.507  30.768  28.266  1.00  0.00     0.116 C 
BRANCH  30  31
ATOM     31  N   UNL A   1      35.460  31.037  29.695  1.00  0.00    -0.352 N 
ATOM     32  C   UNL A   1      36.431  30.866  30.653  1.00  0.00     0.251 C 
ATOM     33  H   UNL A   1      34.605  31.395  30.025  1.00  0.00     0.163 HD
ATOM     34  O   UNL A   1      36.134  30.981  31.839  1.00  0.00    -0.269 OA
BRANCH  32  35
ATOM     35  C   UNL A   1      37.814  30.519  30.259  1.00  0.00     0.039 A 
ATOM     36  C   UNL A   1      38.695  30.028  31.228  1.00  0.00     0.014 A 
ATOM     37  C   UNL A   1      38.248  30.673  28.940  1.00  0.00     0.014 A 
ATOM     38  C   UNL A   1      39.984  29.636  30.858  1.00  0.00     0.010 A 
ATOM     39  C   UNL A   1      39.490  30.183  28.555  1.00  0.00     0.010 A 
ATOM     40  C   UNL A   1      40.379  29.676  29.511  1.00  0.00    -0.014 A 
BRANCH  40  41
ATOM     41  C   UNL A   1      41.728  29.228  29.077  1.00  0.00     0.031 A 
ATOM     42  C   UNL A   1      42.857  30.224  29.008  1.00  0.00     0.074 A 
ATOM     43  C   UNL A   1      41.915  27.958  28.666  1.00  0.00     0.049 A 
ATOM     44  N   UNL A   1      44.068  30.071  28.537  1.00  0.00    -0.248 NA
ATOM     45  C   UNL A   1      42.573  31.586  29.491  1.00  0.00     0.031 C 
ATOM     46  C   UNL A   1      40.887  26.917  28.629  1.00  0.00     0.029 A 
ATOM     47  N   UNL A   1      43.038  27.330  28.188  1.00  0.00    -0.354 N 
ATOM     48  C   UNL A   1      44.674  31.319  28.637  1.00  0.00     0.074 A 
ATOM     49  C   UNL A   1      43.679  32.231  29.158  1.00  0.00     0.031 C 
ATOM     50  C   UNL A   1      41.432  25.773  28.182  1.00  0.00     0.029 A 
ATOM     51  C   UNL A   1      42.836  26.009  27.864  1.00  0.00     0.049 A 
ATOM     52  H   UNL A   1      43.906  27.783  28.088  1.00  0.00     0.167 HD
ATOM     53  C   UNL A   1      45.949  31.668  28.350  1.00  0.00     0.037 A 
ATOM     54  C   UNL A   1      43.688  25.093  27.363  1.00  0.00     0.037 A 
ATOM     55  C   UNL A   1      46.949  30.740  27.890  1.00  0.00     0.049 A 
ATOM     56  C   UNL A   1      45.114  25.492  27.094  1.00  0.00     0.074 A 
ATOM     57  C   UNL A   1      48.289  30.973  27.641  1.00  0.00     0.029 A 
ATOM     58  N   UNL A   1      46.717  29.398  27.625  1.00  0.00    -0.354 N 
ATOM     59  N   UNL A   1      45.683  26.665  27.246  1.00  0.00    -0.248 NA
ATOM     60  C   UNL A   1      46.014  24.446  26.593  1.00  0.00     0.031 C 
ATOM     61  C   UNL A   1      48.863  29.777  27.194  1.00  0.00     0.029 A 
ATOM     62  C   UNL A   1      47.888  28.792  27.204  1.00  0.00     0.049 A 
ATOM     63  H   UNL A   1      45.848  28.945  27.720  1.00  0.00     0.167 HD
ATOM     64  C   UNL A   1      47.015  26.490  26.884  1.00  0.00     0.074 A 
ATOM     65  C   UNL A   1      47.168  25.097  26.516  1.00  0.00     0.031 C 
ATOM     66  C   UNL A   1      48.019  27.399  26.856  1.00  0.00     0.037 A 
BRANCH  53  67
ATOM     67  C   UNL A   1      46.340  33.108  28.543  1.00  0.00     0.058 A 
ATOM     68  C   UNL A   1      46.830  33.580  29.772  1.00  0.00     0.135 A 
ATOM     69  C   UNL A   1      46.246  34.023  27.482  1.00  0.00     0.135 A 
ATOM     70  F   UNL A   1      46.924  32.753  30.826  1.00  0.00    -0.206 F 
ATOM     71  C   UNL A   1      47.178  34.914  29.953  1.00  0.00     0.059 A 
ATOM     72  C   UNL A   1      46.617  35.356  27.632  1.00  0.00     0.059 A 
ATOM     73  F   UNL A   1      45.784  33.626  26.287  1.00  0.00    -0.206 F 
ATOM     74  C   UNL A   1      47.067  35.795  28.877  1.00  0.00     0.060 A 
BRANCH  74  75
ATOM     75  S   UNL A   1      47.522  37.524  29.128  1.00  0.00     0.124 S 
ATOM     76  O   UNL A   1      47.023  38.135  27.900  1.00  0.00    -0.237 OA
ATOM     77  O   UNL A   1      46.795  37.865  30.347  1.00  0.00    -0.237 OA
ATOM     78  O   UNL A   1      48.975  37.477  29.260  1.00  0.00    -0.744 OA
ENDBRANCH  74  75
ENDBRANCH  53  67
BRANCH  54  79
ATOM     79  C   UNL A   1      43.224  23.702  27.116  1.00  0.00     0.058 A 
ATOM     80  C   UNL A   1      42.915  23.269  25.818  1.00  0.00     0.135 A 
ATOM     81  C   UNL A   1      43.092  22.777  28.162  1.00  0.00     0.135 A 
ATOM     82  F   UNL A   1      43.023  24.119  24.785  1.00  0.00    -0.206 F 
ATOM     83  C   UNL A   1      42.473  21.975  25.566  1.00  0.00     0.059 A 
ATOM     84  C   UNL A   1      42.675  21.469  27.933  1.00  0.00     0.059 A 
ATOM     85  F   UNL A   1      43.395  23.136  29.420  1.00  0.00    -0.206 F 
ATOM     86  C   UNL A   1      42.357  21.082  26.632  1.00  0.00     0.060 A 
BRANCH  86  87
ATOM     87  S   UNL A   1      41.826  19.389  26.289  1.00  0.00     0.124 S 
ATOM     88  O   UNL A   1      42.277  18.694  27.490  1.00  0.00    -0.237 OA
ATOM     89  O   UNL A   1      40.382  19.543  26.143  1.00  0.00    -0.237 OA
ATOM     90  O   UNL A   1      42.542  19.059  25.062  1.00  0.00    -0.744 OA
ENDBRANCH  86  87
ENDBRANCH  54  79
BRANCH  66  91
ATOM     91  C   UNL A   1      49.380  26.913  26.448  1.00  0.00     0.058 A 
ATOM     92  C   UNL A   1      50.266  26.343  27.375  1.00  0.00     0.135 A 
ATOM     93  C   UNL A   1      49.778  26.964  25.103  1.00  0.00     0.135 A 
ATOM     94  F   UNL A   1      49.934  26.276  28.674  1.00  0.00    -0.206 F 
ATOM     95  C   UNL A   1      51.509  25.857  26.984  1.00  0.00     0.059 A 
ATOM     96  C   UNL A   1      51.006  26.463  24.685  1.00  0.00     0.059 A 
ATOM     97  F   UNL A   1      48.961  27.491  24.176  1.00  0.00    -0.206 F 
ATOM     98  C   UNL A   1      51.870  25.920  25.636  1.00  0.00     0.060 A 
BRANCH  98  99
ATOM     99  S   UNL A   1      53.469  25.249  25.136  1.00  0.00     0.124 S 
ATOM    100  O   UNL A   1      53.573  25.733  23.763  1.00  0.00    -0.237 OA
ATOM    101  O   UNL A   1      54.381  25.861  26.095  1.00  0.00    -0.237 OA
ATOM    102  O   UNL A   1      53.291  23.807  25.282  1.00  0.00    -0.744 OA
ENDBRANCH  98  99
ENDBRANCH  66  91
ENDBRANCH  40  41
ENDBRANCH  32  35
ENDBRANCH  30  31
ENDBRANCH  29  30
ENDBRANCH   1  29
TORSDOF 19
ENDMDL
MODEL 3
REMARK VINA RESULT:     -11.5      1.141      2.112
REMARK SMILES COc1ccc(OC)c(/C=N/[NH+]=C2/NC(=O)[C@@H](CC(=O)NCCCCNC(=O)c3ccc(-c4c5nc(c(-c6c(F)cc(S(=O)(=O)[O-])cc6F)c6ccc([nH]6)c(-c6c(F)cc(S(=O)(=O)[O-])cc6F)c6nc(c(-c7c(F)cc(S(=O)(=O)[O-])cc7F)c7ccc4[nH]7)C=C6)C=C5)cc3)S2)c1
REMARK SMILES IDX 23 1 22 2 21 3 19 4 20 5 18 7 17 8 12 9 13 10 14 12 95 13
REMARK SMILES IDX 15 14 16 16 11 17 10 18 9 19 3 20 4 21 96 22 5 23 6 24 2 25
REMARK SMILES IDX 1 26 7 27 8 28 24 29 25 30 26 31 27 32 28 34 29 35 30 36
REMARK SMILES IDX 94 37 31 38 93 39 32 40 33 41 34 42 87 43 35 44 92 45 86 46
REMARK SMILES IDX 88 47 36 48 91 49 85 50 84 51 37 53 71 54 50 55 70 56 51 57
REMARK SMILES IDX 54 58 69 59 89 60 52 61 53 62 68 64 90 65 55 66 38 67 39 68
REMARK SMILES IDX 48 69 40 70 41 71 47 72 49 73 42 74 43 75 44 76 45 77 46 78
REMARK SMILES IDX 72 79 73 80 82 81 74 82 75 83 81 84 83 85 76 86 77 87 78 88
REMARK SMILES IDX 79 89 80 90 56 91 57 92 66 93 58 94 59 95 65 96 67 97 60 98
REMARK SMILES IDX 61 99 62 100 63 101 64 102
REMARK H PARENT 21 6 12 11 14 15 26 33 88 52 54 63
REMARK Flexibility Score: inf
ROOT
ATOM      1  C   UNL A   1      32.882  28.669  27.330  1.00  0.00     0.023 C 
ENDROOT
BRANCH   1   2
ATOM      2  C   UNL A   1      32.087  28.243  26.099  1.00  0.00     0.116 C 
BRANCH   2   3
ATOM      3  N   UNL A   1      32.722  28.691  24.872  1.00  0.00    -0.356 N 
ATOM      4  C   UNL A   1      32.219  28.893  23.626  1.00  0.00     0.221 C 
ATOM      5  O   UNL A   1      32.990  29.279  22.746  1.00  0.00    -0.275 OA
ATOM      6  H   UNL A   1      33.684  28.883  24.958  1.00  0.00     0.163 HD
BRANCH   4   7
ATOM      7  C   UNL A   1      30.752  28.676  23.328  1.00  0.00     0.127 C 
BRANCH   7   8
ATOM      8  C   UNL A   1      30.348  27.299  22.796  1.00  0.00     0.183 C 
ATOM      9  N   UNL A   1      30.847  23.970  24.657  1.00  0.00    -0.142 N 
ATOM     10  C   UNL A   1      30.567  24.984  23.915  1.00  0.00     0.337 C 
ATOM     11  H   UNL A   1      30.139  23.539  25.187  1.00  0.00     0.343 HD
ATOM     12  N   UNL A   1      29.321  25.509  23.994  1.00  0.00    -0.202 N 
ATOM     13  S   UNL A   1      31.572  25.946  22.882  1.00  0.00    -0.020 SA
ATOM     14  C   UNL A   1      29.125  26.768  23.515  1.00  0.00     0.322 C 
ATOM     15  H   UNL A   1      28.578  24.995  24.385  1.00  0.00     0.316 HD
ATOM     16  O   UNL A   1      28.091  27.400  23.702  1.00  0.00    -0.246 OA
BRANCH   9  17
ATOM     17  N   UNL A   1      32.157  23.480  24.712  1.00  0.00    -0.093 NA
ATOM     18  C   UNL A   1      32.239  22.280  25.197  1.00  0.00     0.170 C 
BRANCH  18  19
ATOM     19  C   UNL A   1      33.408  21.400  25.056  1.00  0.00     0.042 A 
ATOM     20  C   UNL A   1      35.815  21.196  25.149  1.00  0.00     0.119 A 
ATOM     21  C   UNL A   1      35.712  19.824  24.935  1.00  0.00     0.050 A 
ATOM     22  C   UNL A   1      34.671  21.992  25.207  1.00  0.00     0.060 A 
ATOM     23  C   UNL A   1      34.453  19.233  24.813  1.00  0.00     0.051 A 
ATOM     24  C   UNL A   1      33.295  20.012  24.897  1.00  0.00     0.128 A 
BRANCH  20  25
ATOM     25  O   UNL A   1      37.064  21.749  25.185  1.00  0.00    -0.497 OA
ATOM     26  C   UNL A   1      38.084  20.751  25.163  1.00  0.00     0.278 C 
ENDBRANCH  20  25
BRANCH  24  27
ATOM     27  O   UNL A   1      32.117  19.328  24.769  1.00  0.00    -0.496 OA
ATOM     28  C   UNL A   1      32.177  18.232  23.857  1.00  0.00     0.278 C 
ENDBRANCH  24  27
ENDBRANCH  18  19
ENDBRANCH   9  17
ENDBRANCH   7   8
ENDBRANCH   4   7
ENDBRANCH   2   3
ENDBRANCH   1   2
BRANCH   1  29
ATOM     29  C   UNL A   1      33.918  29.765  27.082  1.00  0.00     0.023 C 
BRANCH  29  30
ATOM     30  C   UNL A   1      35.240  29.542  27.790  1.00  0.00     0.116 C 
BRANCH  30  31
ATOM     31  N   UNL A   1      35.316  30.280  29.042  1.00  0.00    -0.352 N 
ATOM     32  C   UNL A   1      36.362  30.407  29.924  1.00  0.00     0.251 C 
ATOM     33  H   UNL A   1      34.494  30.760  29.296  1.00  0.00     0.163 HD
ATOM     34  O   UNL A   1      36.167  30.927  31.020  1.00  0.00    -0.269 OA
BRANCH  32  35
ATOM     35  C   UNL A   1      37.705  29.896  29.568  1.00  0.00     0.039 A 
ATOM     36  C   UNL A   1      38.091  29.877  28.224  1.00  0.00     0.014 A 
ATOM     37  C   UNL A   1      38.585  29.438  30.551  1.00  0.00     0.014 A 
ATOM     38  C   UNL A   1      39.378  29.458  27.879  1.00  0.00     0.010 A 
ATOM     39  C   UNL A   1      39.897  29.125  30.218  1.00  0.00     0.010 A 
ATOM     40  C   UNL A   1      40.304  29.113  28.877  1.00  0.00    -0.014 A 
BRANCH  40  41
ATOM     41  C   UNL A   1      41.694  28.702  28.549  1.00  0.00     0.031 A 
ATOM     42  C   UNL A   1      42.790  29.736  28.521  1.00  0.00     0.074 A 
ATOM     43  C   UNL A   1      41.953  27.428  28.197  1.00  0.00     0.049 A 
ATOM     44  N   UNL A   1      44.034  29.613  28.137  1.00  0.00    -0.248 NA
ATOM     45  C   UNL A   1      42.426  31.102  28.936  1.00  0.00     0.031 C 
ATOM     46  C   UNL A   1      40.966  26.348  28.127  1.00  0.00     0.029 A 
ATOM     47  N   UNL A   1      43.126  26.826  27.816  1.00  0.00    -0.354 N 
ATOM     48  C   UNL A   1      44.588  30.885  28.234  1.00  0.00     0.074 A 
ATOM     49  C   UNL A   1      43.530  31.776  28.655  1.00  0.00     0.031 C 
ATOM     50  C   UNL A   1      41.580  25.212  27.758  1.00  0.00     0.029 A 
ATOM     51  C   UNL A   1      42.993  25.488  27.526  1.00  0.00     0.049 A 
ATOM     52  H   UNL A   1      43.983  27.307  27.759  1.00  0.00     0.167 HD
ATOM     53  C   UNL A   1      45.868  31.271  28.021  1.00  0.00     0.037 A 
ATOM     54  C   UNL A   1      43.908  24.589  27.115  1.00  0.00     0.037 A 
ATOM     55  C   UNL A   1      46.928  30.367  27.661  1.00  0.00     0.049 A 
ATOM     56  C   UNL A   1      45.334  25.031  26.928  1.00  0.00     0.074 A 
ATOM     57  C   UNL A   1      48.273  30.641  27.494  1.00  0.00     0.029 A 
ATOM     58  N   UNL A   1      46.761  29.009  27.428  1.00  0.00    -0.354 N 
ATOM     59  N   UNL A   1      45.851  26.229  27.077  1.00  0.00    -0.248 NA
ATOM     60  C   UNL A   1      46.302  24.003  26.524  1.00  0.00     0.031 C 
ATOM     61  C   UNL A   1      48.917  29.453  27.128  1.00  0.00     0.029 A 
ATOM     62  C   UNL A   1      47.979  28.433  27.108  1.00  0.00     0.049 A 
ATOM     63  H   UNL A   1      45.904  28.527  27.481  1.00  0.00     0.167 HD
ATOM     64  C   UNL A   1      47.209  26.091  26.810  1.00  0.00     0.074 A 
ATOM     65  C   UNL A   1      47.435  24.694  26.502  1.00  0.00     0.031 C 
ATOM     66  C   UNL A   1      48.181  27.036  26.818  1.00  0.00     0.037 A 
BRANCH  53  67
ATOM     67  C   UNL A   1      46.194  32.730  28.189  1.00  0.00     0.058 A 
ATOM     68  C   UNL A   1      46.636  33.249  29.418  1.00  0.00     0.135 A 
ATOM     69  C   UNL A   1      46.088  33.617  27.105  1.00  0.00     0.135 A 
ATOM     70  F   UNL A   1      46.739  32.451  30.492  1.00  0.00    -0.206 F 
ATOM     71  C   UNL A   1      46.925  34.601  29.575  1.00  0.00     0.059 A 
ATOM     72  C   UNL A   1      46.400  34.967  27.233  1.00  0.00     0.059 A 
ATOM     73  F   UNL A   1      45.671  33.175  25.909  1.00  0.00    -0.206 F 
ATOM     74  C   UNL A   1      46.802  35.452  28.477  1.00  0.00     0.060 A 
BRANCH  74  75
ATOM     75  S   UNL A   1      47.180  37.203  28.697  1.00  0.00     0.124 S 
ATOM     76  O   UNL A   1      48.045  37.167  29.872  1.00  0.00    -0.237 OA
ATOM     77  O   UNL A   1      47.836  37.543  27.438  1.00  0.00    -0.237 OA
ATOM     78  O   UNL A   1      45.869  37.811  28.902  1.00  0.00    -0.744 OA
ENDBRANCH  74  75
ENDBRANCH  53  67
BRANCH  54  79
ATOM     79  C   UNL A   1      43.510  23.175  26.886  1.00  0.00     0.058 A 
ATOM     80  C   UNL A   1      43.378  22.669  25.585  1.00  0.00     0.135 A 
ATOM     81  C   UNL A   1      43.268  22.299  27.956  1.00  0.00     0.135 A 
ATOM     82  F   UNL A   1      43.596  23.468  24.530  1.00  0.00    -0.206 F 
ATOM     83  C   UNL A   1      43.000  21.351  25.349  1.00  0.00     0.059 A 
ATOM     84  C   UNL A   1      42.912  20.970  27.746  1.00  0.00     0.059 A 
ATOM     85  F   UNL A   1      43.401  22.729  29.220  1.00  0.00    -0.206 F 
ATOM     86  C   UNL A   1      42.770  20.509  26.438  1.00  0.00     0.060 A 
BRANCH  86  87
ATOM     87  S   UNL A   1      42.325  18.787  26.122  1.00  0.00     0.124 S 
ATOM     88  O   UNL A   1      42.546  18.184  27.432  1.00  0.00    -0.237 OA
ATOM     89  O   UNL A   1      40.934  18.902  25.697  1.00  0.00    -0.237 OA
ATOM     90  O   UNL A   1      43.261  18.388  25.077  1.00  0.00    -0.744 OA
ENDBRANCH  86  87
ENDBRANCH  54  79
BRANCH  66  91
ATOM     91  C   UNL A   1      49.583  26.587  26.519  1.00  0.00     0.058 A 
ATOM     92  C   UNL A   1      50.396  26.010  27.505  1.00  0.00     0.135 A 
ATOM     93  C   UNL A   1      50.095  26.682  25.215  1.00  0.00     0.135 A 
ATOM     94  F   UNL A   1      49.955  25.902  28.768  1.00  0.00    -0.206 F 
ATOM     95  C   UNL A   1      51.679  25.559  27.213  1.00  0.00     0.059 A 
ATOM     96  C   UNL A   1      51.365  26.216  24.894  1.00  0.00     0.059 A 
ATOM     97  F   UNL A   1      49.351  27.217  24.233  1.00  0.00    -0.206 F 
ATOM     98  C   UNL A   1      52.154  25.664  25.903  1.00  0.00     0.060 A 
BRANCH  98  99
ATOM     99  S   UNL A   1      53.805  25.038  25.528  1.00  0.00     0.124 S 
ATOM    100  O   UNL A   1      54.523  25.349  26.760  1.00  0.00    -0.237 OA
ATOM    101  O   UNL A   1      53.555  23.622  25.280  1.00  0.00    -0.237 OA
ATOM    102  O   UNL A   1      54.202  25.813  24.357  1.00  0.00    -0.744 OA
ENDBRANCH  98  99
ENDBRANCH  66  91
ENDBRANCH  40  41
ENDBRANCH  32  35
ENDBRANCH  30  31
ENDBRANCH  29  30
ENDBRANCH   1  29
TORSDOF 19
ENDMDL
