MODEL 1
REMARK VINA RESULT:     -12.6      0.000      0.000
REMARK SMILES O=C(NCCCCNC(=O)c1cc(O)ccc1NC(=O)c1ccc(Br)nc1)c1ccc(-c2c3nc(c(-c4c(F)cc(S(=O)(=O)[O-])cc4F)c4ccc([nH]4)c(-c4c(F)cc(S(=O)(=O)[O-])cc4F)c4nc(c(-c5c(F)cc(S(=O)(=O)[O-])cc5F)c5ccc2[nH]5)C=C4)C=C3)cc1
REMARK SMILES IDX 5 1 4 2 3 3 1 4 2 5 28 7 29 8 93 9 30 10 92 11 31 12 32 13
REMARK SMILES IDX 33 14 86 15 34 16 91 17 85 18 87 19 35 20 90 21 84 22 83 23
REMARK SMILES IDX 36 25 70 26 49 27 69 28 50 29 53 30 68 31 88 32 51 33 52 34
REMARK SMILES IDX 67 36 89 37 54 38 37 39 38 40 47 41 39 42 40 43 46 44 48 45
REMARK SMILES IDX 41 46 42 47 43 48 44 49 45 50 71 51 72 52 81 53 73 54 74 55
REMARK SMILES IDX 80 56 82 57 75 58 76 59 77 60 78 61 79 62 55 63 56 64 65 65
REMARK SMILES IDX 57 66 58 67 64 68 66 69 59 70 60 71 61 72 62 73 63 74 6 75
REMARK SMILES IDX 7 76 8 77 9 78 10 80 11 81 12 82 17 83 13 84 16 85 15 86
REMARK SMILES IDX 18 87 19 88 20 90 21 91 22 92 27 93 23 94 26 95 24 96 25 97
REMARK SMILES IDX 14 98
REMARK H PARENT 3 6 87 24 53 35 8 79 18 89 14 99
REMARK Flexibility Score: inf
ROOT
ATOM      1  C   UNL A   1      37.543  23.598  25.468  1.00  0.00     0.023 C 
ENDROOT
BRANCH   1   2
ATOM      2  C   UNL A   1      38.525  24.009  26.559  1.00  0.00     0.116 C 
BRANCH   2   3
ATOM      3  N   UNL A   1      39.915  23.971  26.129  1.00  0.00    -0.352 N 
ATOM      4  O   UNL A   1      42.053  24.659  25.958  1.00  0.00    -0.269 OA
ATOM      5  C   UNL A   1      40.964  24.772  26.513  1.00  0.00     0.251 C 
ATOM      6  H   UNL A   1      40.135  23.273  25.470  1.00  0.00     0.163 HD
BRANCH   5   7
ATOM      7  C   UNL A   1      40.766  25.789  27.569  1.00  0.00     0.039 A 
ATOM      8  C   UNL A   1      41.628  26.883  27.679  1.00  0.00     0.014 A 
ATOM      9  C   UNL A   1      39.706  25.636  28.468  1.00  0.00     0.014 A 
ATOM     10  C   UNL A   1      41.517  27.741  28.768  1.00  0.00     0.010 A 
ATOM     11  C   UNL A   1      39.552  26.543  29.520  1.00  0.00     0.010 A 
ATOM     12  C   UNL A   1      40.476  27.582  29.699  1.00  0.00    -0.014 A 
BRANCH  12  13
ATOM     13  C   UNL A   1      40.353  28.548  30.820  1.00  0.00     0.031 A 
ATOM     14  C   UNL A   1      41.266  28.478  32.013  1.00  0.00     0.074 A 
ATOM     15  C   UNL A   1      39.421  29.518  30.736  1.00  0.00     0.049 A 
ATOM     16  N   UNL A   1      41.309  29.259  33.062  1.00  0.00    -0.248 NA
ATOM     17  C   UNL A   1      42.256  27.389  32.037  1.00  0.00     0.031 C 
ATOM     18  C   UNL A   1      38.469  29.675  29.634  1.00  0.00     0.029 A 
ATOM     19  N   UNL A   1      39.134  30.562  31.575  1.00  0.00    -0.354 N 
ATOM     20  C   UNL A   1      42.312  28.750  33.879  1.00  0.00     0.074 A 
ATOM     21  C   UNL A   1      42.841  27.579  33.212  1.00  0.00     0.031 C 
ATOM     22  C   UNL A   1      37.734  30.778  29.843  1.00  0.00     0.029 A 
ATOM     23  C   UNL A   1      38.127  31.375  31.114  1.00  0.00     0.049 A 
ATOM     24  H   UNL A   1      39.604  30.716  32.428  1.00  0.00     0.167 HD
ATOM     25  C   UNL A   1      42.753  29.221  35.070  1.00  0.00     0.037 A 
ATOM     26  C   UNL A   1      37.572  32.476  31.656  1.00  0.00     0.037 A 
ATOM     27  C   UNL A   1      42.236  30.400  35.719  1.00  0.00     0.049 A 
ATOM     28  C   UNL A   1      38.082  32.978  32.975  1.00  0.00     0.074 A 
ATOM     29  C   UNL A   1      42.641  30.975  36.911  1.00  0.00     0.029 A 
ATOM     30  N   UNL A   1      41.202  31.185  35.230  1.00  0.00    -0.354 N 
ATOM     31  N   UNL A   1      39.046  32.494  33.721  1.00  0.00    -0.248 NA
ATOM     32  C   UNL A   1      37.427  34.170  33.528  1.00  0.00     0.031 C 
ATOM     33  C   UNL A   1      41.832  32.091  37.157  1.00  0.00     0.029 A 
ATOM     34  C   UNL A   1      40.945  32.230  36.102  1.00  0.00     0.049 A 
ATOM     35  H   UNL A   1      40.721  31.023  34.385  1.00  0.00     0.167 HD
ATOM     36  C   UNL A   1      39.116  33.325  34.831  1.00  0.00     0.074 A 
ATOM     37  C   UNL A   1      38.113  34.354  34.649  1.00  0.00     0.031 C 
ATOM     38  C   UNL A   1      39.936  33.240  35.907  1.00  0.00     0.037 A 
BRANCH  25  39
ATOM     39  C   UNL A   1      43.844  28.455  35.762  1.00  0.00     0.058 A 
ATOM     40  C   UNL A   1      45.200  28.737  35.535  1.00  0.00     0.135 A 
ATOM     41  C   UNL A   1      43.531  27.455  36.697  1.00  0.00     0.135 A 
ATOM     42  F   UNL A   1      45.555  29.673  34.641  1.00  0.00    -0.206 F 
ATOM     43  C   UNL A   1      46.208  28.040  36.195  1.00  0.00     0.059 A 
ATOM     44  C   UNL A   1      44.522  26.757  37.382  1.00  0.00     0.059 A 
ATOM     45  F   UNL A   1      42.249  27.147  36.951  1.00  0.00    -0.206 F 
ATOM     46  C   UNL A   1      45.859  27.048  37.114  1.00  0.00     0.060 A 
BRANCH  46  47
ATOM     47  S   UNL A   1      47.175  26.149  37.963  1.00  0.00     0.124 S 
ATOM     48  O   UNL A   1      48.318  26.424  37.097  1.00  0.00    -0.237 OA
ATOM     49  O   UNL A   1      47.203  26.795  39.272  1.00  0.00    -0.237 OA
ATOM     50  O   UNL A   1      46.701  24.769  37.960  1.00  0.00    -0.744 OA
ENDBRANCH  46  47
ENDBRANCH  25  39
BRANCH  26  51
ATOM     51  C   UNL A   1      36.474  33.169  30.939  1.00  0.00     0.058 A 
ATOM     52  C   UNL A   1      35.152  33.088  31.395  1.00  0.00     0.135 A 
ATOM     53  C   UNL A   1      36.736  33.967  29.815  1.00  0.00     0.135 A 
ATOM     54  F   UNL A   1      34.855  32.336  32.466  1.00  0.00    -0.206 F 
ATOM     55  C   UNL A   1      34.122  33.772  30.759  1.00  0.00     0.059 A 
ATOM     56  C   UNL A   1      35.727  34.678  29.176  1.00  0.00     0.059 A 
ATOM     57  F   UNL A   1      37.990  34.090  29.354  1.00  0.00    -0.206 F 
ATOM     58  C   UNL A   1      34.420  34.569  29.652  1.00  0.00     0.060 A 
BRANCH  58  59
ATOM     59  S   UNL A   1      33.094  35.518  28.876  1.00  0.00     0.124 S 
ATOM     60  O   UNL A   1      32.358  35.996  30.040  1.00  0.00    -0.237 OA
ATOM     61  O   UNL A   1      33.832  36.530  28.127  1.00  0.00    -0.237 OA
ATOM     62  O   UNL A   1      32.409  34.523  28.056  1.00  0.00    -0.744 OA
ENDBRANCH  58  59
ENDBRANCH  26  51
BRANCH  38  63
ATOM     63  C   UNL A   1      39.784  34.295  36.964  1.00  0.00     0.058 A 
ATOM     64  C   UNL A   1      40.392  35.552  36.833  1.00  0.00     0.135 A 
ATOM     65  C   UNL A   1      39.002  34.056  38.104  1.00  0.00     0.135 A 
ATOM     66  F   UNL A   1      41.158  35.825  35.764  1.00  0.00    -0.206 F 
ATOM     67  C   UNL A   1      40.246  36.533  37.807  1.00  0.00     0.059 A 
ATOM     68  C   UNL A   1      38.826  35.029  39.082  1.00  0.00     0.059 A 
ATOM     69  F   UNL A   1      38.395  32.870  38.271  1.00  0.00    -0.206 F 
ATOM     70  C   UNL A   1      39.464  36.260  38.931  1.00  0.00     0.060 A 
BRANCH  70  71
ATOM     71  S   UNL A   1      39.260  37.545  40.183  1.00  0.00     0.124 S 
ATOM     72  O   UNL A   1      38.229  38.383  39.578  1.00  0.00    -0.237 OA
ATOM     73  O   UNL A   1      38.847  36.781  41.357  1.00  0.00    -0.237 OA
ATOM     74  O   UNL A   1      40.587  38.145  40.270  1.00  0.00    -0.744 OA
ENDBRANCH  70  71
ENDBRANCH  38  63
ENDBRANCH  12  13
ENDBRANCH   5   7
ENDBRANCH   2   3
ENDBRANCH   1   2
BRANCH   1  75
ATOM     75  C   UNL A   1      36.114  24.103  25.645  1.00  0.00     0.023 C 
BRANCH  75  76
ATOM     76  C   UNL A   1      35.272  24.141  24.374  1.00  0.00     0.116 C 
BRANCH  76  77
ATOM     77  N   UNL A   1      34.421  22.969  24.217  1.00  0.00    -0.352 N 
ATOM     78  C   UNL A   1      33.184  22.879  23.622  1.00  0.00     0.253 C 
ATOM     79  H   UNL A   1      34.778  22.130  24.586  1.00  0.00     0.163 HD
ATOM     80  O   UNL A   1      32.516  21.853  23.692  1.00  0.00    -0.269 OA
BRANCH  78  81
ATOM     81  C   UNL A   1      32.629  24.070  22.948  1.00  0.00     0.067 A 
ATOM     82  C   UNL A   1      32.957  24.270  21.597  1.00  0.00     0.062 A 
ATOM     83  C   UNL A   1      31.867  25.009  23.670  1.00  0.00     0.054 A 
ATOM     84  C   UNL A   1      32.654  25.484  21.004  1.00  0.00     0.116 A 
ATOM     85  C   UNL A   1      31.664  26.253  23.068  1.00  0.00     0.031 A 
ATOM     86  C   UNL A   1      32.047  26.488  21.743  1.00  0.00     0.048 A 
BRANCH  83  87
ATOM     87  N   UNL A   1      31.370  24.663  24.952  1.00  0.00    -0.321 N 
ATOM     88  C   UNL A   1      31.534  25.217  26.203  1.00  0.00     0.257 C 
ATOM     89  H   UNL A   1      30.793  23.866  24.948  1.00  0.00     0.170 HD
ATOM     90  O   UNL A   1      31.123  24.640  27.207  1.00  0.00    -0.269 OA
BRANCH  88  91
ATOM     91  C   UNL A   1      32.157  26.531  26.387  1.00  0.00     0.058 A 
ATOM     92  C   UNL A   1      33.508  26.764  26.126  1.00  0.00     0.018 A 
ATOM     93  C   UNL A   1      31.378  27.578  26.855  1.00  0.00     0.126 A 
ATOM     94  C   UNL A   1      34.046  28.011  26.437  1.00  0.00     0.037 A 
ATOM     95  N   UNL A   1      31.879  28.799  27.165  1.00  0.00    -0.249 NA
ATOM     96  C   UNL A   1      33.204  28.984  26.963  1.00  0.00     0.106 A 
ATOM     97  Br  UNL A   1      33.942  30.655  27.470  1.00  0.00    -0.029 Br
ENDBRANCH  88  91
ENDBRANCH  83  87
BRANCH  84  98
ATOM     98  O   UNL A   1      32.982  25.752  19.712  1.00  0.00    -0.508 OA
ATOM     99  H   UNL A   1      32.610  26.495  19.279  1.00  0.00     0.293 HD
ENDBRANCH  84  98
ENDBRANCH  78  81
ENDBRANCH  76  77
ENDBRANCH  75  76
ENDBRANCH   1  75
TORSDOF 17
ENDMDL
MODEL 2
REMARK VINA RESULT:     -12.5      6.531     11.768
REMARK SMILES O=C(NCCCCNC(=O)c1cc(O)ccc1NC(=O)c1ccc(Br)nc1)c1ccc(-c2c3nc(c(-c4c(F)cc(S(=O)(=O)[O-])cc4F)c4ccc([nH]4)c(-c4c(F)cc(S(=O)(=O)[O-])cc4F)c4nc(c(-c5c(F)cc(S(=O)(=O)[O-])cc5F)c5ccc2[nH]5)C=C4)C=C3)cc1
REMARK SMILES IDX 5 1 4 2 3 3 1 4 2 5 28 7 29 8 93 9 30 10 92 11 31 12 32 13
REMARK SMILES IDX 33 14 86 15 34 16 91 17 85 18 87 19 35 20 90 21 84 22 83 23
REMARK SMILES IDX 36 25 70 26 49 27 69 28 50 29 53 30 68 31 88 32 51 33 52 34
REMARK SMILES IDX 67 36 89 37 54 38 37 39 38 40 47 41 39 42 40 43 46 44 48 45
REMARK SMILES IDX 41 46 42 47 43 48 44 49 45 50 71 51 72 52 81 53 73 54 74 55
REMARK SMILES IDX 80 56 82 57 75 58 76 59 77 60 78 61 79 62 55 63 56 64 65 65
REMARK SMILES IDX 57 66 58 67 64 68 66 69 59 70 60 71 61 72 62 73 63 74 6 75
REMARK SMILES IDX 7 76 8 77 9 78 10 80 11 81 12 82 17 83 13 84 16 85 15 86
REMARK SMILES IDX 18 87 19 88 20 90 21 91 22 92 27 93 23 94 26 95 24 96 25 97
REMARK SMILES IDX 14 98
REMARK H PARENT 3 6 87 24 53 35 8 79 18 89 14 99
REMARK Flexibility Score: inf
ROOT
ATOM      1  C   UNL A   1      34.622  30.604  27.763  1.00  0.00     0.023 C 
ENDROOT
BRANCH   1   2
ATOM      2  C   UNL A   1      35.633  31.337  28.638  1.00  0.00     0.116 C 
BRANCH   2   3
ATOM      3  N   UNL A   1      35.509  31.019  30.053  1.00  0.00    -0.352 N 
ATOM      4  O   UNL A   1      36.113  30.166  32.049  1.00  0.00    -0.269 OA
ATOM      5  C   UNL A   1      36.436  30.461  30.901  1.00  0.00     0.251 C 
ATOM      6  H   UNL A   1      34.639  31.235  30.460  1.00  0.00     0.163 HD
BRANCH   5   7
ATOM      7  C   UNL A   1      37.807  30.188  30.417  1.00  0.00     0.039 A 
ATOM      8  C   UNL A   1      38.107  30.236  29.054  1.00  0.00     0.014 A 
ATOM      9  C   UNL A   1      38.804  29.867  31.345  1.00  0.00     0.014 A 
ATOM     10  C   UNL A   1      39.359  29.828  28.609  1.00  0.00     0.010 A 
ATOM     11  C   UNL A   1      40.084  29.529  30.900  1.00  0.00     0.010 A 
ATOM     12  C   UNL A   1      40.363  29.472  29.527  1.00  0.00    -0.014 A 
BRANCH  12  13
ATOM     13  C   UNL A   1      41.707  29.093  29.022  1.00  0.00     0.031 A 
ATOM     14  C   UNL A   1      42.847  30.074  29.030  1.00  0.00     0.074 A 
ATOM     15  C   UNL A   1      41.900  27.834  28.583  1.00  0.00     0.049 A 
ATOM     16  N   UNL A   1      44.086  29.896  28.651  1.00  0.00    -0.248 NA
ATOM     17  C   UNL A   1      42.560  31.432  29.519  1.00  0.00     0.031 C 
ATOM     18  C   UNL A   1      40.864  26.800  28.514  1.00  0.00     0.029 A 
ATOM     19  N   UNL A   1      43.029  27.203  28.133  1.00  0.00    -0.354 N 
ATOM     20  C   UNL A   1      44.725  31.117  28.837  1.00  0.00     0.074 A 
ATOM     21  C   UNL A   1      43.728  32.036  29.346  1.00  0.00     0.031 C 
ATOM     22  C   UNL A   1      41.415  25.652  28.092  1.00  0.00     0.029 A 
ATOM     23  C   UNL A   1      42.829  25.881  27.813  1.00  0.00     0.049 A 
ATOM     24  H   UNL A   1      43.902  27.653  28.046  1.00  0.00     0.167 HD
ATOM     25  C   UNL A   1      46.021  31.436  28.611  1.00  0.00     0.037 A 
ATOM     26  C   UNL A   1      43.684  24.956  27.339  1.00  0.00     0.037 A 
ATOM     27  C   UNL A   1      47.013  30.511  28.124  1.00  0.00     0.049 A 
ATOM     28  C   UNL A   1      45.115  25.336  27.101  1.00  0.00     0.074 A 
ATOM     29  C   UNL A   1      48.360  30.733  27.894  1.00  0.00     0.029 A 
ATOM     30  N   UNL A   1      46.766  29.187  27.793  1.00  0.00    -0.354 N 
ATOM     31  N   UNL A   1      45.703  26.491  27.303  1.00  0.00    -0.248 NA
ATOM     32  C   UNL A   1      45.998  24.292  26.565  1.00  0.00     0.031 C 
ATOM     33  C   UNL A   1      48.922  29.551  27.397  1.00  0.00     0.029 A 
ATOM     34  C   UNL A   1      47.931  28.583  27.347  1.00  0.00     0.049 A 
ATOM     35  H   UNL A   1      45.891  28.740  27.865  1.00  0.00     0.167 HD
ATOM     36  C   UNL A   1      47.026  26.312  26.923  1.00  0.00     0.074 A 
ATOM     37  C   UNL A   1      47.158  24.932  26.499  1.00  0.00     0.031 C 
ATOM     38  C   UNL A   1      48.040  27.211  26.922  1.00  0.00     0.037 A 
BRANCH  25  39
ATOM     39  C   UNL A   1      46.446  32.854  28.874  1.00  0.00     0.058 A 
ATOM     40  C   UNL A   1      46.387  33.838  27.875  1.00  0.00     0.135 A 
ATOM     41  C   UNL A   1      46.878  33.243  30.152  1.00  0.00     0.135 A 
ATOM     42  F   UNL A   1      45.996  33.516  26.632  1.00  0.00    -0.206 F 
ATOM     43  C   UNL A   1      46.761  35.154  28.128  1.00  0.00     0.059 A 
ATOM     44  C   UNL A   1      47.239  34.558  30.433  1.00  0.00     0.059 A 
ATOM     45  F   UNL A   1      46.953  32.341  31.143  1.00  0.00    -0.206 F 
ATOM     46  C   UNL A   1      47.191  35.504  29.410  1.00  0.00     0.060 A 
BRANCH  46  47
ATOM     47  S   UNL A   1      47.674  37.215  29.727  1.00  0.00     0.124 S 
ATOM     48  O   UNL A   1      48.943  37.032  30.425  1.00  0.00    -0.237 OA
ATOM     49  O   UNL A   1      47.765  37.771  28.381  1.00  0.00    -0.237 OA
ATOM     50  O   UNL A   1      46.578  37.731  30.541  1.00  0.00    -0.744 OA
ENDBRANCH  46  47
ENDBRANCH  25  39
BRANCH  26  51
ATOM     51  C   UNL A   1      43.195  23.582  27.067  1.00  0.00     0.058 A 
ATOM     52  C   UNL A   1      42.917  23.161  25.759  1.00  0.00     0.135 A 
ATOM     53  C   UNL A   1      43.046  22.649  28.104  1.00  0.00     0.135 A 
ATOM     54  F   UNL A   1      43.044  24.020  24.736  1.00  0.00    -0.206 F 
ATOM     55  C   UNL A   1      42.505  21.862  25.487  1.00  0.00     0.059 A 
ATOM     56  C   UNL A   1      42.657  21.338  27.855  1.00  0.00     0.059 A 
ATOM     57  F   UNL A   1      43.319  23.001  29.370  1.00  0.00    -0.206 F 
ATOM     58  C   UNL A   1      42.381  20.955  26.542  1.00  0.00     0.060 A 
BRANCH  58  59
ATOM     59  S   UNL A   1      41.922  19.247  26.176  1.00  0.00     0.124 S 
ATOM     60  O   UNL A   1      42.316  18.570  27.406  1.00  0.00    -0.237 OA
ATOM     61  O   UNL A   1      40.486  19.356  25.938  1.00  0.00    -0.237 OA
ATOM     62  O   UNL A   1      42.721  18.934  24.995  1.00  0.00    -0.744 OA
ENDBRANCH  58  59
ENDBRANCH  26  51
BRANCH  38  63
ATOM     63  C   UNL A   1      49.381  26.725  26.454  1.00  0.00     0.058 A 
ATOM     64  C   UNL A   1      49.796  26.896  25.124  1.00  0.00     0.135 A 
ATOM     65  C   UNL A   1      50.268  26.106  27.347  1.00  0.00     0.135 A 
ATOM     66  F   UNL A   1      48.977  27.474  24.230  1.00  0.00    -0.206 F 
ATOM     67  C   UNL A   1      51.039  26.452  24.691  1.00  0.00     0.059 A 
ATOM     68  C   UNL A   1      51.525  25.671  26.940  1.00  0.00     0.059 A 
ATOM     69  F   UNL A   1      49.918  25.925  28.631  1.00  0.00    -0.206 F 
ATOM     70  C   UNL A   1      51.896  25.837  25.606  1.00  0.00     0.060 A 
BRANCH  70  71
ATOM     71  S   UNL A   1      53.519  25.282  25.041  1.00  0.00     0.124 S 
ATOM     72  O   UNL A   1      54.406  25.988  25.961  1.00  0.00    -0.237 OA
ATOM     73  O   UNL A   1      53.440  23.835  25.223  1.00  0.00    -0.237 OA
ATOM     74  O   UNL A   1      53.566  25.730  23.653  1.00  0.00    -0.744 OA
ENDBRANCH  70  71
ENDBRANCH  38  63
ENDBRANCH  12  13
ENDBRANCH   5   7
ENDBRANCH   2   3
ENDBRANCH   1   2
BRANCH   1  75
ATOM     75  C   UNL A   1      35.193  29.486  26.895  1.00  0.00     0.023 C 
BRANCH  75  76
ATOM     76  C   UNL A   1      34.245  28.322  26.625  1.00  0.00     0.116 C 
BRANCH  76  77
ATOM     77  N   UNL A   1      33.116  28.278  27.544  1.00  0.00    -0.352 N 
ATOM     78  C   UNL A   1      31.783  28.090  27.261  1.00  0.00     0.253 C 
ATOM     79  H   UNL A   1      33.336  28.399  28.496  1.00  0.00     0.163 HD
ATOM     80  O   UNL A   1      30.923  28.222  28.125  1.00  0.00    -0.269 OA
BRANCH  78  81
ATOM     81  C   UNL A   1      31.386  27.792  25.871  1.00  0.00     0.067 A 
ATOM     82  C   UNL A   1      31.610  28.782  24.899  1.00  0.00     0.062 A 
ATOM     83  C   UNL A   1      30.729  26.586  25.558  1.00  0.00     0.054 A 
ATOM     84  C   UNL A   1      31.042  28.634  23.646  1.00  0.00     0.116 A 
ATOM     85  C   UNL A   1      30.093  26.517  24.317  1.00  0.00     0.031 A 
ATOM     86  C   UNL A   1      30.253  27.529  23.363  1.00  0.00     0.048 A 
BRANCH  83  87
ATOM     87  N   UNL A   1      30.728  25.530  26.505  1.00  0.00    -0.321 N 
ATOM     88  C   UNL A   1      31.429  24.348  26.592  1.00  0.00     0.257 C 
ATOM     89  H   UNL A   1      30.099  25.669  27.248  1.00  0.00     0.170 HD
ATOM     90  O   UNL A   1      31.139  23.504  27.438  1.00  0.00    -0.269 OA
BRANCH  88  91
ATOM     91  C   UNL A   1      32.574  24.065  25.721  1.00  0.00     0.058 A 
ATOM     92  C   UNL A   1      32.484  23.218  24.616  1.00  0.00     0.018 A 
ATOM     93  C   UNL A   1      33.796  24.648  26.017  1.00  0.00     0.126 A 
ATOM     94  C   UNL A   1      33.645  22.911  23.909  1.00  0.00     0.037 A 
ATOM     95  N   UNL A   1      34.938  24.366  25.344  1.00  0.00    -0.249 NA
ATOM     96  C   UNL A   1      34.840  23.493  24.315  1.00  0.00     0.106 A 
ATOM     97  Br  UNL A   1      36.440  23.017  23.415  1.00  0.00    -0.029 Br
ENDBRANCH  88  91
ENDBRANCH  83  87
BRANCH  84  98
ATOM     98  O   UNL A   1      31.189  29.577  22.677  1.00  0.00    -0.508 OA
ATOM     99  H   UNL A   1      31.957  30.115  22.661  1.00  0.00     0.293 HD
ENDBRANCH  84  98
ENDBRANCH  78  81
ENDBRANCH  76  77
ENDBRANCH  75  76
ENDBRANCH   1  75
TORSDOF 17
ENDMDL
MODEL 3
REMARK VINA RESULT:     -12.4      0.868      2.052
REMARK SMILES O=C(NCCCCNC(=O)c1cc(O)ccc1NC(=O)c1ccc(Br)nc1)c1ccc(-c2c3nc(c(-c4c(F)cc(S(=O)(=O)[O-])cc4F)c4ccc([nH]4)c(-c4c(F)cc(S(=O)(=O)[O-])cc4F)c4nc(c(-c5c(F)cc(S(=O)(=O)[O-])cc5F)c5ccc2[nH]5)C=C4)C=C3)cc1
REMARK SMILES IDX 5 1 4 2 3 3 1 4 2 5 28 7 29 8 93 9 30 10 92 11 31 12 32 13
REMARK SMILES IDX 33 14 86 15 34 16 91 17 85 18 87 19 35 20 90 21 84 22 83 23
REMARK SMILES IDX 36 25 70 26 49 27 69 28 50 29 53 30 68 31 88 32 51 33 52 34
REMARK SMILES IDX 67 36 89 37 54 38 37 39 38 40 47 41 39 42 40 43 46 44 48 45
REMARK SMILES IDX 41 46 42 47 43 48 44 49 45 50 71 51 72 52 81 53 73 54 74 55
REMARK SMILES IDX 80 56 82 57 75 58 76 59 77 60 78 61 79 62 55 63 56 64 65 65
REMARK SMILES IDX 57 66 58 67 64 68 66 69 59 70 60 71 61 72 62 73 63 74 6 75
REMARK SMILES IDX 7 76 8 77 9 78 10 80 11 81 12 82 17 83 13 84 16 85 15 86
REMARK SMILES IDX 18 87 19 88 20 90 21 91 22 92 27 93 23 94 26 95 24 96 25 97
REMARK SMILES IDX 14 98
REMARK H PARENT 3 6 87 24 53 35 8 79 18 89 14 99
REMARK Flexibility Score: inf
ROOT
ATOM      1  C   UNL A   1      37.486  23.321  25.556  1.00  0.00     0.023 C 
ENDROOT
BRANCH   1   2
ATOM      2  C   UNL A   1      38.433  24.064  26.492  1.00  0.00     0.116 C 
BRANCH   2   3
ATOM      3  N   UNL A   1      39.824  24.010  26.069  1.00  0.00    -0.352 N 
ATOM      4  O   UNL A   1      41.972  24.670  25.912  1.00  0.00    -0.269 OA
ATOM      5  C   UNL A   1      40.882  24.796  26.462  1.00  0.00     0.251 C 
ATOM      6  H   UNL A   1      40.038  23.311  25.409  1.00  0.00     0.163 HD
BRANCH   5   7
ATOM      7  C   UNL A   1      40.691  25.812  27.520  1.00  0.00     0.039 A 
ATOM      8  C   UNL A   1      41.499  26.950  27.573  1.00  0.00     0.014 A 
ATOM      9  C   UNL A   1      39.694  25.613  28.481  1.00  0.00     0.014 A 
ATOM     10  C   UNL A   1      41.406  27.812  28.661  1.00  0.00     0.010 A 
ATOM     11  C   UNL A   1      39.553  26.521  29.533  1.00  0.00     0.010 A 
ATOM     12  C   UNL A   1      40.430  27.608  29.651  1.00  0.00    -0.014 A 
BRANCH  12  13
ATOM     13  C   UNL A   1      40.320  28.577  30.771  1.00  0.00     0.031 A 
ATOM     14  C   UNL A   1      41.242  28.505  31.957  1.00  0.00     0.074 A 
ATOM     15  C   UNL A   1      39.394  29.553  30.692  1.00  0.00     0.049 A 
ATOM     16  N   UNL A   1      41.298  29.288  33.003  1.00  0.00    -0.248 NA
ATOM     17  C   UNL A   1      42.226  27.411  31.976  1.00  0.00     0.031 C 
ATOM     18  C   UNL A   1      38.434  29.713  29.596  1.00  0.00     0.029 A 
ATOM     19  N   UNL A   1      39.119  30.600  31.530  1.00  0.00    -0.354 N 
ATOM     20  C   UNL A   1      42.304  28.776  33.814  1.00  0.00     0.074 A 
ATOM     21  C   UNL A   1      42.821  27.601  33.146  1.00  0.00     0.031 C 
ATOM     22  C   UNL A   1      37.706  30.820  29.808  1.00  0.00     0.029 A 
ATOM     23  C   UNL A   1      38.112  31.418  31.075  1.00  0.00     0.049 A 
ATOM     24  H   UNL A   1      39.596  30.753  32.379  1.00  0.00     0.167 HD
ATOM     25  C   UNL A   1      42.756  29.248  35.001  1.00  0.00     0.037 A 
ATOM     26  C   UNL A   1      37.568  32.522  31.619  1.00  0.00     0.037 A 
ATOM     27  C   UNL A   1      42.250  30.431  35.651  1.00  0.00     0.049 A 
ATOM     28  C   UNL A   1      38.090  33.025  32.932  1.00  0.00     0.074 A 
ATOM     29  C   UNL A   1      42.668  31.006  36.839  1.00  0.00     0.029 A 
ATOM     30  N   UNL A   1      41.217  31.220  35.167  1.00  0.00    -0.354 N 
ATOM     31  N   UNL A   1      39.057  32.538  33.672  1.00  0.00    -0.248 NA
ATOM     32  C   UNL A   1      37.447  34.222  33.487  1.00  0.00     0.031 C 
ATOM     33  C   UNL A   1      41.867  32.128  37.088  1.00  0.00     0.029 A 
ATOM     34  C   UNL A   1      40.973  32.269  36.039  1.00  0.00     0.049 A 
ATOM     35  H   UNL A   1      40.729  31.059  34.327  1.00  0.00     0.167 HD
ATOM     36  C   UNL A   1      39.141  33.370  34.779  1.00  0.00     0.074 A 
ATOM     37  C   UNL A   1      38.141  34.405  34.603  1.00  0.00     0.031 C 
ATOM     38  C   UNL A   1      39.968  33.284  35.850  1.00  0.00     0.037 A 
BRANCH  25  39
ATOM     39  C   UNL A   1      43.848  28.477  35.687  1.00  0.00     0.058 A 
ATOM     40  C   UNL A   1      43.563  27.463  36.615  1.00  0.00     0.135 A 
ATOM     41  C   UNL A   1      45.196  28.725  35.382  1.00  0.00     0.135 A 
ATOM     42  F   UNL A   1      42.292  27.195  36.953  1.00  0.00    -0.206 F 
ATOM     43  C   UNL A   1      44.577  26.736  37.233  1.00  0.00     0.059 A 
ATOM     44  C   UNL A   1      46.226  27.998  35.973  1.00  0.00     0.059 A 
ATOM     45  F   UNL A   1      45.523  29.684  34.501  1.00  0.00    -0.206 F 
ATOM     46  C   UNL A   1      45.906  27.015  36.908  1.00  0.00     0.060 A 
BRANCH  46  47
ATOM     47  S   UNL A   1      47.214  26.066  37.716  1.00  0.00     0.124 S 
ATOM     48  O   UNL A   1      46.721  24.701  37.555  1.00  0.00    -0.237 OA
ATOM     49  O   UNL A   1      48.390  26.411  36.924  1.00  0.00    -0.237 OA
ATOM     50  O   UNL A   1      47.211  26.579  39.082  1.00  0.00    -0.744 OA
ENDBRANCH  46  47
ENDBRANCH  25  39
BRANCH  26  51
ATOM     51  C   UNL A   1      36.468  33.221  30.908  1.00  0.00     0.058 A 
ATOM     52  C   UNL A   1      35.138  33.085  31.328  1.00  0.00     0.135 A 
ATOM     53  C   UNL A   1      36.734  34.076  29.828  1.00  0.00     0.135 A 
ATOM     54  F   UNL A   1      34.837  32.276  32.356  1.00  0.00    -0.206 F 
ATOM     55  C   UNL A   1      34.105  33.771  30.700  1.00  0.00     0.059 A 
ATOM     56  C   UNL A   1      35.721  34.790  29.198  1.00  0.00     0.059 A 
ATOM     57  F   UNL A   1      37.995  34.252  29.403  1.00  0.00    -0.206 F 
ATOM     58  C   UNL A   1      34.408  34.626  29.638  1.00  0.00     0.060 A 
BRANCH  58  59
ATOM     59  S   UNL A   1      33.074  35.576  28.875  1.00  0.00     0.124 S 
ATOM     60  O   UNL A   1      32.382  36.098  30.047  1.00  0.00    -0.237 OA
ATOM     61  O   UNL A   1      33.806  36.554  28.076  1.00  0.00    -0.237 OA
ATOM     62  O   UNL A   1      32.348  34.570  28.104  1.00  0.00    -0.744 OA
ENDBRANCH  58  59
ENDBRANCH  26  51
BRANCH  38  63
ATOM     63  C   UNL A   1      39.829  34.342  36.905  1.00  0.00     0.058 A 
ATOM     64  C   UNL A   1      40.559  35.539  36.839  1.00  0.00     0.135 A 
ATOM     65  C   UNL A   1      38.940  34.170  37.977  1.00  0.00     0.135 A 
ATOM     66  F   UNL A   1      41.429  35.745  35.837  1.00  0.00    -0.206 F 
ATOM     67  C   UNL A   1      40.427  36.523  37.812  1.00  0.00     0.059 A 
ATOM     68  C   UNL A   1      38.778  35.149  38.951  1.00  0.00     0.059 A 
ATOM     69  F   UNL A   1      38.216  33.044  38.080  1.00  0.00    -0.206 F 
ATOM     70  C   UNL A   1      39.535  36.317  38.867  1.00  0.00     0.060 A 
BRANCH  70  71
ATOM     71  S   UNL A   1      39.352  37.608  40.115  1.00  0.00     0.124 S 
ATOM     72  O   UNL A   1      39.128  36.819  41.322  1.00  0.00    -0.237 OA
ATOM     73  O   UNL A   1      40.634  38.304  40.042  1.00  0.00    -0.237 OA
ATOM     74  O   UNL A   1      38.203  38.374  39.642  1.00  0.00    -0.744 OA
ENDBRANCH  70  71
ENDBRANCH  38  63
ENDBRANCH  12  13
ENDBRANCH   5   7
ENDBRANCH   2   3
ENDBRANCH   1   2
BRANCH   1  75
ATOM     75  C   UNL A   1      36.009  23.679  25.694  1.00  0.00     0.023 C 
BRANCH  75  76
ATOM     76  C   UNL A   1      35.085  22.515  26.034  1.00  0.00     0.116 C 
BRANCH  76  77
ATOM     77  N   UNL A   1      34.525  21.866  24.855  1.00  0.00    -0.352 N 
ATOM     78  C   UNL A   1      33.249  21.955  24.349  1.00  0.00     0.253 C 
ATOM     79  H   UNL A   1      35.142  21.286  24.353  1.00  0.00     0.163 HD
ATOM     80  O   UNL A   1      32.877  21.236  23.428  1.00  0.00    -0.269 OA
BRANCH  78  81
ATOM     81  C   UNL A   1      32.296  22.889  24.981  1.00  0.00     0.067 A 
ATOM     82  C   UNL A   1      31.668  22.480  26.168  1.00  0.00     0.062 A 
ATOM     83  C   UNL A   1      31.975  24.111  24.359  1.00  0.00     0.054 A 
ATOM     84  C   UNL A   1      30.604  23.220  26.656  1.00  0.00     0.116 A 
ATOM     85  C   UNL A   1      30.840  24.778  24.826  1.00  0.00     0.031 A 
ATOM     86  C   UNL A   1      30.163  24.341  25.971  1.00  0.00     0.048 A 
BRANCH  83  87
ATOM     87  N   UNL A   1      32.788  24.586  23.299  1.00  0.00    -0.321 N 
ATOM     88  C   UNL A   1      33.354  25.813  23.028  1.00  0.00     0.257 C 
ATOM     89  H   UNL A   1      32.987  23.903  22.620  1.00  0.00     0.170 HD
ATOM     90  O   UNL A   1      33.900  26.030  21.949  1.00  0.00    -0.269 OA
BRANCH  88  91
ATOM     91  C   UNL A   1      33.374  26.889  24.024  1.00  0.00     0.058 A 
ATOM     92  C   UNL A   1      33.899  26.715  25.305  1.00  0.00     0.018 A 
ATOM     93  C   UNL A   1      32.834  28.120  23.685  1.00  0.00     0.126 A 
ATOM     94  C   UNL A   1      33.775  27.752  26.228  1.00  0.00     0.037 A 
ATOM     95  N   UNL A   1      32.703  29.143  24.565  1.00  0.00    -0.249 NA
ATOM     96  C   UNL A   1      33.162  28.931  25.819  1.00  0.00     0.106 A 
ATOM     97  Br  UNL A   1      32.910  30.317  27.089  1.00  0.00    -0.029 Br
ENDBRANCH  88  91
ENDBRANCH  83  87
BRANCH  84  98
ATOM     98  O   UNL A   1      29.930  22.852  27.779  1.00  0.00    -0.508 OA
ATOM     99  H   UNL A   1      29.882  21.947  28.020  1.00  0.00     0.293 HD
ENDBRANCH  84  98
ENDBRANCH  78  81
ENDBRANCH  76  77
ENDBRANCH  75  76
ENDBRANCH   1  75
TORSDOF 17
ENDMDL
