MODEL 1
REMARK VINA RESULT:     -11.5      0.000      0.000
REMARK SMILES NS(=O)(=O)c1ccc(N2N=C(C(=O)NCCCCNC(=O)c3ccc(-c4c5nc(c(-c6c(F)cc(S(=O)(=O)[O-])cc6F)c6ccc([nH]6)c(-c6c(F)cc(S(=O)(=O)[O-])cc6F)c6nc(c(-c7c(F)cc(S(=O)(=O)[O-])cc7F)c7ccc4[nH]7)C=C6)C=C5)cc3)C[C@H]2c2cccs2)cc1
REMARK SMILES IDX 16 1 15 2 14 3 12 4 13 5 11 7 9 8 10 9 89 10 88 11 8 12 5 13
REMARK SMILES IDX 6 14 96 15 7 16 95 17 2 18 3 19 4 20 1 21 90 24 91 25 94 26
REMARK SMILES IDX 92 27 93 28 17 29 18 30 19 31 20 32 21 34 22 35 23 36 87 37
REMARK SMILES IDX 24 38 86 39 25 40 26 41 27 42 80 43 28 44 85 45 79 46 81 47
REMARK SMILES IDX 29 48 84 49 78 50 77 51 30 53 64 54 43 55 63 56 44 57 47 58
REMARK SMILES IDX 62 59 82 60 45 61 46 62 61 64 83 65 48 66 31 67 32 68 41 69
REMARK SMILES IDX 33 70 34 71 40 72 42 73 35 74 36 75 37 76 38 77 39 78 65 79
REMARK SMILES IDX 66 80 75 81 67 82 68 83 74 84 76 85 69 86 70 87 71 88 72 89
REMARK SMILES IDX 73 90 49 91 50 92 59 93 51 94 52 95 58 96 60 97 53 98 54 99
REMARK SMILES IDX 55 100 56 101 57 102
REMARK H PARENT 14 6 1 22 1 23 19 33 81 52 47 63
REMARK Flexibility Score: inf
ROOT
ATOM      1  C   UNL A   1      34.094  22.582  26.326  1.00  0.00     0.023 C 
ENDROOT
BRANCH   1   2
ATOM      2  C   UNL A   1      32.862  21.947  25.690  1.00  0.00     0.116 C 
BRANCH   2   3
ATOM      3  N   UNL A   1      31.655  22.259  26.428  1.00  0.00    -0.351 N 
ATOM      4  C   UNL A   1      30.948  23.408  26.677  1.00  0.00     0.267 C 
ATOM      5  O   UNL A   1      29.969  23.322  27.415  1.00  0.00    -0.268 OA
ATOM      6  H   UNL A   1      31.249  21.465  26.847  1.00  0.00     0.163 HD
BRANCH   4   7
ATOM      7  C   UNL A   1      31.274  24.769  26.074  1.00  0.00     0.128 C 
ATOM      8  N   UNL A   1      31.686  26.869  26.026  1.00  0.00    -0.256 N 
ATOM      9  N   UNL A   1      31.594  25.776  26.833  1.00  0.00    -0.171 NA
ATOM     10  C   UNL A   1      31.501  26.565  24.606  1.00  0.00     0.154 C 
ATOM     11  C   UNL A   1      31.293  25.048  24.609  1.00  0.00     0.097 C 
BRANCH   8  12
ATOM     12  C   UNL A   1      32.418  27.989  26.419  1.00  0.00     0.060 A 
ATOM     13  C   UNL A   1      33.925  30.181  27.329  1.00  0.00     0.082 A 
ATOM     14  C   UNL A   1      32.531  30.240  27.356  1.00  0.00     0.024 A 
ATOM     15  C   UNL A   1      34.574  29.058  26.818  1.00  0.00     0.024 A 
ATOM     16  C   UNL A   1      31.787  29.150  26.888  1.00  0.00     0.029 A 
ATOM     17  C   UNL A   1      33.819  27.973  26.372  1.00  0.00     0.029 A 
BRANCH  13  18
ATOM     18  S   UNL A   1      34.907  31.528  27.907  1.00  0.00     0.238 S 
ATOM     19  O   UNL A   1      34.373  32.761  27.363  1.00  0.00    -0.207 OA
ATOM     20  O   UNL A   1      36.295  31.167  27.787  1.00  0.00    -0.207 OA
BRANCH  18  21
ATOM     21  N   UNL A   1      34.583  31.606  29.552  1.00  0.00    -0.225 NA
ATOM     22  H   UNL A   1      34.359  30.674  29.900  1.00  0.00     0.137 HD
ATOM     23  H   UNL A   1      33.791  32.228  29.714  1.00  0.00     0.137 HD
ENDBRANCH  18  21
ENDBRANCH  13  18
ENDBRANCH   8  12
BRANCH  10  24
ATOM     24  C   UNL A   1      30.404  27.316  23.878  1.00  0.00     0.030 A 
ATOM     25  C   UNL A   1      29.062  26.979  23.817  1.00  0.00     0.017 A 
ATOM     26  S   UNL A   1      30.719  28.731  22.955  1.00  0.00    -0.147 S 
ATOM     27  C   UNL A   1      28.295  27.910  23.062  1.00  0.00     0.012 A 
ATOM     28  C   UNL A   1      29.067  28.939  22.577  1.00  0.00     0.065 A 
ENDBRANCH  10  24
ENDBRANCH   4   7
ENDBRANCH   2   3
ENDBRANCH   1   2
BRANCH   1  29
ATOM     29  C   UNL A   1      35.178  23.004  25.338  1.00  0.00     0.023 C 
BRANCH  29  30
ATOM     30  C   UNL A   1      36.468  23.530  25.963  1.00  0.00     0.116 C 
BRANCH  30  31
ATOM     31  N   UNL A   1      37.513  22.521  26.075  1.00  0.00    -0.352 N 
ATOM     32  C   UNL A   1      38.836  22.682  26.411  1.00  0.00     0.251 C 
ATOM     33  H   UNL A   1      37.232  21.597  25.883  1.00  0.00     0.163 HD
ATOM     34  O   UNL A   1      39.604  21.726  26.358  1.00  0.00    -0.269 OA
BRANCH  32  35
ATOM     35  C   UNL A   1      39.329  24.020  26.797  1.00  0.00     0.039 A 
ATOM     36  C   UNL A   1      39.266  24.401  28.139  1.00  0.00     0.014 A 
ATOM     37  C   UNL A   1      39.893  24.872  25.845  1.00  0.00     0.014 A 
ATOM     38  C   UNL A   1      39.843  25.608  28.540  1.00  0.00     0.010 A 
ATOM     39  C   UNL A   1      40.530  26.038  26.256  1.00  0.00     0.010 A 
ATOM     40  C   UNL A   1      40.517  26.416  27.608  1.00  0.00    -0.014 A 
BRANCH  40  41
ATOM     41  C   UNL A   1      41.228  27.650  28.029  1.00  0.00     0.031 A 
ATOM     42  C   UNL A   1      42.723  27.744  27.884  1.00  0.00     0.074 A 
ATOM     43  C   UNL A   1      40.539  28.647  28.621  1.00  0.00     0.049 A 
ATOM     44  N   UNL A   1      43.530  28.697  28.271  1.00  0.00    -0.248 NA
ATOM     45  C   UNL A   1      43.404  26.603  27.249  1.00  0.00     0.031 C 
ATOM     46  C   UNL A   1      39.097  28.643  28.881  1.00  0.00     0.029 A 
ATOM     47  N   UNL A   1      40.961  29.849  29.129  1.00  0.00    -0.354 N 
ATOM     48  C   UNL A   1      44.811  28.261  27.955  1.00  0.00     0.074 A 
ATOM     49  C   UNL A   1      44.679  26.942  27.378  1.00  0.00     0.031 C 
ATOM     50  C   UNL A   1      38.755  29.791  29.491  1.00  0.00     0.029 A 
ATOM     51  C   UNL A   1      39.953  30.599  29.693  1.00  0.00     0.049 A 
ATOM     52  H   UNL A   1      41.898  30.149  29.095  1.00  0.00     0.167 HD
ATOM     53  C   UNL A   1      45.988  28.910  28.117  1.00  0.00     0.037 A 
ATOM     54  C   UNL A   1      39.992  31.794  30.311  1.00  0.00     0.037 A 
ATOM     55  C   UNL A   1      46.107  30.245  28.639  1.00  0.00     0.049 A 
ATOM     56  C   UNL A   1      41.309  32.514  30.433  1.00  0.00     0.074 A 
ATOM     57  C   UNL A   1      47.242  31.029  28.743  1.00  0.00     0.029 A 
ATOM     58  N   UNL A   1      45.056  30.995  29.146  1.00  0.00    -0.354 N 
ATOM     59  N   UNL A   1      42.499  32.125  30.040  1.00  0.00    -0.248 NA
ATOM     60  C   UNL A   1      41.290  33.837  31.073  1.00  0.00     0.031 C 
ATOM     61  C   UNL A   1      46.886  32.238  29.348  1.00  0.00     0.029 A 
ATOM     62  C   UNL A   1      45.520  32.223  29.583  1.00  0.00     0.049 A 
ATOM     63  H   UNL A   1      44.119  30.698  29.189  1.00  0.00     0.167 HD
ATOM     64  C   UNL A   1      43.363  33.167  30.359  1.00  0.00     0.074 A 
ATOM     65  C   UNL A   1      42.559  34.207  30.965  1.00  0.00     0.031 C 
ATOM     66  C   UNL A   1      44.702  33.255  30.168  1.00  0.00     0.037 A 
BRANCH  53  67
ATOM     67  C   UNL A   1      47.248  28.198  27.712  1.00  0.00     0.058 A 
ATOM     68  C   UNL A   1      47.750  28.274  26.404  1.00  0.00     0.135 A 
ATOM     69  C   UNL A   1      47.999  27.489  28.664  1.00  0.00     0.135 A 
ATOM     70  F   UNL A   1      47.064  28.925  25.452  1.00  0.00    -0.206 F 
ATOM     71  C   UNL A   1      48.948  27.660  26.049  1.00  0.00     0.059 A 
ATOM     72  C   UNL A   1      49.211  26.887  28.337  1.00  0.00     0.059 A 
ATOM     73  F   UNL A   1      47.561  27.383  29.928  1.00  0.00    -0.206 F 
ATOM     74  C   UNL A   1      49.673  26.973  27.024  1.00  0.00     0.060 A 
BRANCH  74  75
ATOM     75  S   UNL A   1      51.242  26.213  26.555  1.00  0.00     0.124 S 
ATOM     76  O   UNL A   1      52.151  27.353  26.632  1.00  0.00    -0.237 OA
ATOM     77  O   UNL A   1      51.416  25.194  27.585  1.00  0.00    -0.237 OA
ATOM     78  O   UNL A   1      50.985  25.705  25.211  1.00  0.00    -0.744 OA
ENDBRANCH  74  75
ENDBRANCH  53  67
BRANCH  54  79
ATOM     79  C   UNL A   1      38.748  32.400  30.856  1.00  0.00     0.058 A 
ATOM     80  C   UNL A   1      38.302  32.095  32.151  1.00  0.00     0.135 A 
ATOM     81  C   UNL A   1      37.968  33.278  30.087  1.00  0.00     0.135 A 
ATOM     82  F   UNL A   1      39.012  31.257  32.923  1.00  0.00    -0.206 F 
ATOM     83  C   UNL A   1      37.113  32.611  32.654  1.00  0.00     0.059 A 
ATOM     84  C   UNL A   1      36.786  33.826  30.577  1.00  0.00     0.059 A 
ATOM     85  F   UNL A   1      38.360  33.618  28.849  1.00  0.00    -0.206 F 
ATOM     86  C   UNL A   1      36.359  33.473  31.856  1.00  0.00     0.060 A 
BRANCH  86  87
ATOM     87  S   UNL A   1      34.822  34.152  32.521  1.00  0.00     0.124 S 
ATOM     88  O   UNL A   1      35.250  35.477  32.951  1.00  0.00    -0.237 OA
ATOM     89  O   UNL A   1      33.939  34.110  31.360  1.00  0.00    -0.237 OA
ATOM     90  O   UNL A   1      34.481  33.217  33.591  1.00  0.00    -0.744 OA
ENDBRANCH  86  87
ENDBRANCH  54  79
BRANCH  66  91
ATOM     91  C   UNL A   1      45.378  34.532  30.579  1.00  0.00     0.058 A 
ATOM     92  C   UNL A   1      45.488  35.622  29.703  1.00  0.00     0.135 A 
ATOM     93  C   UNL A   1      45.874  34.684  31.884  1.00  0.00     0.135 A 
ATOM     94  F   UNL A   1      45.033  35.525  28.443  1.00  0.00    -0.206 F 
ATOM     95  C   UNL A   1      46.087  36.814  30.099  1.00  0.00     0.059 A 
ATOM     96  C   UNL A   1      46.454  35.875  32.308  1.00  0.00     0.059 A 
ATOM     97  F   UNL A   1      45.783  33.674  32.763  1.00  0.00    -0.206 F 
ATOM     98  C   UNL A   1      46.567  36.929  31.404  1.00  0.00     0.060 A 
BRANCH  98  99
ATOM     99  S   UNL A   1      47.314  38.491  31.919  1.00  0.00     0.124 S 
ATOM    100  O   UNL A   1      48.284  38.717  30.853  1.00  0.00    -0.237 OA
ATOM    101  O   UNL A   1      46.169  39.396  31.937  1.00  0.00    -0.237 OA
ATOM    102  O   UNL A   1      47.880  38.180  33.229  1.00  0.00    -0.744 OA
ENDBRANCH  98  99
ENDBRANCH  66  91
ENDBRANCH  40  41
ENDBRANCH  32  35
ENDBRANCH  30  31
ENDBRANCH  29  30
ENDBRANCH   1  29
TORSDOF 18
ENDMDL
MODEL 2
REMARK VINA RESULT:     -11.4      0.594      8.021
REMARK SMILES NS(=O)(=O)c1ccc(N2N=C(C(=O)NCCCCNC(=O)c3ccc(-c4c5nc(c(-c6c(F)cc(S(=O)(=O)[O-])cc6F)c6ccc([nH]6)c(-c6c(F)cc(S(=O)(=O)[O-])cc6F)c6nc(c(-c7c(F)cc(S(=O)(=O)[O-])cc7F)c7ccc4[nH]7)C=C6)C=C5)cc3)C[C@H]2c2cccs2)cc1
REMARK SMILES IDX 16 1 15 2 14 3 12 4 13 5 11 7 9 8 10 9 89 10 88 11 8 12 5 13
REMARK SMILES IDX 6 14 96 15 7 16 95 17 2 18 3 19 4 20 1 21 90 24 91 25 94 26
REMARK SMILES IDX 92 27 93 28 17 29 18 30 19 31 20 32 21 34 22 35 23 36 87 37
REMARK SMILES IDX 24 38 86 39 25 40 26 41 27 42 80 43 28 44 85 45 79 46 81 47
REMARK SMILES IDX 29 48 84 49 78 50 77 51 30 53 64 54 43 55 63 56 44 57 47 58
REMARK SMILES IDX 62 59 82 60 45 61 46 62 61 64 83 65 48 66 31 67 32 68 41 69
REMARK SMILES IDX 33 70 34 71 40 72 42 73 35 74 36 75 37 76 38 77 39 78 65 79
REMARK SMILES IDX 66 80 75 81 67 82 68 83 74 84 76 85 69 86 70 87 71 88 72 89
REMARK SMILES IDX 73 90 49 91 50 92 59 93 51 94 52 95 58 96 60 97 53 98 54 99
REMARK SMILES IDX 55 100 56 101 57 102
REMARK H PARENT 14 6 1 22 1 23 19 33 81 52 47 63
REMARK Flexibility Score: inf
ROOT
ATOM      1  C   UNL A   1      34.073  22.433  26.127  1.00  0.00     0.023 C 
ENDROOT
BRANCH   1   2
ATOM      2  C   UNL A   1      32.797  21.926  25.462  1.00  0.00     0.116 C 
BRANCH   2   3
ATOM      3  N   UNL A   1      31.623  22.220  26.258  1.00  0.00    -0.351 N 
ATOM      4  C   UNL A   1      30.930  23.364  26.566  1.00  0.00     0.267 C 
ATOM      5  O   UNL A   1      29.982  23.260  27.342  1.00  0.00    -0.268 OA
ATOM      6  H   UNL A   1      31.233  21.417  26.672  1.00  0.00     0.163 HD
BRANCH   4   7
ATOM      7  C   UNL A   1      31.235  24.739  25.986  1.00  0.00     0.128 C 
ATOM      8  N   UNL A   1      31.644  26.840  25.976  1.00  0.00    -0.256 N 
ATOM      9  N   UNL A   1      31.581  25.728  26.759  1.00  0.00    -0.171 NA
ATOM     10  C   UNL A   1      31.410  26.572  24.557  1.00  0.00     0.154 C 
ATOM     11  C   UNL A   1      31.203  25.056  24.530  1.00  0.00     0.097 C 
BRANCH   8  12
ATOM     12  C   UNL A   1      32.389  27.951  26.372  1.00  0.00     0.060 A 
ATOM     13  C   UNL A   1      33.907  30.131  27.293  1.00  0.00     0.082 A 
ATOM     14  C   UNL A   1      32.522  30.255  27.168  1.00  0.00     0.024 A 
ATOM     15  C   UNL A   1      34.546  28.948  26.926  1.00  0.00     0.024 A 
ATOM     16  C   UNL A   1      31.775  29.170  26.695  1.00  0.00     0.029 A 
ATOM     17  C   UNL A   1      33.785  27.869  26.474  1.00  0.00     0.029 A 
BRANCH  13  18
ATOM     18  S   UNL A   1      34.893  31.470  27.883  1.00  0.00     0.238 S 
ATOM     19  O   UNL A   1      34.286  32.718  27.462  1.00  0.00    -0.207 OA
ATOM     20  O   UNL A   1      36.277  31.163  27.636  1.00  0.00    -0.207 OA
BRANCH  18  21
ATOM     21  N   UNL A   1      34.695  31.433  29.549  1.00  0.00    -0.225 NA
ATOM     22  H   UNL A   1      34.977  32.329  29.946  1.00  0.00     0.137 HD
ATOM     23  H   UNL A   1      35.271  30.690  29.943  1.00  0.00     0.137 HD
ENDBRANCH  18  21
ENDBRANCH  13  18
ENDBRANCH   8  12
BRANCH  10  24
ATOM     24  C   UNL A   1      30.288  27.340  23.886  1.00  0.00     0.030 A 
ATOM     25  C   UNL A   1      28.952  26.981  23.828  1.00  0.00     0.017 A 
ATOM     26  S   UNL A   1      30.562  28.808  23.036  1.00  0.00    -0.147 S 
ATOM     27  C   UNL A   1      28.156  27.936  23.135  1.00  0.00     0.012 A 
ATOM     28  C   UNL A   1      28.902  29.005  22.695  1.00  0.00     0.065 A 
ENDBRANCH  10  24
ENDBRANCH   4   7
ENDBRANCH   2   3
ENDBRANCH   1   2
BRANCH   1  29
ATOM     29  C   UNL A   1      34.731  23.619  25.426  1.00  0.00     0.023 C 
BRANCH  29  30
ATOM     30  C   UNL A   1      36.115  24.003  25.944  1.00  0.00     0.116 C 
BRANCH  30  31
ATOM     31  N   UNL A   1      37.065  22.898  25.937  1.00  0.00    -0.352 N 
ATOM     32  C   UNL A   1      38.401  22.907  26.257  1.00  0.00     0.251 C 
ATOM     33  H   UNL A   1      36.698  22.025  25.665  1.00  0.00     0.163 HD
ATOM     34  O   UNL A   1      39.078  21.896  26.097  1.00  0.00    -0.269 OA
BRANCH  32  35
ATOM     35  C   UNL A   1      39.019  24.152  26.757  1.00  0.00     0.039 A 
ATOM     36  C   UNL A   1      38.945  24.443  28.121  1.00  0.00     0.014 A 
ATOM     37  C   UNL A   1      39.710  25.001  25.888  1.00  0.00     0.014 A 
ATOM     38  C   UNL A   1      39.632  25.548  28.628  1.00  0.00     0.010 A 
ATOM     39  C   UNL A   1      40.451  26.059  26.406  1.00  0.00     0.010 A 
ATOM     40  C   UNL A   1      40.425  26.340  27.780  1.00  0.00    -0.014 A 
BRANCH  40  41
ATOM     41  C   UNL A   1      41.247  27.456  28.314  1.00  0.00     0.031 A 
ATOM     42  C   UNL A   1      40.579  28.645  28.951  1.00  0.00     0.074 A 
ATOM     43  C   UNL A   1      42.585  27.438  28.146  1.00  0.00     0.049 A 
ATOM     44  N   UNL A   1      41.115  29.751  29.396  1.00  0.00    -0.248 NA
ATOM     45  C   UNL A   1      39.112  28.597  29.077  1.00  0.00     0.031 C 
ATOM     46  C   UNL A   1      43.342  26.375  27.480  1.00  0.00     0.029 A 
ATOM     47  N   UNL A   1      43.545  28.351  28.502  1.00  0.00    -0.354 N 
ATOM     48  C   UNL A   1      40.055  30.541  29.825  1.00  0.00     0.074 A 
ATOM     49  C   UNL A   1      38.841  29.804  29.554  1.00  0.00     0.031 C 
ATOM     50  C   UNL A   1      44.648  26.691  27.486  1.00  0.00     0.029 A 
ATOM     51  C   UNL A   1      44.820  27.992  28.126  1.00  0.00     0.049 A 
ATOM     52  H   UNL A   1      43.342  29.186  28.982  1.00  0.00     0.167 HD
ATOM     53  C   UNL A   1      40.094  31.762  30.408  1.00  0.00     0.037 A 
ATOM     54  C   UNL A   1      45.990  28.641  28.271  1.00  0.00     0.037 A 
ATOM     55  C   UNL A   1      41.308  32.465  30.726  1.00  0.00     0.049 A 
ATOM     56  C   UNL A   1      46.008  29.976  28.966  1.00  0.00     0.074 A 
ATOM     57  C   UNL A   1      41.455  33.658  31.411  1.00  0.00     0.029 A 
ATOM     58  N   UNL A   1      42.582  32.042  30.382  1.00  0.00    -0.354 N 
ATOM     59  N   UNL A   1      45.002  30.664  29.451  1.00  0.00    -0.248 NA
ATOM     60  C   UNL A   1      47.317  30.621  29.140  1.00  0.00     0.031 C 
ATOM     61  C   UNL A   1      42.816  33.977  31.448  1.00  0.00     0.029 A 
ATOM     62  C   UNL A   1      43.520  32.960  30.822  1.00  0.00     0.049 A 
ATOM     63  H   UNL A   1      42.791  31.212  29.896  1.00  0.00     0.167 HD
ATOM     64  C   UNL A   1      45.560  31.806  30.015  1.00  0.00     0.074 A 
ATOM     65  C   UNL A   1      46.992  31.712  29.821  1.00  0.00     0.031 C 
ATOM     66  C   UNL A   1      44.944  32.842  30.636  1.00  0.00     0.037 A 
BRANCH  53  67
ATOM     67  C   UNL A   1      38.788  32.419  30.757  1.00  0.00     0.058 A 
ATOM     68  C   UNL A   1      38.170  33.337  29.895  1.00  0.00     0.135 A 
ATOM     69  C   UNL A   1      38.112  32.069  31.938  1.00  0.00     0.135 A 
ATOM     70  F   UNL A   1      38.780  33.718  28.762  1.00  0.00    -0.206 F 
ATOM     71  C   UNL A   1      36.932  33.898  30.198  1.00  0.00     0.059 A 
ATOM     72  C   UNL A   1      36.863  32.599  32.248  1.00  0.00     0.059 A 
ATOM     73  F   UNL A   1      38.661  31.197  32.798  1.00  0.00    -0.206 F 
ATOM     74  C   UNL A   1      36.285  33.518  31.374  1.00  0.00     0.060 A 
BRANCH  74  75
ATOM     75  S   UNL A   1      34.664  34.227  31.733  1.00  0.00     0.124 S 
ATOM     76  O   UNL A   1      34.124  34.410  30.389  1.00  0.00    -0.237 OA
ATOM     77  O   UNL A   1      34.035  33.180  32.532  1.00  0.00    -0.237 OA
ATOM     78  O   UNL A   1      34.983  35.456  32.454  1.00  0.00    -0.744 OA
ENDBRANCH  74  75
ENDBRANCH  53  67
BRANCH  54  79
ATOM     79  C   UNL A   1      47.251  28.039  27.760  1.00  0.00     0.058 A 
ATOM     80  C   UNL A   1      48.041  27.214  28.575  1.00  0.00     0.135 A 
ATOM     81  C   UNL A   1      47.704  28.294  26.456  1.00  0.00     0.135 A 
ATOM     82  F   UNL A   1      47.652  26.943  29.831  1.00  0.00    -0.206 F 
ATOM     83  C   UNL A   1      49.249  26.689  28.129  1.00  0.00     0.059 A 
ATOM     84  C   UNL A   1      48.897  27.761  25.979  1.00  0.00     0.059 A 
ATOM     85  F   UNL A   1      46.977  29.062  25.629  1.00  0.00    -0.206 F 
ATOM     86  C   UNL A   1      49.671  26.972  26.829  1.00  0.00     0.060 A 
BRANCH  86  87
ATOM     87  S   UNL A   1      51.234  26.274  26.251  1.00  0.00     0.124 S 
ATOM     88  O   UNL A   1      51.226  24.966  26.894  1.00  0.00    -0.237 OA
ATOM     89  O   UNL A   1      51.055  26.276  24.802  1.00  0.00    -0.237 OA
ATOM     90  O   UNL A   1      52.226  27.221  26.752  1.00  0.00    -0.744 OA
ENDBRANCH  86  87
ENDBRANCH  54  79
BRANCH  66  91
ATOM     91  C   UNL A   1      45.813  33.934  31.189  1.00  0.00     0.058 A 
ATOM     92  C   UNL A   1      46.139  35.071  30.433  1.00  0.00     0.135 A 
ATOM     93  C   UNL A   1      46.282  33.868  32.511  1.00  0.00     0.135 A 
ATOM     94  F   UNL A   1      45.719  35.180  29.162  1.00  0.00    -0.206 F 
ATOM     95  C   UNL A   1      46.919  36.094  30.961  1.00  0.00     0.059 A 
ATOM     96  C   UNL A   1      47.042  34.891  33.067  1.00  0.00     0.059 A 
ATOM     97  F   UNL A   1      45.989  32.806  33.278  1.00  0.00    -0.206 F 
ATOM     98  C   UNL A   1      47.366  35.994  32.280  1.00  0.00     0.060 A 
BRANCH  98  99
ATOM     99  S   UNL A   1      48.350  37.343  32.967  1.00  0.00     0.124 S 
ATOM    100  O   UNL A   1      47.349  38.394  33.108  1.00  0.00    -0.237 OA
ATOM    101  O   UNL A   1      48.846  36.768  34.214  1.00  0.00    -0.237 OA
ATOM    102  O   UNL A   1      49.366  37.576  31.944  1.00  0.00    -0.744 OA
ENDBRANCH  98  99
ENDBRANCH  66  91
ENDBRANCH  40  41
ENDBRANCH  32  35
ENDBRANCH  30  31
ENDBRANCH  29  30
ENDBRANCH   1  29
TORSDOF 18
ENDMDL
MODEL 3
REMARK VINA RESULT:     -10.7      4.577      6.664
REMARK SMILES NS(=O)(=O)c1ccc(N2N=C(C(=O)NCCCCNC(=O)c3ccc(-c4c5nc(c(-c6c(F)cc(S(=O)(=O)[O-])cc6F)c6ccc([nH]6)c(-c6c(F)cc(S(=O)(=O)[O-])cc6F)c6nc(c(-c7c(F)cc(S(=O)(=O)[O-])cc7F)c7ccc4[nH]7)C=C6)C=C5)cc3)C[C@H]2c2cccs2)cc1
REMARK SMILES IDX 16 1 15 2 14 3 12 4 13 5 11 7 9 8 10 9 89 10 88 11 8 12 5 13
REMARK SMILES IDX 6 14 96 15 7 16 95 17 2 18 3 19 4 20 1 21 90 24 91 25 94 26
REMARK SMILES IDX 92 27 93 28 17 29 18 30 19 31 20 32 21 34 22 35 23 36 87 37
REMARK SMILES IDX 24 38 86 39 25 40 26 41 27 42 80 43 28 44 85 45 79 46 81 47
REMARK SMILES IDX 29 48 84 49 78 50 77 51 30 53 64 54 43 55 63 56 44 57 47 58
REMARK SMILES IDX 62 59 82 60 45 61 46 62 61 64 83 65 48 66 31 67 32 68 41 69
REMARK SMILES IDX 33 70 34 71 40 72 42 73 35 74 36 75 37 76 38 77 39 78 65 79
REMARK SMILES IDX 66 80 75 81 67 82 68 83 74 84 76 85 69 86 70 87 71 88 72 89
REMARK SMILES IDX 73 90 49 91 50 92 59 93 51 94 52 95 58 96 60 97 53 98 54 99
REMARK SMILES IDX 55 100 56 101 57 102
REMARK H PARENT 14 6 1 22 1 23 19 33 81 52 47 63
REMARK Flexibility Score: inf
ROOT
ATOM      1  C   UNL A   1      38.861  27.110  29.302  1.00  0.00     0.023 C 
ENDROOT
BRANCH   1   2
ATOM      2  C   UNL A   1      39.513  28.004  30.353  1.00  0.00     0.116 C 
BRANCH   2   3
ATOM      3  N   UNL A   1      38.766  28.007  31.594  1.00  0.00    -0.351 N 
ATOM      4  C   UNL A   1      37.762  28.787  32.113  1.00  0.00     0.267 C 
ATOM      5  O   UNL A   1      37.387  28.539  33.256  1.00  0.00    -0.268 OA
ATOM      6  H   UNL A   1      39.041  27.286  32.206  1.00  0.00     0.163 HD
BRANCH   4   7
ATOM      7  C   UNL A   1      37.064  29.908  31.355  1.00  0.00     0.128 C 
ATOM      8  N   UNL A   1      35.682  31.506  31.009  1.00  0.00    -0.256 N 
ATOM      9  N   UNL A   1      36.248  30.719  31.964  1.00  0.00    -0.171 NA
ATOM     10  C   UNL A   1      36.217  31.273  29.666  1.00  0.00     0.154 C 
ATOM     11  C   UNL A   1      37.273  30.192  29.906  1.00  0.00     0.097 C 
BRANCH   8  12
ATOM     12  C   UNL A   1      35.116  32.737  31.340  1.00  0.00     0.060 A 
ATOM     13  C   UNL A   1      33.849  35.159  31.999  1.00  0.00     0.082 A 
ATOM     14  C   UNL A   1      34.373  34.978  30.718  1.00  0.00     0.024 A 
ATOM     15  C   UNL A   1      33.985  34.163  32.965  1.00  0.00     0.024 A 
ATOM     16  C   UNL A   1      35.015  33.775  30.402  1.00  0.00     0.029 A 
ATOM     17  C   UNL A   1      34.612  32.963  32.628  1.00  0.00     0.029 A 
BRANCH  13  18
ATOM     18  S   UNL A   1      33.033  36.658  32.447  1.00  0.00     0.238 S 
ATOM     19  O   UNL A   1      33.774  37.291  33.521  1.00  0.00    -0.207 OA
ATOM     20  O   UNL A   1      31.619  36.401  32.532  1.00  0.00    -0.207 OA
BRANCH  18  21
ATOM     21  N   UNL A   1      33.248  37.664  31.122  1.00  0.00    -0.225 NA
ATOM     22  H   UNL A   1      33.474  37.102  30.301  1.00  0.00     0.137 HD
ATOM     23  H   UNL A   1      34.011  38.314  31.309  1.00  0.00     0.137 HD
ENDBRANCH  18  21
ENDBRANCH  13  18
ENDBRANCH   8  12
BRANCH  10  24
ATOM     24  C   UNL A   1      35.221  30.905  28.583  1.00  0.00     0.030 A 
ATOM     25  C   UNL A   1      34.185  31.688  28.102  1.00  0.00     0.017 A 
ATOM     26  S   UNL A   1      35.233  29.370  27.810  1.00  0.00    -0.147 S 
ATOM     27  C   UNL A   1      33.446  31.048  27.069  1.00  0.00     0.012 A 
ATOM     28  C   UNL A   1      33.943  29.799  26.779  1.00  0.00     0.065 A 
ENDBRANCH  10  24
ENDBRANCH   4   7
ENDBRANCH   2   3
ENDBRANCH   1   2
BRANCH   1  29
ATOM     29  C   UNL A   1      39.713  25.927  28.851  1.00  0.00     0.023 C 
BRANCH  29  30
ATOM     30  C   UNL A   1      39.973  25.841  27.349  1.00  0.00     0.116 C 
BRANCH  30  31
ATOM     31  N   UNL A   1      41.330  25.425  27.018  1.00  0.00    -0.352 N 
ATOM     32  C   UNL A   1      42.514  26.084  27.247  1.00  0.00     0.251 C 
ATOM     33  H   UNL A   1      41.408  24.553  26.568  1.00  0.00     0.163 HD
ATOM     34  O   UNL A   1      43.565  25.629  26.807  1.00  0.00    -0.269 OA
BRANCH  32  35
ATOM     35  C   UNL A   1      42.502  27.361  27.991  1.00  0.00     0.039 A 
ATOM     36  C   UNL A   1      43.167  27.434  29.217  1.00  0.00     0.014 A 
ATOM     37  C   UNL A   1      41.878  28.490  27.455  1.00  0.00     0.014 A 
ATOM     38  C   UNL A   1      43.274  28.664  29.869  1.00  0.00     0.010 A 
ATOM     39  C   UNL A   1      42.046  29.726  28.070  1.00  0.00     0.010 A 
ATOM     40  C   UNL A   1      42.750  29.827  29.280  1.00  0.00    -0.014 A 
BRANCH  40  41
ATOM     41  C   UNL A   1      42.943  31.162  29.904  1.00  0.00     0.031 A 
ATOM     42  C   UNL A   1      43.967  32.113  29.345  1.00  0.00     0.074 A 
ATOM     43  C   UNL A   1      42.260  31.479  31.023  1.00  0.00     0.049 A 
ATOM     44  N   UNL A   1      44.341  33.281  29.800  1.00  0.00    -0.248 NA
ATOM     45  C   UNL A   1      44.687  31.683  28.135  1.00  0.00     0.031 C 
ATOM     46  C   UNL A   1      41.292  30.612  31.701  1.00  0.00     0.029 A 
ATOM     47  N   UNL A   1      42.290  32.608  31.801  1.00  0.00    -0.354 N 
ATOM     48  C   UNL A   1      45.355  33.710  28.953  1.00  0.00     0.074 A 
ATOM     49  C   UNL A   1      45.566  32.662  27.979  1.00  0.00     0.031 C 
ATOM     50  C   UNL A   1      40.814  31.245  32.785  1.00  0.00     0.029 A 
ATOM     51  C   UNL A   1      41.462  32.548  32.899  1.00  0.00     0.049 A 
ATOM     52  H   UNL A   1      42.852  33.390  31.594  1.00  0.00     0.167 HD
ATOM     53  C   UNL A   1      46.038  34.879  28.977  1.00  0.00     0.037 A 
ATOM     54  C   UNL A   1      41.256  33.437  33.889  1.00  0.00     0.037 A 
ATOM     55  C   UNL A   1      45.785  35.940  29.914  1.00  0.00     0.049 A 
ATOM     56  C   UNL A   1      41.994  34.749  33.863  1.00  0.00     0.074 A 
ATOM     57  C   UNL A   1      46.348  37.204  29.954  1.00  0.00     0.029 A 
ATOM     58  N   UNL A   1      44.897  35.865  30.976  1.00  0.00    -0.354 N 
ATOM     59  N   UNL A   1      42.882  35.176  32.997  1.00  0.00    -0.248 NA
ATOM     60  C   UNL A   1      41.698  35.704  34.941  1.00  0.00     0.031 C 
ATOM     61  C   UNL A   1      45.830  37.879  31.063  1.00  0.00     0.029 A 
ATOM     62  C   UNL A   1      44.912  37.051  31.689  1.00  0.00     0.049 A 
ATOM     63  H   UNL A   1      44.338  35.084  31.192  1.00  0.00     0.167 HD
ATOM     64  C   UNL A   1      43.227  36.459  33.409  1.00  0.00     0.074 A 
ATOM     65  C   UNL A   1      42.445  36.743  34.593  1.00  0.00     0.031 C 
ATOM     66  C   UNL A   1      44.113  37.324  32.857  1.00  0.00     0.037 A 
BRANCH  53  67
ATOM     67  C   UNL A   1      47.116  35.087  27.951  1.00  0.00     0.058 A 
ATOM     68  C   UNL A   1      46.834  35.606  26.679  1.00  0.00     0.135 A 
ATOM     69  C   UNL A   1      48.460  34.831  28.273  1.00  0.00     0.135 A 
ATOM     70  F   UNL A   1      45.566  35.853  26.315  1.00  0.00    -0.206 F 
ATOM     71  C   UNL A   1      47.844  35.851  25.754  1.00  0.00     0.059 A 
ATOM     72  C   UNL A   1      49.488  35.091  27.372  1.00  0.00     0.059 A 
ATOM     73  F   UNL A   1      48.783  34.332  29.475  1.00  0.00    -0.206 F 
ATOM     74  C   UNL A   1      49.169  35.595  26.112  1.00  0.00     0.060 A 
BRANCH  74  75
ATOM     75  S   UNL A   1      50.470  35.953  24.913  1.00  0.00     0.124 S 
ATOM     76  O   UNL A   1      51.475  36.592  25.757  1.00  0.00    -0.237 OA
ATOM     77  O   UNL A   1      50.812  34.623  24.417  1.00  0.00    -0.237 OA
ATOM     78  O   UNL A   1      49.812  36.828  23.948  1.00  0.00    -0.744 OA
ENDBRANCH  74  75
ENDBRANCH  53  67
BRANCH  54  79
ATOM     79  C   UNL A   1      40.303  33.129  34.989  1.00  0.00     0.058 A 
ATOM     80  C   UNL A   1      40.762  32.723  36.251  1.00  0.00     0.135 A 
ATOM     81  C   UNL A   1      38.915  33.214  34.796  1.00  0.00     0.135 A 
ATOM     82  F   UNL A   1      42.080  32.624  36.484  1.00  0.00    -0.206 F 
ATOM     83  C   UNL A   1      39.882  32.380  37.272  1.00  0.00     0.059 A 
ATOM     84  C   UNL A   1      38.015  32.899  35.809  1.00  0.00     0.059 A 
ATOM     85  F   UNL A   1      38.424  33.617  33.613  1.00  0.00    -0.206 F 
ATOM     86  C   UNL A   1      38.509  32.467  37.039  1.00  0.00     0.060 A 
BRANCH  86  87
ATOM     87  S   UNL A   1      37.371  32.034  38.375  1.00  0.00     0.124 S 
ATOM     88  O   UNL A   1      37.086  30.637  38.075  1.00  0.00    -0.237 OA
ATOM     89  O   UNL A   1      38.182  32.282  39.563  1.00  0.00    -0.237 OA
ATOM     90  O   UNL A   1      36.261  32.964  38.180  1.00  0.00    -0.744 OA
ENDBRANCH  86  87
ENDBRANCH  54  79
BRANCH  66  91
ATOM     91  C   UNL A   1      44.255  38.674  33.500  1.00  0.00     0.058 A 
ATOM     92  C   UNL A   1      45.110  38.883  34.593  1.00  0.00     0.135 A 
ATOM     93  C   UNL A   1      43.567  39.783  32.982  1.00  0.00     0.135 A 
ATOM     94  F   UNL A   1      45.785  37.854  35.129  1.00  0.00    -0.206 F 
ATOM     95  C   UNL A   1      45.260  40.142  35.165  1.00  0.00     0.059 A 
ATOM     96  C   UNL A   1      43.722  41.054  33.522  1.00  0.00     0.059 A 
ATOM     97  F   UNL A   1      42.745  39.636  31.930  1.00  0.00    -0.206 F 
ATOM     98  C   UNL A   1      44.562  41.222  34.621  1.00  0.00     0.060 A 
BRANCH  98  99
ATOM     99  S   UNL A   1      44.790  42.858  35.350  1.00  0.00     0.124 S 
ATOM    100  O   UNL A   1      46.242  42.991  35.323  1.00  0.00    -0.237 OA
ATOM    101  O   UNL A   1      44.056  43.719  34.427  1.00  0.00    -0.237 OA
ATOM    102  O   UNL A   1      44.195  42.724  36.677  1.00  0.00    -0.744 OA
ENDBRANCH  98  99
ENDBRANCH  66  91
ENDBRANCH  40  41
ENDBRANCH  32  35
ENDBRANCH  30  31
ENDBRANCH  29  30
ENDBRANCH   1  29
TORSDOF 18
ENDMDL
