MODEL 1
REMARK VINA RESULT:     -11.9      0.000      0.000
REMARK SMILES CC(C)N(c1cc2c(cc1Cl)C=C(C(=O)NCCCCNC(=O)c1ccc(-c3c4nc(c(-c5c(F)cc(S(=O)(=O)[O-])cc5F)c5ccc([nH]5)c(-c5c(F)cc(S(=O)(=O)[O-])cc5F)c5nc(c(-c6c(F)cc(S(=O)(=O)[O-])cc6F)c6ccc3[nH]6)C=C5)C=C4)cc1)[C@@H](C(F)(F)F)O2)C(C)C
REMARK SMILES IDX 19 1 18 2 17 3 16 4 14 5 15 6 13 8 5 9 6 10 10 11 7 12 9 13
REMARK SMILES IDX 11 14 8 15 95 16 12 17 90 18 4 19 2 20 1 21 3 22 96 23 97 24
REMARK SMILES IDX 98 25 91 26 92 27 93 28 94 29 20 30 21 31 22 32 23 34 24 35
REMARK SMILES IDX 25 36 89 37 26 38 88 39 27 40 28 41 29 42 82 43 30 44 87 45
REMARK SMILES IDX 81 46 83 47 31 48 86 49 80 50 79 51 32 53 66 54 45 55 65 56
REMARK SMILES IDX 46 57 49 58 64 59 84 60 47 61 48 62 63 64 85 65 50 66 33 67
REMARK SMILES IDX 34 68 43 69 35 70 36 71 42 72 44 73 37 74 38 75 39 76 40 77
REMARK SMILES IDX 41 78 67 79 68 80 77 81 69 82 70 83 76 84 78 85 71 86 72 87
REMARK SMILES IDX 73 88 74 89 75 90 51 91 52 92 61 93 53 94 54 95 60 96 62 97
REMARK SMILES IDX 55 98 56 99 57 100 58 101 59 102
REMARK H PARENT 16 7 21 33 83 52 49 63
REMARK Flexibility Score: inf
ROOT
ATOM      1  C   UNL A   1      36.767  23.096  24.624  1.00  0.00     0.023 C 
ENDROOT
BRANCH   1   2
ATOM      2  C   UNL A   1      36.921  21.592  24.376  1.00  0.00     0.023 C 
BRANCH   2   3
ATOM      3  C   UNL A   1      36.250  20.704  25.421  1.00  0.00     0.116 C 
BRANCH   3   4
ATOM      4  N   UNL A   1      35.088  20.010  24.893  1.00  0.00    -0.352 N 
ATOM      5  C   UNL A   1      33.818  20.329  24.547  1.00  0.00     0.251 C 
ATOM      6  O   UNL A   1      33.139  19.396  24.107  1.00  0.00    -0.270 OA
ATOM      7  H   UNL A   1      35.272  19.054  24.747  1.00  0.00     0.163 HD
BRANCH   5   8
ATOM      8  C   UNL A   1      33.205  21.685  24.664  1.00  0.00     0.067 C 
ATOM      9  C   UNL A   1      31.740  26.475  23.836  1.00  0.00     0.060 A 
ATOM     10  C   UNL A   1      31.295  25.417  24.649  1.00  0.00     0.074 A 
ATOM     11  C   UNL A   1      32.830  26.202  22.975  1.00  0.00     0.065 A 
ATOM     12  C   UNL A   1      31.907  24.163  24.616  1.00  0.00     0.130 A 
ATOM     13  C   UNL A   1      33.413  24.925  22.912  1.00  0.00     0.034 A 
ATOM     14  Cl  UNL A   1      33.570  27.430  21.998  1.00  0.00    -0.082 Cl
ATOM     15  C   UNL A   1      32.951  23.901  23.735  1.00  0.00     0.019 A 
ATOM     16  O   UNL A   1      31.408  23.211  25.461  1.00  0.00    -0.475 OA
ATOM     17  C   UNL A   1      33.509  22.554  23.680  1.00  0.00     0.025 C 
ATOM     18  C   UNL A   1      32.327  22.131  25.799  1.00  0.00     0.314 C 
BRANCH   9  19
ATOM     19  N   UNL A   1      31.094  27.726  23.916  1.00  0.00    -0.365 N 
BRANCH  19  20
ATOM     20  C   UNL A   1      31.579  28.638  24.977  1.00  0.00     0.076 C 
ATOM     21  C   UNL A   1      31.500  28.020  26.372  1.00  0.00     0.030 C 
ATOM     22  C   UNL A   1      32.973  29.193  24.703  1.00  0.00     0.030 C 
ENDBRANCH  19  20
BRANCH  19  23
ATOM     23  C   UNL A   1      30.193  28.074  22.797  1.00  0.00     0.076 C 
ATOM     24  C   UNL A   1      28.718  27.993  23.184  1.00  0.00     0.030 C 
ATOM     25  C   UNL A   1      30.514  29.413  22.139  1.00  0.00     0.030 C 
ENDBRANCH  19  23
ENDBRANCH   9  19
BRANCH  18  26
ATOM     26  C   UNL A   1      33.140  22.516  27.053  1.00  0.00     0.429 C 
ATOM     27  F   UNL A   1      34.166  23.338  26.719  1.00  0.00    -0.167 F 
ATOM     28  F   UNL A   1      32.397  23.181  27.969  1.00  0.00    -0.167 F 
ATOM     29  F   UNL A   1      33.672  21.444  27.682  1.00  0.00    -0.167 F 
ENDBRANCH  18  26
ENDBRANCH   5   8
ENDBRANCH   3   4
ENDBRANCH   2   3
ENDBRANCH   1   2
BRANCH   1  30
ATOM     30  C   UNL A   1      37.682  23.685  25.697  1.00  0.00     0.116 C 
BRANCH  30  31
ATOM     31  N   UNL A   1      39.017  23.100  25.742  1.00  0.00    -0.352 N 
ATOM     32  C   UNL A   1      40.135  23.609  26.372  1.00  0.00     0.251 C 
ATOM     33  H   UNL A   1      39.134  22.245  25.269  1.00  0.00     0.163 HD
ATOM     34  O   UNL A   1      41.222  23.051  26.265  1.00  0.00    -0.269 OA
BRANCH  32  35
ATOM     35  C   UNL A   1      40.006  24.875  27.123  1.00  0.00     0.039 A 
ATOM     36  C   UNL A   1      40.742  25.995  26.736  1.00  0.00     0.014 A 
ATOM     37  C   UNL A   1      39.239  24.900  28.291  1.00  0.00     0.014 A 
ATOM     38  C   UNL A   1      40.874  27.060  27.617  1.00  0.00     0.010 A 
ATOM     39  C   UNL A   1      39.307  26.011  29.136  1.00  0.00     0.010 A 
ATOM     40  C   UNL A   1      40.185  27.066  28.842  1.00  0.00    -0.014 A 
BRANCH  40  41
ATOM     41  C   UNL A   1      40.463  28.157  29.814  1.00  0.00     0.031 A 
ATOM     42  C   UNL A   1      39.500  29.306  29.975  1.00  0.00     0.074 A 
ATOM     43  C   UNL A   1      41.529  28.053  30.632  1.00  0.00     0.049 A 
ATOM     44  N   UNL A   1      39.522  30.281  30.847  1.00  0.00    -0.248 NA
ATOM     45  C   UNL A   1      38.367  29.374  29.036  1.00  0.00     0.031 C 
ATOM     46  C   UNL A   1      42.530  26.986  30.577  1.00  0.00     0.029 A 
ATOM     47  N   UNL A   1      41.924  28.825  31.695  1.00  0.00    -0.354 N 
ATOM     48  C   UNL A   1      38.425  31.085  30.553  1.00  0.00     0.074 A 
ATOM     49  C   UNL A   1      37.772  30.500  29.403  1.00  0.00     0.031 C 
ATOM     50  C   UNL A   1      43.378  27.126  31.606  1.00  0.00     0.029 A 
ATOM     51  C   UNL A   1      43.014  28.320  32.364  1.00  0.00     0.049 A 
ATOM     52  H   UNL A   1      41.470  29.660  31.955  1.00  0.00     0.167 HD
ATOM     53  C   UNL A   1      37.992  32.196  31.193  1.00  0.00     0.037 A 
ATOM     54  C   UNL A   1      43.647  28.762  33.467  1.00  0.00     0.037 A 
ATOM     55  C   UNL A   1      38.616  32.753  32.363  1.00  0.00     0.049 A 
ATOM     56  C   UNL A   1      43.157  30.007  34.149  1.00  0.00     0.074 A 
ATOM     57  C   UNL A   1      38.220  33.850  33.109  1.00  0.00     0.029 A 
ATOM     58  N   UNL A   1      39.764  32.255  32.960  1.00  0.00    -0.354 N 
ATOM     59  N   UNL A   1      42.109  30.739  33.864  1.00  0.00    -0.248 NA
ATOM     60  C   UNL A   1      43.948  30.496  35.288  1.00  0.00     0.031 C 
ATOM     61  C   UNL A   1      39.149  34.036  34.138  1.00  0.00     0.029 A 
ATOM     62  C   UNL A   1      40.106  33.038  34.050  1.00  0.00     0.049 A 
ATOM     63  H   UNL A   1      40.262  31.463  32.654  1.00  0.00     0.167 HD
ATOM     64  C   UNL A   1      42.116  31.783  34.783  1.00  0.00     0.074 A 
ATOM     65  C   UNL A   1      43.259  31.573  35.647  1.00  0.00     0.031 C 
ATOM     66  C   UNL A   1      41.256  32.824  34.890  1.00  0.00     0.037 A 
BRANCH  53  67
ATOM     67  C   UNL A   1      36.779  32.893  30.642  1.00  0.00     0.058 A 
ATOM     68  C   UNL A   1      35.505  32.700  31.196  1.00  0.00     0.135 A 
ATOM     69  C   UNL A   1      36.902  33.802  29.579  1.00  0.00     0.135 A 
ATOM     70  F   UNL A   1      35.332  31.829  32.204  1.00  0.00    -0.206 F 
ATOM     71  C   UNL A   1      34.390  33.370  30.705  1.00  0.00     0.059 A 
ATOM     72  C   UNL A   1      35.803  34.498  29.083  1.00  0.00     0.059 A 
ATOM     73  F   UNL A   1      38.099  34.023  29.013  1.00  0.00    -0.206 F 
ATOM     74  C   UNL A   1      34.548  34.265  29.646  1.00  0.00     0.060 A 
BRANCH  74  75
ATOM     75  S   UNL A   1      33.090  35.127  29.020  1.00  0.00     0.124 S 
ATOM     76  O   UNL A   1      32.305  35.292  30.240  1.00  0.00    -0.237 OA
ATOM     77  O   UNL A   1      33.662  36.349  28.464  1.00  0.00    -0.237 OA
ATOM     78  O   UNL A   1      32.538  34.195  28.041  1.00  0.00    -0.744 OA
ENDBRANCH  74  75
ENDBRANCH  53  67
BRANCH  54  79
ATOM     79  C   UNL A   1      44.811  28.004  33.992  1.00  0.00     0.058 A 
ATOM     80  C   UNL A   1      44.632  26.937  34.883  1.00  0.00     0.135 A 
ATOM     81  C   UNL A   1      46.116  28.295  33.566  1.00  0.00     0.135 A 
ATOM     82  F   UNL A   1      43.403  26.627  35.321  1.00  0.00    -0.206 F 
ATOM     83  C   UNL A   1      45.708  26.176  35.328  1.00  0.00     0.059 A 
ATOM     84  C   UNL A   1      47.204  27.536  33.982  1.00  0.00     0.059 A 
ATOM     85  F   UNL A   1      46.333  29.299  32.702  1.00  0.00    -0.206 F 
ATOM     86  C   UNL A   1      46.990  26.480  34.866  1.00  0.00     0.060 A 
BRANCH  86  87
ATOM     87  S   UNL A   1      48.370  25.434  35.380  1.00  0.00     0.124 S 
ATOM     88  O   UNL A   1      48.033  25.170  36.773  1.00  0.00    -0.237 OA
ATOM     89  O   UNL A   1      48.254  24.300  34.469  1.00  0.00    -0.237 OA
ATOM     90  O   UNL A   1      49.535  26.287  35.161  1.00  0.00    -0.744 OA
ENDBRANCH  86  87
ENDBRANCH  54  79
BRANCH  66  91
ATOM     91  C   UNL A   1      41.526  33.840  35.961  1.00  0.00     0.058 A 
ATOM     92  C   UNL A   1      42.300  34.980  35.691  1.00  0.00     0.135 A 
ATOM     93  C   UNL A   1      40.928  33.730  37.225  1.00  0.00     0.135 A 
ATOM     94  F   UNL A   1      42.897  35.124  34.498  1.00  0.00    -0.206 F 
ATOM     95  C   UNL A   1      42.466  35.982  36.641  1.00  0.00     0.059 A 
ATOM     96  C   UNL A   1      41.069  34.728  38.184  1.00  0.00     0.059 A 
ATOM     97  F   UNL A   1      40.175  32.661  37.525  1.00  0.00    -0.206 F 
ATOM     98  C   UNL A   1      41.839  35.851  37.881  1.00  0.00     0.060 A 
BRANCH  98  99
ATOM     99  S   UNL A   1      41.999  37.197  39.074  1.00  0.00     0.124 S 
ATOM    100  O   UNL A   1      42.958  38.070  38.406  1.00  0.00    -0.237 OA
ATOM    101  O   UNL A   1      40.633  37.703  39.159  1.00  0.00    -0.237 OA
ATOM    102  O   UNL A   1      42.489  36.529  40.276  1.00  0.00    -0.744 OA
ENDBRANCH  98  99
ENDBRANCH  66  91
ENDBRANCH  40  41
ENDBRANCH  32  35
ENDBRANCH  30  31
ENDBRANCH   1  30
TORSDOF 18
ENDMDL
MODEL 2
REMARK VINA RESULT:     -11.8      1.187      8.058
REMARK SMILES CC(C)N(c1cc2c(cc1Cl)C=C(C(=O)NCCCCNC(=O)c1ccc(-c3c4nc(c(-c5c(F)cc(S(=O)(=O)[O-])cc5F)c5ccc([nH]5)c(-c5c(F)cc(S(=O)(=O)[O-])cc5F)c5nc(c(-c6c(F)cc(S(=O)(=O)[O-])cc6F)c6ccc3[nH]6)C=C5)C=C4)cc1)[C@@H](C(F)(F)F)O2)C(C)C
REMARK SMILES IDX 19 1 18 2 17 3 16 4 14 5 15 6 13 8 5 9 6 10 10 11 7 12 9 13
REMARK SMILES IDX 11 14 8 15 95 16 12 17 90 18 4 19 2 20 1 21 3 22 96 23 97 24
REMARK SMILES IDX 98 25 91 26 92 27 93 28 94 29 20 30 21 31 22 32 23 34 24 35
REMARK SMILES IDX 25 36 89 37 26 38 88 39 27 40 28 41 29 42 82 43 30 44 87 45
REMARK SMILES IDX 81 46 83 47 31 48 86 49 80 50 79 51 32 53 66 54 45 55 65 56
REMARK SMILES IDX 46 57 49 58 64 59 84 60 47 61 48 62 63 64 85 65 50 66 33 67
REMARK SMILES IDX 34 68 43 69 35 70 36 71 42 72 44 73 37 74 38 75 39 76 40 77
REMARK SMILES IDX 41 78 67 79 68 80 77 81 69 82 70 83 76 84 78 85 71 86 72 87
REMARK SMILES IDX 73 88 74 89 75 90 51 91 52 92 61 93 53 94 54 95 60 96 62 97
REMARK SMILES IDX 55 98 56 99 57 100 58 101 59 102
REMARK H PARENT 16 7 21 33 83 52 49 63
REMARK Flexibility Score: inf
ROOT
ATOM      1  C   UNL A   1      37.761  23.397  25.334  1.00  0.00     0.023 C 
ENDROOT
BRANCH   1   2
ATOM      2  C   UNL A   1      37.573  21.998  24.738  1.00  0.00     0.023 C 
BRANCH   2   3
ATOM      3  C   UNL A   1      37.056  20.952  25.722  1.00  0.00     0.116 C 
BRANCH   3   4
ATOM      4  N   UNL A   1      35.970  20.161  25.168  1.00  0.00    -0.352 N 
ATOM      5  C   UNL A   1      34.679  20.365  24.813  1.00  0.00     0.251 C 
ATOM      6  O   UNL A   1      34.096  19.380  24.348  1.00  0.00    -0.270 OA
ATOM      7  H   UNL A   1      36.246  19.230  25.007  1.00  0.00     0.163 HD
BRANCH   5   8
ATOM      8  C   UNL A   1      33.939  21.654  24.948  1.00  0.00     0.067 C 
ATOM      9  C   UNL A   1      31.975  26.269  24.156  1.00  0.00     0.060 A 
ATOM     10  C   UNL A   1      31.668  25.178  24.990  1.00  0.00     0.074 A 
ATOM     11  C   UNL A   1      33.055  26.099  23.256  1.00  0.00     0.065 A 
ATOM     12  C   UNL A   1      32.399  23.991  24.939  1.00  0.00     0.130 A 
ATOM     13  C   UNL A   1      33.759  24.886  23.176  1.00  0.00     0.034 A 
ATOM     14  Cl  UNL A   1      33.632  27.387  22.248  1.00  0.00    -0.082 Cl
ATOM     15  C   UNL A   1      33.432  23.827  24.021  1.00  0.00     0.019 A 
ATOM     16  O   UNL A   1      32.029  23.000  25.805  1.00  0.00    -0.475 OA
ATOM     17  C   UNL A   1      34.118  22.542  23.950  1.00  0.00     0.025 C 
ATOM     18  C   UNL A   1      33.063  22.020  26.113  1.00  0.00     0.314 C 
BRANCH   9  19
ATOM     19  N   UNL A   1      31.211  27.450  24.256  1.00  0.00    -0.365 N 
BRANCH  19  20
ATOM     20  C   UNL A   1      30.013  27.522  23.391  1.00  0.00     0.076 C 
ATOM     21  C   UNL A   1      28.868  26.641  23.888  1.00  0.00     0.030 C 
ATOM     22  C   UNL A   1      29.536  28.950  23.141  1.00  0.00     0.030 C 
ENDBRANCH  19  20
BRANCH  19  23
ATOM     23  C   UNL A   1      31.551  28.359  25.372  1.00  0.00     0.076 C 
ATOM     24  C   UNL A   1      31.186  27.776  26.735  1.00  0.00     0.030 C 
ATOM     25  C   UNL A   1      32.997  28.845  25.354  1.00  0.00     0.030 C 
ENDBRANCH  19  23
ENDBRANCH   9  19
BRANCH  18  26
ATOM     26  C   UNL A   1      33.879  22.493  27.334  1.00  0.00     0.429 C 
ATOM     27  F   UNL A   1      34.492  21.440  27.932  1.00  0.00    -0.167 F 
ATOM     28  F   UNL A   1      34.856  23.366  26.997  1.00  0.00    -0.167 F 
ATOM     29  F   UNL A   1      33.117  23.099  28.272  1.00  0.00    -0.167 F 
ENDBRANCH  18  26
ENDBRANCH   5   8
ENDBRANCH   3   4
ENDBRANCH   2   3
ENDBRANCH   1   2
BRANCH   1  30
ATOM     30  C   UNL A   1      38.752  23.494  26.493  1.00  0.00     0.116 C 
BRANCH  30  31
ATOM     31  N   UNL A   1      40.148  23.619  26.086  1.00  0.00    -0.352 N 
ATOM     32  C   UNL A   1      41.033  24.622  26.424  1.00  0.00     0.251 C 
ATOM     33  H   UNL A   1      40.497  22.906  25.504  1.00  0.00     0.163 HD
ATOM     34  O   UNL A   1      42.162  24.647  25.946  1.00  0.00    -0.269 OA
BRANCH  32  35
ATOM     35  C   UNL A   1      40.568  25.701  27.321  1.00  0.00     0.039 A 
ATOM     36  C   UNL A   1      41.196  26.946  27.300  1.00  0.00     0.014 A 
ATOM     37  C   UNL A   1      39.580  25.420  28.268  1.00  0.00     0.014 A 
ATOM     38  C   UNL A   1      40.985  27.831  28.348  1.00  0.00     0.010 A 
ATOM     39  C   UNL A   1      39.308  26.351  29.276  1.00  0.00     0.010 A 
ATOM     40  C   UNL A   1      40.064  27.530  29.367  1.00  0.00    -0.014 A 
BRANCH  40  41
ATOM     41  C   UNL A   1      39.973  28.440  30.540  1.00  0.00     0.031 A 
ATOM     42  C   UNL A   1      40.984  28.357  31.655  1.00  0.00     0.074 A 
ATOM     43  C   UNL A   1      39.044  29.415  30.545  1.00  0.00     0.049 A 
ATOM     44  N   UNL A   1      41.127  29.139  32.695  1.00  0.00    -0.248 NA
ATOM     45  C   UNL A   1      41.960  27.256  31.602  1.00  0.00     0.031 C 
ATOM     46  C   UNL A   1      38.014  29.601  29.521  1.00  0.00     0.029 A 
ATOM     47  N   UNL A   1      38.841  30.459  31.412  1.00  0.00    -0.354 N 
ATOM     48  C   UNL A   1      42.189  28.617  33.425  1.00  0.00     0.074 A 
ATOM     49  C   UNL A   1      42.639  27.433  32.727  1.00  0.00     0.031 C 
ATOM     50  C   UNL A   1      37.340  30.732  29.776  1.00  0.00     0.029 A 
ATOM     51  C   UNL A   1      37.853  31.325  31.008  1.00  0.00     0.049 A 
ATOM     52  H   UNL A   1      39.356  30.577  32.244  1.00  0.00     0.167 HD
ATOM     53  C   UNL A   1      42.750  29.090  34.563  1.00  0.00     0.037 A 
ATOM     54  C   UNL A   1      37.411  32.471  31.560  1.00  0.00     0.037 A 
ATOM     55  C   UNL A   1      42.332  30.291  35.235  1.00  0.00     0.049 A 
ATOM     56  C   UNL A   1      38.039  32.966  32.831  1.00  0.00     0.074 A 
ATOM     57  C   UNL A   1      42.871  30.876  36.367  1.00  0.00     0.029 A 
ATOM     58  N   UNL A   1      41.275  31.095  34.834  1.00  0.00    -0.354 N 
ATOM     59  N   UNL A   1      39.053  32.466  33.494  1.00  0.00    -0.248 NA
ATOM     60  C   UNL A   1      37.449  34.166  33.440  1.00  0.00     0.031 C 
ATOM     61  C   UNL A   1      42.119  32.014  36.672  1.00  0.00     0.029 A 
ATOM     62  C   UNL A   1      41.130  32.155  35.711  1.00  0.00     0.049 A 
ATOM     63  H   UNL A   1      40.711  30.934  34.043  1.00  0.00     0.167 HD
ATOM     64  C   UNL A   1      39.220  33.285  34.604  1.00  0.00     0.074 A 
ATOM     65  C   UNL A   1      38.218  34.327  34.511  1.00  0.00     0.031 C 
ATOM     66  C   UNL A   1      40.117  33.175  35.612  1.00  0.00     0.037 A 
BRANCH  53  67
ATOM     67  C   UNL A   1      43.884  28.307  35.162  1.00  0.00     0.058 A 
ATOM     68  C   UNL A   1      43.656  27.195  35.986  1.00  0.00     0.135 A 
ATOM     69  C   UNL A   1      45.216  28.643  34.866  1.00  0.00     0.135 A 
ATOM     70  F   UNL A   1      42.403  26.842  36.312  1.00  0.00    -0.206 F 
ATOM     71  C   UNL A   1      44.708  26.454  36.513  1.00  0.00     0.059 A 
ATOM     72  C   UNL A   1      46.284  27.904  35.368  1.00  0.00     0.059 A 
ATOM     73  F   UNL A   1      45.488  29.698  34.082  1.00  0.00    -0.206 F 
ATOM     74  C   UNL A   1      46.019  26.817  36.201  1.00  0.00     0.060 A 
BRANCH  74  75
ATOM     75  S   UNL A   1      47.373  25.844  36.893  1.00  0.00     0.124 S 
ATOM     76  O   UNL A   1      46.918  24.483  36.625  1.00  0.00    -0.237 OA
ATOM     77  O   UNL A   1      48.518  26.295  36.108  1.00  0.00    -0.237 OA
ATOM     78  O   UNL A   1      47.388  26.233  38.300  1.00  0.00    -0.744 OA
ENDBRANCH  74  75
ENDBRANCH  53  67
BRANCH  54  79
ATOM     79  C   UNL A   1      36.321  33.226  30.895  1.00  0.00     0.058 A 
ATOM     80  C   UNL A   1      35.035  33.272  31.451  1.00  0.00     0.135 A 
ATOM     81  C   UNL A   1      36.559  33.965  29.725  1.00  0.00     0.135 A 
ATOM     82  F   UNL A   1      34.760  32.578  32.565  1.00  0.00    -0.206 F 
ATOM     83  C   UNL A   1      34.022  34.032  30.875  1.00  0.00     0.059 A 
ATOM     84  C   UNL A   1      35.568  34.746  29.142  1.00  0.00     0.059 A 
ATOM     85  F   UNL A   1      37.779  33.961  29.166  1.00  0.00    -0.206 F 
ATOM     86  C   UNL A   1      34.301  34.772  29.723  1.00  0.00     0.060 A 
BRANCH  86  87
ATOM     87  S   UNL A   1      33.007  35.823  29.030  1.00  0.00     0.124 S 
ATOM     88  O   UNL A   1      32.324  34.895  28.137  1.00  0.00    -0.237 OA
ATOM     89  O   UNL A   1      32.265  36.226  30.222  1.00  0.00    -0.237 OA
ATOM     90  O   UNL A   1      33.758  36.892  28.379  1.00  0.00    -0.744 OA
ENDBRANCH  86  87
ENDBRANCH  54  79
BRANCH  66  91
ATOM     91  C   UNL A   1      40.047  34.187  36.719  1.00  0.00     0.058 A 
ATOM     92  C   UNL A   1      40.533  35.490  36.533  1.00  0.00     0.135 A 
ATOM     93  C   UNL A   1      39.403  33.886  37.928  1.00  0.00     0.135 A 
ATOM     94  F   UNL A   1      41.163  35.821  35.396  1.00  0.00    -0.206 F 
ATOM     95  C   UNL A   1      40.375  36.467  37.511  1.00  0.00     0.059 A 
ATOM     96  C   UNL A   1      39.220  34.852  38.913  1.00  0.00     0.059 A 
ATOM     97  F   UNL A   1      38.917  32.654  38.147  1.00  0.00    -0.206 F 
ATOM     98  C   UNL A   1      39.709  36.140  38.693  1.00  0.00     0.060 A 
BRANCH  98  99
ATOM     99  S   UNL A   1      39.443  37.438  39.919  1.00  0.00     0.124 S 
ATOM    100  O   UNL A   1      39.113  36.658  41.108  1.00  0.00    -0.237 OA
ATOM    101  O   UNL A   1      40.735  38.115  39.944  1.00  0.00    -0.237 OA
ATOM    102  O   UNL A   1      38.345  38.218  39.355  1.00  0.00    -0.744 OA
ENDBRANCH  98  99
ENDBRANCH  66  91
ENDBRANCH  40  41
ENDBRANCH  32  35
ENDBRANCH  30  31
ENDBRANCH   1  30
TORSDOF 18
ENDMDL
MODEL 3
REMARK VINA RESULT:     -11.6      1.501      8.125
REMARK SMILES CC(C)N(c1cc2c(cc1Cl)C=C(C(=O)NCCCCNC(=O)c1ccc(-c3c4nc(c(-c5c(F)cc(S(=O)(=O)[O-])cc5F)c5ccc([nH]5)c(-c5c(F)cc(S(=O)(=O)[O-])cc5F)c5nc(c(-c6c(F)cc(S(=O)(=O)[O-])cc6F)c6ccc3[nH]6)C=C5)C=C4)cc1)[C@@H](C(F)(F)F)O2)C(C)C
REMARK SMILES IDX 19 1 18 2 17 3 16 4 14 5 15 6 13 8 5 9 6 10 10 11 7 12 9 13
REMARK SMILES IDX 11 14 8 15 95 16 12 17 90 18 4 19 2 20 1 21 3 22 96 23 97 24
REMARK SMILES IDX 98 25 91 26 92 27 93 28 94 29 20 30 21 31 22 32 23 34 24 35
REMARK SMILES IDX 25 36 89 37 26 38 88 39 27 40 28 41 29 42 82 43 30 44 87 45
REMARK SMILES IDX 81 46 83 47 31 48 86 49 80 50 79 51 32 53 66 54 45 55 65 56
REMARK SMILES IDX 46 57 49 58 64 59 84 60 47 61 48 62 63 64 85 65 50 66 33 67
REMARK SMILES IDX 34 68 43 69 35 70 36 71 42 72 44 73 37 74 38 75 39 76 40 77
REMARK SMILES IDX 41 78 67 79 68 80 77 81 69 82 70 83 76 84 78 85 71 86 72 87
REMARK SMILES IDX 73 88 74 89 75 90 51 91 52 92 61 93 53 94 54 95 60 96 62 97
REMARK SMILES IDX 55 98 56 99 57 100 58 101 59 102
REMARK H PARENT 16 7 21 33 83 52 49 63
REMARK Flexibility Score: inf
ROOT
ATOM      1  C   UNL A   1      36.783  22.912  24.512  1.00  0.00     0.023 C 
ENDROOT
BRANCH   1   2
ATOM      2  C   UNL A   1      36.802  21.440  24.089  1.00  0.00     0.023 C 
BRANCH   2   3
ATOM      3  C   UNL A   1      36.276  20.469  25.144  1.00  0.00     0.116 C 
BRANCH   3   4
ATOM      4  N   UNL A   1      35.019  19.855  24.752  1.00  0.00    -0.352 N 
ATOM      5  C   UNL A   1      33.731  20.247  24.605  1.00  0.00     0.251 C 
ATOM      6  O   UNL A   1      32.951  19.370  24.220  1.00  0.00    -0.270 OA
ATOM      7  H   UNL A   1      35.133  18.902  24.535  1.00  0.00     0.163 HD
BRANCH   5   8
ATOM      8  C   UNL A   1      33.209  21.620  24.874  1.00  0.00     0.067 C 
ATOM      9  C   UNL A   1      31.880  26.505  24.494  1.00  0.00     0.060 A 
ATOM     10  C   UNL A   1      31.504  25.424  25.312  1.00  0.00     0.074 A 
ATOM     11  C   UNL A   1      32.822  26.233  23.472  1.00  0.00     0.065 A 
ATOM     12  C   UNL A   1      32.041  24.150  25.132  1.00  0.00     0.130 A 
ATOM     13  C   UNL A   1      33.326  24.938  23.265  1.00  0.00     0.034 A 
ATOM     14  Cl  UNL A   1      33.475  27.480  22.458  1.00  0.00    -0.082 Cl
ATOM     15  C   UNL A   1      32.935  23.891  24.097  1.00  0.00     0.019 A 
ATOM     16  O   UNL A   1      31.621  23.175  25.993  1.00  0.00    -0.475 OA
ATOM     17  C   UNL A   1      33.412  22.527  23.898  1.00  0.00     0.025 C 
ATOM     18  C   UNL A   1      32.524  22.041  26.144  1.00  0.00     0.314 C 
BRANCH   9  19
ATOM     19  N   UNL A   1      31.316  27.776  24.726  1.00  0.00    -0.365 N 
BRANCH  19  20
ATOM     20  C   UNL A   1      31.882  28.539  25.860  1.00  0.00     0.076 C 
ATOM     21  C   UNL A   1      31.404  28.026  27.218  1.00  0.00     0.030 C 
ATOM     22  C   UNL A   1      33.404  28.638  25.819  1.00  0.00     0.030 C 
ENDBRANCH  19  20
BRANCH  19  23
ATOM     23  C   UNL A   1      30.410  28.294  23.679  1.00  0.00     0.076 C 
ATOM     24  C   UNL A   1      29.159  27.434  23.507  1.00  0.00     0.030 C 
ATOM     25  C   UNL A   1      30.043  29.765  23.852  1.00  0.00     0.030 C 
ENDBRANCH  19  23
ENDBRANCH   9  19
BRANCH  18  26
ATOM     26  C   UNL A   1      33.526  22.322  27.283  1.00  0.00     0.429 C 
ATOM     27  F   UNL A   1      34.294  21.229  27.521  1.00  0.00    -0.167 F 
ATOM     28  F   UNL A   1      34.376  23.334  26.988  1.00  0.00    -0.167 F 
ATOM     29  F   UNL A   1      32.918  22.647  28.447  1.00  0.00    -0.167 F 
ENDBRANCH  18  26
ENDBRANCH   5   8
ENDBRANCH   3   4
ENDBRANCH   2   3
ENDBRANCH   1   2
BRANCH   1  30
ATOM     30  C   UNL A   1      37.619  23.257  25.743  1.00  0.00     0.116 C 
BRANCH  30  31
ATOM     31  N   UNL A   1      38.954  22.668  25.753  1.00  0.00    -0.352 N 
ATOM     32  C   UNL A   1      40.099  23.195  26.314  1.00  0.00     0.251 C 
ATOM     33  H   UNL A   1      39.048  21.795  25.307  1.00  0.00     0.163 HD
ATOM     34  O   UNL A   1      41.179  22.628  26.180  1.00  0.00    -0.269 OA
BRANCH  32  35
ATOM     35  C   UNL A   1      40.007  24.489  27.021  1.00  0.00     0.039 A 
ATOM     36  C   UNL A   1      40.681  25.605  26.525  1.00  0.00     0.014 A 
ATOM     37  C   UNL A   1      39.344  24.548  28.249  1.00  0.00     0.014 A 
ATOM     38  C   UNL A   1      40.863  26.709  27.347  1.00  0.00     0.010 A 
ATOM     39  C   UNL A   1      39.460  25.696  29.040  1.00  0.00     0.010 A 
ATOM     40  C   UNL A   1      40.284  26.755  28.627  1.00  0.00    -0.014 A 
BRANCH  40  41
ATOM     41  C   UNL A   1      40.621  27.891  29.525  1.00  0.00     0.031 A 
ATOM     42  C   UNL A   1      41.990  27.999  30.145  1.00  0.00     0.074 A 
ATOM     43  C   UNL A   1      39.727  28.886  29.690  1.00  0.00     0.049 A 
ATOM     44  N   UNL A   1      42.495  28.973  30.858  1.00  0.00    -0.248 NA
ATOM     45  C   UNL A   1      42.914  26.870  29.945  1.00  0.00     0.031 C 
ATOM     46  C   UNL A   1      38.371  28.898  29.137  1.00  0.00     0.029 A 
ATOM     47  N   UNL A   1      39.836  30.095  30.329  1.00  0.00    -0.354 N 
ATOM     48  C   UNL A   1      43.781  28.570  31.205  1.00  0.00     0.074 A 
ATOM     49  C   UNL A   1      43.971  27.248  30.650  1.00  0.00     0.031 C 
ATOM     50  C   UNL A   1      37.803  30.085  29.394  1.00  0.00     0.029 A 
ATOM     51  C   UNL A   1      38.732  30.899  30.174  1.00  0.00     0.049 A 
ATOM     52  H   UNL A   1      40.629  30.361  30.849  1.00  0.00     0.167 HD
ATOM     53  C   UNL A   1      44.721  29.244  31.907  1.00  0.00     0.037 A 
ATOM     54  C   UNL A   1      38.493  32.153  30.603  1.00  0.00     0.037 A 
ATOM     55  C   UNL A   1      44.548  30.576  32.423  1.00  0.00     0.049 A 
ATOM     56  C   UNL A   1      39.547  32.874  31.393  1.00  0.00     0.074 A 
ATOM     57  C   UNL A   1      45.463  31.359  33.105  1.00  0.00     0.029 A 
ATOM     58  N   UNL A   1      43.385  31.323  32.310  1.00  0.00    -0.354 N 
ATOM     59  N   UNL A   1      40.759  32.480  31.694  1.00  0.00    -0.248 NA
ATOM     60  C   UNL A   1      39.192  34.200  31.920  1.00  0.00     0.031 C 
ATOM     61  C   UNL A   1      44.842  32.568  33.435  1.00  0.00     0.029 A 
ATOM     62  C   UNL A   1      43.550  32.548  32.933  1.00  0.00     0.049 A 
ATOM     63  H   UNL A   1      42.565  31.026  31.856  1.00  0.00     0.167 HD
ATOM     64  C   UNL A   1      41.313  33.505  32.453  1.00  0.00     0.074 A 
ATOM     65  C   UNL A   1      40.310  34.546  32.545  1.00  0.00     0.031 C 
ATOM     66  C   UNL A   1      42.537  33.568  33.028  1.00  0.00     0.037 A 
BRANCH  53  67
ATOM     67  C   UNL A   1      46.032  28.555  32.163  1.00  0.00     0.058 A 
ATOM     68  C   UNL A   1      47.117  28.688  31.285  1.00  0.00     0.135 A 
ATOM     69  C   UNL A   1      46.219  27.792  33.328  1.00  0.00     0.135 A 
ATOM     70  F   UNL A   1      46.985  29.393  30.150  1.00  0.00    -0.206 F 
ATOM     71  C   UNL A   1      48.338  28.074  31.541  1.00  0.00     0.059 A 
ATOM     72  C   UNL A   1      47.438  27.184  33.613  1.00  0.00     0.059 A 
ATOM     73  F   UNL A   1      45.212  27.633  34.201  1.00  0.00    -0.206 F 
ATOM     74  C   UNL A   1      48.489  27.322  32.707  1.00  0.00     0.060 A 
BRANCH  74  75
ATOM     75  S   UNL A   1      50.081  26.531  33.024  1.00  0.00     0.124 S 
ATOM     76  O   UNL A   1      49.894  25.234  32.382  1.00  0.00    -0.237 OA
ATOM     77  O   UNL A   1      51.018  27.435  32.364  1.00  0.00    -0.237 OA
ATOM     78  O   UNL A   1      50.163  26.503  34.481  1.00  0.00    -0.744 OA
ENDBRANCH  74  75
ENDBRANCH  53  67
BRANCH  54  79
ATOM     79  C   UNL A   1      37.198  32.800  30.277  1.00  0.00     0.058 A 
ATOM     80  C   UNL A   1      36.075  32.615  31.095  1.00  0.00     0.135 A 
ATOM     81  C   UNL A   1      37.076  33.662  29.176  1.00  0.00     0.135 A 
ATOM     82  F   UNL A   1      36.144  31.796  32.155  1.00  0.00    -0.206 F 
ATOM     83  C   UNL A   1      34.875  33.269  30.839  1.00  0.00     0.059 A 
ATOM     84  C   UNL A   1      35.892  34.342  28.911  1.00  0.00     0.059 A 
ATOM     85  F   UNL A   1      38.129  33.880  28.373  1.00  0.00    -0.206 F 
ATOM     86  C   UNL A   1      34.796  34.137  29.748  1.00  0.00     0.060 A 
BRANCH  86  87
ATOM     87  S   UNL A   1      33.262  35.049  29.472  1.00  0.00     0.124 S 
ATOM     88  O   UNL A   1      33.761  36.297  28.907  1.00  0.00    -0.237 OA
ATOM     89  O   UNL A   1      32.543  34.173  28.551  1.00  0.00    -0.237 OA
ATOM     90  O   UNL A   1      32.685  35.145  30.810  1.00  0.00    -0.744 OA
ENDBRANCH  86  87
ENDBRANCH  54  79
BRANCH  66  91
ATOM     91  C   UNL A   1      42.863  34.790  33.837  1.00  0.00     0.058 A 
ATOM     92  C   UNL A   1      42.730  34.784  35.234  1.00  0.00     0.135 A 
ATOM     93  C   UNL A   1      43.406  35.932  33.228  1.00  0.00     0.135 A 
ATOM     94  F   UNL A   1      42.208  33.717  35.858  1.00  0.00    -0.206 F 
ATOM     95  C   UNL A   1      43.131  35.871  36.003  1.00  0.00     0.059 A 
ATOM     96  C   UNL A   1      43.829  37.023  33.980  1.00  0.00     0.059 A 
ATOM     97  F   UNL A   1      43.558  35.980  31.896  1.00  0.00    -0.206 F 
ATOM     98  C   UNL A   1      43.688  36.982  35.367  1.00  0.00     0.060 A 
BRANCH  98  99
ATOM     99  S   UNL A   1      44.278  38.352  36.386  1.00  0.00     0.124 S 
ATOM    100  O   UNL A   1      44.007  39.497  35.523  1.00  0.00    -0.237 OA
ATOM    101  O   UNL A   1      43.439  38.241  37.575  1.00  0.00    -0.237 OA
ATOM    102  O   UNL A   1      45.689  38.040  36.591  1.00  0.00    -0.744 OA
ENDBRANCH  98  99
ENDBRANCH  66  91
ENDBRANCH  40  41
ENDBRANCH  32  35
ENDBRANCH  30  31
ENDBRANCH   1  30
TORSDOF 18
ENDMDL
