MODEL 1
REMARK VINA RESULT:     -11.3      0.000      0.000
REMARK SMILES NC(=O)C1CC[NH+](Cc2ccc(C(=O)NCCCCNC(=O)c3ccc(-c4c5nc(c(-c6c(F)cc(S(=O)(=O)[O-])cc6F)c6ccc([nH]6)c(-c6c(F)cc(S(=O)(=O)[O-])cc6F)c6nc(c(-c7c(F)cc(S(=O)(=O)[O-])cc7F)c7ccc4[nH]7)C=C6)C=C5)cc3)cc2)CC1
REMARK SMILES IDX 17 1 16 2 15 3 13 4 14 5 12 7 9 8 10 9 90 10 11 11 89 12
REMARK SMILES IDX 8 13 7 14 4 15 5 16 92 17 6 18 91 19 2 21 1 22 3 25 18 26
REMARK SMILES IDX 19 27 20 28 21 29 22 31 23 32 24 33 88 34 25 35 87 36 26 37
REMARK SMILES IDX 27 38 28 39 81 40 29 41 86 42 80 43 82 44 30 45 85 46 79 47
REMARK SMILES IDX 78 48 31 50 65 51 44 52 64 53 45 54 48 55 63 56 83 57 46 58
REMARK SMILES IDX 47 59 62 61 84 62 49 63 32 64 33 65 42 66 34 67 35 68 41 69
REMARK SMILES IDX 43 70 36 71 37 72 38 73 39 74 40 75 66 76 67 77 76 78 68 79
REMARK SMILES IDX 69 80 75 81 77 82 70 83 71 84 72 85 73 86 74 87 50 88 51 89
REMARK SMILES IDX 60 90 52 91 53 92 59 93 61 94 54 95 55 96 56 97 57 98 58 99
REMARK H PARENT 15 6 7 20 1 23 1 24 20 30 82 49 48 60
REMARK Flexibility Score: inf
ROOT
ATOM      1  C   UNL A   1      32.913  29.582  24.963  1.00  0.00     0.023 C 
ENDROOT
BRANCH   1   2
ATOM      2  C   UNL A   1      31.384  29.553  25.016  1.00  0.00     0.116 C 
BRANCH   2   3
ATOM      3  N   UNL A   1      30.815  29.556  23.679  1.00  0.00    -0.352 N 
ATOM      4  C   UNL A   1      30.824  28.593  22.701  1.00  0.00     0.251 C 
ATOM      5  O   UNL A   1      30.185  28.784  21.668  1.00  0.00    -0.269 OA
ATOM      6  H   UNL A   1      30.346  30.386  23.434  1.00  0.00     0.163 HD
BRANCH   4   7
ATOM      7  C   UNL A   1      31.529  27.299  22.885  1.00  0.00     0.039 A 
ATOM      8  C   UNL A   1      32.893  24.842  22.995  1.00  0.00     0.006 A 
ATOM      9  C   UNL A   1      33.511  25.971  22.441  1.00  0.00     0.010 A 
ATOM     10  C   UNL A   1      31.629  24.984  23.582  1.00  0.00     0.010 A 
ATOM     11  C   UNL A   1      32.832  27.191  22.386  1.00  0.00     0.014 A 
ATOM     12  C   UNL A   1      30.960  26.207  23.541  1.00  0.00     0.014 A 
BRANCH   8  13
ATOM     13  C   UNL A   1      33.548  23.479  22.926  1.00  0.00     0.299 C 
BRANCH  13  14
ATOM     14  N   UNL A   1      34.267  23.037  24.137  1.00  0.00    -0.331 N 
ATOM     15  C   UNL A   1      36.226  21.885  25.980  1.00  0.00     0.089 C 
ATOM     16  C   UNL A   1      34.921  21.170  25.615  1.00  0.00     0.075 C 
ATOM     17  C   UNL A   1      36.132  23.386  25.688  1.00  0.00     0.075 C 
ATOM     18  C   UNL A   1      34.381  21.576  24.242  1.00  0.00     0.263 C 
ATOM     19  C   UNL A   1      35.578  23.671  24.290  1.00  0.00     0.263 C 
ATOM     20  H   UNL A   1      33.681  23.352  24.911  1.00  0.00     0.348 HD
BRANCH  15  21
ATOM     21  C   UNL A   1      37.433  21.270  25.280  1.00  0.00     0.220 C 
ATOM     22  N   UNL A   1      38.566  22.029  25.320  1.00  0.00    -0.369 N 
ATOM     23  H   UNL A   1      39.391  21.705  24.892  1.00  0.00     0.159 HD
ATOM     24  H   UNL A   1      38.558  22.902  25.778  1.00  0.00     0.159 HD
ATOM     25  O   UNL A   1      37.434  20.182  24.718  1.00  0.00    -0.275 OA
ENDBRANCH  15  21
ENDBRANCH  13  14
ENDBRANCH   8  13
ENDBRANCH   4   7
ENDBRANCH   2   3
ENDBRANCH   1   2
BRANCH   1  26
ATOM     26  C   UNL A   1      33.595  28.431  25.705  1.00  0.00     0.023 C 
BRANCH  26  27
ATOM     27  C   UNL A   1      33.609  28.561  27.223  1.00  0.00     0.116 C 
BRANCH  27  28
ATOM     28  N   UNL A   1      33.490  29.937  27.681  1.00  0.00    -0.352 N 
ATOM     29  C   UNL A   1      34.435  30.719  28.307  1.00  0.00     0.251 C 
ATOM     30  H   UNL A   1      32.618  30.365  27.523  1.00  0.00     0.163 HD
ATOM     31  O   UNL A   1      34.135  31.824  28.734  1.00  0.00    -0.269 OA
BRANCH  29  32
ATOM     32  C   UNL A   1      35.803  30.188  28.490  1.00  0.00     0.039 A 
ATOM     33  C   UNL A   1      36.698  30.249  27.420  1.00  0.00     0.014 A 
ATOM     34  C   UNL A   1      36.209  29.667  29.721  1.00  0.00     0.014 A 
ATOM     35  C   UNL A   1      38.024  29.852  27.606  1.00  0.00     0.010 A 
ATOM     36  C   UNL A   1      37.547  29.338  29.925  1.00  0.00     0.010 A 
ATOM     37  C   UNL A   1      38.467  29.430  28.870  1.00  0.00    -0.014 A 
BRANCH  37  38
ATOM     38  C   UNL A   1      39.893  29.092  29.112  1.00  0.00     0.031 A 
ATOM     39  C   UNL A   1      40.832  30.131  29.659  1.00  0.00     0.074 A 
ATOM     40  C   UNL A   1      40.354  27.873  28.769  1.00  0.00     0.049 A 
ATOM     41  N   UNL A   1      42.121  30.048  29.874  1.00  0.00    -0.248 NA
ATOM     42  C   UNL A   1      40.255  31.447  29.981  1.00  0.00     0.031 C 
ATOM     43  C   UNL A   1      39.552  26.801  28.175  1.00  0.00     0.029 A 
ATOM     44  N   UNL A   1      41.613  27.332  28.860  1.00  0.00    -0.354 N 
ATOM     45  C   UNL A   1      42.509  31.299  30.336  1.00  0.00     0.074 A 
ATOM     46  C   UNL A   1      41.332  32.139  30.326  1.00  0.00     0.031 C 
ATOM     47  C   UNL A   1      40.333  25.727  27.970  1.00  0.00     0.029 A 
ATOM     48  C   UNL A   1      41.696  26.044  28.385  1.00  0.00     0.049 A 
ATOM     49  H   UNL A   1      42.383  27.821  29.228  1.00  0.00     0.167 HD
ATOM     50  C   UNL A   1      43.733  31.705  30.753  1.00  0.00     0.037 A 
ATOM     51  C   UNL A   1      42.753  25.213  28.289  1.00  0.00     0.037 A 
ATOM     52  C   UNL A   1      44.893  30.853  30.791  1.00  0.00     0.049 A 
ATOM     53  C   UNL A   1      44.098  25.681  28.776  1.00  0.00     0.074 A 
ATOM     54  C   UNL A   1      46.159  31.147  31.266  1.00  0.00     0.029 A 
ATOM     55  N   UNL A   1      44.931  29.543  30.335  1.00  0.00    -0.354 N 
ATOM     56  N   UNL A   1      44.431  26.844  29.284  1.00  0.00    -0.248 NA
ATOM     57  C   UNL A   1      45.209  24.724  28.684  1.00  0.00     0.031 C 
ATOM     58  C   UNL A   1      46.974  30.029  31.059  1.00  0.00     0.029 A 
ATOM     59  C   UNL A   1      46.203  29.022  30.499  1.00  0.00     0.049 A 
ATOM     60  H   UNL A   1      44.165  29.056  29.952  1.00  0.00     0.167 HD
ATOM     61  C   UNL A   1      45.783  26.749  29.596  1.00  0.00     0.074 A 
ATOM     62  C   UNL A   1      46.202  25.412  29.231  1.00  0.00     0.031 C 
ATOM     63  C   UNL A   1      46.602  27.684  30.137  1.00  0.00     0.037 A 
BRANCH  50  64
ATOM     64  C   UNL A   1      43.879  33.131  31.207  1.00  0.00     0.058 A 
ATOM     65  C   UNL A   1      44.141  34.170  30.298  1.00  0.00     0.135 A 
ATOM     66  C   UNL A   1      43.718  33.470  32.559  1.00  0.00     0.135 A 
ATOM     67  F   UNL A   1      44.318  33.901  28.994  1.00  0.00    -0.206 F 
ATOM     68  C   UNL A   1      44.266  35.490  30.719  1.00  0.00     0.059 A 
ATOM     69  C   UNL A   1      43.812  34.787  32.999  1.00  0.00     0.059 A 
ATOM     70  F   UNL A   1      43.468  32.517  33.470  1.00  0.00    -0.206 F 
ATOM     71  C   UNL A   1      44.100  35.790  32.072  1.00  0.00     0.060 A 
BRANCH  71  72
ATOM     72  S   UNL A   1      44.256  37.508  32.600  1.00  0.00     0.124 S 
ATOM     73  O   UNL A   1      43.117  37.639  33.503  1.00  0.00    -0.237 OA
ATOM     74  O   UNL A   1      45.571  37.524  33.231  1.00  0.00    -0.237 OA
ATOM     75  O   UNL A   1      44.156  38.259  31.351  1.00  0.00    -0.744 OA
ENDBRANCH  71  72
ENDBRANCH  50  64
BRANCH  51  76
ATOM     76  C   UNL A   1      42.578  23.847  27.730  1.00  0.00     0.058 A 
ATOM     77  C   UNL A   1      42.450  22.733  28.572  1.00  0.00     0.135 A 
ATOM     78  C   UNL A   1      42.524  23.627  26.344  1.00  0.00     0.135 A 
ATOM     79  F   UNL A   1      42.500  22.891  29.904  1.00  0.00    -0.206 F 
ATOM     80  C   UNL A   1      42.296  21.447  28.063  1.00  0.00     0.059 A 
ATOM     81  C   UNL A   1      42.345  22.354  25.811  1.00  0.00     0.059 A 
ATOM     82  F   UNL A   1      42.623  24.662  25.495  1.00  0.00    -0.206 F 
ATOM     83  C   UNL A   1      42.244  21.268  26.681  1.00  0.00     0.060 A 
BRANCH  83  84
ATOM     84  S   UNL A   1      42.000  19.601  26.031  1.00  0.00     0.124 S 
ATOM     85  O   UNL A   1      42.353  18.783  27.185  1.00  0.00    -0.237 OA
ATOM     86  O   UNL A   1      40.586  19.616  25.667  1.00  0.00    -0.237 OA
ATOM     87  O   UNL A   1      42.928  19.541  24.905  1.00  0.00    -0.744 OA
ENDBRANCH  83  84
ENDBRANCH  51  76
BRANCH  63  88
ATOM     88  C   UNL A   1      48.028  27.287  30.399  1.00  0.00     0.058 A 
ATOM     89  C   UNL A   1      49.064  27.628  29.515  1.00  0.00     0.135 A 
ATOM     90  C   UNL A   1      48.369  26.601  31.576  1.00  0.00     0.135 A 
ATOM     91  F   UNL A   1      48.790  28.278  28.372  1.00  0.00    -0.206 F 
ATOM     92  C   UNL A   1      50.386  27.284  29.779  1.00  0.00     0.059 A 
ATOM     93  C   UNL A   1      49.688  26.271  31.873  1.00  0.00     0.059 A 
ATOM     94  F   UNL A   1      47.418  26.260  32.459  1.00  0.00    -0.206 F 
ATOM     95  C   UNL A   1      50.688  26.607  30.962  1.00  0.00     0.060 A 
BRANCH  95  96
ATOM     96  S   UNL A   1      52.412  26.198  31.310  1.00  0.00     0.124 S 
ATOM     97  O   UNL A   1      52.930  25.947  29.970  1.00  0.00    -0.237 OA
ATOM     98  O   UNL A   1      52.896  27.411  31.961  1.00  0.00    -0.237 OA
ATOM     99  O   UNL A   1      52.314  25.027  32.176  1.00  0.00    -0.744 OA
ENDBRANCH  95  96
ENDBRANCH  63  88
ENDBRANCH  37  38
ENDBRANCH  29  32
ENDBRANCH  27  28
ENDBRANCH  26  27
ENDBRANCH   1  26
TORSDOF 17
ENDMDL
MODEL 2
REMARK VINA RESULT:     -11.2      0.803      1.777
REMARK SMILES NC(=O)C1CC[NH+](Cc2ccc(C(=O)NCCCCNC(=O)c3ccc(-c4c5nc(c(-c6c(F)cc(S(=O)(=O)[O-])cc6F)c6ccc([nH]6)c(-c6c(F)cc(S(=O)(=O)[O-])cc6F)c6nc(c(-c7c(F)cc(S(=O)(=O)[O-])cc7F)c7ccc4[nH]7)C=C6)C=C5)cc3)cc2)CC1
REMARK SMILES IDX 17 1 16 2 15 3 13 4 14 5 12 7 9 8 10 9 90 10 11 11 89 12
REMARK SMILES IDX 8 13 7 14 4 15 5 16 92 17 6 18 91 19 2 21 1 22 3 25 18 26
REMARK SMILES IDX 19 27 20 28 21 29 22 31 23 32 24 33 88 34 25 35 87 36 26 37
REMARK SMILES IDX 27 38 28 39 81 40 29 41 86 42 80 43 82 44 30 45 85 46 79 47
REMARK SMILES IDX 78 48 31 50 65 51 44 52 64 53 45 54 48 55 63 56 83 57 46 58
REMARK SMILES IDX 47 59 62 61 84 62 49 63 32 64 33 65 42 66 34 67 35 68 41 69
REMARK SMILES IDX 43 70 36 71 37 72 38 73 39 74 40 75 66 76 67 77 76 78 68 79
REMARK SMILES IDX 69 80 75 81 77 82 70 83 71 84 72 85 73 86 74 87 50 88 51 89
REMARK SMILES IDX 60 90 52 91 53 92 59 93 61 94 54 95 55 96 56 97 57 98 58 99
REMARK H PARENT 15 6 7 20 1 23 1 24 20 30 82 49 48 60
REMARK Flexibility Score: inf
ROOT
ATOM      1  C   UNL A   1      32.903  29.458  24.972  1.00  0.00     0.023 C 
ENDROOT
BRANCH   1   2
ATOM      2  C   UNL A   1      31.374  29.422  25.029  1.00  0.00     0.116 C 
BRANCH   2   3
ATOM      3  N   UNL A   1      30.798  29.608  23.708  1.00  0.00    -0.352 N 
ATOM      4  C   UNL A   1      30.713  28.749  22.640  1.00  0.00     0.251 C 
ATOM      5  O   UNL A   1      30.086  29.098  21.641  1.00  0.00    -0.269 OA
ATOM      6  H   UNL A   1      30.404  30.496  23.553  1.00  0.00     0.163 HD
BRANCH   4   7
ATOM      7  C   UNL A   1      31.299  27.385  22.685  1.00  0.00     0.039 A 
ATOM      8  C   UNL A   1      32.449  24.823  22.533  1.00  0.00     0.006 A 
ATOM      9  C   UNL A   1      33.180  25.952  22.140  1.00  0.00     0.010 A 
ATOM     10  C   UNL A   1      31.178  25.004  23.095  1.00  0.00     0.010 A 
ATOM     11  C   UNL A   1      32.608  27.225  22.216  1.00  0.00     0.014 A 
ATOM     12  C   UNL A   1      30.616  26.277  23.184  1.00  0.00     0.014 A 
BRANCH   8  13
ATOM     13  C   UNL A   1      32.990  23.426  22.316  1.00  0.00     0.299 C 
BRANCH  13  14
ATOM     14  N   UNL A   1      33.078  22.567  23.513  1.00  0.00    -0.331 N 
ATOM     15  C   UNL A   1      33.647  20.370  25.360  1.00  0.00     0.089 C 
ATOM     16  C   UNL A   1      32.272  20.565  24.713  1.00  0.00     0.075 C 
ATOM     17  C   UNL A   1      34.461  21.668  25.326  1.00  0.00     0.075 C 
ATOM     18  C   UNL A   1      32.341  21.304  23.375  1.00  0.00     0.263 C 
ATOM     19  C   UNL A   1      34.457  22.318  23.940  1.00  0.00     0.263 C 
ATOM     20  H   UNL A   1      32.622  23.106  24.249  1.00  0.00     0.348 HD
BRANCH  15  21
ATOM     21  C   UNL A   1      34.424  19.223  24.724  1.00  0.00     0.220 C 
ATOM     22  N   UNL A   1      35.765  19.233  24.974  1.00  0.00    -0.369 N 
ATOM     23  H   UNL A   1      36.341  18.527  24.600  1.00  0.00     0.159 HD
ATOM     24  H   UNL A   1      36.157  19.945  25.531  1.00  0.00     0.159 HD
ATOM     25  O   UNL A   1      33.927  18.339  24.037  1.00  0.00    -0.275 OA
ENDBRANCH  15  21
ENDBRANCH  13  14
ENDBRANCH   8  13
ENDBRANCH   4   7
ENDBRANCH   2   3
ENDBRANCH   1   2
BRANCH   1  26
ATOM     26  C   UNL A   1      33.593  28.331  25.741  1.00  0.00     0.023 C 
BRANCH  26  27
ATOM     27  C   UNL A   1      33.674  28.535  27.249  1.00  0.00     0.116 C 
BRANCH  27  28
ATOM     28  N   UNL A   1      33.563  29.930  27.645  1.00  0.00    -0.352 N 
ATOM     29  C   UNL A   1      34.509  30.730  28.245  1.00  0.00     0.251 C 
ATOM     30  H   UNL A   1      32.697  30.359  27.460  1.00  0.00     0.163 HD
ATOM     31  O   UNL A   1      34.216  31.855  28.621  1.00  0.00    -0.269 OA
BRANCH  29  32
ATOM     32  C   UNL A   1      35.871  30.195  28.465  1.00  0.00     0.039 A 
ATOM     33  C   UNL A   1      36.784  30.225  27.409  1.00  0.00     0.014 A 
ATOM     34  C   UNL A   1      36.253  29.701  29.715  1.00  0.00     0.014 A 
ATOM     35  C   UNL A   1      38.104  29.825  27.627  1.00  0.00     0.010 A 
ATOM     36  C   UNL A   1      37.584  29.370  29.949  1.00  0.00     0.010 A 
ATOM     37  C   UNL A   1      38.523  29.430  28.908  1.00  0.00    -0.014 A 
BRANCH  37  38
ATOM     38  C   UNL A   1      39.942  29.090  29.183  1.00  0.00     0.031 A 
ATOM     39  C   UNL A   1      40.870  30.125  29.757  1.00  0.00     0.074 A 
ATOM     40  C   UNL A   1      40.410  27.871  28.847  1.00  0.00     0.049 A 
ATOM     41  N   UNL A   1      42.153  30.039  30.002  1.00  0.00    -0.248 NA
ATOM     42  C   UNL A   1      40.287  31.440  30.069  1.00  0.00     0.031 C 
ATOM     43  C   UNL A   1      39.621  26.802  28.229  1.00  0.00     0.029 A 
ATOM     44  N   UNL A   1      41.665  27.328  28.965  1.00  0.00    -0.354 N 
ATOM     45  C   UNL A   1      42.532  31.288  30.478  1.00  0.00     0.074 A 
ATOM     46  C   UNL A   1      41.356  32.130  30.443  1.00  0.00     0.031 C 
ATOM     47  C   UNL A   1      40.405  25.728  28.039  1.00  0.00     0.029 A 
ATOM     48  C   UNL A   1      41.759  26.042  28.488  1.00  0.00     0.049 A 
ATOM     49  H   UNL A   1      42.428  27.814  29.353  1.00  0.00     0.167 HD
ATOM     50  C   UNL A   1      43.745  31.691  30.925  1.00  0.00     0.037 A 
ATOM     51  C   UNL A   1      42.816  25.210  28.414  1.00  0.00     0.037 A 
ATOM     52  C   UNL A   1      44.903  30.838  30.987  1.00  0.00     0.049 A 
ATOM     53  C   UNL A   1      44.150  25.674  28.935  1.00  0.00     0.074 A 
ATOM     54  C   UNL A   1      46.158  31.127  31.493  1.00  0.00     0.029 A 
ATOM     55  N   UNL A   1      44.950  29.529  30.527  1.00  0.00    -0.354 N 
ATOM     56  N   UNL A   1      44.472  26.835  29.454  1.00  0.00    -0.248 NA
ATOM     57  C   UNL A   1      45.261  24.716  28.865  1.00  0.00     0.031 C 
ATOM     58  C   UNL A   1      46.976  30.009  31.302  1.00  0.00     0.029 A 
ATOM     59  C   UNL A   1      46.218  29.006  30.719  1.00  0.00     0.049 A 
ATOM     60  H   UNL A   1      44.194  29.045  30.125  1.00  0.00     0.167 HD
ATOM     61  C   UNL A   1      45.816  26.736  29.798  1.00  0.00     0.074 A 
ATOM     62  C   UNL A   1      46.242  25.400  29.439  1.00  0.00     0.031 C 
ATOM     63  C   UNL A   1      46.623  27.669  30.362  1.00  0.00     0.037 A 
BRANCH  50  64
ATOM     64  C   UNL A   1      43.883  33.115  31.387  1.00  0.00     0.058 A 
ATOM     65  C   UNL A   1      43.598  33.491  32.710  1.00  0.00     0.135 A 
ATOM     66  C   UNL A   1      44.343  34.110  30.510  1.00  0.00     0.135 A 
ATOM     67  F   UNL A   1      43.141  32.584  33.588  1.00  0.00    -0.206 F 
ATOM     68  C   UNL A   1      43.737  34.807  33.138  1.00  0.00     0.059 A 
ATOM     69  C   UNL A   1      44.515  35.427  30.923  1.00  0.00     0.059 A 
ATOM     70  F   UNL A   1      44.629  33.806  29.234  1.00  0.00    -0.206 F 
ATOM     71  C   UNL A   1      44.196  35.770  32.237  1.00  0.00     0.060 A 
BRANCH  71  72
ATOM     72  S   UNL A   1      44.379  37.470  32.811  1.00  0.00     0.124 S 
ATOM     73  O   UNL A   1      43.540  37.466  34.006  1.00  0.00    -0.237 OA
ATOM     74  O   UNL A   1      45.816  37.569  33.046  1.00  0.00    -0.237 OA
ATOM     75  O   UNL A   1      43.874  38.264  31.694  1.00  0.00    -0.744 OA
ENDBRANCH  71  72
ENDBRANCH  50  64
BRANCH  51  76
ATOM     76  C   UNL A   1      42.653  23.846  27.845  1.00  0.00     0.058 A 
ATOM     77  C   UNL A   1      42.658  23.637  26.458  1.00  0.00     0.135 A 
ATOM     78  C   UNL A   1      42.498  22.723  28.674  1.00  0.00     0.135 A 
ATOM     79  F   UNL A   1      42.798  24.680  25.624  1.00  0.00    -0.206 F 
ATOM     80  C   UNL A   1      42.496  22.368  25.910  1.00  0.00     0.059 A 
ATOM     81  C   UNL A   1      42.360  21.441  28.151  1.00  0.00     0.059 A 
ATOM     82  F   UNL A   1      42.504  22.867  30.008  1.00  0.00    -0.206 F 
ATOM     83  C   UNL A   1      42.348  21.276  26.766  1.00  0.00     0.060 A 
BRANCH  83  84
ATOM     84  S   UNL A   1      42.183  19.629  26.046  1.00  0.00     0.124 S 
ATOM     85  O   UNL A   1      42.569  18.779  27.166  1.00  0.00    -0.237 OA
ATOM     86  O   UNL A   1      40.771  19.595  25.675  1.00  0.00    -0.237 OA
ATOM     87  O   UNL A   1      43.117  19.658  24.924  1.00  0.00    -0.744 OA
ENDBRANCH  83  84
ENDBRANCH  51  76
BRANCH  63  88
ATOM     88  C   UNL A   1      48.043  27.269  30.656  1.00  0.00     0.058 A 
ATOM     89  C   UNL A   1      48.398  26.634  31.857  1.00  0.00     0.135 A 
ATOM     90  C   UNL A   1      49.051  27.478  29.701  1.00  0.00     0.135 A 
ATOM     91  F   UNL A   1      47.473  26.417  32.806  1.00  0.00    -0.206 F 
ATOM     92  C   UNL A   1      49.707  26.239  32.109  1.00  0.00     0.059 A 
ATOM     93  C   UNL A   1      50.362  27.067  29.921  1.00  0.00     0.059 A 
ATOM     94  F   UNL A   1      48.763  28.072  28.533  1.00  0.00    -0.206 F 
ATOM     95  C   UNL A   1      50.683  26.458  31.134  1.00  0.00     0.060 A 
BRANCH  95  96
ATOM     96  S   UNL A   1      52.372  25.910  31.458  1.00  0.00     0.124 S 
ATOM     97  O   UNL A   1      52.962  25.973  30.126  1.00  0.00    -0.237 OA
ATOM     98  O   UNL A   1      52.847  26.908  32.412  1.00  0.00    -0.237 OA
ATOM     99  O   UNL A   1      52.194  24.568  32.004  1.00  0.00    -0.744 OA
ENDBRANCH  95  96
ENDBRANCH  63  88
ENDBRANCH  37  38
ENDBRANCH  29  32
ENDBRANCH  27  28
ENDBRANCH  26  27
ENDBRANCH   1  26
TORSDOF 17
ENDMDL
MODEL 3
REMARK VINA RESULT:     -11.0      3.313      9.508
REMARK SMILES NC(=O)C1CC[NH+](Cc2ccc(C(=O)NCCCCNC(=O)c3ccc(-c4c5nc(c(-c6c(F)cc(S(=O)(=O)[O-])cc6F)c6ccc([nH]6)c(-c6c(F)cc(S(=O)(=O)[O-])cc6F)c6nc(c(-c7c(F)cc(S(=O)(=O)[O-])cc7F)c7ccc4[nH]7)C=C6)C=C5)cc3)cc2)CC1
REMARK SMILES IDX 17 1 16 2 15 3 13 4 14 5 12 7 9 8 10 9 90 10 11 11 89 12
REMARK SMILES IDX 8 13 7 14 4 15 5 16 92 17 6 18 91 19 2 21 1 22 3 25 18 26
REMARK SMILES IDX 19 27 20 28 21 29 22 31 23 32 24 33 88 34 25 35 87 36 26 37
REMARK SMILES IDX 27 38 28 39 81 40 29 41 86 42 80 43 82 44 30 45 85 46 79 47
REMARK SMILES IDX 78 48 31 50 65 51 44 52 64 53 45 54 48 55 63 56 83 57 46 58
REMARK SMILES IDX 47 59 62 61 84 62 49 63 32 64 33 65 42 66 34 67 35 68 41 69
REMARK SMILES IDX 43 70 36 71 37 72 38 73 39 74 40 75 66 76 67 77 76 78 68 79
REMARK SMILES IDX 69 80 75 81 77 82 70 83 71 84 72 85 73 86 74 87 50 88 51 89
REMARK SMILES IDX 60 90 52 91 53 92 59 93 61 94 54 95 55 96 56 97 57 98 58 99
REMARK H PARENT 15 6 7 20 1 23 1 24 20 30 82 49 48 60
REMARK Flexibility Score: inf
ROOT
ATOM      1  C   UNL A   1      37.350  21.039  24.659  1.00  0.00     0.023 C 
ENDROOT
BRANCH   1   2
ATOM      2  C   UNL A   1      36.065  21.205  25.473  1.00  0.00     0.116 C 
BRANCH   2   3
ATOM      3  N   UNL A   1      35.159  20.091  25.250  1.00  0.00    -0.352 N 
ATOM      4  C   UNL A   1      33.868  20.068  24.782  1.00  0.00     0.251 C 
ATOM      5  O   UNL A   1      33.325  18.984  24.582  1.00  0.00    -0.269 OA
ATOM      6  H   UNL A   1      35.532  19.207  25.471  1.00  0.00     0.163 HD
BRANCH   4   7
ATOM      7  C   UNL A   1      33.136  21.316  24.447  1.00  0.00     0.039 A 
ATOM      8  C   UNL A   1      31.547  23.549  23.815  1.00  0.00     0.006 A 
ATOM      9  C   UNL A   1      31.318  22.827  24.994  1.00  0.00     0.010 A 
ATOM     10  C   UNL A   1      32.641  23.200  23.012  1.00  0.00     0.010 A 
ATOM     11  C   UNL A   1      32.108  21.718  25.307  1.00  0.00     0.014 A 
ATOM     12  C   UNL A   1      33.438  22.103  23.335  1.00  0.00     0.014 A 
BRANCH   8  13
ATOM     13  C   UNL A   1      30.610  24.656  23.381  1.00  0.00     0.299 C 
BRANCH  13  14
ATOM     14  N   UNL A   1      31.087  26.036  23.593  1.00  0.00    -0.331 N 
ATOM     15  C   UNL A   1      31.359  28.949  23.579  1.00  0.00     0.089 C 
ATOM     16  C   UNL A   1      32.168  28.043  22.646  1.00  0.00     0.075 C 
ATOM     17  C   UNL A   1      30.823  28.164  24.781  1.00  0.00     0.075 C 
ATOM     18  C   UNL A   1      31.469  26.715  22.349  1.00  0.00     0.263 C 
ATOM     19  C   UNL A   1      30.148  26.855  24.363  1.00  0.00     0.263 C 
ATOM     20  H   UNL A   1      31.932  25.931  24.154  1.00  0.00     0.348 HD
BRANCH  15  21
ATOM     21  C   UNL A   1      30.228  29.664  22.848  1.00  0.00     0.220 C 
ATOM     22  N   UNL A   1      30.520  30.035  21.567  1.00  0.00    -0.369 N 
ATOM     23  H   UNL A   1      29.845  30.502  21.024  1.00  0.00     0.159 HD
ATOM     24  H   UNL A   1      31.406  29.833  21.186  1.00  0.00     0.159 HD
ATOM     25  O   UNL A   1      29.128  29.906  23.328  1.00  0.00    -0.275 OA
ENDBRANCH  15  21
ENDBRANCH  13  14
ENDBRANCH   8  13
ENDBRANCH   4   7
ENDBRANCH   2   3
ENDBRANCH   1   2
BRANCH   1  26
ATOM     26  C   UNL A   1      38.240  19.878  25.107  1.00  0.00     0.023 C 
BRANCH  26  27
ATOM     27  C   UNL A   1      39.515  20.286  25.835  1.00  0.00     0.116 C 
BRANCH  27  28
ATOM     28  N   UNL A   1      40.462  19.193  25.987  1.00  0.00    -0.352 N 
ATOM     29  C   UNL A   1      41.818  19.258  26.219  1.00  0.00     0.251 C 
ATOM     30  H   UNL A   1      40.085  18.287  25.915  1.00  0.00     0.163 HD
ATOM     31  O   UNL A   1      42.494  18.240  26.206  1.00  0.00    -0.269 OA
BRANCH  29  32
ATOM     32  C   UNL A   1      42.449  20.577  26.444  1.00  0.00     0.039 A 
ATOM     33  C   UNL A   1      42.977  21.265  25.349  1.00  0.00     0.014 A 
ATOM     34  C   UNL A   1      42.487  21.144  27.720  1.00  0.00     0.014 A 
ATOM     35  C   UNL A   1      43.480  22.556  25.524  1.00  0.00     0.010 A 
ATOM     36  C   UNL A   1      42.923  22.456  27.880  1.00  0.00     0.010 A 
ATOM     37  C   UNL A   1      43.422  23.175  26.783  1.00  0.00    -0.014 A 
BRANCH  37  38
ATOM     38  C   UNL A   1      43.865  24.580  26.971  1.00  0.00     0.031 A 
ATOM     39  C   UNL A   1      45.312  24.947  26.781  1.00  0.00     0.074 A 
ATOM     40  C   UNL A   1      42.978  25.508  27.382  1.00  0.00     0.049 A 
ATOM     41  N   UNL A   1      45.902  26.101  26.964  1.00  0.00    -0.248 NA
ATOM     42  C   UNL A   1      46.221  23.869  26.359  1.00  0.00     0.031 C 
ATOM     43  C   UNL A   1      41.561  25.261  27.656  1.00  0.00     0.029 A 
ATOM     44  N   UNL A   1      43.139  26.844  27.653  1.00  0.00    -0.354 N 
ATOM     45  C   UNL A   1      47.248  25.884  26.699  1.00  0.00     0.074 A 
ATOM     46  C   UNL A   1      47.398  24.479  26.388  1.00  0.00     0.031 C 
ATOM     47  C   UNL A   1      40.979  26.408  28.040  1.00  0.00     0.029 A 
ATOM     48  C   UNL A   1      41.985  27.465  28.073  1.00  0.00     0.049 A 
ATOM     49  H   UNL A   1      43.998  27.313  27.559  1.00  0.00     0.167 HD
ATOM     50  C   UNL A   1      48.264  26.780  26.692  1.00  0.00     0.037 A 
ATOM     51  C   UNL A   1      41.765  28.740  28.448  1.00  0.00     0.037 A 
ATOM     52  C   UNL A   1      48.101  28.183  26.969  1.00  0.00     0.049 A 
ATOM     53  C   UNL A   1      42.906  29.721  28.414  1.00  0.00     0.074 A 
ATOM     54  C   UNL A   1      49.053  29.186  26.915  1.00  0.00     0.029 A 
ATOM     55  N   UNL A   1      46.910  28.783  27.356  1.00  0.00    -0.354 N 
ATOM     56  N   UNL A   1      44.159  29.515  28.084  1.00  0.00    -0.248 NA
ATOM     57  C   UNL A   1      42.603  31.107  28.796  1.00  0.00     0.031 C 
ATOM     58  C   UNL A   1      48.449  30.385  27.309  1.00  0.00     0.029 A 
ATOM     59  C   UNL A   1      47.109  30.137  27.563  1.00  0.00     0.049 A 
ATOM     60  H   UNL A   1      46.052  28.313  27.466  1.00  0.00     0.167 HD
ATOM     61  C   UNL A   1      44.788  30.750  28.193  1.00  0.00     0.074 A 
ATOM     62  C   UNL A   1      43.775  31.699  28.607  1.00  0.00     0.031 C 
ATOM     63  C   UNL A   1      46.086  31.070  27.969  1.00  0.00     0.037 A 
BRANCH  50  64
ATOM     64  C   UNL A   1      49.642  26.272  26.368  1.00  0.00     0.058 A 
ATOM     65  C   UNL A   1      50.186  26.388  25.079  1.00  0.00     0.135 A 
ATOM     66  C   UNL A   1      50.444  25.698  27.367  1.00  0.00     0.135 A 
ATOM     67  F   UNL A   1      49.457  26.915  24.081  1.00  0.00    -0.206 F 
ATOM     68  C   UNL A   1      51.465  25.927  24.785  1.00  0.00     0.059 A 
ATOM     69  C   UNL A   1      51.737  25.255  27.103  1.00  0.00     0.059 A 
ATOM     70  F   UNL A   1      49.974  25.562  28.617  1.00  0.00    -0.206 F 
ATOM     71  C   UNL A   1      52.234  25.361  25.803  1.00  0.00     0.060 A 
BRANCH  71  72
ATOM     72  S   UNL A   1      53.894  24.777  25.407  1.00  0.00     0.124 S 
ATOM     73  O   UNL A   1      54.220  25.595  24.243  1.00  0.00    -0.237 OA
ATOM     74  O   UNL A   1      54.635  25.086  26.626  1.00  0.00    -0.237 OA
ATOM     75  O   UNL A   1      53.700  23.354  25.140  1.00  0.00    -0.744 OA
ENDBRANCH  71  72
ENDBRANCH  50  64
BRANCH  51  76
ATOM     76  C   UNL A   1      40.404  29.169  28.866  1.00  0.00     0.058 A 
ATOM     77  C   UNL A   1      40.072  29.293  30.223  1.00  0.00     0.135 A 
ATOM     78  C   UNL A   1      39.411  29.472  27.921  1.00  0.00     0.135 A 
ATOM     79  F   UNL A   1      40.985  29.010  31.165  1.00  0.00    -0.206 F 
ATOM     80  C   UNL A   1      38.800  29.683  30.631  1.00  0.00     0.059 A 
ATOM     81  C   UNL A   1      38.140  29.889  28.303  1.00  0.00     0.059 A 
ATOM     82  F   UNL A   1      39.683  29.386  26.609  1.00  0.00    -0.206 F 
ATOM     83  C   UNL A   1      37.840  29.979  29.662  1.00  0.00     0.060 A 
BRANCH  83  84
ATOM     84  S   UNL A   1      36.206  30.527  30.200  1.00  0.00     0.124 S 
ATOM     85  O   UNL A   1      35.376  30.129  29.069  1.00  0.00    -0.237 OA
ATOM     86  O   UNL A   1      36.016  29.765  31.432  1.00  0.00    -0.237 OA
ATOM     87  O   UNL A   1      36.378  31.965  30.383  1.00  0.00    -0.744 OA
ENDBRANCH  83  84
ENDBRANCH  51  76
BRANCH  63  88
ATOM     88  C   UNL A   1      46.484  32.511  28.135  1.00  0.00     0.058 A 
ATOM     89  C   UNL A   1      46.307  33.449  27.106  1.00  0.00     0.135 A 
ATOM     90  C   UNL A   1      47.000  32.967  29.359  1.00  0.00     0.135 A 
ATOM     91  F   UNL A   1      45.824  33.062  25.914  1.00  0.00    -0.206 F 
ATOM     92  C   UNL A   1      46.649  34.786  27.278  1.00  0.00     0.059 A 
ATOM     93  C   UNL A   1      47.323  34.306  29.561  1.00  0.00     0.059 A 
ATOM     94  F   UNL A   1      47.179  32.113  30.378  1.00  0.00    -0.206 F 
ATOM     95  C   UNL A   1      47.154  35.206  28.510  1.00  0.00     0.060 A 
BRANCH  95  96
ATOM     96  S   UNL A   1      47.560  36.951  28.732  1.00  0.00     0.124 S 
ATOM     97  O   UNL A   1      46.807  37.568  27.645  1.00  0.00    -0.237 OA
ATOM     98  O   UNL A   1      47.065  37.219  30.079  1.00  0.00    -0.237 OA
ATOM     99  O   UNL A   1      49.012  36.982  28.588  1.00  0.00    -0.744 OA
ENDBRANCH  95  96
ENDBRANCH  63  88
ENDBRANCH  37  38
ENDBRANCH  29  32
ENDBRANCH  27  28
ENDBRANCH  26  27
ENDBRANCH   1  26
TORSDOF 17
ENDMDL
