MODEL 1
REMARK VINA RESULT:     -14.8      0.000      0.000
REMARK SMILES COc1ccc2[nH]cc([C@H](C(=O)NCCCCNC(=O)c3ccc(-c4c5nc(c(-c6c(F)cc(S(=O)(=O)[O-])cc6F)c6ccc([nH]6)c(-c6c(F)cc(S(=O)(=O)[O-])cc6F)c6nc(c(-c7c(F)cc(S(=O)(=O)[O-])cc7F)c7ccc4[nH]7)C=C6)C=C5)cc3)[NH+]3CC[NH+](Cc4cccc5ccccc45)CC3)c2c1
REMARK SMILES IDX 15 1 14 2 13 3 11 4 12 5 10 7 9 8 3 9 4 10 105 11 5 12
REMARK SMILES IDX 104 13 6 14 7 15 8 16 2 18 1 19 87 20 88 21 103 22 89 24
REMARK SMILES IDX 102 25 90 26 91 28 92 29 93 30 101 31 94 32 96 33 100 34
REMARK SMILES IDX 95 35 97 36 99 37 98 38 16 39 17 40 18 41 19 42 20 44 21 45
REMARK SMILES IDX 22 46 86 47 23 48 85 49 24 50 25 51 26 52 79 53 27 54 84 55
REMARK SMILES IDX 78 56 80 57 28 58 83 59 77 60 76 61 29 63 63 64 42 65 62 66
REMARK SMILES IDX 43 67 46 68 61 69 81 70 44 71 45 72 60 74 82 75 47 76 30 77
REMARK SMILES IDX 31 78 40 79 32 80 33 81 39 82 41 83 34 84 35 85 36 86 37 87
REMARK SMILES IDX 38 88 64 89 65 90 74 91 66 92 67 93 73 94 75 95 68 96 69 97
REMARK SMILES IDX 70 98 71 99 72 100 48 101 49 102 58 103 50 104 51 105 57 106
REMARK SMILES IDX 59 107 52 108 53 109 54 110 55 111 56 112
REMARK H PARENT 13 6 7 17 87 23 90 27 18 43 80 62 46 73
REMARK Flexibility Score: inf
ROOT
ATOM      1  C   UNL A   1      36.723  22.089  23.819  1.00  0.00     0.023 C 
ENDROOT
BRANCH   1   2
ATOM      2  C   UNL A   1      36.111  23.653  23.880  1.00  0.00     0.116 C 
BRANCH   2   3
ATOM      3  N   UNL A   1      35.343  24.413  24.807  1.00  0.00    -0.351 N 
ATOM      4  C   UNL A   1      34.182  23.922  25.352  1.00  0.00     0.283 C 
ATOM      5  O   UNL A   1      33.727  24.423  26.384  1.00  0.00    -0.268 OA
ATOM      6  H   UNL A   1      35.652  25.313  25.064  1.00  0.00     0.163 HD
BRANCH   4   7
ATOM      7  C   UNL A   1      33.431  22.839  24.556  1.00  0.00     0.308 C 
BRANCH   7   8
ATOM      8  C   UNL A   1      33.492  21.502  25.351  1.00  0.00     0.045 A 
ATOM      9  C   UNL A   1      32.507  18.255  23.354  1.00  0.00     0.119 A 
ATOM     10  C   UNL A   1      32.310  17.446  24.456  1.00  0.00     0.048 A 
ATOM     11  C   UNL A   1      32.903  19.584  23.531  1.00  0.00     0.057 A 
ATOM     12  C   UNL A   1      32.548  17.951  25.746  1.00  0.00     0.030 A 
ATOM     13  C   UNL A   1      33.151  20.155  24.815  1.00  0.00     0.013 A 
ATOM     14  C   UNL A   1      32.991  19.286  25.894  1.00  0.00     0.046 A 
ATOM     15  N   UNL A   1      33.327  19.999  27.021  1.00  0.00    -0.361 N 
ATOM     16  C   UNL A   1      33.636  21.307  26.715  1.00  0.00     0.094 A 
ATOM     17  H   UNL A   1      33.345  19.623  27.931  1.00  0.00     0.166 HD
BRANCH   9  18
ATOM     18  O   UNL A   1      32.466  17.803  22.060  1.00  0.00    -0.497 OA
ATOM     19  C   UNL A   1      32.095  18.786  21.100  1.00  0.00     0.278 C 
ENDBRANCH   9  18
ENDBRANCH   7   8
BRANCH   7  20
ATOM     20  N   UNL A   1      32.224  23.366  23.801  1.00  0.00    -0.312 N 
ATOM     21  C   UNL A   1      32.614  23.836  22.438  1.00  0.00     0.325 C 
ATOM     22  C   UNL A   1      31.120  24.167  24.361  1.00  0.00     0.325 C 
ATOM     23  H   UNL A   1      31.700  22.493  23.859  1.00  0.00     0.349 HD
ATOM     24  C   UNL A   1      32.481  25.344  22.025  1.00  0.00     0.324 C 
ATOM     25  C   UNL A   1      30.851  25.633  23.770  1.00  0.00     0.324 C 
ATOM     26  N   UNL A   1      31.981  26.223  23.060  1.00  0.00    -0.322 N 
ATOM     27  H   UNL A   1      31.747  27.186  23.299  1.00  0.00     0.348 HD
BRANCH  26  28
ATOM     28  C   UNL A   1      32.670  27.499  23.345  1.00  0.00     0.300 C 
BRANCH  28  29
ATOM     29  C   UNL A   1      31.846  28.598  24.062  1.00  0.00     0.014 A 
ATOM     30  C   UNL A   1      32.715  29.311  25.479  1.00  0.00     0.010 A 
ATOM     31  C   UNL A   1      30.247  29.342  23.468  1.00  0.00    -0.010 A 
ATOM     32  C   UNL A   1      32.120  30.797  26.242  1.00  0.00     0.001 A 
ATOM     33  C   UNL A   1      29.736  30.920  24.209  1.00  0.00    -0.018 A 
ATOM     34  C   UNL A   1      29.293  28.930  22.503  1.00  0.00     0.009 A 
ATOM     35  C   UNL A   1      30.628  31.560  25.646  1.00  0.00     0.009 A 
ATOM     36  C   UNL A   1      28.801  31.699  23.556  1.00  0.00     0.009 A 
ATOM     37  C   UNL A   1      28.317  29.848  22.001  1.00  0.00     0.001 A 
ATOM     38  C   UNL A   1      28.164  31.191  22.431  1.00  0.00     0.001 A 
ENDBRANCH  28  29
ENDBRANCH  26  28
ENDBRANCH   7  20
ENDBRANCH   4   7
ENDBRANCH   2   3
ENDBRANCH   1   2
BRANCH   1  39
ATOM     39  C   UNL A   1      37.914  20.801  25.113  1.00  0.00     0.023 C 
BRANCH  39  40
ATOM     40  C   UNL A   1      39.295  21.018  26.156  1.00  0.00     0.116 C 
BRANCH  40  41
ATOM     41  N   UNL A   1      40.339  19.983  26.132  1.00  0.00    -0.352 N 
ATOM     42  C   UNL A   1      41.696  20.075  26.153  1.00  0.00     0.251 C 
ATOM     43  H   UNL A   1      39.996  19.062  26.096  1.00  0.00     0.163 HD
ATOM     44  O   UNL A   1      42.399  19.087  25.968  1.00  0.00    -0.269 OA
BRANCH  42  45
ATOM     45  C   UNL A   1      42.289  21.370  26.453  1.00  0.00     0.039 A 
ATOM     46  C   UNL A   1      42.587  22.244  25.412  1.00  0.00     0.014 A 
ATOM     47  C   UNL A   1      42.534  21.689  27.792  1.00  0.00     0.014 A 
ATOM     48  C   UNL A   1      43.113  23.485  25.729  1.00  0.00     0.010 A 
ATOM     49  C   UNL A   1      42.974  22.955  28.107  1.00  0.00     0.010 A 
ATOM     50  C   UNL A   1      43.285  23.850  27.076  1.00  0.00    -0.014 A 
BRANCH  50  51
ATOM     51  C   UNL A   1      43.820  25.176  27.415  1.00  0.00     0.031 A 
ATOM     52  C   UNL A   1      45.275  25.456  27.198  1.00  0.00     0.074 A 
ATOM     53  C   UNL A   1      42.977  26.091  27.924  1.00  0.00     0.049 A 
ATOM     54  N   UNL A   1      45.932  26.563  27.404  1.00  0.00    -0.248 NA
ATOM     55  C   UNL A   1      46.109  24.341  26.714  1.00  0.00     0.031 C 
ATOM     56  C   UNL A   1      41.557  25.863  28.215  1.00  0.00     0.029 A 
ATOM     57  N   UNL A   1      43.182  27.397  28.271  1.00  0.00    -0.354 N 
ATOM     58  C   UNL A   1      47.251  26.279  27.076  1.00  0.00     0.074 A 
ATOM     59  C   UNL A   1      47.319  24.878  26.734  1.00  0.00     0.031 C 
ATOM     60  C   UNL A   1      41.008  27.008  28.646  1.00  0.00     0.029 A 
ATOM     61  C   UNL A   1      42.044  28.032  28.708  1.00  0.00     0.049 A 
ATOM     62  H   UNL A   1      44.059  27.840  28.213  1.00  0.00     0.167 HD
ATOM     63  C   UNL A   1      48.301  27.129  27.036  1.00  0.00     0.037 A 
ATOM     64  C   UNL A   1      41.871  29.301  29.111  1.00  0.00     0.037 A 
ATOM     65  C   UNL A   1      48.192  28.522  27.374  1.00  0.00     0.049 A 
ATOM     66  C   UNL A   1      43.060  30.222  29.064  1.00  0.00     0.074 A 
ATOM     67  C   UNL A   1      49.171  29.496  27.340  1.00  0.00     0.029 A 
ATOM     68  N   UNL A   1      47.027  29.138  27.818  1.00  0.00    -0.354 N 
ATOM     69  N   UNL A   1      44.292  29.960  28.694  1.00  0.00    -0.248 NA
ATOM     70  C   UNL A   1      42.833  31.612  29.473  1.00  0.00     0.031 C 
ATOM     71  C   UNL A   1      48.618  30.683  27.828  1.00  0.00     0.029 A 
ATOM     72  C   UNL A   1      47.271  30.473  28.084  1.00  0.00     0.049 A 
ATOM     73  H   UNL A   1      46.158  28.689  27.926  1.00  0.00     0.167 HD
ATOM     74  C   UNL A   1      44.981  31.163  28.786  1.00  0.00     0.074 A 
ATOM     75  C   UNL A   1      44.019  32.152  29.234  1.00  0.00     0.031 C 
ATOM     76  C   UNL A   1      46.285  31.432  28.523  1.00  0.00     0.037 A 
BRANCH  63  77
ATOM     77  C   UNL A   1      49.637  26.575  26.626  1.00  0.00     0.058 A 
ATOM     78  C   UNL A   1      50.545  26.052  27.561  1.00  0.00     0.135 A 
ATOM     79  C   UNL A   1      50.003  26.539  25.272  1.00  0.00     0.135 A 
ATOM     80  F   UNL A   1      50.263  26.083  28.874  1.00  0.00    -0.206 F 
ATOM     81  C   UNL A   1      51.776  25.532  27.171  1.00  0.00     0.059 A 
ATOM     82  C   UNL A   1      51.211  25.992  24.854  1.00  0.00     0.059 A 
ATOM     83  F   UNL A   1      49.181  27.038  24.335  1.00  0.00    -0.206 F 
ATOM     84  C   UNL A   1      52.095  25.499  25.813  1.00  0.00     0.060 A 
BRANCH  84  85
ATOM     85  S   UNL A   1      53.678  24.786  25.320  1.00  0.00     0.124 S 
ATOM     86  O   UNL A   1      53.295  23.414  25.000  1.00  0.00    -0.237 OA
ATOM     87  O   UNL A   1      54.051  25.622  24.183  1.00  0.00    -0.237 OA
ATOM     88  O   UNL A   1      54.508  24.943  26.510  1.00  0.00    -0.744 OA
ENDBRANCH  84  85
ENDBRANCH  63  77
BRANCH  64  89
ATOM     89  C   UNL A   1      40.534  29.767  29.563  1.00  0.00     0.058 A 
ATOM     90  C   UNL A   1      40.277  30.053  30.912  1.00  0.00     0.135 A 
ATOM     91  C   UNL A   1      39.482  29.942  28.649  1.00  0.00     0.135 A 
ATOM     92  F   UNL A   1      41.249  29.909  31.827  1.00  0.00    -0.206 F 
ATOM     93  C   UNL A   1      39.019  30.462  31.345  1.00  0.00     0.059 A 
ATOM     94  C   UNL A   1      38.226  30.383  29.051  1.00  0.00     0.059 A 
ATOM     95  F   UNL A   1      39.680  29.708  27.342  1.00  0.00    -0.206 F 
ATOM     96  C   UNL A   1      38.000  30.624  30.404  1.00  0.00     0.060 A 
BRANCH  96  97
ATOM     97  S   UNL A   1      36.377  31.171  30.974  1.00  0.00     0.124 S 
ATOM     98  O   UNL A   1      36.686  32.486  31.521  1.00  0.00    -0.237 OA
ATOM     99  O   UNL A   1      35.600  31.159  29.739  1.00  0.00    -0.237 OA
ATOM    100  O   UNL A   1      36.003  30.153  31.952  1.00  0.00    -0.744 OA
ENDBRANCH  96  97
ENDBRANCH  64  89
BRANCH  76 101
ATOM    101  C   UNL A   1      46.725  32.864  28.648  1.00  0.00     0.058 A 
ATOM    102  C   UNL A   1      46.645  33.767  27.577  1.00  0.00     0.135 A 
ATOM    103  C   UNL A   1      47.209  33.342  29.876  1.00  0.00     0.135 A 
ATOM    104  F   UNL A   1      46.190  33.362  26.381  1.00  0.00    -0.206 F 
ATOM    105  C   UNL A   1      47.081  35.082  27.706  1.00  0.00     0.059 A 
ATOM    106  C   UNL A   1      47.606  34.664  30.041  1.00  0.00     0.059 A 
ATOM    107  F   UNL A   1      47.289  32.525  30.939  1.00  0.00    -0.206 F 
ATOM    108  C   UNL A   1      47.558  35.519  28.943  1.00  0.00     0.060 A 
BRANCH 108 109
ATOM    109  S   UNL A   1      48.116  37.227  29.096  1.00  0.00     0.124 S 
ATOM    110  O   UNL A   1      47.973  37.706  27.725  1.00  0.00    -0.237 OA
ATOM    111  O   UNL A   1      47.171  37.777  30.062  1.00  0.00    -0.237 OA
ATOM    112  O   UNL A   1      49.489  37.096  29.574  1.00  0.00    -0.744 OA
ENDBRANCH 108 109
ENDBRANCH  76 101
ENDBRANCH  50  51
ENDBRANCH  42  45
ENDBRANCH  40  41
ENDBRANCH  39  40
ENDBRANCH   1  39
TORSDOF 19
ENDMDL
MODEL 2
REMARK VINA RESULT:     -14.5      5.600      7.773
REMARK SMILES COc1ccc2[nH]cc([C@H](C(=O)NCCCCNC(=O)c3ccc(-c4c5nc(c(-c6c(F)cc(S(=O)(=O)[O-])cc6F)c6ccc([nH]6)c(-c6c(F)cc(S(=O)(=O)[O-])cc6F)c6nc(c(-c7c(F)cc(S(=O)(=O)[O-])cc7F)c7ccc4[nH]7)C=C6)C=C5)cc3)[NH+]3CC[NH+](Cc4cccc5ccccc45)CC3)c2c1
REMARK SMILES IDX 15 1 14 2 13 3 11 4 12 5 10 7 9 8 3 9 4 10 105 11 5 12
REMARK SMILES IDX 104 13 6 14 7 15 8 16 2 18 1 19 87 20 88 21 103 22 89 24
REMARK SMILES IDX 102 25 90 26 91 28 92 29 93 30 101 31 94 32 96 33 100 34
REMARK SMILES IDX 95 35 97 36 99 37 98 38 16 39 17 40 18 41 19 42 20 44 21 45
REMARK SMILES IDX 22 46 86 47 23 48 85 49 24 50 25 51 26 52 79 53 27 54 84 55
REMARK SMILES IDX 78 56 80 57 28 58 83 59 77 60 76 61 29 63 63 64 42 65 62 66
REMARK SMILES IDX 43 67 46 68 61 69 81 70 44 71 45 72 60 74 82 75 47 76 30 77
REMARK SMILES IDX 31 78 40 79 32 80 33 81 39 82 41 83 34 84 35 85 36 86 37 87
REMARK SMILES IDX 38 88 64 89 65 90 74 91 66 92 67 93 73 94 75 95 68 96 69 97
REMARK SMILES IDX 70 98 71 99 72 100 48 101 49 102 58 103 50 104 51 105 57 106
REMARK SMILES IDX 59 107 52 108 53 109 54 110 55 111 56 112
REMARK H PARENT 13 6 7 17 87 23 90 27 18 43 80 62 46 73
REMARK Flexibility Score: inf
ROOT
ATOM      1  C   UNL A   1      37.777  23.655  25.855  1.00  0.00     0.023 C 
ENDROOT
BRANCH   1   2
ATOM      2  C   UNL A   1      36.122  23.744  26.132  1.00  0.00     0.116 C 
BRANCH   2   3
ATOM      3  N   UNL A   1      35.208  23.155  27.051  1.00  0.00    -0.351 N 
ATOM      4  C   UNL A   1      34.538  21.993  26.754  1.00  0.00     0.283 C 
ATOM      5  O   UNL A   1      34.036  21.324  27.661  1.00  0.00    -0.268 OA
ATOM      6  H   UNL A   1      35.051  23.591  27.920  1.00  0.00     0.163 HD
BRANCH   4   7
ATOM      7  C   UNL A   1      34.338  21.654  25.265  1.00  0.00     0.308 C 
BRANCH   7   8
ATOM      8  C   UNL A   1      35.160  20.376  24.929  1.00  0.00     0.045 A 
ATOM      9  C   UNL A   1      33.254  16.949  25.276  1.00  0.00     0.119 A 
ATOM     10  C   UNL A   1      34.377  16.145  25.293  1.00  0.00     0.048 A 
ATOM     11  C   UNL A   1      33.394  18.334  25.150  1.00  0.00     0.057 A 
ATOM     12  C   UNL A   1      35.651  16.719  25.142  1.00  0.00     0.030 A 
ATOM     13  C   UNL A   1      34.661  18.975  25.003  1.00  0.00     0.013 A 
ATOM     14  C   UNL A   1      35.761  18.119  24.972  1.00  0.00     0.046 A 
ATOM     15  N   UNL A   1      36.866  18.913  24.768  1.00  0.00    -0.361 N 
ATOM     16  C   UNL A   1      36.526  20.248  24.729  1.00  0.00     0.094 A 
ATOM     17  H   UNL A   1      37.783  18.571  24.664  1.00  0.00     0.166 HD
BRANCH   9  18
ATOM     18  O   UNL A   1      31.971  16.465  25.245  1.00  0.00    -0.497 OA
ATOM     19  C   UNL A   1      31.833  15.123  25.702  1.00  0.00     0.278 C 
ENDBRANCH   9  18
ENDBRANCH   7   8
BRANCH   7  20
ATOM     20  N   UNL A   1      32.946  21.972  24.751  1.00  0.00    -0.312 N 
ATOM     21  C   UNL A   1      32.900  21.897  23.260  1.00  0.00     0.325 C 
ATOM     22  C   UNL A   1      32.032  23.004  25.275  1.00  0.00     0.325 C 
ATOM     23  H   UNL A   1      32.490  21.220  25.269  1.00  0.00     0.349 HD
ATOM     24  C   UNL A   1      32.603  23.166  22.386  1.00  0.00     0.324 C 
ATOM     25  C   UNL A   1      31.553  24.182  24.297  1.00  0.00     0.324 C 
ATOM     26  N   UNL A   1      32.404  24.391  23.130  1.00  0.00    -0.322 N 
ATOM     27  H   UNL A   1      32.220  25.391  23.060  1.00  0.00     0.348 HD
BRANCH  26  28
ATOM     28  C   UNL A   1      33.104  25.626  22.723  1.00  0.00     0.300 C 
BRANCH  28  29
ATOM     29  C   UNL A   1      32.438  26.971  23.107  1.00  0.00     0.014 A 
ATOM     30  C   UNL A   1      30.976  27.338  22.109  1.00  0.00     0.010 A 
ATOM     31  C   UNL A   1      32.869  28.037  24.571  1.00  0.00    -0.010 A 
ATOM     32  C   UNL A   1      29.869  28.640  22.582  1.00  0.00     0.001 A 
ATOM     33  C   UNL A   1      31.652  29.287  25.079  1.00  0.00    -0.018 A 
ATOM     34  C   UNL A   1      33.995  28.083  25.430  1.00  0.00     0.009 A 
ATOM     35  C   UNL A   1      30.229  29.628  24.016  1.00  0.00     0.009 A 
ATOM     36  C   UNL A   1      31.727  29.821  26.350  1.00  0.00     0.009 A 
ATOM     37  C   UNL A   1      33.934  28.775  26.681  1.00  0.00     0.001 A 
ATOM     38  C   UNL A   1      32.814  29.506  27.154  1.00  0.00     0.001 A 
ENDBRANCH  28  29
ENDBRANCH  26  28
ENDBRANCH   7  20
ENDBRANCH   4   7
ENDBRANCH   2   3
ENDBRANCH   1   2
BRANCH   1  39
ATOM     39  C   UNL A   1      39.515  22.835  26.887  1.00  0.00     0.023 C 
BRANCH  39  40
ATOM     40  C   UNL A   1      41.182  23.303  27.081  1.00  0.00     0.116 C 
BRANCH  40  41
ATOM     41  N   UNL A   1      41.789  24.128  26.026  1.00  0.00    -0.352 N 
ATOM     42  C   UNL A   1      41.984  25.472  25.936  1.00  0.00     0.251 C 
ATOM     43  H   UNL A   1      42.111  23.619  25.248  1.00  0.00     0.163 HD
ATOM     44  O   UNL A   1      42.372  25.985  24.892  1.00  0.00    -0.269 OA
BRANCH  42  45
ATOM     45  C   UNL A   1      41.769  26.276  27.130  1.00  0.00     0.039 A 
ATOM     46  C   UNL A   1      42.702  27.249  27.476  1.00  0.00     0.014 A 
ATOM     47  C   UNL A   1      40.619  26.038  27.888  1.00  0.00     0.014 A 
ATOM     48  C   UNL A   1      42.453  28.027  28.594  1.00  0.00     0.010 A 
ATOM     49  C   UNL A   1      40.332  26.872  28.946  1.00  0.00     0.010 A 
ATOM     50  C   UNL A   1      41.258  27.855  29.315  1.00  0.00    -0.014 A 
BRANCH  50  51
ATOM     51  C   UNL A   1      40.981  28.696  30.489  1.00  0.00     0.031 A 
ATOM     52  C   UNL A   1      41.814  28.531  31.721  1.00  0.00     0.074 A 
ATOM     53  C   UNL A   1      39.972  29.581  30.412  1.00  0.00     0.049 A 
ATOM     54  N   UNL A   1      41.750  29.192  32.844  1.00  0.00    -0.248 NA
ATOM     55  C   UNL A   1      42.834  27.467  31.706  1.00  0.00     0.031 C 
ATOM     56  C   UNL A   1      39.082  29.750  29.258  1.00  0.00     0.029 A 
ATOM     57  N   UNL A   1      39.533  30.513  31.310  1.00  0.00    -0.354 N 
ATOM     58  C   UNL A   1      42.716  28.626  33.664  1.00  0.00     0.074 A 
ATOM     59  C   UNL A   1      43.300  27.519  32.945  1.00  0.00     0.031 C 
ATOM     60  C   UNL A   1      38.239  30.765  29.499  1.00  0.00     0.029 A 
ATOM     61  C   UNL A   1      38.495  31.280  30.839  1.00  0.00     0.049 A 
ATOM     62  H   UNL A   1      39.922  30.623  32.208  1.00  0.00     0.167 HD
ATOM     63  C   UNL A   1      43.098  29.024  34.898  1.00  0.00     0.037 A 
ATOM     64  C   UNL A   1      37.832  32.286  31.434  1.00  0.00     0.037 A 
ATOM     65  C   UNL A   1      42.500  30.140  35.579  1.00  0.00     0.049 A 
ATOM     66  C   UNL A   1      38.274  32.701  32.811  1.00  0.00     0.074 A 
ATOM     67  C   UNL A   1      42.821  30.666  36.815  1.00  0.00     0.029 A 
ATOM     68  N   UNL A   1      41.448  30.898  35.079  1.00  0.00    -0.354 N 
ATOM     69  N   UNL A   1      39.232  32.200  33.556  1.00  0.00    -0.248 NA
ATOM     70  C   UNL A   1      37.560  33.827  33.420  1.00  0.00     0.031 C 
ATOM     71  C   UNL A   1      41.919  31.697  37.093  1.00  0.00     0.029 A 
ATOM     72  C   UNL A   1      41.091  31.871  35.994  1.00  0.00     0.049 A 
ATOM     73  H   UNL A   1      41.020  30.761  34.204  1.00  0.00     0.167 HD
ATOM     74  C   UNL A   1      39.263  32.975  34.709  1.00  0.00     0.074 A 
ATOM     75  C   UNL A   1      38.235  33.986  34.549  1.00  0.00     0.031 C 
ATOM     76  C   UNL A   1      40.065  32.868  35.798  1.00  0.00     0.037 A 
BRANCH  63  77
ATOM     77  C   UNL A   1      44.194  28.249  35.577  1.00  0.00     0.058 A 
ATOM     78  C   UNL A   1      45.550  28.574  35.408  1.00  0.00     0.135 A 
ATOM     79  C   UNL A   1      43.881  27.183  36.433  1.00  0.00     0.135 A 
ATOM     80  F   UNL A   1      45.913  29.566  34.580  1.00  0.00    -0.206 F 
ATOM     81  C   UNL A   1      46.557  27.857  36.048  1.00  0.00     0.059 A 
ATOM     82  C   UNL A   1      44.867  26.475  37.112  1.00  0.00     0.059 A 
ATOM     83  F   UNL A   1      42.602  26.818  36.621  1.00  0.00    -0.206 F 
ATOM     84  C   UNL A   1      46.203  26.814  36.906  1.00  0.00     0.060 A 
BRANCH  84  85
ATOM     85  S   UNL A   1      47.518  25.920  37.758  1.00  0.00     0.124 S 
ATOM     86  O   UNL A   1      48.469  25.692  36.674  1.00  0.00    -0.237 OA
ATOM     87  O   UNL A   1      47.934  26.881  38.775  1.00  0.00    -0.237 OA
ATOM     88  O   UNL A   1      46.847  24.727  38.264  1.00  0.00    -0.744 OA
ENDBRANCH  84  85
ENDBRANCH  63  77
BRANCH  64  89
ATOM     89  C   UNL A   1      36.717  32.968  30.728  1.00  0.00     0.058 A 
ATOM     90  C   UNL A   1      35.378  32.674  31.020  1.00  0.00     0.135 A 
ATOM     91  C   UNL A   1      36.971  33.939  29.745  1.00  0.00     0.135 A 
ATOM     92  F   UNL A   1      35.079  31.759  31.956  1.00  0.00    -0.206 F 
ATOM     93  C   UNL A   1      34.330  33.289  30.341  1.00  0.00     0.059 A 
ATOM     94  C   UNL A   1      35.942  34.594  29.077  1.00  0.00     0.059 A 
ATOM     95  F   UNL A   1      38.234  34.279  29.443  1.00  0.00    -0.206 F 
ATOM     96  C   UNL A   1      34.624  34.249  29.371  1.00  0.00     0.060 A 
BRANCH  96  97
ATOM     97  S   UNL A   1      33.257  35.053  28.509  1.00  0.00     0.124 S 
ATOM     98  O   UNL A   1      33.967  35.963  27.617  1.00  0.00    -0.237 OA
ATOM     99  O   UNL A   1      32.592  33.923  27.870  1.00  0.00    -0.237 OA
ATOM    100  O   UNL A   1      32.506  35.687  29.588  1.00  0.00    -0.744 OA
ENDBRANCH  96  97
ENDBRANCH  64  89
BRANCH  76 101
ATOM    101  C   UNL A   1      39.906  33.912  36.867  1.00  0.00     0.058 A 
ATOM    102  C   UNL A   1      40.615  35.124  36.841  1.00  0.00     0.135 A 
ATOM    103  C   UNL A   1      39.003  33.702  37.922  1.00  0.00     0.135 A 
ATOM    104  F   UNL A   1      41.491  35.376  35.856  1.00  0.00    -0.206 F 
ATOM    105  C   UNL A   1      40.472  36.067  37.853  1.00  0.00     0.059 A 
ATOM    106  C   UNL A   1      38.810  34.651  38.919  1.00  0.00     0.059 A 
ATOM    107  F   UNL A   1      38.286  32.568  37.985  1.00  0.00    -0.206 F 
ATOM    108  C   UNL A   1      39.566  35.820  38.887  1.00  0.00     0.060 A 
BRANCH 108 109
ATOM    109  S   UNL A   1      39.389  37.054  40.190  1.00  0.00     0.124 S 
ATOM    110  O   UNL A   1      40.781  37.398  40.458  1.00  0.00    -0.237 OA
ATOM    111  O   UNL A   1      38.594  38.086  39.533  1.00  0.00    -0.237 OA
ATOM    112  O   UNL A   1      38.707  36.327  41.257  1.00  0.00    -0.744 OA
ENDBRANCH 108 109
ENDBRANCH  76 101
ENDBRANCH  50  51
ENDBRANCH  42  45
ENDBRANCH  40  41
ENDBRANCH  39  40
ENDBRANCH   1  39
TORSDOF 19
ENDMDL
MODEL 3
REMARK VINA RESULT:     -14.4      5.582      7.668
REMARK SMILES COc1ccc2[nH]cc([C@H](C(=O)NCCCCNC(=O)c3ccc(-c4c5nc(c(-c6c(F)cc(S(=O)(=O)[O-])cc6F)c6ccc([nH]6)c(-c6c(F)cc(S(=O)(=O)[O-])cc6F)c6nc(c(-c7c(F)cc(S(=O)(=O)[O-])cc7F)c7ccc4[nH]7)C=C6)C=C5)cc3)[NH+]3CC[NH+](Cc4cccc5ccccc45)CC3)c2c1
REMARK SMILES IDX 15 1 14 2 13 3 11 4 12 5 10 7 9 8 3 9 4 10 105 11 5 12
REMARK SMILES IDX 104 13 6 14 7 15 8 16 2 18 1 19 87 20 88 21 103 22 89 24
REMARK SMILES IDX 102 25 90 26 91 28 92 29 93 30 101 31 94 32 96 33 100 34
REMARK SMILES IDX 95 35 97 36 99 37 98 38 16 39 17 40 18 41 19 42 20 44 21 45
REMARK SMILES IDX 22 46 86 47 23 48 85 49 24 50 25 51 26 52 79 53 27 54 84 55
REMARK SMILES IDX 78 56 80 57 28 58 83 59 77 60 76 61 29 63 63 64 42 65 62 66
REMARK SMILES IDX 43 67 46 68 61 69 81 70 44 71 45 72 60 74 82 75 47 76 30 77
REMARK SMILES IDX 31 78 40 79 32 80 33 81 39 82 41 83 34 84 35 85 36 86 37 87
REMARK SMILES IDX 38 88 64 89 65 90 74 91 66 92 67 93 73 94 75 95 68 96 69 97
REMARK SMILES IDX 70 98 71 99 72 100 48 101 49 102 58 103 50 104 51 105 57 106
REMARK SMILES IDX 59 107 52 108 53 109 54 110 55 111 56 112
REMARK H PARENT 13 6 7 17 87 23 90 27 18 43 80 62 46 73
REMARK Flexibility Score: inf
ROOT
ATOM      1  C   UNL A   1      37.283  23.704  25.069  1.00  0.00     0.023 C 
ENDROOT
BRANCH   1   2
ATOM      2  C   UNL A   1      35.698  24.112  24.688  1.00  0.00     0.116 C 
BRANCH   2   3
ATOM      3  N   UNL A   1      34.566  24.590  25.406  1.00  0.00    -0.351 N 
ATOM      4  C   UNL A   1      33.450  23.812  25.591  1.00  0.00     0.283 C 
ATOM      5  O   UNL A   1      32.645  24.093  26.484  1.00  0.00    -0.268 OA
ATOM      6  H   UNL A   1      34.583  25.503  25.779  1.00  0.00     0.163 HD
BRANCH   4   7
ATOM      7  C   UNL A   1      33.196  22.686  24.572  1.00  0.00     0.308 C 
BRANCH   7   8
ATOM      8  C   UNL A   1      33.325  21.316  25.298  1.00  0.00     0.045 A 
ATOM      9  C   UNL A   1      32.278  18.147  23.209  1.00  0.00     0.119 A 
ATOM     10  C   UNL A   1      32.159  17.284  24.282  1.00  0.00     0.048 A 
ATOM     11  C   UNL A   1      32.662  19.473  23.426  1.00  0.00     0.057 A 
ATOM     12  C   UNL A   1      32.463  17.733  25.578  1.00  0.00     0.030 A 
ATOM     13  C   UNL A   1      32.975  19.989  24.719  1.00  0.00     0.013 A 
ATOM     14  C   UNL A   1      32.892  19.067  25.764  1.00  0.00     0.046 A 
ATOM     15  N   UNL A   1      33.282  19.734  26.902  1.00  0.00    -0.361 N 
ATOM     16  C   UNL A   1      33.552  21.060  26.641  1.00  0.00     0.094 A 
ATOM     17  H   UNL A   1      33.359  19.317  27.791  1.00  0.00     0.166 HD
BRANCH   9  18
ATOM     18  O   UNL A   1      32.168  17.753  21.901  1.00  0.00    -0.497 OA
ATOM     19  C   UNL A   1      32.153  18.822  20.960  1.00  0.00     0.278 C 
ENDBRANCH   9  18
ENDBRANCH   7   8
BRANCH   7  20
ATOM     20  N   UNL A   1      32.157  23.039  23.523  1.00  0.00    -0.312 N 
ATOM     21  C   UNL A   1      32.793  23.212  22.183  1.00  0.00     0.325 C 
ATOM     22  C   UNL A   1      31.001  23.938  23.700  1.00  0.00     0.325 C 
ATOM     23  H   UNL A   1      31.601  22.197  23.668  1.00  0.00     0.349 HD
ATOM     24  C   UNL A   1      32.786  24.598  21.447  1.00  0.00     0.324 C 
ATOM     25  C   UNL A   1      30.890  25.245  22.778  1.00  0.00     0.324 C 
ATOM     26  N   UNL A   1      32.146  25.674  22.172  1.00  0.00    -0.322 N 
ATOM     27  H   UNL A   1      31.908  26.665  22.159  1.00  0.00     0.348 HD
BRANCH  26  28
ATOM     28  C   UNL A   1      32.819  26.983  22.301  1.00  0.00     0.300 C 
BRANCH  28  29
ATOM     29  C   UNL A   1      32.304  27.933  23.411  1.00  0.00     0.014 A 
ATOM     30  C   UNL A   1      33.527  28.219  24.711  1.00  0.00     0.010 A 
ATOM     31  C   UNL A   1      30.721  28.912  23.378  1.00  0.00    -0.010 A 
ATOM     32  C   UNL A   1      33.292  29.516  25.897  1.00  0.00     0.001 A 
ATOM     33  C   UNL A   1      30.573  30.298  24.544  1.00  0.00    -0.018 A 
ATOM     34  C   UNL A   1      29.546  28.815  22.591  1.00  0.00     0.009 A 
ATOM     35  C   UNL A   1      31.815  30.506  25.842  1.00  0.00     0.009 A 
ATOM     36  C   UNL A   1      29.627  31.276  24.309  1.00  0.00     0.009 A 
ATOM     37  C   UNL A   1      28.608  29.895  22.540  1.00  0.00     0.001 A 
ATOM     38  C   UNL A   1      28.714  31.102  23.277  1.00  0.00     0.001 A 
ENDBRANCH  28  29
ENDBRANCH  26  28
ENDBRANCH   7  20
ENDBRANCH   4   7
ENDBRANCH   2   3
ENDBRANCH   1   2
BRANCH   1  39
ATOM     39  C   UNL A   1      38.701  24.172  26.658  1.00  0.00     0.023 C 
BRANCH  39  40
ATOM     40  C   UNL A   1      40.367  23.786  26.993  1.00  0.00     0.116 C 
BRANCH  40  41
ATOM     41  N   UNL A   1      41.395  24.384  26.128  1.00  0.00    -0.352 N 
ATOM     42  C   UNL A   1      41.995  25.605  26.158  1.00  0.00     0.251 C 
ATOM     43  H   UNL A   1      41.703  23.799  25.400  1.00  0.00     0.163 HD
ATOM     44  O   UNL A   1      42.724  25.973  25.243  1.00  0.00    -0.269 OA
BRANCH  42  45
ATOM     45  C   UNL A   1      41.789  26.440  27.332  1.00  0.00     0.039 A 
ATOM     46  C   UNL A   1      42.286  27.740  27.343  1.00  0.00     0.014 A 
ATOM     47  C   UNL A   1      41.086  25.899  28.412  1.00  0.00     0.014 A 
ATOM     48  C   UNL A   1      42.041  28.527  28.455  1.00  0.00     0.010 A 
ATOM     49  C   UNL A   1      40.769  26.712  29.478  1.00  0.00     0.010 A 
ATOM     50  C   UNL A   1      41.263  28.021  29.512  1.00  0.00    -0.014 A 
BRANCH  50  51
ATOM     51  C   UNL A   1      40.981  28.863  30.684  1.00  0.00     0.031 A 
ATOM     52  C   UNL A   1      41.816  28.707  31.916  1.00  0.00     0.074 A 
ATOM     53  C   UNL A   1      39.966  29.740  30.607  1.00  0.00     0.049 A 
ATOM     54  N   UNL A   1      41.749  29.369  33.038  1.00  0.00    -0.248 NA
ATOM     55  C   UNL A   1      42.845  27.650  31.902  1.00  0.00     0.031 C 
ATOM     56  C   UNL A   1      39.073  29.901  29.453  1.00  0.00     0.029 A 
ATOM     57  N   UNL A   1      39.520  30.671  31.504  1.00  0.00    -0.354 N 
ATOM     58  C   UNL A   1      42.721  28.812  33.858  1.00  0.00     0.074 A 
ATOM     59  C   UNL A   1      43.311  27.708  33.140  1.00  0.00     0.031 C 
ATOM     60  C   UNL A   1      38.223  30.910  29.694  1.00  0.00     0.029 A 
ATOM     61  C   UNL A   1      38.477  31.429  31.032  1.00  0.00     0.049 A 
ATOM     62  H   UNL A   1      39.910  30.785  32.401  1.00  0.00     0.167 HD
ATOM     63  C   UNL A   1      43.101  29.215  35.090  1.00  0.00     0.037 A 
ATOM     64  C   UNL A   1      37.808  32.432  31.626  1.00  0.00     0.037 A 
ATOM     65  C   UNL A   1      42.496  30.328  35.770  1.00  0.00     0.049 A 
ATOM     66  C   UNL A   1      38.248  32.853  33.001  1.00  0.00     0.074 A 
ATOM     67  C   UNL A   1      42.814  30.859  37.005  1.00  0.00     0.029 A 
ATOM     68  N   UNL A   1      41.437  31.077  35.270  1.00  0.00    -0.354 N 
ATOM     69  N   UNL A   1      39.210  32.360  33.747  1.00  0.00    -0.248 NA
ATOM     70  C   UNL A   1      37.526  33.975  33.609  1.00  0.00     0.031 C 
ATOM     71  C   UNL A   1      41.905  31.884  37.282  1.00  0.00     0.029 A 
ATOM     72  C   UNL A   1      41.075  32.050  36.183  1.00  0.00     0.049 A 
ATOM     73  H   UNL A   1      41.009  30.935  34.395  1.00  0.00     0.167 HD
ATOM     74  C   UNL A   1      39.237  33.138  34.898  1.00  0.00     0.074 A 
ATOM     75  C   UNL A   1      38.201  34.141  34.737  1.00  0.00     0.031 C 
ATOM     76  C   UNL A   1      40.041  33.039  35.986  1.00  0.00     0.037 A 
BRANCH  63  77
ATOM     77  C   UNL A   1      44.203  28.450  35.769  1.00  0.00     0.058 A 
ATOM     78  C   UNL A   1      45.558  28.774  35.585  1.00  0.00     0.135 A 
ATOM     79  C   UNL A   1      43.898  27.394  36.641  1.00  0.00     0.135 A 
ATOM     80  F   UNL A   1      45.913  29.756  34.742  1.00  0.00    -0.206 F 
ATOM     81  C   UNL A   1      46.570  28.066  36.226  1.00  0.00     0.059 A 
ATOM     82  C   UNL A   1      44.890  26.695  37.320  1.00  0.00     0.059 A 
ATOM     83  F   UNL A   1      42.621  27.030  36.843  1.00  0.00    -0.206 F 
ATOM     84  C   UNL A   1      46.224  27.033  37.099  1.00  0.00     0.060 A 
BRANCH  84  85
ATOM     85  S   UNL A   1      47.548  26.150  37.951  1.00  0.00     0.124 S 
ATOM     86  O   UNL A   1      47.560  24.878  37.236  1.00  0.00    -0.237 OA
ATOM     87  O   UNL A   1      48.697  27.020  37.719  1.00  0.00    -0.237 OA
ATOM     88  O   UNL A   1      47.081  26.088  39.332  1.00  0.00    -0.744 OA
ENDBRANCH  84  85
ENDBRANCH  63  77
BRANCH  64  89
ATOM     89  C   UNL A   1      36.686  33.105  30.920  1.00  0.00     0.058 A 
ATOM     90  C   UNL A   1      36.920  34.032  29.894  1.00  0.00     0.135 A 
ATOM     91  C   UNL A   1      35.351  32.828  31.255  1.00  0.00     0.135 A 
ATOM     92  F   UNL A   1      38.178  34.327  29.528  1.00  0.00    -0.206 F 
ATOM     93  C   UNL A   1      35.875  34.686  29.249  1.00  0.00     0.059 A 
ATOM     94  C   UNL A   1      34.288  33.442  30.603  1.00  0.00     0.059 A 
ATOM     95  F   UNL A   1      35.069  31.930  32.212  1.00  0.00    -0.206 F 
ATOM     96  C   UNL A   1      34.561  34.383  29.612  1.00  0.00     0.060 A 
BRANCH  96  97
ATOM     97  S   UNL A   1      33.212  35.225  28.758  1.00  0.00     0.124 S 
ATOM     98  O   UNL A   1      33.935  36.223  27.978  1.00  0.00    -0.237 OA
ATOM     99  O   UNL A   1      32.606  34.137  27.999  1.00  0.00    -0.237 OA
ATOM    100  O   UNL A   1      32.397  35.749  29.851  1.00  0.00    -0.744 OA
ENDBRANCH  96  97
ENDBRANCH  64  89
BRANCH  76 101
ATOM    101  C   UNL A   1      39.875  34.084  37.054  1.00  0.00     0.058 A 
ATOM    102  C   UNL A   1      39.042  33.891  38.167  1.00  0.00     0.135 A 
ATOM    103  C   UNL A   1      40.590  35.290  36.969  1.00  0.00     0.135 A 
ATOM    104  F   UNL A   1      38.336  32.757  38.297  1.00  0.00    -0.206 F 
ATOM    105  C   UNL A   1      38.883  34.881  39.131  1.00  0.00     0.059 A 
ATOM    106  C   UNL A   1      40.482  36.274  37.945  1.00  0.00     0.059 A 
ATOM    107  F   UNL A   1      41.415  35.518  35.935  1.00  0.00    -0.206 F 
ATOM    108  C   UNL A   1      39.608  36.068  39.010  1.00  0.00     0.060 A 
BRANCH 108 109
ATOM    109  S   UNL A   1      39.394  37.340  40.269  1.00  0.00     0.124 S 
ATOM    110  O   UNL A   1      38.542  38.299  39.575  1.00  0.00    -0.237 OA
ATOM    111  O   UNL A   1      38.762  36.598  41.355  1.00  0.00    -0.237 OA
ATOM    112  O   UNL A   1      40.757  37.791  40.535  1.00  0.00    -0.744 OA
ENDBRANCH 108 109
ENDBRANCH  76 101
ENDBRANCH  50  51
ENDBRANCH  42  45
ENDBRANCH  40  41
ENDBRANCH  39  40
ENDBRANCH   1  39
TORSDOF 19
ENDMDL
