MODEL 1
REMARK VINA RESULT:     -12.1      0.000      0.000
REMARK SMILES C=CCc1cccc(-c2ccc([C@@H](C)C(=O)NCCCCNC(=O)c3ccc(-c4c5nc(c(-c6c(F)cc(S(=O)(=O)[O-])cc6F)c6ccc([nH]6)c(-c6c(F)cc(S(=O)(=O)[O-])cc6F)c6nc(c(-c7c(F)cc(S(=O)(=O)[O-])cc7F)c7ccc4[nH]7)C=C6)C=C5)cc3)cc2)c1
REMARK SMILES IDX 19 1 18 2 17 3 15 4 16 5 13 7 14 8 12 9 9 10 10 11 92 12
REMARK SMILES IDX 11 13 91 14 8 15 4 16 5 17 93 18 6 19 7 20 3 21 2 22 1 23
REMARK SMILES IDX 20 24 21 25 22 26 23 27 24 29 25 30 26 31 90 32 27 33 89 34
REMARK SMILES IDX 28 35 29 36 30 37 83 38 31 39 88 40 82 41 84 42 32 43 87 44
REMARK SMILES IDX 81 45 80 46 33 48 67 49 46 50 66 51 47 52 50 53 65 54 85 55
REMARK SMILES IDX 48 56 49 57 64 59 86 60 51 61 34 62 35 63 44 64 36 65 37 66
REMARK SMILES IDX 43 67 45 68 38 69 39 70 40 71 41 72 42 73 68 74 69 75 78 76
REMARK SMILES IDX 70 77 71 78 77 79 79 80 72 81 73 82 74 83 75 84 76 85 52 86
REMARK SMILES IDX 53 87 62 88 54 89 55 90 61 91 63 92 56 93 57 94 58 95 59 96
REMARK SMILES IDX 60 97
REMARK H PARENT 17 6 22 28 84 47 50 58
REMARK Flexibility Score: inf
ROOT
ATOM      1  C   UNL A   1      38.926  22.761  26.492  1.00  0.00     0.023 C 
ENDROOT
BRANCH   1   2
ATOM      2  C   UNL A   1      38.117  21.731  25.704  1.00  0.00     0.116 C 
BRANCH   2   3
ATOM      3  N   UNL A   1      37.746  22.210  24.389  1.00  0.00    -0.356 N 
ATOM      4  C   UNL A   1      36.544  22.596  23.878  1.00  0.00     0.227 C 
ATOM      5  O   UNL A   1      36.526  22.911  22.681  1.00  0.00    -0.274 OA
ATOM      6  H   UNL A   1      38.495  22.267  23.753  1.00  0.00     0.163 HD
BRANCH   4   7
ATOM      7  C   UNL A   1      35.249  22.664  24.703  1.00  0.00     0.105 C 
ATOM      8  C   UNL A   1      34.334  21.451  24.531  1.00  0.00     0.023 C 
BRANCH   7   9
ATOM      9  C   UNL A   1      34.581  24.029  24.658  1.00  0.00    -0.036 A 
ATOM     10  C   UNL A   1      33.095  26.472  24.568  1.00  0.00    -0.018 A 
ATOM     11  C   UNL A   1      33.902  26.138  25.667  1.00  0.00     0.009 A 
ATOM     12  C   UNL A   1      33.094  25.574  23.489  1.00  0.00     0.009 A 
ATOM     13  C   UNL A   1      34.655  24.956  25.699  1.00  0.00     0.005 A 
ATOM     14  C   UNL A   1      33.805  24.367  23.540  1.00  0.00     0.005 A 
BRANCH  10  15
ATOM     15  C   UNL A   1      32.267  27.701  24.557  1.00  0.00    -0.018 A 
ATOM     16  C   UNL A   1      30.376  29.000  23.656  1.00  0.00    -0.044 A 
ATOM     17  C   UNL A   1      30.671  30.039  24.544  1.00  0.00     0.004 A 
ATOM     18  C   UNL A   1      31.171  27.840  23.680  1.00  0.00     0.012 A 
ATOM     19  C   UNL A   1      31.737  29.924  25.431  1.00  0.00     0.001 A 
ATOM     20  C   UNL A   1      32.530  28.773  25.429  1.00  0.00     0.009 A 
BRANCH  16  21
ATOM     21  C   UNL A   1      29.239  29.130  22.668  1.00  0.00     0.062 C 
BRANCH  21  22
ATOM     22  C   UNL A   1      28.952  30.554  22.285  1.00  0.00    -0.030 C 
ATOM     23  C   UNL A   1      27.973  31.298  22.819  1.00  0.00     0.004 C 
ENDBRANCH  21  22
ENDBRANCH  16  21
ENDBRANCH  10  15
ENDBRANCH   7   9
ENDBRANCH   4   7
ENDBRANCH   2   3
ENDBRANCH   1   2
BRANCH   1  24
ATOM     24  C   UNL A   1      40.128  22.199  27.248  1.00  0.00     0.023 C 
BRANCH  24  25
ATOM     25  C   UNL A   1      41.374  23.080  27.254  1.00  0.00     0.116 C 
BRANCH  25  26
ATOM     26  N   UNL A   1      41.490  23.956  26.097  1.00  0.00    -0.352 N 
ATOM     27  C   UNL A   1      41.532  25.333  26.068  1.00  0.00     0.251 C 
ATOM     28  H   UNL A   1      41.545  23.506  25.222  1.00  0.00     0.163 HD
ATOM     29  O   UNL A   1      41.561  25.930  25.002  1.00  0.00    -0.269 OA
BRANCH  27  30
ATOM     30  C   UNL A   1      41.488  26.077  27.347  1.00  0.00     0.039 A 
ATOM     31  C   UNL A   1      42.494  27.006  27.620  1.00  0.00     0.014 A 
ATOM     32  C   UNL A   1      40.423  25.906  28.234  1.00  0.00     0.014 A 
ATOM     33  C   UNL A   1      42.382  27.833  28.739  1.00  0.00     0.010 A 
ATOM     34  C   UNL A   1      40.276  26.776  29.309  1.00  0.00     0.010 A 
ATOM     35  C   UNL A   1      41.248  27.757  29.565  1.00  0.00    -0.014 A 
BRANCH  35  36
ATOM     36  C   UNL A   1      41.040  28.713  30.683  1.00  0.00     0.031 A 
ATOM     37  C   UNL A   1      41.869  28.606  31.932  1.00  0.00     0.074 A 
ATOM     38  C   UNL A   1      40.045  29.620  30.604  1.00  0.00     0.049 A 
ATOM     39  N   UNL A   1      41.776  29.288  33.044  1.00  0.00    -0.248 NA
ATOM     40  C   UNL A   1      42.920  27.576  31.945  1.00  0.00     0.031 C 
ATOM     41  C   UNL A   1      39.131  29.779  29.470  1.00  0.00     0.029 A 
ATOM     42  N   UNL A   1      39.627  30.571  31.500  1.00  0.00    -0.354 N 
ATOM     43  C   UNL A   1      42.739  28.759  33.893  1.00  0.00     0.074 A 
ATOM     44  C   UNL A   1      43.375  27.669  33.186  1.00  0.00     0.031 C 
ATOM     45  C   UNL A   1      38.274  30.780  29.730  1.00  0.00     0.029 A 
ATOM     46  C   UNL A   1      38.554  31.311  31.060  1.00  0.00     0.049 A 
ATOM     47  H   UNL A   1      40.053  30.709  32.376  1.00  0.00     0.167 HD
ATOM     48  C   UNL A   1      43.081  29.161  35.141  1.00  0.00     0.037 A 
ATOM     49  C   UNL A   1      37.872  32.304  31.662  1.00  0.00     0.037 A 
ATOM     50  C   UNL A   1      42.470  30.269  35.827  1.00  0.00     0.049 A 
ATOM     51  C   UNL A   1      38.286  32.750  33.037  1.00  0.00     0.074 A 
ATOM     52  C   UNL A   1      42.791  30.798  37.064  1.00  0.00     0.029 A 
ATOM     53  N   UNL A   1      41.413  31.021  35.333  1.00  0.00    -0.354 N 
ATOM     54  N   UNL A   1      39.245  32.282  33.800  1.00  0.00    -0.248 NA
ATOM     55  C   UNL A   1      37.532  33.863  33.632  1.00  0.00     0.031 C 
ATOM     56  C   UNL A   1      41.909  31.852  37.332  1.00  0.00     0.029 A 
ATOM     57  C   UNL A   1      41.061  32.001  36.246  1.00  0.00     0.049 A 
ATOM     58  H   UNL A   1      40.978  30.878  34.461  1.00  0.00     0.167 HD
ATOM     59  C   UNL A   1      39.223  33.055  34.955  1.00  0.00     0.074 A 
ATOM     60  C   UNL A   1      38.164  34.030  34.786  1.00  0.00     0.031 C 
ATOM     61  C   UNL A   1      40.008  32.966  36.057  1.00  0.00     0.037 A 
BRANCH  48  62
ATOM     62  C   UNL A   1      44.174  28.402  35.839  1.00  0.00     0.058 A 
ATOM     63  C   UNL A   1      45.525  28.753  35.682  1.00  0.00     0.135 A 
ATOM     64  C   UNL A   1      43.871  27.327  36.689  1.00  0.00     0.135 A 
ATOM     65  F   UNL A   1      45.871  29.764  34.868  1.00  0.00    -0.206 F 
ATOM     66  C   UNL A   1      46.538  28.047  36.320  1.00  0.00     0.059 A 
ATOM     67  C   UNL A   1      44.868  26.621  37.356  1.00  0.00     0.059 A 
ATOM     68  F   UNL A   1      42.596  26.950  36.872  1.00  0.00    -0.206 F 
ATOM     69  C   UNL A   1      46.200  26.978  37.152  1.00  0.00     0.060 A 
BRANCH  69  70
ATOM     70  S   UNL A   1      47.526  26.068  37.971  1.00  0.00     0.124 S 
ATOM     71  O   UNL A   1      47.508  24.807  37.235  1.00  0.00    -0.237 OA
ATOM     72  O   UNL A   1      48.687  26.921  37.734  1.00  0.00    -0.237 OA
ATOM     73  O   UNL A   1      47.080  25.993  39.358  1.00  0.00    -0.744 OA
ENDBRANCH  69  70
ENDBRANCH  48  62
BRANCH  49  74
ATOM     74  C   UNL A   1      36.742  32.963  30.956  1.00  0.00     0.058 A 
ATOM     75  C   UNL A   1      35.416  32.728  31.349  1.00  0.00     0.135 A 
ATOM     76  C   UNL A   1      36.962  33.849  29.890  1.00  0.00     0.135 A 
ATOM     77  F   UNL A   1      35.156  31.885  32.360  1.00  0.00    -0.206 F 
ATOM     78  C   UNL A   1      34.346  33.338  30.703  1.00  0.00     0.059 A 
ATOM     79  C   UNL A   1      35.909  34.487  29.242  1.00  0.00     0.059 A 
ATOM     80  F   UNL A   1      38.214  34.119  29.489  1.00  0.00    -0.206 F 
ATOM     81  C   UNL A   1      34.604  34.217  29.649  1.00  0.00     0.060 A 
BRANCH  81  82
ATOM     82  S   UNL A   1      33.211  35.044  28.850  1.00  0.00     0.124 S 
ATOM     83  O   UNL A   1      33.876  36.155  28.178  1.00  0.00    -0.237 OA
ATOM     84  O   UNL A   1      32.685  33.996  27.982  1.00  0.00    -0.237 OA
ATOM     85  O   UNL A   1      32.350  35.408  29.972  1.00  0.00    -0.744 OA
ENDBRANCH  81  82
ENDBRANCH  49  74
BRANCH  61  86
ATOM     86  C   UNL A   1      39.768  33.961  37.155  1.00  0.00     0.058 A 
ATOM     87  C   UNL A   1      38.993  33.642  38.280  1.00  0.00     0.135 A 
ATOM     88  C   UNL A   1      40.363  35.233  37.105  1.00  0.00     0.135 A 
ATOM     89  F   UNL A   1      38.397  32.443  38.371  1.00  0.00    -0.206 F 
ATOM     90  C   UNL A   1      38.800  34.556  39.311  1.00  0.00     0.059 A 
ATOM     91  C   UNL A   1      40.201  36.153  38.135  1.00  0.00     0.059 A 
ATOM     92  F   UNL A   1      41.122  35.583  36.054  1.00  0.00    -0.206 F 
ATOM     93  C   UNL A   1      39.409  35.810  39.228  1.00  0.00     0.060 A 
BRANCH  93  94
ATOM     94  S   UNL A   1      39.182  36.975  40.589  1.00  0.00     0.124 S 
ATOM     95  O   UNL A   1      38.521  36.138  41.584  1.00  0.00    -0.237 OA
ATOM     96  O   UNL A   1      40.553  37.368  40.900  1.00  0.00    -0.237 OA
ATOM     97  O   UNL A   1      38.356  38.025  40.000  1.00  0.00    -0.744 OA
ENDBRANCH  93  94
ENDBRANCH  61  86
ENDBRANCH  35  36
ENDBRANCH  27  30
ENDBRANCH  25  26
ENDBRANCH  24  25
ENDBRANCH   1  24
TORSDOF 18
ENDMDL
MODEL 2
REMARK VINA RESULT:     -11.8      0.523      8.222
REMARK SMILES C=CCc1cccc(-c2ccc([C@@H](C)C(=O)NCCCCNC(=O)c3ccc(-c4c5nc(c(-c6c(F)cc(S(=O)(=O)[O-])cc6F)c6ccc([nH]6)c(-c6c(F)cc(S(=O)(=O)[O-])cc6F)c6nc(c(-c7c(F)cc(S(=O)(=O)[O-])cc7F)c7ccc4[nH]7)C=C6)C=C5)cc3)cc2)c1
REMARK SMILES IDX 19 1 18 2 17 3 15 4 16 5 13 7 14 8 12 9 9 10 10 11 92 12
REMARK SMILES IDX 11 13 91 14 8 15 4 16 5 17 93 18 6 19 7 20 3 21 2 22 1 23
REMARK SMILES IDX 20 24 21 25 22 26 23 27 24 29 25 30 26 31 90 32 27 33 89 34
REMARK SMILES IDX 28 35 29 36 30 37 83 38 31 39 88 40 82 41 84 42 32 43 87 44
REMARK SMILES IDX 81 45 80 46 33 48 67 49 46 50 66 51 47 52 50 53 65 54 85 55
REMARK SMILES IDX 48 56 49 57 64 59 86 60 51 61 34 62 35 63 44 64 36 65 37 66
REMARK SMILES IDX 43 67 45 68 38 69 39 70 40 71 41 72 42 73 68 74 69 75 78 76
REMARK SMILES IDX 70 77 71 78 77 79 79 80 72 81 73 82 74 83 75 84 76 85 52 86
REMARK SMILES IDX 53 87 62 88 54 89 55 90 61 91 63 92 56 93 57 94 58 95 59 96
REMARK SMILES IDX 60 97
REMARK H PARENT 17 6 22 28 84 47 50 58
REMARK Flexibility Score: inf
ROOT
ATOM      1  C   UNL A   1      38.744  22.821  26.243  1.00  0.00     0.023 C 
ENDROOT
BRANCH   1   2
ATOM      2  C   UNL A   1      37.810  21.861  25.506  1.00  0.00     0.116 C 
BRANCH   2   3
ATOM      3  N   UNL A   1      37.481  22.326  24.175  1.00  0.00    -0.356 N 
ATOM      4  C   UNL A   1      36.296  22.699  23.619  1.00  0.00     0.227 C 
ATOM      5  O   UNL A   1      36.316  23.003  22.419  1.00  0.00    -0.274 OA
ATOM      6  H   UNL A   1      38.251  22.382  23.564  1.00  0.00     0.163 HD
BRANCH   4   7
ATOM      7  C   UNL A   1      34.972  22.766  24.399  1.00  0.00     0.105 C 
ATOM      8  C   UNL A   1      33.970  21.674  24.024  1.00  0.00     0.023 C 
BRANCH   7   9
ATOM      9  C   UNL A   1      34.421  24.178  24.522  1.00  0.00    -0.036 A 
ATOM     10  C   UNL A   1      33.145  26.727  24.764  1.00  0.00    -0.018 A 
ATOM     11  C   UNL A   1      34.019  26.242  25.750  1.00  0.00     0.009 A 
ATOM     12  C   UNL A   1      32.969  25.925  23.626  1.00  0.00     0.009 A 
ATOM     13  C   UNL A   1      34.669  25.007  25.618  1.00  0.00     0.005 A 
ATOM     14  C   UNL A   1      33.577  24.667  23.515  1.00  0.00     0.005 A 
BRANCH  10  15
ATOM     15  C   UNL A   1      32.427  28.014  24.927  1.00  0.00    -0.018 A 
ATOM     16  C   UNL A   1      30.681  29.596  24.205  1.00  0.00    -0.044 A 
ATOM     17  C   UNL A   1      31.039  30.460  25.245  1.00  0.00     0.004 A 
ATOM     18  C   UNL A   1      31.372  28.379  24.065  1.00  0.00     0.012 A 
ATOM     19  C   UNL A   1      32.067  30.119  26.119  1.00  0.00     0.001 A 
ATOM     20  C   UNL A   1      32.757  28.915  25.955  1.00  0.00     0.009 A 
BRANCH  16  21
ATOM     21  C   UNL A   1      29.587  29.974  23.232  1.00  0.00     0.062 C 
BRANCH  21  22
ATOM     22  C   UNL A   1      28.696  28.820  22.870  1.00  0.00    -0.030 C 
ATOM     23  C   UNL A   1      27.379  28.777  23.115  1.00  0.00     0.004 C 
ENDBRANCH  21  22
ENDBRANCH  16  21
ENDBRANCH  10  15
ENDBRANCH   7   9
ENDBRANCH   4   7
ENDBRANCH   2   3
ENDBRANCH   1   2
BRANCH   1  24
ATOM     24  C   UNL A   1      39.967  22.169  26.885  1.00  0.00     0.023 C 
BRANCH  24  25
ATOM     25  C   UNL A   1      41.167  23.086  27.097  1.00  0.00     0.116 C 
BRANCH  25  26
ATOM     26  N   UNL A   1      41.394  24.031  26.013  1.00  0.00    -0.352 N 
ATOM     27  C   UNL A   1      41.506  25.403  26.086  1.00  0.00     0.251 C 
ATOM     28  H   UNL A   1      41.478  23.640  25.113  1.00  0.00     0.163 HD
ATOM     29  O   UNL A   1      41.627  26.069  25.068  1.00  0.00    -0.269 OA
BRANCH  27  30
ATOM     30  C   UNL A   1      41.424  26.059  27.410  1.00  0.00     0.039 A 
ATOM     31  C   UNL A   1      42.493  26.850  27.836  1.00  0.00     0.014 A 
ATOM     32  C   UNL A   1      40.270  25.949  28.189  1.00  0.00     0.014 A 
ATOM     33  C   UNL A   1      42.367  27.607  29.003  1.00  0.00     0.010 A 
ATOM     34  C   UNL A   1      40.119  26.755  29.312  1.00  0.00     0.010 A 
ATOM     35  C   UNL A   1      41.160  27.602  29.723  1.00  0.00    -0.014 A 
BRANCH  35  36
ATOM     36  C   UNL A   1      40.953  28.498  30.890  1.00  0.00     0.031 A 
ATOM     37  C   UNL A   1      39.887  29.556  30.850  1.00  0.00     0.074 A 
ATOM     38  C   UNL A   1      41.784  28.411  31.948  1.00  0.00     0.049 A 
ATOM     39  N   UNL A   1      39.613  30.484  31.729  1.00  0.00    -0.248 NA
ATOM     40  C   UNL A   1      39.036  29.595  29.650  1.00  0.00     0.031 C 
ATOM     41  C   UNL A   1      42.898  27.467  32.076  1.00  0.00     0.029 A 
ATOM     42  N   UNL A   1      41.831  29.137  33.112  1.00  0.00    -0.354 N 
ATOM     43  C   UNL A   1      38.575  31.229  31.183  1.00  0.00     0.074 A 
ATOM     44  C   UNL A   1      38.299  30.673  29.876  1.00  0.00     0.031 C 
ATOM     45  C   UNL A   1      43.504  27.658  33.259  1.00  0.00     0.029 A 
ATOM     46  C   UNL A   1      42.846  28.757  33.959  1.00  0.00     0.049 A 
ATOM     47  H   UNL A   1      41.199  29.861  33.320  1.00  0.00     0.167 HD
ATOM     48  C   UNL A   1      37.897  32.266  31.730  1.00  0.00     0.037 A 
ATOM     49  C   UNL A   1      43.207  29.242  35.163  1.00  0.00     0.037 A 
ATOM     50  C   UNL A   1      38.153  32.792  33.045  1.00  0.00     0.049 A 
ATOM     51  C   UNL A   1      42.423  30.377  35.761  1.00  0.00     0.074 A 
ATOM     52  C   UNL A   1      37.477  33.794  33.717  1.00  0.00     0.029 A 
ATOM     53  N   UNL A   1      39.163  32.355  33.890  1.00  0.00    -0.354 N 
ATOM     54  N   UNL A   1      41.401  31.027  35.258  1.00  0.00    -0.248 NA
ATOM     55  C   UNL A   1      42.837  30.842  37.093  1.00  0.00     0.031 C 
ATOM     56  C   UNL A   1      38.097  33.985  34.958  1.00  0.00     0.029 A 
ATOM     57  C   UNL A   1      39.138  33.077  35.072  1.00  0.00     0.049 A 
ATOM     58  H   UNL A   1      39.805  31.638  33.680  1.00  0.00     0.167 HD
ATOM     59  C   UNL A   1      41.035  31.962  36.218  1.00  0.00     0.074 A 
ATOM     60  C   UNL A   1      41.938  31.787  37.338  1.00  0.00     0.031 C 
ATOM     61  C   UNL A   1      40.042  32.884  36.177  1.00  0.00     0.037 A 
BRANCH  48  62
ATOM     62  C   UNL A   1      36.806  32.892  30.909  1.00  0.00     0.058 A 
ATOM     63  C   UNL A   1      35.460  32.534  31.085  1.00  0.00     0.135 A 
ATOM     64  C   UNL A   1      37.103  33.873  29.950  1.00  0.00     0.135 A 
ATOM     65  F   UNL A   1      35.122  31.589  31.977  1.00  0.00    -0.206 F 
ATOM     66  C   UNL A   1      34.449  33.105  30.319  1.00  0.00     0.059 A 
ATOM     67  C   UNL A   1      36.105  34.476  29.189  1.00  0.00     0.059 A 
ATOM     68  F   UNL A   1      38.374  34.250  29.741  1.00  0.00    -0.206 F 
ATOM     69  C   UNL A   1      34.783  34.073  29.370  1.00  0.00     0.060 A 
BRANCH  69  70
ATOM     70  S   UNL A   1      33.461  34.803  28.381  1.00  0.00     0.124 S 
ATOM     71  O   UNL A   1      32.865  33.616  27.774  1.00  0.00    -0.237 OA
ATOM     72  O   UNL A   1      32.647  35.475  29.389  1.00  0.00    -0.237 OA
ATOM     73  O   UNL A   1      34.173  35.687  27.464  1.00  0.00    -0.744 OA
ENDBRANCH  69  70
ENDBRANCH  48  62
BRANCH  49  74
ATOM     74  C   UNL A   1      44.351  28.637  35.894  1.00  0.00     0.058 A 
ATOM     75  C   UNL A   1      44.152  27.567  36.777  1.00  0.00     0.135 A 
ATOM     76  C   UNL A   1      45.663  29.102  35.714  1.00  0.00     0.135 A 
ATOM     77  F   UNL A   1      42.914  27.091  36.986  1.00  0.00    -0.206 F 
ATOM     78  C   UNL A   1      45.209  26.985  37.468  1.00  0.00     0.059 A 
ATOM     79  C   UNL A   1      46.740  28.523  36.378  1.00  0.00     0.059 A 
ATOM     80  F   UNL A   1      45.907  30.113  34.866  1.00  0.00    -0.206 F 
ATOM     81  C   UNL A   1      46.502  27.471  37.261  1.00  0.00     0.060 A 
BRANCH  81  82
ATOM     82  S   UNL A   1      47.876  26.676  38.122  1.00  0.00     0.124 S 
ATOM     83  O   UNL A   1      47.210  25.539  38.750  1.00  0.00    -0.237 OA
ATOM     84  O   UNL A   1      48.785  26.357  37.026  1.00  0.00    -0.237 OA
ATOM     85  O   UNL A   1      48.345  27.716  39.032  1.00  0.00    -0.744 OA
ENDBRANCH  81  82
ENDBRANCH  49  74
BRANCH  61  86
ATOM     86  C   UNL A   1      39.863  33.758  37.386  1.00  0.00     0.058 A 
ATOM     87  C   UNL A   1      40.568  34.961  37.532  1.00  0.00     0.135 A 
ATOM     88  C   UNL A   1      38.938  33.410  38.385  1.00  0.00     0.135 A 
ATOM     89  F   UNL A   1      41.468  35.334  36.608  1.00  0.00    -0.206 F 
ATOM     90  C   UNL A   1      40.376  35.784  38.637  1.00  0.00     0.059 A 
ATOM     91  C   UNL A   1      38.715  34.229  39.486  1.00  0.00     0.059 A 
ATOM     92  F   UNL A   1      38.233  32.272  38.286  1.00  0.00    -0.206 F 
ATOM     93  C   UNL A   1      39.447  35.409  39.609  1.00  0.00     0.060 A 
BRANCH  93  94
ATOM     94  S   UNL A   1      39.179  36.502  41.021  1.00  0.00     0.124 S 
ATOM     95  O   UNL A   1      38.237  35.725  41.819  1.00  0.00    -0.237 OA
ATOM     96  O   UNL A   1      40.522  36.635  41.576  1.00  0.00    -0.237 OA
ATOM     97  O   UNL A   1      38.638  37.714  40.412  1.00  0.00    -0.744 OA
ENDBRANCH  93  94
ENDBRANCH  61  86
ENDBRANCH  35  36
ENDBRANCH  27  30
ENDBRANCH  25  26
ENDBRANCH  24  25
ENDBRANCH   1  24
TORSDOF 18
ENDMDL
MODEL 3
REMARK VINA RESULT:     -11.6      6.438     12.296
REMARK SMILES C=CCc1cccc(-c2ccc([C@@H](C)C(=O)NCCCCNC(=O)c3ccc(-c4c5nc(c(-c6c(F)cc(S(=O)(=O)[O-])cc6F)c6ccc([nH]6)c(-c6c(F)cc(S(=O)(=O)[O-])cc6F)c6nc(c(-c7c(F)cc(S(=O)(=O)[O-])cc7F)c7ccc4[nH]7)C=C6)C=C5)cc3)cc2)c1
REMARK SMILES IDX 19 1 18 2 17 3 15 4 16 5 13 7 14 8 12 9 9 10 10 11 92 12
REMARK SMILES IDX 11 13 91 14 8 15 4 16 5 17 93 18 6 19 7 20 3 21 2 22 1 23
REMARK SMILES IDX 20 24 21 25 22 26 23 27 24 29 25 30 26 31 90 32 27 33 89 34
REMARK SMILES IDX 28 35 29 36 30 37 83 38 31 39 88 40 82 41 84 42 32 43 87 44
REMARK SMILES IDX 81 45 80 46 33 48 67 49 46 50 66 51 47 52 50 53 65 54 85 55
REMARK SMILES IDX 48 56 49 57 64 59 86 60 51 61 34 62 35 63 44 64 36 65 37 66
REMARK SMILES IDX 43 67 45 68 38 69 39 70 40 71 41 72 42 73 68 74 69 75 78 76
REMARK SMILES IDX 70 77 71 78 77 79 79 80 72 81 73 82 74 83 75 84 76 85 52 86
REMARK SMILES IDX 53 87 62 88 54 89 55 90 61 91 63 92 56 93 57 94 58 95 59 96
REMARK SMILES IDX 60 97
REMARK H PARENT 17 6 22 28 84 47 50 58
REMARK Flexibility Score: inf
ROOT
ATOM      1  C   UNL A   1      33.854  30.864  27.034  1.00  0.00     0.023 C 
ENDROOT
BRANCH   1   2
ATOM      2  C   UNL A   1      34.049  29.349  27.077  1.00  0.00     0.116 C 
BRANCH   2   3
ATOM      3  N   UNL A   1      32.875  28.656  27.565  1.00  0.00    -0.356 N 
ATOM      4  C   UNL A   1      31.956  27.882  26.926  1.00  0.00     0.227 C 
ATOM      5  O   UNL A   1      31.013  27.462  27.608  1.00  0.00    -0.274 OA
ATOM      6  H   UNL A   1      32.714  28.764  28.531  1.00  0.00     0.163 HD
BRANCH   4   7
ATOM      7  C   UNL A   1      32.041  27.511  25.436  1.00  0.00     0.105 C 
ATOM      8  C   UNL A   1      30.756  27.776  24.651  1.00  0.00     0.023 C 
BRANCH   7   9
ATOM      9  C   UNL A   1      32.723  26.175  25.191  1.00  0.00    -0.036 A 
ATOM     10  C   UNL A   1      34.063  23.656  24.986  1.00  0.00    -0.018 A 
ATOM     11  C   UNL A   1      32.693  23.788  24.714  1.00  0.00     0.009 A 
ATOM     12  C   UNL A   1      34.758  24.830  25.312  1.00  0.00     0.009 A 
ATOM     13  C   UNL A   1      32.041  25.027  24.783  1.00  0.00     0.005 A 
ATOM     14  C   UNL A   1      34.100  26.061  25.433  1.00  0.00     0.005 A 
BRANCH  10  15
ATOM     15  C   UNL A   1      34.739  22.336  24.953  1.00  0.00    -0.018 A 
ATOM     16  C   UNL A   1      34.632  19.882  24.762  1.00  0.00    -0.044 A 
ATOM     17  C   UNL A   1      36.024  19.816  24.868  1.00  0.00     0.004 A 
ATOM     18  C   UNL A   1      34.007  21.141  24.795  1.00  0.00     0.012 A 
ATOM     19  C   UNL A   1      36.774  20.980  25.009  1.00  0.00     0.001 A 
ATOM     20  C   UNL A   1      36.136  22.223  25.060  1.00  0.00     0.009 A 
BRANCH  16  21
ATOM     21  C   UNL A   1      33.808  18.619  24.641  1.00  0.00     0.062 C 
BRANCH  21  22
ATOM     22  C   UNL A   1      34.605  17.440  24.160  1.00  0.00    -0.030 C 
ATOM     23  C   UNL A   1      34.126  16.483  23.353  1.00  0.00     0.004 C 
ENDBRANCH  21  22
ENDBRANCH  16  21
ENDBRANCH  10  15
ENDBRANCH   7   9
ENDBRANCH   4   7
ENDBRANCH   2   3
ENDBRANCH   1   2
BRANCH   1  24
ATOM     24  C   UNL A   1      34.427  31.625  28.228  1.00  0.00     0.023 C 
BRANCH  24  25
ATOM     25  C   UNL A   1      35.538  30.913  28.992  1.00  0.00     0.116 C 
BRANCH  25  26
ATOM     26  N   UNL A   1      35.732  31.398  30.351  1.00  0.00    -0.352 N 
ATOM     27  C   UNL A   1      36.842  31.259  31.157  1.00  0.00     0.251 C 
ATOM     28  H   UNL A   1      34.974  31.888  30.744  1.00  0.00     0.163 HD
ATOM     29  O   UNL A   1      36.825  31.666  32.310  1.00  0.00    -0.269 OA
BRANCH  27  30
ATOM     30  C   UNL A   1      38.033  30.564  30.622  1.00  0.00     0.039 A 
ATOM     31  C   UNL A   1      38.327  30.681  29.262  1.00  0.00     0.014 A 
ATOM     32  C   UNL A   1      38.891  29.863  31.473  1.00  0.00     0.014 A 
ATOM     33  C   UNL A   1      39.531  30.172  28.771  1.00  0.00     0.010 A 
ATOM     34  C   UNL A   1      40.119  29.418  30.997  1.00  0.00     0.010 A 
ATOM     35  C   UNL A   1      40.458  29.580  29.645  1.00  0.00    -0.014 A 
BRANCH  35  36
ATOM     36  C   UNL A   1      41.799  29.151  29.173  1.00  0.00     0.031 A 
ATOM     37  C   UNL A   1      42.920  30.147  29.077  1.00  0.00     0.074 A 
ATOM     38  C   UNL A   1      41.979  27.883  28.751  1.00  0.00     0.049 A 
ATOM     39  N   UNL A   1      44.130  29.984  28.608  1.00  0.00    -0.248 NA
ATOM     40  C   UNL A   1      42.634  31.515  29.540  1.00  0.00     0.031 C 
ATOM     41  C   UNL A   1      40.951  26.840  28.735  1.00  0.00     0.029 A 
ATOM     42  N   UNL A   1      43.090  27.259  28.240  1.00  0.00    -0.354 N 
ATOM     43  C   UNL A   1      44.742  31.228  28.700  1.00  0.00     0.074 A 
ATOM     44  C   UNL A   1      43.756  32.147  29.227  1.00  0.00     0.031 C 
ATOM     45  C   UNL A   1      41.483  25.703  28.259  1.00  0.00     0.029 A 
ATOM     46  C   UNL A   1      42.878  25.941  27.905  1.00  0.00     0.049 A 
ATOM     47  H   UNL A   1      43.955  27.711  28.123  1.00  0.00     0.167 HD
ATOM     48  C   UNL A   1      46.018  31.569  28.398  1.00  0.00     0.037 A 
ATOM     49  C   UNL A   1      43.714  25.030  27.370  1.00  0.00     0.037 A 
ATOM     50  C   UNL A   1      47.005  30.643  27.908  1.00  0.00     0.049 A 
ATOM     51  C   UNL A   1      45.132  25.426  27.066  1.00  0.00     0.074 A 
ATOM     52  C   UNL A   1      48.341  30.875  27.636  1.00  0.00     0.029 A 
ATOM     53  N   UNL A   1      46.764  29.308  27.619  1.00  0.00    -0.354 N 
ATOM     54  N   UNL A   1      45.713  26.591  27.222  1.00  0.00    -0.248 NA
ATOM     55  C   UNL A   1      46.011  24.382  26.519  1.00  0.00     0.031 C 
ATOM     56  C   UNL A   1      48.902  29.686  27.154  1.00  0.00     0.029 A 
ATOM     57  C   UNL A   1      47.923  28.705  27.159  1.00  0.00     0.049 A 
ATOM     58  H   UNL A   1      45.895  28.855  27.724  1.00  0.00     0.167 HD
ATOM     59  C   UNL A   1      47.030  26.417  26.813  1.00  0.00     0.074 A 
ATOM     60  C   UNL A   1      47.164  25.030  26.414  1.00  0.00     0.031 C 
ATOM     61  C   UNL A   1      48.038  27.323  26.771  1.00  0.00     0.037 A 
BRANCH  48  62
ATOM     62  C   UNL A   1      46.418  33.003  28.599  1.00  0.00     0.058 A 
ATOM     63  C   UNL A   1      46.932  33.455  29.825  1.00  0.00     0.135 A 
ATOM     64  C   UNL A   1      46.309  33.932  27.552  1.00  0.00     0.135 A 
ATOM     65  F   UNL A   1      47.042  32.611  30.865  1.00  0.00    -0.206 F 
ATOM     66  C   UNL A   1      47.295  34.783  30.017  1.00  0.00     0.059 A 
ATOM     67  C   UNL A   1      46.689  35.261  27.714  1.00  0.00     0.059 A 
ATOM     68  F   UNL A   1      45.823  33.552  26.361  1.00  0.00    -0.206 F 
ATOM     69  C   UNL A   1      47.166  35.681  28.956  1.00  0.00     0.060 A 
BRANCH  69  70
ATOM     70  S   UNL A   1      47.637  37.403  29.219  1.00  0.00     0.124 S 
ATOM     71  O   UNL A   1      46.818  38.083  28.220  1.00  0.00    -0.237 OA
ATOM     72  O   UNL A   1      47.253  37.625  30.610  1.00  0.00    -0.237 OA
ATOM     73  O   UNL A   1      49.073  37.405  28.961  1.00  0.00    -0.744 OA
ENDBRANCH  69  70
ENDBRANCH  48  62
BRANCH  49  74
ATOM     74  C   UNL A   1      43.236  23.646  27.113  1.00  0.00     0.058 A 
ATOM     75  C   UNL A   1      42.941  23.220  25.810  1.00  0.00     0.135 A 
ATOM     76  C   UNL A   1      43.083  22.720  28.155  1.00  0.00     0.135 A 
ATOM     77  F   UNL A   1      43.068  24.073  24.780  1.00  0.00    -0.206 F 
ATOM     78  C   UNL A   1      42.496  21.929  25.548  1.00  0.00     0.059 A 
ATOM     79  C   UNL A   1      42.660  21.416  27.916  1.00  0.00     0.059 A 
ATOM     80  F   UNL A   1      43.370  23.075  29.417  1.00  0.00    -0.206 F 
ATOM     81  C   UNL A   1      42.360  21.032  26.610  1.00  0.00     0.060 A 
BRANCH  81  82
ATOM     82  S   UNL A   1      41.832  19.342  26.256  1.00  0.00     0.124 S 
ATOM     83  O   UNL A   1      42.215  18.652  27.483  1.00  0.00    -0.237 OA
ATOM     84  O   UNL A   1      40.399  19.505  26.035  1.00  0.00    -0.237 OA
ATOM     85  O   UNL A   1      42.605  18.994  25.067  1.00  0.00    -0.744 OA
ENDBRANCH  81  82
ENDBRANCH  49  74
BRANCH  61  86
ATOM     86  C   UNL A   1      49.379  26.839  26.300  1.00  0.00     0.058 A 
ATOM     87  C   UNL A   1      49.786  26.989  24.966  1.00  0.00     0.135 A 
ATOM     88  C   UNL A   1      50.287  26.264  27.205  1.00  0.00     0.135 A 
ATOM     89  F   UNL A   1      48.952  27.525  24.061  1.00  0.00    -0.206 F 
ATOM     90  C   UNL A   1      51.042  26.569  24.540  1.00  0.00     0.059 A 
ATOM     91  C   UNL A   1      51.555  25.858  26.804  1.00  0.00     0.059 A 
ATOM     92  F   UNL A   1      49.947  26.107  28.494  1.00  0.00    -0.206 F 
ATOM     93  C   UNL A   1      51.920  26.005  25.467  1.00  0.00     0.060 A 
BRANCH  93  94
ATOM     94  S   UNL A   1      53.560  25.497  24.911  1.00  0.00     0.124 S 
ATOM     95  O   UNL A   1      53.507  24.054  25.119  1.00  0.00    -0.237 OA
ATOM     96  O   UNL A   1      53.572  25.936  23.520  1.00  0.00    -0.237 OA
ATOM     97  O   UNL A   1      54.460  26.228  25.799  1.00  0.00    -0.744 OA
ENDBRANCH  93  94
ENDBRANCH  61  86
ENDBRANCH  35  36
ENDBRANCH  27  30
ENDBRANCH  25  26
ENDBRANCH  24  25
ENDBRANCH   1  24
TORSDOF 18
ENDMDL
