MODEL 1
REMARK VINA RESULT:     -14.7      0.000      0.000
REMARK SMILES Cc1ccc(-c2cc(Cl)cc3c2O[C@@H](C(F)(F)F)C(C(=O)NCCCCNC(=O)c2ccc(-c4c5nc(c(-c6c(F)cc(S(=O)(=O)[O-])cc6F)c6ccc([nH]6)c(-c6c(F)cc(S(=O)(=O)[O-])cc6F)c6nc(c(-c7c(F)cc(S(=O)(=O)[O-])cc7F)c7ccc4[nH]7)C=C6)C=C5)cc2)=C3)cc1
REMARK SMILES IDX 25 1 24 2 23 3 22 4 20 5 21 6 19 8 6 9 7 10 12 11 8 12 11 13
REMARK SMILES IDX 13 14 9 15 10 16 96 17 14 18 5 19 1 20 2 21 3 22 98 23 4 24
REMARK SMILES IDX 97 25 15 26 16 27 17 28 18 29 26 30 27 31 28 32 29 34 30 35
REMARK SMILES IDX 31 36 95 37 32 38 94 39 33 40 34 41 35 42 88 43 36 44 93 45
REMARK SMILES IDX 87 46 89 47 37 48 92 49 86 50 85 51 38 53 72 54 51 55 71 56
REMARK SMILES IDX 52 57 55 58 70 59 90 60 53 61 54 62 69 64 91 65 56 66 39 67
REMARK SMILES IDX 40 68 49 69 41 70 42 71 48 72 50 73 43 74 44 75 45 76 46 77
REMARK SMILES IDX 47 78 73 79 74 80 83 81 75 82 76 83 82 84 84 85 77 86 78 87
REMARK SMILES IDX 79 88 80 89 81 90 57 91 58 92 67 93 59 94 60 95 66 96 68 97
REMARK SMILES IDX 61 98 62 99 63 100 64 101 65 102
REMARK H PARENT 22 7 27 33 89 52 55 63
REMARK Flexibility Score: inf
ROOT
ATOM      1  C   UNL A   1      33.828  29.397  26.237  1.00  0.00     0.023 C 
ENDROOT
BRANCH   1   2
ATOM      2  C   UNL A   1      33.639  27.890  26.038  1.00  0.00     0.023 C 
BRANCH   2   3
ATOM      3  C   UNL A   1      33.402  27.375  24.607  1.00  0.00     0.116 C 
BRANCH   3   4
ATOM      4  N   UNL A   1      34.045  26.111  24.271  1.00  0.00    -0.352 N 
ATOM      5  C   UNL A   1      33.655  25.043  23.509  1.00  0.00     0.251 C 
ATOM      6  O   UNL A   1      34.556  24.420  22.936  1.00  0.00    -0.270 OA
ATOM      7  H   UNL A   1      34.937  26.003  24.674  1.00  0.00     0.163 HD
BRANCH   5   8
ATOM      8  C   UNL A   1      32.220  24.505  23.445  1.00  0.00     0.067 C 
ATOM      9  C   UNL A   1      33.843  21.454  25.448  1.00  0.00     0.026 A 
ATOM     10  C   UNL A   1      33.466  20.121  25.192  1.00  0.00     0.033 A 
ATOM     11  C   UNL A   1      33.018  22.415  24.867  1.00  0.00     0.135 A 
ATOM     12  C   UNL A   1      32.612  19.824  24.122  1.00  0.00     0.042 A 
ATOM     13  C   UNL A   1      32.456  22.158  23.593  1.00  0.00     0.019 A 
ATOM     14  O   UNL A   1      32.606  23.558  25.592  1.00  0.00    -0.475 OA
ATOM     15  Cl  UNL A   1      32.222  18.183  23.785  1.00  0.00    -0.084 Cl
ATOM     16  C   UNL A   1      32.191  20.835  23.254  1.00  0.00     0.032 A 
ATOM     17  C   UNL A   1      32.126  23.350  22.729  1.00  0.00     0.025 C 
ATOM     18  C   UNL A   1      31.585  24.249  24.799  1.00  0.00     0.314 C 
BRANCH   9  19
ATOM     19  C   UNL A   1      35.325  21.664  25.403  1.00  0.00    -0.015 A 
ATOM     20  C   UNL A   1      39.656  21.730  25.743  1.00  0.00     0.044 C 
ATOM     21  C   UNL A   1      38.163  21.727  25.580  1.00  0.00    -0.051 A 
ATOM     22  C   UNL A   1      37.385  22.841  25.936  1.00  0.00     0.004 A 
ATOM     23  C   UNL A   1      37.523  20.603  25.068  1.00  0.00     0.004 A 
ATOM     24  C   UNL A   1      35.978  22.811  25.852  1.00  0.00     0.009 A 
ATOM     25  C   UNL A   1      36.132  20.580  24.975  1.00  0.00     0.009 A 
ENDBRANCH   9  19
BRANCH  18  26
ATOM     26  C   UNL A   1      30.683  25.364  25.346  1.00  0.00     0.429 C 
ATOM     27  F   UNL A   1      30.506  26.321  24.387  1.00  0.00    -0.167 F 
ATOM     28  F   UNL A   1      29.457  24.950  25.706  1.00  0.00    -0.167 F 
ATOM     29  F   UNL A   1      31.248  26.024  26.385  1.00  0.00    -0.167 F 
ENDBRANCH  18  26
ENDBRANCH   5   8
ENDBRANCH   3   4
ENDBRANCH   2   3
ENDBRANCH   1   2
BRANCH   1  30
ATOM     30  C   UNL A   1      34.346  29.833  27.600  1.00  0.00     0.116 C 
BRANCH  30  31
ATOM     31  N   UNL A   1      35.142  31.046  27.658  1.00  0.00    -0.352 N 
ATOM     32  C   UNL A   1      36.430  31.168  28.182  1.00  0.00     0.251 C 
ATOM     33  H   UNL A   1      34.733  31.862  27.290  1.00  0.00     0.163 HD
ATOM     34  O   UNL A   1      36.890  32.234  28.541  1.00  0.00    -0.269 OA
BRANCH  32  35
ATOM     35  C   UNL A   1      37.285  29.952  28.151  1.00  0.00     0.039 A 
ATOM     36  C   UNL A   1      37.356  29.182  29.320  1.00  0.00     0.014 A 
ATOM     37  C   UNL A   1      38.204  29.765  27.126  1.00  0.00     0.014 A 
ATOM     38  C   UNL A   1      38.472  28.376  29.543  1.00  0.00     0.010 A 
ATOM     39  C   UNL A   1      39.368  29.083  27.406  1.00  0.00     0.010 A 
ATOM     40  C   UNL A   1      39.521  28.414  28.628  1.00  0.00    -0.014 A 
BRANCH  40  41
ATOM     41  C   UNL A   1      40.838  27.834  28.857  1.00  0.00     0.031 A 
ATOM     42  C   UNL A   1      41.107  26.441  28.432  1.00  0.00     0.074 A 
ATOM     43  C   UNL A   1      41.846  28.611  29.315  1.00  0.00     0.049 A 
ATOM     44  N   UNL A   1      42.076  25.714  28.874  1.00  0.00    -0.248 NA
ATOM     45  C   UNL A   1      40.264  25.740  27.470  1.00  0.00     0.031 C 
ATOM     46  C   UNL A   1      43.275  28.313  29.283  1.00  0.00     0.029 A 
ATOM     47  N   UNL A   1      41.752  29.774  30.083  1.00  0.00    -0.354 N 
ATOM     48  C   UNL A   1      42.159  24.590  28.079  1.00  0.00     0.074 A 
ATOM     49  C   UNL A   1      40.977  24.634  27.251  1.00  0.00     0.031 C 
ATOM     50  C   UNL A   1      43.901  29.084  30.185  1.00  0.00     0.029 A 
ATOM     51  C   UNL A   1      42.878  29.795  30.931  1.00  0.00     0.049 A 
ATOM     52  H   UNL A   1      41.037  30.450  30.041  1.00  0.00     0.167 HD
ATOM     53  C   UNL A   1      43.286  23.820  28.122  1.00  0.00     0.037 A 
ATOM     54  C   UNL A   1      42.730  29.734  32.288  1.00  0.00     0.037 A 
ATOM     55  C   UNL A   1      44.215  24.324  29.134  1.00  0.00     0.049 A 
ATOM     56  C   UNL A   1      43.324  28.491  32.911  1.00  0.00     0.074 A 
ATOM     57  C   UNL A   1      45.329  25.146  29.051  1.00  0.00     0.029 A 
ATOM     58  N   UNL A   1      43.870  24.266  30.481  1.00  0.00    -0.354 N 
ATOM     59  N   UNL A   1      43.655  27.420  32.242  1.00  0.00    -0.248 NA
ATOM     60  C   UNL A   1      43.598  28.356  34.339  1.00  0.00     0.031 C 
ATOM     61  C   UNL A   1      45.609  25.639  30.350  1.00  0.00     0.029 A 
ATOM     62  C   UNL A   1      44.683  25.100  31.227  1.00  0.00     0.049 A 
ATOM     63  H   UNL A   1      43.148  23.709  30.851  1.00  0.00     0.167 HD
ATOM     64  C   UNL A   1      44.138  26.464  33.101  1.00  0.00     0.074 A 
ATOM     65  C   UNL A   1      44.111  27.114  34.399  1.00  0.00     0.031 C 
ATOM     66  C   UNL A   1      44.515  25.222  32.669  1.00  0.00     0.037 A 
BRANCH  53  67
ATOM     67  C   UNL A   1      43.666  22.811  27.052  1.00  0.00     0.058 A 
ATOM     68  C   UNL A   1      43.013  21.559  26.974  1.00  0.00     0.135 A 
ATOM     69  C   UNL A   1      44.697  22.985  26.110  1.00  0.00     0.135 A 
ATOM     70  F   UNL A   1      41.940  21.278  27.725  1.00  0.00    -0.206 F 
ATOM     71  C   UNL A   1      43.430  20.530  26.126  1.00  0.00     0.059 A 
ATOM     72  C   UNL A   1      45.175  21.952  25.292  1.00  0.00     0.059 A 
ATOM     73  F   UNL A   1      45.252  24.186  25.898  1.00  0.00    -0.206 F 
ATOM     74  C   UNL A   1      44.540  20.720  25.315  1.00  0.00     0.060 A 
BRANCH  74  75
ATOM     75  S   UNL A   1      45.118  19.353  24.291  1.00  0.00     0.124 S 
ATOM     76  O   UNL A   1      46.565  19.422  24.470  1.00  0.00    -0.237 OA
ATOM     77  O   UNL A   1      44.455  18.210  24.908  1.00  0.00    -0.237 OA
ATOM     78  O   UNL A   1      44.642  19.705  22.955  1.00  0.00    -0.744 OA
ENDBRANCH  74  75
ENDBRANCH  53  67
BRANCH  54  79
ATOM     79  C   UNL A   1      41.532  30.478  32.770  1.00  0.00     0.058 A 
ATOM     80  C   UNL A   1      40.359  29.728  32.991  1.00  0.00     0.135 A 
ATOM     81  C   UNL A   1      41.656  31.698  33.446  1.00  0.00     0.135 A 
ATOM     82  F   UNL A   1      40.176  28.565  32.345  1.00  0.00    -0.206 F 
ATOM     83  C   UNL A   1      39.445  30.075  33.980  1.00  0.00     0.059 A 
ATOM     84  C   UNL A   1      40.744  32.070  34.438  1.00  0.00     0.059 A 
ATOM     85  F   UNL A   1      42.746  32.460  33.270  1.00  0.00    -0.206 F 
ATOM     86  C   UNL A   1      39.692  31.207  34.751  1.00  0.00     0.060 A 
BRANCH  86  87
ATOM     87  S   UNL A   1      38.728  31.426  36.267  1.00  0.00     0.124 S 
ATOM     88  O   UNL A   1      37.584  32.197  35.794  1.00  0.00    -0.237 OA
ATOM     89  O   UNL A   1      38.443  30.038  36.638  1.00  0.00    -0.237 OA
ATOM     90  O   UNL A   1      39.648  32.138  37.147  1.00  0.00    -0.744 OA
ENDBRANCH  86  87
ENDBRANCH  54  79
BRANCH  66  91
ATOM     91  C   UNL A   1      44.862  24.031  33.542  1.00  0.00     0.058 A 
ATOM     92  C   UNL A   1      43.968  22.998  33.867  1.00  0.00     0.135 A 
ATOM     93  C   UNL A   1      46.197  23.832  33.981  1.00  0.00     0.135 A 
ATOM     94  F   UNL A   1      42.707  22.994  33.413  1.00  0.00    -0.206 F 
ATOM     95  C   UNL A   1      44.344  21.891  34.634  1.00  0.00     0.059 A 
ATOM     96  C   UNL A   1      46.607  22.707  34.693  1.00  0.00     0.059 A 
ATOM     97  F   UNL A   1      47.164  24.723  33.720  1.00  0.00    -0.206 F 
ATOM     98  C   UNL A   1      45.665  21.753  35.043  1.00  0.00     0.060 A 
BRANCH  98  99
ATOM     99  S   UNL A   1      46.172  20.298  35.978  1.00  0.00     0.124 S 
ATOM    100  O   UNL A   1      45.409  19.246  35.315  1.00  0.00    -0.237 OA
ATOM    101  O   UNL A   1      47.616  20.260  35.761  1.00  0.00    -0.237 OA
ATOM    102  O   UNL A   1      45.761  20.618  37.341  1.00  0.00    -0.744 OA
ENDBRANCH  98  99
ENDBRANCH  66  91
ENDBRANCH  40  41
ENDBRANCH  32  35
ENDBRANCH  30  31
ENDBRANCH   1  30
TORSDOF 16
ENDMDL
MODEL 2
REMARK VINA RESULT:     -14.5      4.991     11.316
REMARK SMILES Cc1ccc(-c2cc(Cl)cc3c2O[C@@H](C(F)(F)F)C(C(=O)NCCCCNC(=O)c2ccc(-c4c5nc(c(-c6c(F)cc(S(=O)(=O)[O-])cc6F)c6ccc([nH]6)c(-c6c(F)cc(S(=O)(=O)[O-])cc6F)c6nc(c(-c7c(F)cc(S(=O)(=O)[O-])cc7F)c7ccc4[nH]7)C=C6)C=C5)cc2)=C3)cc1
REMARK SMILES IDX 25 1 24 2 23 3 22 4 20 5 21 6 19 8 6 9 7 10 12 11 8 12 11 13
REMARK SMILES IDX 13 14 9 15 10 16 96 17 14 18 5 19 1 20 2 21 3 22 98 23 4 24
REMARK SMILES IDX 97 25 15 26 16 27 17 28 18 29 26 30 27 31 28 32 29 34 30 35
REMARK SMILES IDX 31 36 95 37 32 38 94 39 33 40 34 41 35 42 88 43 36 44 93 45
REMARK SMILES IDX 87 46 89 47 37 48 92 49 86 50 85 51 38 53 72 54 51 55 71 56
REMARK SMILES IDX 52 57 55 58 70 59 90 60 53 61 54 62 69 64 91 65 56 66 39 67
REMARK SMILES IDX 40 68 49 69 41 70 42 71 48 72 50 73 43 74 44 75 45 76 46 77
REMARK SMILES IDX 47 78 73 79 74 80 83 81 75 82 76 83 82 84 84 85 77 86 78 87
REMARK SMILES IDX 79 88 80 89 81 90 57 91 58 92 67 93 59 94 60 95 66 96 68 97
REMARK SMILES IDX 61 98 62 99 63 100 64 101 65 102
REMARK H PARENT 22 7 27 33 89 52 55 63
REMARK Flexibility Score: inf
ROOT
ATOM      1  C   UNL A   1      36.862  23.048  26.172  1.00  0.00     0.023 C 
ENDROOT
BRANCH   1   2
ATOM      2  C   UNL A   1      35.752  23.987  25.690  1.00  0.00     0.023 C 
BRANCH   2   3
ATOM      3  C   UNL A   1      34.297  23.622  26.038  1.00  0.00     0.116 C 
BRANCH   3   4
ATOM      4  N   UNL A   1      33.411  24.743  26.323  1.00  0.00    -0.352 N 
ATOM      5  C   UNL A   1      32.082  24.964  26.081  1.00  0.00     0.251 C 
ATOM      6  O   UNL A   1      31.486  25.676  26.897  1.00  0.00    -0.270 OA
ATOM      7  H   UNL A   1      33.857  25.492  26.781  1.00  0.00     0.163 HD
BRANCH   5   8
ATOM      8  C   UNL A   1      31.349  24.510  24.812  1.00  0.00     0.067 C 
ATOM      9  C   UNL A   1      31.826  28.346  23.807  1.00  0.00     0.026 A 
ATOM     10  C   UNL A   1      30.820  29.061  23.128  1.00  0.00     0.033 A 
ATOM     11  C   UNL A   1      31.629  26.968  23.859  1.00  0.00     0.135 A 
ATOM     12  C   UNL A   1      29.564  28.478  22.917  1.00  0.00     0.042 A 
ATOM     13  C   UNL A   1      30.310  26.468  23.991  1.00  0.00     0.019 A 
ATOM     14  O   UNL A   1      32.693  26.068  23.620  1.00  0.00    -0.475 OA
ATOM     15  Cl  UNL A   1      28.327  29.396  22.150  1.00  0.00    -0.084 Cl
ATOM     16  C   UNL A   1      29.273  27.217  23.445  1.00  0.00     0.032 A 
ATOM     17  C   UNL A   1      30.143  25.125  24.657  1.00  0.00     0.025 C 
ATOM     18  C   UNL A   1      32.129  24.718  23.528  1.00  0.00     0.314 C 
BRANCH   9  19
ATOM     19  C   UNL A   1      32.314  29.044  25.038  1.00  0.00    -0.015 A 
ATOM     20  C   UNL A   1      33.752  31.659  28.197  1.00  0.00     0.044 C 
ATOM     21  C   UNL A   1      33.234  30.726  27.140  1.00  0.00    -0.051 A 
ATOM     22  C   UNL A   1      33.980  29.613  26.716  1.00  0.00     0.004 A 
ATOM     23  C   UNL A   1      31.993  30.958  26.557  1.00  0.00     0.004 A 
ATOM     24  C   UNL A   1      33.527  28.780  25.673  1.00  0.00     0.009 A 
ATOM     25  C   UNL A   1      31.542  30.125  25.533  1.00  0.00     0.009 A 
ENDBRANCH   9  19
BRANCH  18  26
ATOM     26  C   UNL A   1      32.899  23.500  22.998  1.00  0.00     0.429 C 
ATOM     27  F   UNL A   1      32.382  23.122  21.791  1.00  0.00    -0.167 F 
ATOM     28  F   UNL A   1      34.209  23.722  22.802  1.00  0.00    -0.167 F 
ATOM     29  F   UNL A   1      32.750  22.411  23.789  1.00  0.00    -0.167 F 
ENDBRANCH  18  26
ENDBRANCH   5   8
ENDBRANCH   3   4
ENDBRANCH   2   3
ENDBRANCH   1   2
BRANCH   1  30
ATOM     30  C   UNL A   1      38.283  23.446  25.799  1.00  0.00     0.116 C 
BRANCH  30  31
ATOM     31  N   UNL A   1      39.345  23.072  26.716  1.00  0.00    -0.352 N 
ATOM     32  C   UNL A   1      40.235  23.940  27.352  1.00  0.00     0.251 C 
ATOM     33  H   UNL A   1      39.448  22.113  26.908  1.00  0.00     0.163 HD
ATOM     34  O   UNL A   1      41.304  23.570  27.794  1.00  0.00    -0.269 OA
BRANCH  32  35
ATOM     35  C   UNL A   1      39.757  25.325  27.602  1.00  0.00     0.039 A 
ATOM     36  C   UNL A   1      40.289  26.347  26.804  1.00  0.00     0.014 A 
ATOM     37  C   UNL A   1      39.059  25.629  28.766  1.00  0.00     0.014 A 
ATOM     38  C   UNL A   1      40.303  27.656  27.285  1.00  0.00     0.010 A 
ATOM     39  C   UNL A   1      39.199  26.891  29.302  1.00  0.00     0.010 A 
ATOM     40  C   UNL A   1      39.849  27.900  28.579  1.00  0.00    -0.014 A 
BRANCH  40  41
ATOM     41  C   UNL A   1      40.040  29.153  29.298  1.00  0.00     0.031 A 
ATOM     42  C   UNL A   1      38.980  30.186  29.262  1.00  0.00     0.074 A 
ATOM     43  C   UNL A   1      41.109  29.307  30.112  1.00  0.00     0.049 A 
ATOM     44  N   UNL A   1      39.158  31.431  29.547  1.00  0.00    -0.248 NA
ATOM     45  C   UNL A   1      37.609  29.886  28.865  1.00  0.00     0.031 C 
ATOM     46  C   UNL A   1      41.291  30.318  31.149  1.00  0.00     0.029 A 
ATOM     47  N   UNL A   1      42.349  28.668  30.030  1.00  0.00    -0.354 N 
ATOM     48  C   UNL A   1      37.917  32.025  29.648  1.00  0.00     0.074 A 
ATOM     49  C   UNL A   1      36.989  31.029  29.166  1.00  0.00     0.031 C 
ATOM     50  C   UNL A   1      42.599  30.423  31.431  1.00  0.00     0.029 A 
ATOM     51  C   UNL A   1      43.315  29.592  30.480  1.00  0.00     0.049 A 
ATOM     52  H   UNL A   1      42.517  27.749  29.719  1.00  0.00     0.167 HD
ATOM     53  C   UNL A   1      37.805  33.246  30.250  1.00  0.00     0.037 A 
ATOM     54  C   UNL A   1      44.288  30.048  29.635  1.00  0.00     0.037 A 
ATOM     55  C   UNL A   1      39.124  33.759  30.623  1.00  0.00     0.049 A 
ATOM     56  C   UNL A   1      44.210  31.532  29.360  1.00  0.00     0.074 A 
ATOM     57  C   UNL A   1      39.829  33.741  31.816  1.00  0.00     0.029 A 
ATOM     58  N   UNL A   1      40.039  34.098  29.631  1.00  0.00    -0.354 N 
ATOM     59  N   UNL A   1      43.163  32.271  29.607  1.00  0.00    -0.248 NA
ATOM     60  C   UNL A   1      45.308  32.305  28.786  1.00  0.00     0.031 C 
ATOM     61  C   UNL A   1      41.191  34.004  31.526  1.00  0.00     0.029 A 
ATOM     62  C   UNL A   1      41.312  34.205  30.161  1.00  0.00     0.049 A 
ATOM     63  H   UNL A   1      39.812  34.242  28.684  1.00  0.00     0.167 HD
ATOM     64  C   UNL A   1      43.403  33.566  29.217  1.00  0.00     0.074 A 
ATOM     65  C   UNL A   1      44.773  33.539  28.738  1.00  0.00     0.031 C 
ATOM     66  C   UNL A   1      42.452  34.544  29.320  1.00  0.00     0.037 A 
BRANCH  53  67
ATOM     67  C   UNL A   1      36.497  33.820  30.765  1.00  0.00     0.058 A 
ATOM     68  C   UNL A   1      35.534  34.343  29.872  1.00  0.00     0.135 A 
ATOM     69  C   UNL A   1      36.148  33.939  32.125  1.00  0.00     0.135 A 
ATOM     70  F   UNL A   1      35.662  34.211  28.545  1.00  0.00    -0.206 F 
ATOM     71  C   UNL A   1      34.395  35.035  30.292  1.00  0.00     0.059 A 
ATOM     72  C   UNL A   1      35.046  34.677  32.575  1.00  0.00     0.059 A 
ATOM     73  F   UNL A   1      36.831  33.292  33.078  1.00  0.00    -0.206 F 
ATOM     74  C   UNL A   1      34.178  35.234  31.648  1.00  0.00     0.060 A 
BRANCH  74  75
ATOM     75  S   UNL A   1      32.750  36.202  32.171  1.00  0.00     0.124 S 
ATOM     76  O   UNL A   1      33.288  36.969  33.290  1.00  0.00    -0.237 OA
ATOM     77  O   UNL A   1      32.443  36.966  30.967  1.00  0.00    -0.237 OA
ATOM     78  O   UNL A   1      31.765  35.186  32.534  1.00  0.00    -0.744 OA
ENDBRANCH  74  75
ENDBRANCH  53  67
BRANCH  54  79
ATOM     79  C   UNL A   1      44.772  28.998  28.695  1.00  0.00     0.058 A 
ATOM     80  C   UNL A   1      44.168  28.951  27.423  1.00  0.00     0.135 A 
ATOM     81  C   UNL A   1      46.049  28.436  28.826  1.00  0.00     0.135 A 
ATOM     82  F   UNL A   1      42.933  29.449  27.249  1.00  0.00    -0.206 F 
ATOM     83  C   UNL A   1      44.871  28.543  26.294  1.00  0.00     0.059 A 
ATOM     84  C   UNL A   1      46.769  28.012  27.706  1.00  0.00     0.059 A 
ATOM     85  F   UNL A   1      46.671  28.443  30.014  1.00  0.00    -0.206 F 
ATOM     86  C   UNL A   1      46.199  28.151  26.439  1.00  0.00     0.060 A 
BRANCH  86  87
ATOM     87  S   UNL A   1      47.207  28.006  24.943  1.00  0.00     0.124 S 
ATOM     88  O   UNL A   1      48.556  28.207  25.462  1.00  0.00    -0.237 OA
ATOM     89  O   UNL A   1      46.896  26.643  24.509  1.00  0.00    -0.237 OA
ATOM     90  O   UNL A   1      46.695  29.072  24.091  1.00  0.00    -0.744 OA
ENDBRANCH  86  87
ENDBRANCH  54  79
BRANCH  66  91
ATOM     91  C   UNL A   1      42.531  35.942  28.737  1.00  0.00     0.058 A 
ATOM     92  C   UNL A   1      41.923  36.336  27.534  1.00  0.00     0.135 A 
ATOM     93  C   UNL A   1      43.139  36.990  29.475  1.00  0.00     0.135 A 
ATOM     94  F   UNL A   1      41.207  35.476  26.796  1.00  0.00    -0.206 F 
ATOM     95  C   UNL A   1      41.978  37.650  27.057  1.00  0.00     0.059 A 
ATOM     96  C   UNL A   1      43.152  38.317  29.049  1.00  0.00     0.059 A 
ATOM     97  F   UNL A   1      43.736  36.767  30.655  1.00  0.00    -0.206 F 
ATOM     98  C   UNL A   1      42.595  38.634  27.821  1.00  0.00     0.060 A 
BRANCH  98  99
ATOM     99  S   UNL A   1      42.615  40.341  27.245  1.00  0.00     0.124 S 
ATOM    100  O   UNL A   1      41.191  40.661  27.233  1.00  0.00    -0.237 OA
ATOM    101  O   UNL A   1      43.404  41.020  28.269  1.00  0.00    -0.237 OA
ATOM    102  O   UNL A   1      43.253  40.244  25.936  1.00  0.00    -0.744 OA
ENDBRANCH  98  99
ENDBRANCH  66  91
ENDBRANCH  40  41
ENDBRANCH  32  35
ENDBRANCH  30  31
ENDBRANCH   1  30
TORSDOF 16
ENDMDL
MODEL 3
REMARK VINA RESULT:     -14.1      1.554      2.107
REMARK SMILES Cc1ccc(-c2cc(Cl)cc3c2O[C@@H](C(F)(F)F)C(C(=O)NCCCCNC(=O)c2ccc(-c4c5nc(c(-c6c(F)cc(S(=O)(=O)[O-])cc6F)c6ccc([nH]6)c(-c6c(F)cc(S(=O)(=O)[O-])cc6F)c6nc(c(-c7c(F)cc(S(=O)(=O)[O-])cc7F)c7ccc4[nH]7)C=C6)C=C5)cc2)=C3)cc1
REMARK SMILES IDX 25 1 24 2 23 3 22 4 20 5 21 6 19 8 6 9 7 10 12 11 8 12 11 13
REMARK SMILES IDX 13 14 9 15 10 16 96 17 14 18 5 19 1 20 2 21 3 22 98 23 4 24
REMARK SMILES IDX 97 25 15 26 16 27 17 28 18 29 26 30 27 31 28 32 29 34 30 35
REMARK SMILES IDX 31 36 95 37 32 38 94 39 33 40 34 41 35 42 88 43 36 44 93 45
REMARK SMILES IDX 87 46 89 47 37 48 92 49 86 50 85 51 38 53 72 54 51 55 71 56
REMARK SMILES IDX 52 57 55 58 70 59 90 60 53 61 54 62 69 64 91 65 56 66 39 67
REMARK SMILES IDX 40 68 49 69 41 70 42 71 48 72 50 73 43 74 44 75 45 76 46 77
REMARK SMILES IDX 47 78 73 79 74 80 83 81 75 82 76 83 82 84 84 85 77 86 78 87
REMARK SMILES IDX 79 88 80 89 81 90 57 91 58 92 67 93 59 94 60 95 66 96 68 97
REMARK SMILES IDX 61 98 62 99 63 100 64 101 65 102
REMARK H PARENT 22 7 27 33 89 52 55 63
REMARK Flexibility Score: inf
ROOT
ATOM      1  C   UNL A   1      32.838  29.439  26.127  1.00  0.00     0.023 C 
ENDROOT
BRANCH   1   2
ATOM      2  C   UNL A   1      33.796  28.404  25.530  1.00  0.00     0.023 C 
BRANCH   2   3
ATOM      3  C   UNL A   1      33.348  27.655  24.262  1.00  0.00     0.116 C 
BRANCH   3   4
ATOM      4  N   UNL A   1      33.989  26.367  24.025  1.00  0.00    -0.352 N 
ATOM      5  C   UNL A   1      33.578  25.227  23.389  1.00  0.00     0.251 C 
ATOM      6  O   UNL A   1      34.460  24.555  22.842  1.00  0.00    -0.270 OA
ATOM      7  H   UNL A   1      34.898  26.304  24.397  1.00  0.00     0.163 HD
BRANCH   5   8
ATOM      8  C   UNL A   1      32.147  24.678  23.440  1.00  0.00     0.067 C 
ATOM      9  C   UNL A   1      33.852  21.940  25.797  1.00  0.00     0.026 A 
ATOM     10  C   UNL A   1      33.481  20.582  25.738  1.00  0.00     0.033 A 
ATOM     11  C   UNL A   1      33.003  22.808  25.113  1.00  0.00     0.135 A 
ATOM     12  C   UNL A   1      32.601  20.137  24.743  1.00  0.00     0.042 A 
ATOM     13  C   UNL A   1      32.408  22.374  23.903  1.00  0.00     0.019 A 
ATOM     14  O   UNL A   1      32.600  24.037  25.685  1.00  0.00    -0.475 OA
ATOM     15  Cl  UNL A   1      32.218  18.462  24.646  1.00  0.00    -0.084 Cl
ATOM     16  C   UNL A   1      32.147  21.016  23.756  1.00  0.00     0.032 A 
ATOM     17  C   UNL A   1      32.044  23.434  22.893  1.00  0.00     0.025 C 
ATOM     18  C   UNL A   1      31.551  24.607  24.834  1.00  0.00     0.314 C 
BRANCH   9  19
ATOM     19  C   UNL A   1      35.330  22.150  25.682  1.00  0.00    -0.015 A 
ATOM     20  C   UNL A   1      39.671  22.248  25.851  1.00  0.00     0.044 C 
ATOM     21  C   UNL A   1      38.173  22.231  25.746  1.00  0.00    -0.051 A 
ATOM     22  C   UNL A   1      37.403  23.364  26.058  1.00  0.00     0.004 A 
ATOM     23  C   UNL A   1      37.519  21.075  25.332  1.00  0.00     0.004 A 
ATOM     24  C   UNL A   1      35.994  23.326  26.030  1.00  0.00     0.009 A 
ATOM     25  C   UNL A   1      36.126  21.043  25.294  1.00  0.00     0.009 A 
ENDBRANCH   9  19
BRANCH  18  26
ATOM     26  C   UNL A   1      30.653  25.781  25.247  1.00  0.00     0.429 C 
ATOM     27  F   UNL A   1      29.413  25.315  25.577  1.00  0.00    -0.167 F 
ATOM     28  F   UNL A   1      31.102  26.466  26.312  1.00  0.00    -0.167 F 
ATOM     29  F   UNL A   1      30.433  26.647  24.229  1.00  0.00    -0.167 F 
ENDBRANCH  18  26
ENDBRANCH   5   8
ENDBRANCH   3   4
ENDBRANCH   2   3
ENDBRANCH   1   2
BRANCH   1  30
ATOM     30  C   UNL A   1      33.123  29.866  27.560  1.00  0.00     0.116 C 
BRANCH  30  31
ATOM     31  N   UNL A   1      33.761  31.154  27.762  1.00  0.00    -0.352 N 
ATOM     32  C   UNL A   1      34.936  31.394  28.478  1.00  0.00     0.251 C 
ATOM     33  H   UNL A   1      33.324  31.935  27.353  1.00  0.00     0.163 HD
ATOM     34  O   UNL A   1      35.216  32.489  28.924  1.00  0.00    -0.269 OA
BRANCH  32  35
ATOM     35  C   UNL A   1      35.915  30.278  28.554  1.00  0.00     0.039 A 
ATOM     36  C   UNL A   1      36.176  29.731  29.817  1.00  0.00     0.014 A 
ATOM     37  C   UNL A   1      36.755  30.006  27.480  1.00  0.00     0.014 A 
ATOM     38  C   UNL A   1      37.391  29.086  30.048  1.00  0.00     0.010 A 
ATOM     39  C   UNL A   1      38.008  29.497  27.742  1.00  0.00     0.010 A 
ATOM     40  C   UNL A   1      38.343  29.066  29.032  1.00  0.00    -0.014 A 
BRANCH  40  41
ATOM     41  C   UNL A   1      39.732  28.662  29.210  1.00  0.00     0.031 A 
ATOM     42  C   UNL A   1      40.162  27.311  28.782  1.00  0.00     0.074 A 
ATOM     43  C   UNL A   1      40.648  29.566  29.624  1.00  0.00     0.049 A 
ATOM     44  N   UNL A   1      41.233  26.719  29.187  1.00  0.00    -0.248 NA
ATOM     45  C   UNL A   1      39.379  26.498  27.858  1.00  0.00     0.031 C 
ATOM     46  C   UNL A   1      42.101  29.454  29.536  1.00  0.00     0.029 A 
ATOM     47  N   UNL A   1      40.436  30.715  30.390  1.00  0.00    -0.354 N 
ATOM     48  C   UNL A   1      41.429  25.607  28.395  1.00  0.00     0.074 A 
ATOM     49  C   UNL A   1      40.219  25.490  27.615  1.00  0.00     0.031 C 
ATOM     50  C   UNL A   1      42.658  30.308  30.408  1.00  0.00     0.029 A 
ATOM     51  C   UNL A   1      41.583  30.889  31.191  1.00  0.00     0.049 A 
ATOM     52  H   UNL A   1      39.639  31.293  30.373  1.00  0.00     0.167 HD
ATOM     53  C   UNL A   1      42.646  24.989  28.397  1.00  0.00     0.037 A 
ATOM     54  C   UNL A   1      41.497  30.822  32.554  1.00  0.00     0.037 A 
ATOM     55  C   UNL A   1      43.542  25.618  29.367  1.00  0.00     0.049 A 
ATOM     56  C   UNL A   1      42.270  29.672  33.158  1.00  0.00     0.074 A 
ATOM     57  C   UNL A   1      44.536  26.576  29.237  1.00  0.00     0.029 A 
ATOM     58  N   UNL A   1      43.260  25.529  30.727  1.00  0.00    -0.354 N 
ATOM     59  N   UNL A   1      42.710  28.646  32.481  1.00  0.00    -0.248 NA
ATOM     60  C   UNL A   1      42.616  29.588  34.575  1.00  0.00     0.031 C 
ATOM     61  C   UNL A   1      44.801  27.113  30.520  1.00  0.00     0.029 A 
ATOM     62  C   UNL A   1      43.987  26.468  31.436  1.00  0.00     0.049 A 
ATOM     63  H   UNL A   1      42.631  24.888  31.129  1.00  0.00     0.167 HD
ATOM     64  C   UNL A   1      43.346  27.769  33.325  1.00  0.00     0.074 A 
ATOM     65  C   UNL A   1      43.286  28.423  34.619  1.00  0.00     0.031 C 
ATOM     66  C   UNL A   1      43.862  26.582  32.884  1.00  0.00     0.037 A 
BRANCH  53  67
ATOM     67  C   UNL A   1      43.110  24.026  27.317  1.00  0.00     0.058 A 
ATOM     68  C   UNL A   1      42.763  22.657  27.371  1.00  0.00     0.135 A 
ATOM     69  C   UNL A   1      43.942  24.370  26.234  1.00  0.00     0.135 A 
ATOM     70  F   UNL A   1      41.892  22.188  28.273  1.00  0.00    -0.206 F 
ATOM     71  C   UNL A   1      43.298  21.697  26.506  1.00  0.00     0.059 A 
ATOM     72  C   UNL A   1      44.538  23.423  25.391  1.00  0.00     0.059 A 
ATOM     73  F   UNL A   1      44.168  25.650  25.908  1.00  0.00    -0.206 F 
ATOM     74  C   UNL A   1      44.218  22.083  25.542  1.00  0.00     0.060 A 
BRANCH  74  75
ATOM     75  S   UNL A   1      44.963  20.821  24.492  1.00  0.00     0.124 S 
ATOM     76  O   UNL A   1      44.545  21.243  23.158  1.00  0.00    -0.237 OA
ATOM     77  O   UNL A   1      46.382  20.975  24.790  1.00  0.00    -0.237 OA
ATOM     78  O   UNL A   1      44.355  19.581  24.967  1.00  0.00    -0.744 OA
ENDBRANCH  74  75
ENDBRANCH  53  67
BRANCH  54  79
ATOM     79  C   UNL A   1      40.233  31.411  33.080  1.00  0.00     0.058 A 
ATOM     80  C   UNL A   1      40.190  32.812  33.222  1.00  0.00     0.135 A 
ATOM     81  C   UNL A   1      39.011  30.735  32.963  1.00  0.00     0.135 A 
ATOM     82  F   UNL A   1      41.330  33.506  33.367  1.00  0.00    -0.206 F 
ATOM     83  C   UNL A   1      39.008  33.528  33.060  1.00  0.00     0.059 A 
ATOM     84  C   UNL A   1      37.811  31.435  32.808  1.00  0.00     0.059 A 
ATOM     85  F   UNL A   1      38.987  29.400  32.833  1.00  0.00    -0.206 F 
ATOM     86  C   UNL A   1      37.838  32.831  32.774  1.00  0.00     0.060 A 
BRANCH  86  87
ATOM     87  S   UNL A   1      36.412  33.776  32.182  1.00  0.00     0.124 S 
ATOM     88  O   UNL A   1      35.348  32.778  32.218  1.00  0.00    -0.237 OA
ATOM     89  O   UNL A   1      36.319  34.832  33.192  1.00  0.00    -0.237 OA
ATOM     90  O   UNL A   1      36.827  34.207  30.853  1.00  0.00    -0.744 OA
ENDBRANCH  86  87
ENDBRANCH  54  79
BRANCH  66  91
ATOM     91  C   UNL A   1      44.394  25.454  33.747  1.00  0.00     0.058 A 
ATOM     92  C   UNL A   1      43.611  24.697  34.634  1.00  0.00     0.135 A 
ATOM     93  C   UNL A   1      45.733  25.010  33.597  1.00  0.00     0.135 A 
ATOM     94  F   UNL A   1      42.299  24.926  34.782  1.00  0.00    -0.206 F 
ATOM     95  C   UNL A   1      44.131  23.631  35.375  1.00  0.00     0.059 A 
ATOM     96  C   UNL A   1      46.255  23.912  34.279  1.00  0.00     0.059 A 
ATOM     97  F   UNL A   1      46.588  25.620  32.763  1.00  0.00    -0.206 F 
ATOM     98  C   UNL A   1      45.454  23.245  35.192  1.00  0.00     0.060 A 
BRANCH  98  99
ATOM     99  S   UNL A   1      46.115  21.833  36.095  1.00  0.00     0.124 S 
ATOM    100  O   UNL A   1      45.654  22.114  37.451  1.00  0.00    -0.237 OA
ATOM    101  O   UNL A   1      45.475  20.698  35.436  1.00  0.00    -0.237 OA
ATOM    102  O   UNL A   1      47.554  21.943  35.879  1.00  0.00    -0.744 OA
ENDBRANCH  98  99
ENDBRANCH  66  91
ENDBRANCH  40  41
ENDBRANCH  32  35
ENDBRANCH  30  31
ENDBRANCH   1  30
TORSDOF 16
ENDMDL
