MODEL 1
REMARK VINA RESULT:     -11.4      0.000      0.000
REMARK SMILES Cc1ccc([C@@H](C[NH+](C)C)N2C[C@@H](C(=O)NCCCCNC(=O)c3ccc(-c4c5nc(c(-c6c(F)cc(S(=O)(=O)[O-])cc6F)c6ccc([nH]6)c(-c6c(F)cc(S(=O)(=O)[O-])cc6F)c6nc(c(-c7c(F)cc(S(=O)(=O)[O-])cc7F)c7ccc4[nH]7)C=C6)C=C5)cc3)CC2=O)cc1C
REMARK SMILES IDX 18 1 17 2 16 3 14 4 15 5 13 7 11 8 12 9 91 10 90 11 92 12
REMARK SMILES IDX 6 13 5 14 1 15 2 16 3 17 94 18 4 19 93 20 95 21 7 22 8 23
REMARK SMILES IDX 9 24 10 25 19 27 20 28 21 29 22 30 23 32 24 33 25 34 89 35
REMARK SMILES IDX 26 36 88 37 27 38 28 39 29 40 82 41 30 42 87 43 81 44 83 45
REMARK SMILES IDX 31 46 86 47 80 48 79 49 32 51 66 52 45 53 65 54 46 55 49 56
REMARK SMILES IDX 64 57 84 58 47 59 48 60 63 62 85 63 50 64 33 65 34 66 43 67
REMARK SMILES IDX 35 68 36 69 42 70 44 71 37 72 38 73 39 74 40 75 41 76 67 77
REMARK SMILES IDX 68 78 77 79 69 80 70 81 76 82 78 83 71 84 72 85 73 86 74 87
REMARK SMILES IDX 75 88 51 89 52 90 61 91 53 92 54 93 60 94 62 95 55 96 56 97
REMARK SMILES IDX 57 98 58 99 59 100
REMARK H PARENT 16 6 8 26 21 31 83 50 49 61
REMARK Flexibility Score: inf
ROOT
ATOM      1  C   UNL A   1      34.030  26.446  25.388  1.00  0.00     0.023 C 
ENDROOT
BRANCH   1   2
ATOM      2  C   UNL A   1      32.928  25.536  24.860  1.00  0.00     0.116 C 
BRANCH   2   3
ATOM      3  N   UNL A   1      31.820  25.413  25.790  1.00  0.00    -0.356 N 
ATOM      4  C   UNL A   1      30.921  24.410  25.971  1.00  0.00     0.225 C 
ATOM      5  O   UNL A   1      30.081  24.549  26.864  1.00  0.00    -0.275 OA
ATOM      6  H   UNL A   1      31.701  26.184  26.389  1.00  0.00     0.163 HD
BRANCH   4   7
ATOM      7  C   UNL A   1      30.927  23.148  25.134  1.00  0.00     0.107 C 
ATOM      8  N   UNL A   1      32.592  21.605  24.496  1.00  0.00    -0.329 N 
ATOM      9  C   UNL A   1      31.895  22.100  25.660  1.00  0.00     0.134 C 
ATOM     10  C   UNL A   1      32.149  22.192  23.319  1.00  0.00     0.224 C 
ATOM     11  C   UNL A   1      31.264  23.360  23.666  1.00  0.00     0.115 C 
ATOM     12  O   UNL A   1      32.426  21.855  22.183  1.00  0.00    -0.275 OA
BRANCH   8  13
ATOM     13  C   UNL A   1      33.547  20.482  24.520  1.00  0.00     0.170 C 
BRANCH  13  14
ATOM     14  C   UNL A   1      34.983  20.953  24.727  1.00  0.00    -0.020 A 
ATOM     15  C   UNL A   1      38.964  22.079  25.994  1.00  0.00     0.044 C 
ATOM     16  C   UNL A   1      37.590  21.740  25.486  1.00  0.00    -0.048 A 
ATOM     17  C   UNL A   1      37.323  20.424  25.078  1.00  0.00     0.004 A 
ATOM     18  C   UNL A   1      36.554  22.690  25.458  1.00  0.00    -0.048 A 
ATOM     19  C   UNL A   1      36.035  20.031  24.712  1.00  0.00     0.006 A 
ATOM     20  C   UNL A   1      35.272  22.289  25.042  1.00  0.00     0.009 A 
ATOM     21  C   UNL A   1      36.703  24.093  25.982  1.00  0.00     0.044 C 
ENDBRANCH  13  14
BRANCH  13  22
ATOM     22  C   UNL A   1      33.187  19.282  25.488  1.00  0.00     0.292 C 
BRANCH  22  23
ATOM     23  N   UNL A   1      32.492  18.112  24.891  1.00  0.00    -0.338 N 
ATOM     24  C   UNL A   1      32.591  18.114  23.429  1.00  0.00     0.332 C 
ATOM     25  C   UNL A   1      33.023  16.829  25.379  1.00  0.00     0.332 C 
ATOM     26  H   UNL A   1      31.517  18.200  25.178  1.00  0.00     0.347 HD
ENDBRANCH  22  23
ENDBRANCH  13  22
ENDBRANCH   8  13
ENDBRANCH   4   7
ENDBRANCH   2   3
ENDBRANCH   1   2
BRANCH   1  27
ATOM     27  C   UNL A   1      33.574  27.856  25.760  1.00  0.00     0.023 C 
BRANCH  27  28
ATOM     28  C   UNL A   1      33.635  28.193  27.246  1.00  0.00     0.116 C 
BRANCH  28  29
ATOM     29  N   UNL A   1      33.592  29.623  27.507  1.00  0.00    -0.352 N 
ATOM     30  C   UNL A   1      34.570  30.448  28.009  1.00  0.00     0.251 C 
ATOM     31  H   UNL A   1      32.738  30.064  27.293  1.00  0.00     0.163 HD
ATOM     32  O   UNL A   1      34.299  31.612  28.288  1.00  0.00    -0.269 OA
BRANCH  30  33
ATOM     33  C   UNL A   1      35.935  29.923  28.240  1.00  0.00     0.039 A 
ATOM     34  C   UNL A   1      36.881  30.034  27.217  1.00  0.00     0.014 A 
ATOM     35  C   UNL A   1      36.290  29.344  29.461  1.00  0.00     0.014 A 
ATOM     36  C   UNL A   1      38.199  29.631  27.448  1.00  0.00     0.010 A 
ATOM     37  C   UNL A   1      37.621  29.016  29.714  1.00  0.00     0.010 A 
ATOM     38  C   UNL A   1      38.591  29.161  28.712  1.00  0.00    -0.014 A 
BRANCH  38  39
ATOM     39  C   UNL A   1      40.016  28.845  29.002  1.00  0.00     0.031 A 
ATOM     40  C   UNL A   1      40.923  29.880  29.610  1.00  0.00     0.074 A 
ATOM     41  C   UNL A   1      40.506  27.632  28.669  1.00  0.00     0.049 A 
ATOM     42  N   UNL A   1      42.197  29.794  29.898  1.00  0.00    -0.248 NA
ATOM     43  C   UNL A   1      40.330  31.193  29.914  1.00  0.00     0.031 C 
ATOM     44  C   UNL A   1      39.743  26.561  28.020  1.00  0.00     0.029 A 
ATOM     45  N   UNL A   1      41.759  27.095  28.822  1.00  0.00    -0.354 N 
ATOM     46  C   UNL A   1      42.556  31.034  30.415  1.00  0.00     0.074 A 
ATOM     47  C   UNL A   1      41.382  31.876  30.345  1.00  0.00     0.031 C 
ATOM     48  C   UNL A   1      40.536  25.491  27.857  1.00  0.00     0.029 A 
ATOM     49  C   UNL A   1      41.873  25.808  28.348  1.00  0.00     0.049 A 
ATOM     50  H   UNL A   1      42.508  27.585  29.233  1.00  0.00     0.167 HD
ATOM     51  C   UNL A   1      43.748  31.426  30.927  1.00  0.00     0.037 A 
ATOM     52  C   UNL A   1      42.935  24.979  28.307  1.00  0.00     0.037 A 
ATOM     53  C   UNL A   1      44.911  30.579  31.007  1.00  0.00     0.049 A 
ATOM     54  C   UNL A   1      44.250  25.444  28.871  1.00  0.00     0.074 A 
ATOM     55  C   UNL A   1      46.150  30.871  31.553  1.00  0.00     0.029 A 
ATOM     56  N   UNL A   1      44.983  29.278  30.532  1.00  0.00    -0.354 N 
ATOM     57  N   UNL A   1      44.550  26.598  29.420  1.00  0.00    -0.248 NA
ATOM     58  C   UNL A   1      45.368  24.493  28.823  1.00  0.00     0.031 C 
ATOM     59  C   UNL A   1      46.984  29.764  31.363  1.00  0.00     0.029 A 
ATOM     60  C   UNL A   1      46.250  28.761  30.751  1.00  0.00     0.049 A 
ATOM     61  H   UNL A   1      44.242  28.793  30.102  1.00  0.00     0.167 HD
ATOM     62  C   UNL A   1      45.884  26.501  29.802  1.00  0.00     0.074 A 
ATOM     63  C   UNL A   1      46.324  25.169  29.445  1.00  0.00     0.031 C 
ATOM     64  C   UNL A   1      46.674  27.432  30.393  1.00  0.00     0.037 A 
BRANCH  51  65
ATOM     65  C   UNL A   1      43.858  32.831  31.457  1.00  0.00     0.058 A 
ATOM     66  C   UNL A   1      44.228  33.902  30.627  1.00  0.00     0.135 A 
ATOM     67  C   UNL A   1      43.524  33.122  32.790  1.00  0.00     0.135 A 
ATOM     68  F   UNL A   1      44.573  33.679  29.348  1.00  0.00    -0.206 F 
ATOM     69  C   UNL A   1      44.278  35.208  31.103  1.00  0.00     0.059 A 
ATOM     70  C   UNL A   1      43.540  34.426  33.279  1.00  0.00     0.059 A 
ATOM     71  F   UNL A   1      43.166  32.138  33.628  1.00  0.00    -0.206 F 
ATOM     72  C   UNL A   1      43.927  35.461  32.430  1.00  0.00     0.060 A 
BRANCH  72  73
ATOM     73  S   UNL A   1      43.968  37.167  33.018  1.00  0.00     0.124 S 
ATOM     74  O   UNL A   1      45.305  37.243  33.600  1.00  0.00    -0.237 OA
ATOM     75  O   UNL A   1      43.769  37.925  31.788  1.00  0.00    -0.237 OA
ATOM     76  O   UNL A   1      42.865  37.225  33.973  1.00  0.00    -0.744 OA
ENDBRANCH  72  73
ENDBRANCH  51  65
BRANCH  52  77
ATOM     77  C   UNL A   1      42.802  23.619  27.713  1.00  0.00     0.058 A 
ATOM     78  C   UNL A   1      43.002  23.402  26.341  1.00  0.00     0.135 A 
ATOM     79  C   UNL A   1      42.457  22.511  28.504  1.00  0.00     0.135 A 
ATOM     80  F   UNL A   1      43.329  24.429  25.541  1.00  0.00    -0.206 F 
ATOM     81  C   UNL A   1      42.831  22.146  25.767  1.00  0.00     0.059 A 
ATOM     82  C   UNL A   1      42.310  21.240  27.958  1.00  0.00     0.059 A 
ATOM     83  F   UNL A   1      42.272  22.659  29.825  1.00  0.00    -0.206 F 
ATOM     84  C   UNL A   1      42.483  21.071  26.586  1.00  0.00     0.060 A 
BRANCH  84  85
ATOM     85  S   UNL A   1      42.282  19.441  25.835  1.00  0.00     0.124 S 
ATOM     86  O   UNL A   1      42.791  18.569  26.887  1.00  0.00    -0.237 OA
ATOM     87  O   UNL A   1      40.843  19.386  25.599  1.00  0.00    -0.237 OA
ATOM     88  O   UNL A   1      43.104  19.524  24.631  1.00  0.00    -0.744 OA
ENDBRANCH  84  85
ENDBRANCH  52  77
BRANCH  64  89
ATOM     89  C   UNL A   1      48.087  27.030  30.718  1.00  0.00     0.058 A 
ATOM     90  C   UNL A   1      48.424  26.434  31.944  1.00  0.00     0.135 A 
ATOM     91  C   UNL A   1      49.115  27.218  29.779  1.00  0.00     0.135 A 
ATOM     92  F   UNL A   1      47.482  26.236  32.880  1.00  0.00    -0.206 F 
ATOM     93  C   UNL A   1      49.735  26.073  32.242  1.00  0.00     0.059 A 
ATOM     94  C   UNL A   1      50.426  26.834  30.042  1.00  0.00     0.059 A 
ATOM     95  F   UNL A   1      48.847  27.772  28.585  1.00  0.00    -0.206 F 
ATOM     96  C   UNL A   1      50.728  26.278  31.284  1.00  0.00     0.060 A 
BRANCH  96  97
ATOM     97  S   UNL A   1      52.422  25.790  31.677  1.00  0.00     0.124 S 
ATOM     98  O   UNL A   1      52.770  26.754  32.717  1.00  0.00    -0.237 OA
ATOM     99  O   UNL A   1      52.255  24.411  32.122  1.00  0.00    -0.237 OA
ATOM    100  O   UNL A   1      53.127  25.954  30.409  1.00  0.00    -0.744 OA
ENDBRANCH  96  97
ENDBRANCH  64  89
ENDBRANCH  38  39
ENDBRANCH  30  33
ENDBRANCH  28  29
ENDBRANCH  27  28
ENDBRANCH   1  27
TORSDOF 18
ENDMDL
MODEL 2
REMARK VINA RESULT:     -11.3      0.507      8.093
REMARK SMILES Cc1ccc([C@@H](C[NH+](C)C)N2C[C@@H](C(=O)NCCCCNC(=O)c3ccc(-c4c5nc(c(-c6c(F)cc(S(=O)(=O)[O-])cc6F)c6ccc([nH]6)c(-c6c(F)cc(S(=O)(=O)[O-])cc6F)c6nc(c(-c7c(F)cc(S(=O)(=O)[O-])cc7F)c7ccc4[nH]7)C=C6)C=C5)cc3)CC2=O)cc1C
REMARK SMILES IDX 18 1 17 2 16 3 14 4 15 5 13 7 11 8 12 9 91 10 90 11 92 12
REMARK SMILES IDX 6 13 5 14 1 15 2 16 3 17 94 18 4 19 93 20 95 21 7 22 8 23
REMARK SMILES IDX 9 24 10 25 19 27 20 28 21 29 22 30 23 32 24 33 25 34 89 35
REMARK SMILES IDX 26 36 88 37 27 38 28 39 29 40 82 41 30 42 87 43 81 44 83 45
REMARK SMILES IDX 31 46 86 47 80 48 79 49 32 51 66 52 45 53 65 54 46 55 49 56
REMARK SMILES IDX 64 57 84 58 47 59 48 60 63 62 85 63 50 64 33 65 34 66 43 67
REMARK SMILES IDX 35 68 36 69 42 70 44 71 37 72 38 73 39 74 40 75 41 76 67 77
REMARK SMILES IDX 68 78 77 79 69 80 70 81 76 82 78 83 71 84 72 85 73 86 74 87
REMARK SMILES IDX 75 88 51 89 52 90 61 91 53 92 54 93 60 94 62 95 55 96 56 97
REMARK SMILES IDX 57 98 58 99 59 100
REMARK H PARENT 16 6 8 26 21 31 83 50 49 61
REMARK Flexibility Score: inf
ROOT
ATOM      1  C   UNL A   1      33.729  26.475  25.293  1.00  0.00     0.023 C 
ENDROOT
BRANCH   1   2
ATOM      2  C   UNL A   1      32.443  25.901  24.712  1.00  0.00     0.116 C 
BRANCH   2   3
ATOM      3  N   UNL A   1      31.463  25.592  25.737  1.00  0.00    -0.356 N 
ATOM      4  C   UNL A   1      30.714  24.476  25.940  1.00  0.00     0.225 C 
ATOM      5  O   UNL A   1      29.963  24.462  26.919  1.00  0.00    -0.275 OA
ATOM      6  H   UNL A   1      31.316  26.310  26.394  1.00  0.00     0.163 HD
BRANCH   4   7
ATOM      7  C   UNL A   1      30.781  23.270  25.027  1.00  0.00     0.107 C 
ATOM      8  N   UNL A   1      32.474  21.731  24.457  1.00  0.00    -0.329 N 
ATOM      9  C   UNL A   1      31.672  22.167  25.576  1.00  0.00     0.134 C 
ATOM     10  C   UNL A   1      32.163  22.402  23.283  1.00  0.00     0.224 C 
ATOM     11  C   UNL A   1      31.269  23.567  23.616  1.00  0.00     0.115 C 
ATOM     12  O   UNL A   1      32.547  22.131  22.160  1.00  0.00    -0.275 OA
BRANCH   8  13
ATOM     13  C   UNL A   1      33.401  20.585  24.502  1.00  0.00     0.170 C 
BRANCH  13  14
ATOM     14  C   UNL A   1      34.847  21.023  24.708  1.00  0.00    -0.020 A 
ATOM     15  C   UNL A   1      38.840  22.103  25.981  1.00  0.00     0.044 C 
ATOM     16  C   UNL A   1      37.465  21.776  25.467  1.00  0.00    -0.048 A 
ATOM     17  C   UNL A   1      37.163  20.446  25.135  1.00  0.00     0.004 A 
ATOM     18  C   UNL A   1      36.459  22.753  25.362  1.00  0.00    -0.048 A 
ATOM     19  C   UNL A   1      35.869  20.071  24.769  1.00  0.00     0.006 A 
ATOM     20  C   UNL A   1      35.173  22.367  24.947  1.00  0.00     0.009 A 
ATOM     21  C   UNL A   1      36.643  24.180  25.803  1.00  0.00     0.044 C 
ENDBRANCH  13  14
BRANCH  13  22
ATOM     22  C   UNL A   1      33.008  19.409  25.486  1.00  0.00     0.292 C 
BRANCH  22  23
ATOM     23  N   UNL A   1      32.417  18.186  24.883  1.00  0.00    -0.338 N 
ATOM     24  C   UNL A   1      32.728  18.085  23.454  1.00  0.00     0.332 C 
ATOM     25  C   UNL A   1      32.881  16.951  25.536  1.00  0.00     0.332 C 
ATOM     26  H   UNL A   1      31.410  18.277  25.019  1.00  0.00     0.347 HD
ENDBRANCH  22  23
ENDBRANCH  13  22
ENDBRANCH   8  13
ENDBRANCH   4   7
ENDBRANCH   2   3
ENDBRANCH   1   2
BRANCH   1  27
ATOM     27  C   UNL A   1      33.642  27.938  25.723  1.00  0.00     0.023 C 
BRANCH  27  28
ATOM     28  C   UNL A   1      33.727  28.185  27.226  1.00  0.00     0.116 C 
BRANCH  28  29
ATOM     29  N   UNL A   1      33.640  29.594  27.576  1.00  0.00    -0.352 N 
ATOM     30  C   UNL A   1      34.596  30.418  28.119  1.00  0.00     0.251 C 
ATOM     31  H   UNL A   1      32.771  30.020  27.397  1.00  0.00     0.163 HD
ATOM     32  O   UNL A   1      34.291  31.553  28.473  1.00  0.00    -0.269 OA
BRANCH  30  33
ATOM     33  C   UNL A   1      35.981  29.926  28.306  1.00  0.00     0.039 A 
ATOM     34  C   UNL A   1      36.874  30.010  27.235  1.00  0.00     0.014 A 
ATOM     35  C   UNL A   1      36.403  29.404  29.531  1.00  0.00     0.014 A 
ATOM     36  C   UNL A   1      38.209  29.639  27.418  1.00  0.00     0.010 A 
ATOM     37  C   UNL A   1      37.750  29.108  29.733  1.00  0.00     0.010 A 
ATOM     38  C   UNL A   1      38.669  29.227  28.680  1.00  0.00    -0.014 A 
BRANCH  38  39
ATOM     39  C   UNL A   1      40.112  28.946  28.913  1.00  0.00     0.031 A 
ATOM     40  C   UNL A   1      40.694  27.600  28.580  1.00  0.00     0.074 A 
ATOM     41  C   UNL A   1      40.888  29.896  29.475  1.00  0.00     0.049 A 
ATOM     42  N   UNL A   1      41.918  27.165  28.748  1.00  0.00    -0.248 NA
ATOM     43  C   UNL A   1      39.781  26.599  28.003  1.00  0.00     0.031 C 
ATOM     44  C   UNL A   1      40.429  31.223  29.898  1.00  0.00     0.029 A 
ATOM     45  N   UNL A   1      42.224  29.894  29.793  1.00  0.00    -0.354 N 
ATOM     46  C   UNL A   1      41.921  25.849  28.300  1.00  0.00     0.074 A 
ATOM     47  C   UNL A   1      40.564  25.534  27.909  1.00  0.00     0.031 C 
ATOM     48  C   UNL A   1      41.469  31.912  30.394  1.00  0.00     0.029 A 
ATOM     49  C   UNL A   1      42.659  31.068  30.364  1.00  0.00     0.049 A 
ATOM     50  H   UNL A   1      42.815  29.125  29.628  1.00  0.00     0.167 HD
ATOM     51  C   UNL A   1      42.965  24.991  28.197  1.00  0.00     0.037 A 
ATOM     52  C   UNL A   1      43.877  31.423  30.820  1.00  0.00     0.037 A 
ATOM     53  C   UNL A   1      44.317  25.314  28.574  1.00  0.00     0.049 A 
ATOM     54  C   UNL A   1      45.015  30.446  30.705  1.00  0.00     0.074 A 
ATOM     55  C   UNL A   1      45.451  24.528  28.463  1.00  0.00     0.029 A 
ATOM     56  N   UNL A   1      44.721  26.518  29.133  1.00  0.00    -0.354 N 
ATOM     57  N   UNL A   1      45.012  29.229  30.213  1.00  0.00    -0.248 NA
ATOM     58  C   UNL A   1      46.326  30.891  31.195  1.00  0.00     0.031 C 
ATOM     59  C   UNL A   1      46.531  25.236  29.000  1.00  0.00     0.029 A 
ATOM     60  C   UNL A   1      46.082  26.487  29.393  1.00  0.00     0.049 A 
ATOM     61  H   UNL A   1      44.128  27.281  29.319  1.00  0.00     0.167 HD
ATOM     62  C   UNL A   1      46.323  28.776  30.314  1.00  0.00     0.074 A 
ATOM     63  C   UNL A   1      47.095  29.856  30.890  1.00  0.00     0.031 C 
ATOM     64  C   UNL A   1      46.840  27.571  29.964  1.00  0.00     0.037 A 
BRANCH  51  65
ATOM     65  C   UNL A   1      42.694  23.618  27.641  1.00  0.00     0.058 A 
ATOM     66  C   UNL A   1      42.766  23.358  26.262  1.00  0.00     0.135 A 
ATOM     67  C   UNL A   1      42.427  22.537  28.497  1.00  0.00     0.135 A 
ATOM     68  F   UNL A   1      43.001  24.357  25.397  1.00  0.00    -0.206 F 
ATOM     69  C   UNL A   1      42.568  22.079  25.752  1.00  0.00     0.059 A 
ATOM     70  C   UNL A   1      42.255  21.244  28.010  1.00  0.00     0.059 A 
ATOM     71  F   UNL A   1      42.345  22.728  29.822  1.00  0.00    -0.206 F 
ATOM     72  C   UNL A   1      42.318  21.027  26.635  1.00  0.00     0.060 A 
BRANCH  72  73
ATOM     73  S   UNL A   1      42.096  19.370  25.953  1.00  0.00     0.124 S 
ATOM     74  O   UNL A   1      42.633  18.539  27.027  1.00  0.00    -0.237 OA
ATOM     75  O   UNL A   1      40.651  19.303  25.762  1.00  0.00    -0.237 OA
ATOM     76  O   UNL A   1      42.887  19.398  24.727  1.00  0.00    -0.744 OA
ENDBRANCH  72  73
ENDBRANCH  51  65
BRANCH  52  77
ATOM     77  C   UNL A   1      44.089  32.768  31.426  1.00  0.00     0.058 A 
ATOM     78  C   UNL A   1      43.916  32.981  32.802  1.00  0.00     0.135 A 
ATOM     79  C   UNL A   1      44.453  33.871  30.636  1.00  0.00     0.135 A 
ATOM     80  F   UNL A   1      43.563  31.961  33.599  1.00  0.00    -0.206 F 
ATOM     81  C   UNL A   1      44.061  34.243  33.369  1.00  0.00     0.059 A 
ATOM     82  C   UNL A   1      44.634  35.136  31.186  1.00  0.00     0.059 A 
ATOM     83  F   UNL A   1      44.650  33.719  29.317  1.00  0.00    -0.206 F 
ATOM     84  C   UNL A   1      44.419  35.316  32.551  1.00  0.00     0.060 A 
BRANCH  84  85
ATOM     85  S   UNL A   1      44.625  36.945  33.300  1.00  0.00     0.124 S 
ATOM     86  O   UNL A   1      45.513  37.597  32.346  1.00  0.00    -0.237 OA
ATOM     87  O   UNL A   1      43.253  37.441  33.339  1.00  0.00    -0.237 OA
ATOM     88  O   UNL A   1      45.210  36.643  34.603  1.00  0.00    -0.744 OA
ENDBRANCH  84  85
ENDBRANCH  52  77
BRANCH  64  89
ATOM     89  C   UNL A   1      48.317  27.371  30.166  1.00  0.00     0.058 A 
ATOM     90  C   UNL A   1      48.833  26.801  31.341  1.00  0.00     0.135 A 
ATOM     91  C   UNL A   1      49.229  27.727  29.157  1.00  0.00     0.135 A 
ATOM     92  F   UNL A   1      48.009  26.448  32.339  1.00  0.00    -0.206 F 
ATOM     93  C   UNL A   1      50.202  26.627  31.525  1.00  0.00     0.059 A 
ATOM     94  C   UNL A   1      50.598  27.530  29.305  1.00  0.00     0.059 A 
ATOM     95  F   UNL A   1      48.789  28.263  28.007  1.00  0.00    -0.206 F 
ATOM     96  C   UNL A   1      51.076  26.995  30.501  1.00  0.00     0.060 A 
BRANCH  96  97
ATOM     97  S   UNL A   1      52.847  26.749  30.746  1.00  0.00     0.124 S 
ATOM     98  O   UNL A   1      53.274  28.081  31.161  1.00  0.00    -0.237 OA
ATOM     99  O   UNL A   1      52.880  25.722  31.782  1.00  0.00    -0.237 OA
ATOM    100  O   UNL A   1      53.317  26.320  29.432  1.00  0.00    -0.744 OA
ENDBRANCH  96  97
ENDBRANCH  64  89
ENDBRANCH  38  39
ENDBRANCH  30  33
ENDBRANCH  28  29
ENDBRANCH  27  28
ENDBRANCH   1  27
TORSDOF 18
ENDMDL
MODEL 3
REMARK VINA RESULT:     -11.1      2.866      9.329
REMARK SMILES Cc1ccc([C@@H](C[NH+](C)C)N2C[C@@H](C(=O)NCCCCNC(=O)c3ccc(-c4c5nc(c(-c6c(F)cc(S(=O)(=O)[O-])cc6F)c6ccc([nH]6)c(-c6c(F)cc(S(=O)(=O)[O-])cc6F)c6nc(c(-c7c(F)cc(S(=O)(=O)[O-])cc7F)c7ccc4[nH]7)C=C6)C=C5)cc3)CC2=O)cc1C
REMARK SMILES IDX 18 1 17 2 16 3 14 4 15 5 13 7 11 8 12 9 91 10 90 11 92 12
REMARK SMILES IDX 6 13 5 14 1 15 2 16 3 17 94 18 4 19 93 20 95 21 7 22 8 23
REMARK SMILES IDX 9 24 10 25 19 27 20 28 21 29 22 30 23 32 24 33 25 34 89 35
REMARK SMILES IDX 26 36 88 37 27 38 28 39 29 40 82 41 30 42 87 43 81 44 83 45
REMARK SMILES IDX 31 46 86 47 80 48 79 49 32 51 66 52 45 53 65 54 46 55 49 56
REMARK SMILES IDX 64 57 84 58 47 59 48 60 63 62 85 63 50 64 33 65 34 66 43 67
REMARK SMILES IDX 35 68 36 69 42 70 44 71 37 72 38 73 39 74 40 75 41 76 67 77
REMARK SMILES IDX 68 78 77 79 69 80 70 81 76 82 78 83 71 84 72 85 73 86 74 87
REMARK SMILES IDX 75 88 51 89 52 90 61 91 53 92 54 93 60 94 62 95 55 96 56 97
REMARK SMILES IDX 57 98 58 99 59 100
REMARK H PARENT 16 6 8 26 21 31 83 50 49 61
REMARK Flexibility Score: inf
ROOT
ATOM      1  C   UNL A   1      35.819  21.705  24.277  1.00  0.00     0.023 C 
ENDROOT
BRANCH   1   2
ATOM      2  C   UNL A   1      34.448  21.319  24.816  1.00  0.00     0.116 C 
BRANCH   2   3
ATOM      3  N   UNL A   1      34.288  21.665  26.217  1.00  0.00    -0.356 N 
ATOM      4  C   UNL A   1      33.404  22.495  26.829  1.00  0.00     0.225 C 
ATOM      5  O   UNL A   1      33.468  22.593  28.057  1.00  0.00    -0.275 OA
ATOM      6  H   UNL A   1      34.926  21.225  26.823  1.00  0.00     0.163 HD
BRANCH   4   7
ATOM      7  C   UNL A   1      32.356  23.279  26.066  1.00  0.00     0.107 C 
ATOM      8  N   UNL A   1      32.217  25.494  25.268  1.00  0.00    -0.329 N 
ATOM      9  C   UNL A   1      32.964  24.271  25.087  1.00  0.00     0.134 C 
ATOM     10  C   UNL A   1      31.205  25.366  26.209  1.00  0.00     0.224 C 
ATOM     11  C   UNL A   1      31.386  24.061  26.939  1.00  0.00     0.115 C 
ATOM     12  O   UNL A   1      30.317  26.165  26.442  1.00  0.00    -0.275 OA
BRANCH   8  13
ATOM     13  C   UNL A   1      32.387  26.696  24.433  1.00  0.00     0.170 C 
BRANCH  13  14
ATOM     14  C   UNL A   1      32.933  27.877  25.230  1.00  0.00    -0.020 A 
ATOM     15  C   UNL A   1      34.161  30.916  28.055  1.00  0.00     0.044 C 
ATOM     16  C   UNL A   1      33.750  29.917  27.009  1.00  0.00    -0.048 A 
ATOM     17  C   UNL A   1      34.515  28.751  26.846  1.00  0.00     0.004 A 
ATOM     18  C   UNL A   1      32.592  30.091  26.230  1.00  0.00    -0.048 A 
ATOM     19  C   UNL A   1      34.108  27.739  25.975  1.00  0.00     0.006 A 
ATOM     20  C   UNL A   1      32.222  29.082  25.324  1.00  0.00     0.009 A 
ATOM     21  C   UNL A   1      31.641  31.243  26.409  1.00  0.00     0.044 C 
ENDBRANCH  13  14
BRANCH  13  22
ATOM     22  C   UNL A   1      33.179  26.498  23.077  1.00  0.00     0.292 C 
BRANCH  22  23
ATOM     23  N   UNL A   1      32.454  26.797  21.815  1.00  0.00    -0.338 N 
ATOM     24  C   UNL A   1      32.508  25.669  20.882  1.00  0.00     0.332 C 
ATOM     25  C   UNL A   1      31.039  27.131  22.040  1.00  0.00     0.332 C 
ATOM     26  H   UNL A   1      32.928  27.608  21.416  1.00  0.00     0.347 HD
ENDBRANCH  22  23
ENDBRANCH  13  22
ENDBRANCH   8  13
ENDBRANCH   4   7
ENDBRANCH   2   3
ENDBRANCH   1   2
BRANCH   1  27
ATOM     27  C   UNL A   1      36.103  23.206  24.260  1.00  0.00     0.023 C 
BRANCH  27  28
ATOM     28  C   UNL A   1      37.044  23.706  25.352  1.00  0.00     0.116 C 
BRANCH  28  29
ATOM     29  N   UNL A   1      38.140  22.789  25.621  1.00  0.00    -0.352 N 
ATOM     30  C   UNL A   1      39.334  23.020  26.260  1.00  0.00     0.251 C 
ATOM     31  H   UNL A   1      38.007  21.868  25.299  1.00  0.00     0.163 HD
ATOM     32  O   UNL A   1      40.197  22.148  26.271  1.00  0.00    -0.269 OA
BRANCH  30  33
ATOM     33  C   UNL A   1      39.588  24.329  26.905  1.00  0.00     0.039 A 
ATOM     34  C   UNL A   1      39.101  24.549  28.196  1.00  0.00     0.014 A 
ATOM     35  C   UNL A   1      40.318  25.327  26.253  1.00  0.00     0.014 A 
ATOM     36  C   UNL A   1      39.409  25.740  28.858  1.00  0.00     0.010 A 
ATOM     37  C   UNL A   1      40.689  26.479  26.943  1.00  0.00     0.010 A 
ATOM     38  C   UNL A   1      40.244  26.697  28.256  1.00  0.00    -0.014 A 
BRANCH  38  39
ATOM     39  C   UNL A   1      40.676  27.911  28.999  1.00  0.00     0.031 A 
ATOM     40  C   UNL A   1      42.035  27.973  29.642  1.00  0.00     0.074 A 
ATOM     41  C   UNL A   1      39.818  28.943  29.136  1.00  0.00     0.049 A 
ATOM     42  N   UNL A   1      42.566  28.933  30.357  1.00  0.00    -0.248 NA
ATOM     43  C   UNL A   1      42.905  26.796  29.482  1.00  0.00     0.031 C 
ATOM     44  C   UNL A   1      38.450  28.982  28.609  1.00  0.00     0.029 A 
ATOM     45  N   UNL A   1      39.962  30.156  29.762  1.00  0.00    -0.354 N 
ATOM     46  C   UNL A   1      43.826  28.478  30.730  1.00  0.00     0.074 A 
ATOM     47  C   UNL A   1      43.958  27.132  30.215  1.00  0.00     0.031 C 
ATOM     48  C   UNL A   1      37.894  30.166  28.911  1.00  0.00     0.029 A 
ATOM     49  C   UNL A   1      38.844  30.955  29.687  1.00  0.00     0.049 A 
ATOM     50  H   UNL A   1      40.788  30.429  30.222  1.00  0.00     0.167 HD
ATOM     51  C   UNL A   1      44.795  29.132  31.415  1.00  0.00     0.037 A 
ATOM     52  C   UNL A   1      38.607  32.182  30.192  1.00  0.00     0.037 A 
ATOM     53  C   UNL A   1      44.665  30.478  31.913  1.00  0.00     0.049 A 
ATOM     54  C   UNL A   1      39.697  32.881  30.959  1.00  0.00     0.074 A 
ATOM     55  C   UNL A   1      45.608  31.243  32.577  1.00  0.00     0.029 A 
ATOM     56  N   UNL A   1      43.524  31.260  31.804  1.00  0.00    -0.354 N 
ATOM     57  N   UNL A   1      40.907  32.460  31.241  1.00  0.00    -0.248 NA
ATOM     58  C   UNL A   1      39.395  34.226  31.468  1.00  0.00     0.031 C 
ATOM     59  C   UNL A   1      45.022  32.468  32.913  1.00  0.00     0.029 A 
ATOM     60  C   UNL A   1      43.732  32.489  32.407  1.00  0.00     0.049 A 
ATOM     61  H   UNL A   1      42.689  30.981  31.363  1.00  0.00     0.167 HD
ATOM     62  C   UNL A   1      41.517  33.498  31.938  1.00  0.00     0.074 A 
ATOM     63  C   UNL A   1      40.552  34.574  32.014  1.00  0.00     0.031 C 
ATOM     64  C   UNL A   1      42.763  33.554  32.472  1.00  0.00     0.037 A 
BRANCH  51  65
ATOM     65  C   UNL A   1      46.094  28.410  31.657  1.00  0.00     0.058 A 
ATOM     66  C   UNL A   1      47.165  28.504  30.753  1.00  0.00     0.135 A 
ATOM     67  C   UNL A   1      46.297  27.674  32.837  1.00  0.00     0.135 A 
ATOM     68  F   UNL A   1      47.022  29.181  29.603  1.00  0.00    -0.206 F 
ATOM     69  C   UNL A   1      48.384  27.881  31.002  1.00  0.00     0.059 A 
ATOM     70  C   UNL A   1      47.517  27.066  33.119  1.00  0.00     0.059 A 
ATOM     71  F   UNL A   1      45.307  27.549  33.734  1.00  0.00    -0.206 F 
ATOM     72  C   UNL A   1      48.552  27.168  32.190  1.00  0.00     0.060 A 
BRANCH  72  73
ATOM     73  S   UNL A   1      50.152  26.394  32.507  1.00  0.00     0.124 S 
ATOM     74  O   UNL A   1      49.916  25.032  32.038  1.00  0.00    -0.237 OA
ATOM     75  O   UNL A   1      51.054  27.198  31.691  1.00  0.00    -0.237 OA
ATOM     76  O   UNL A   1      50.320  26.539  33.950  1.00  0.00    -0.744 OA
ENDBRANCH  72  73
ENDBRANCH  51  65
BRANCH  52  77
ATOM     77  C   UNL A   1      37.284  32.835  29.987  1.00  0.00     0.058 A 
ATOM     78  C   UNL A   1      37.072  33.732  28.929  1.00  0.00     0.135 A 
ATOM     79  C   UNL A   1      36.209  32.588  30.857  1.00  0.00     0.135 A 
ATOM     80  F   UNL A   1      38.069  34.006  28.073  1.00  0.00    -0.206 F 
ATOM     81  C   UNL A   1      35.856  34.387  28.759  1.00  0.00     0.059 A 
ATOM     82  C   UNL A   1      34.975  33.207  30.688  1.00  0.00     0.059 A 
ATOM     83  F   UNL A   1      36.352  31.725  31.874  1.00  0.00    -0.206 F 
ATOM     84  C   UNL A   1      34.813  34.118  29.646  1.00  0.00     0.060 A 
BRANCH  84  85
ATOM     85  S   UNL A   1      33.233  34.958  29.405  1.00  0.00     0.124 S 
ATOM     86  O   UNL A   1      33.664  36.255  28.900  1.00  0.00    -0.237 OA
ATOM     87  O   UNL A   1      32.566  34.086  28.443  1.00  0.00    -0.237 OA
ATOM     88  O   UNL A   1      32.650  34.963  30.743  1.00  0.00    -0.744 OA
ENDBRANCH  84  85
ENDBRANCH  52  77
BRANCH  64  89
ATOM     89  C   UNL A   1      43.164  34.833  33.156  1.00  0.00     0.058 A 
ATOM     90  C   UNL A   1      42.830  35.092  34.495  1.00  0.00     0.135 A 
ATOM     91  C   UNL A   1      43.917  35.801  32.471  1.00  0.00     0.135 A 
ATOM     92  F   UNL A   1      42.106  34.204  35.195  1.00  0.00    -0.206 F 
ATOM     93  C   UNL A   1      43.195  36.281  35.119  1.00  0.00     0.059 A 
ATOM     94  C   UNL A   1      44.323  36.981  33.085  1.00  0.00     0.059 A 
ATOM     95  F   UNL A   1      44.275  35.599  31.193  1.00  0.00    -0.206 F 
ATOM     96  C   UNL A   1      43.942  37.219  34.405  1.00  0.00     0.060 A 
BRANCH  96  97
ATOM     97  S   UNL A   1      44.423  38.750  35.232  1.00  0.00     0.124 S 
ATOM     98  O   UNL A   1      44.163  38.423  36.630  1.00  0.00    -0.237 OA
ATOM     99  O   UNL A   1      45.828  38.877  34.861  1.00  0.00    -0.237 OA
ATOM    100  O   UNL A   1      43.533  39.748  34.646  1.00  0.00    -0.744 OA
ENDBRANCH  96  97
ENDBRANCH  64  89
ENDBRANCH  38  39
ENDBRANCH  30  33
ENDBRANCH  28  29
ENDBRANCH  27  28
ENDBRANCH   1  27
TORSDOF 18
ENDMDL
