MODEL 1
REMARK VINA RESULT:     -13.5      0.000      0.000
REMARK SMILES Cc1cccc(-c2cc(OCC(=O)NCCCCNC(=O)c3ccc(-c4c5nc(c(-c6c(F)cc(S(=O)(=O)[O-])cc6F)c6ccc([nH]6)c(-c6c(F)cc(S(=O)(=O)[O-])cc6F)c6nc(c(-c7c(F)cc(S(=O)(=O)[O-])cc7F)c7ccc4[nH]7)C=C6)C=C5)cc3)ncn2)c1
REMARK SMILES IDX 16 1 15 2 14 3 12 4 13 5 11 7 10 8 9 9 7 10 8 11 90 12 89 13
REMARK SMILES IDX 88 14 6 15 1 16 2 17 3 18 91 19 4 20 5 21 17 22 18 23 19 24
REMARK SMILES IDX 20 25 21 27 22 28 23 29 87 30 24 31 86 32 25 33 26 34 27 35
REMARK SMILES IDX 80 36 28 37 85 38 79 39 81 40 29 41 84 42 78 43 77 44 30 46
REMARK SMILES IDX 64 47 43 48 63 49 44 50 47 51 62 52 82 53 45 54 46 55 61 57
REMARK SMILES IDX 83 58 48 59 31 60 32 61 41 62 33 63 34 64 40 65 42 66 35 67
REMARK SMILES IDX 36 68 37 69 38 70 39 71 65 72 66 73 75 74 67 75 68 76 74 77
REMARK SMILES IDX 76 78 69 79 70 80 71 81 72 82 73 83 49 84 50 85 59 86 51 87
REMARK SMILES IDX 52 88 58 89 60 90 53 91 54 92 55 93 56 94 57 95
REMARK H PARENT 14 6 19 26 81 45 47 56
REMARK Flexibility Score: inf
ROOT
ATOM      1  C   UNL A   1      32.209  30.114  25.713  1.00  0.00     0.023 C 
ENDROOT
BRANCH   1   2
ATOM      2  C   UNL A   1      32.518  28.939  24.777  1.00  0.00     0.116 C 
BRANCH   2   3
ATOM      3  N   UNL A   1      31.355  28.115  24.480  1.00  0.00    -0.353 N 
ATOM      4  C   UNL A   1      30.850  27.060  25.178  1.00  0.00     0.258 C 
ATOM      5  O   UNL A   1      29.846  26.484  24.750  1.00  0.00    -0.271 OA
ATOM      6  H   UNL A   1      30.867  28.352  23.660  1.00  0.00     0.163 HD
BRANCH   4   7
ATOM      7  C   UNL A   1      31.518  26.610  26.482  1.00  0.00     0.331 C 
BRANCH   7   8
ATOM      8  O   UNL A   1      31.296  25.276  26.900  1.00  0.00    -0.467 OA
BRANCH   8   9
ATOM      9  C   UNL A   1      31.972  24.279  26.260  1.00  0.00     0.217 A 
ATOM     10  C   UNL A   1      33.832  23.037  25.545  1.00  0.00     0.077 A 
ATOM     11  C   UNL A   1      33.339  24.154  26.195  1.00  0.00     0.097 A 
ATOM     12  N   UNL A   1      33.033  22.129  24.953  1.00  0.00    -0.236 NA
ATOM     13  C   UNL A   1      31.718  22.351  25.070  1.00  0.00     0.226 A 
ATOM     14  N   UNL A   1      31.145  23.390  25.687  1.00  0.00    -0.202 NA
BRANCH  10  15
ATOM     15  C   UNL A   1      35.275  22.776  25.483  1.00  0.00     0.001 A 
ATOM     16  C   UNL A   1      37.628  19.834  24.831  1.00  0.00     0.044 C 
ATOM     17  C   UNL A   1      37.130  21.212  25.156  1.00  0.00    -0.050 A 
ATOM     18  C   UNL A   1      38.034  22.234  25.458  1.00  0.00     0.003 A 
ATOM     19  C   UNL A   1      35.757  21.489  25.177  1.00  0.00     0.013 A 
ATOM     20  C   UNL A   1      37.575  23.518  25.752  1.00  0.00     0.001 A 
ATOM     21  C   UNL A   1      36.205  23.789  25.754  1.00  0.00     0.010 A 
ENDBRANCH  10  15
ENDBRANCH   8   9
ENDBRANCH   7   8
ENDBRANCH   4   7
ENDBRANCH   2   3
ENDBRANCH   1   2
BRANCH   1  22
ATOM     22  C   UNL A   1      32.656  29.941  27.167  1.00  0.00     0.023 C 
BRANCH  22  23
ATOM     23  C   UNL A   1      34.147  29.698  27.347  1.00  0.00     0.116 C 
BRANCH  23  24
ATOM     24  N   UNL A   1      34.963  30.899  27.327  1.00  0.00    -0.352 N 
ATOM     25  C   UNL A   1      36.072  31.096  28.146  1.00  0.00     0.251 C 
ATOM     26  H   UNL A   1      34.718  31.614  26.697  1.00  0.00     0.163 HD
ATOM     27  O   UNL A   1      36.329  32.143  28.700  1.00  0.00    -0.269 OA
BRANCH  25  28
ATOM     28  C   UNL A   1      37.022  29.959  28.200  1.00  0.00     0.039 A 
ATOM     29  C   UNL A   1      37.121  29.232  29.392  1.00  0.00     0.014 A 
ATOM     30  C   UNL A   1      37.947  29.787  27.174  1.00  0.00     0.014 A 
ATOM     31  C   UNL A   1      38.248  28.445  29.619  1.00  0.00     0.010 A 
ATOM     32  C   UNL A   1      39.101  29.080  27.434  1.00  0.00     0.010 A 
ATOM     33  C   UNL A   1      39.269  28.441  28.669  1.00  0.00    -0.014 A 
BRANCH  33  34
ATOM     34  C   UNL A   1      40.587  27.858  28.886  1.00  0.00     0.031 A 
ATOM     35  C   UNL A   1      40.869  26.470  28.456  1.00  0.00     0.074 A 
ATOM     36  C   UNL A   1      41.586  28.642  29.346  1.00  0.00     0.049 A 
ATOM     37  N   UNL A   1      41.859  25.765  28.884  1.00  0.00    -0.248 NA
ATOM     38  C   UNL A   1      40.019  25.751  27.513  1.00  0.00     0.031 C 
ATOM     39  C   UNL A   1      43.019  28.371  29.295  1.00  0.00     0.029 A 
ATOM     40  N   UNL A   1      41.478  29.786  30.137  1.00  0.00    -0.354 N 
ATOM     41  C   UNL A   1      41.945  24.635  28.099  1.00  0.00     0.074 A 
ATOM     42  C   UNL A   1      40.745  24.649  27.296  1.00  0.00     0.031 C 
ATOM     43  C   UNL A   1      43.642  29.144  30.199  1.00  0.00     0.029 A 
ATOM     44  C   UNL A   1      42.613  29.823  30.969  1.00  0.00     0.049 A 
ATOM     45  H   UNL A   1      40.746  30.445  30.118  1.00  0.00     0.167 HD
ATOM     46  C   UNL A   1      43.087  23.887  28.130  1.00  0.00     0.037 A 
ATOM     47  C   UNL A   1      42.485  29.742  32.326  1.00  0.00     0.037 A 
ATOM     48  C   UNL A   1      44.034  24.425  29.107  1.00  0.00     0.049 A 
ATOM     49  C   UNL A   1      43.142  28.520  32.929  1.00  0.00     0.074 A 
ATOM     50  C   UNL A   1      45.123  25.273  28.982  1.00  0.00     0.029 A 
ATOM     51  N   UNL A   1      43.735  24.364  30.463  1.00  0.00    -0.354 N 
ATOM     52  N   UNL A   1      43.483  27.460  32.247  1.00  0.00    -0.248 NA
ATOM     53  C   UNL A   1      43.476  28.396  34.344  1.00  0.00     0.031 C 
ATOM     54  C   UNL A   1      45.446  25.767  30.268  1.00  0.00     0.029 A 
ATOM     55  C   UNL A   1      44.567  25.205  31.178  1.00  0.00     0.049 A 
ATOM     56  H   UNL A   1      43.030  23.802  30.858  1.00  0.00     0.167 HD
ATOM     57  C   UNL A   1      44.045  26.527  33.084  1.00  0.00     0.074 A 
ATOM     58  C   UNL A   1      44.041  27.175  34.382  1.00  0.00     0.031 C 
ATOM     59  C   UNL A   1      44.463  25.306  32.629  1.00  0.00     0.037 A 
BRANCH  46  60
ATOM     60  C   UNL A   1      43.460  22.857  27.080  1.00  0.00     0.058 A 
ATOM     61  C   UNL A   1      42.758  21.633  26.984  1.00  0.00     0.135 A 
ATOM     62  C   UNL A   1      44.528  22.988  26.170  1.00  0.00     0.135 A 
ATOM     63  F   UNL A   1      41.658  21.395  27.710  1.00  0.00    -0.206 F 
ATOM     64  C   UNL A   1      43.155  20.587  26.148  1.00  0.00     0.059 A 
ATOM     65  C   UNL A   1      44.980  21.937  25.362  1.00  0.00     0.059 A 
ATOM     66  F   UNL A   1      45.148  24.162  25.991  1.00  0.00    -0.206 F 
ATOM     67  C   UNL A   1      44.292  20.732  25.367  1.00  0.00     0.060 A 
BRANCH  67  68
ATOM     68  S   UNL A   1      44.841  19.336  24.367  1.00  0.00     0.124 S 
ATOM     69  O   UNL A   1      44.122  18.219  24.973  1.00  0.00    -0.237 OA
ATOM     70  O   UNL A   1      44.400  19.725  23.032  1.00  0.00    -0.237 OA
ATOM     71  O   UNL A   1      46.288  19.322  24.568  1.00  0.00    -0.744 OA
ENDBRANCH  67  68
ENDBRANCH  46  60
BRANCH  47  72
ATOM     72  C   UNL A   1      41.262  30.427  32.831  1.00  0.00     0.058 A 
ATOM     73  C   UNL A   1      40.153  29.617  33.149  1.00  0.00     0.135 A 
ATOM     74  C   UNL A   1      41.327  31.694  33.430  1.00  0.00     0.135 A 
ATOM     75  F   UNL A   1      40.029  28.402  32.587  1.00  0.00    -0.206 F 
ATOM     76  C   UNL A   1      39.254  29.963  34.153  1.00  0.00     0.059 A 
ATOM     77  C   UNL A   1      40.428  32.066  34.434  1.00  0.00     0.059 A 
ATOM     78  F   UNL A   1      42.353  32.516  33.161  1.00  0.00    -0.206 F 
ATOM     79  C   UNL A   1      39.450  31.157  34.842  1.00  0.00     0.060 A 
BRANCH  79  80
ATOM     80  S   UNL A   1      38.518  31.414  36.374  1.00  0.00     0.124 S 
ATOM     81  O   UNL A   1      38.160  30.050  36.743  1.00  0.00    -0.237 OA
ATOM     82  O   UNL A   1      39.512  32.061  37.233  1.00  0.00    -0.237 OA
ATOM     83  O   UNL A   1      37.413  32.265  35.953  1.00  0.00    -0.744 OA
ENDBRANCH  79  80
ENDBRANCH  47  72
BRANCH  59  84
ATOM     84  C   UNL A   1      44.907  24.117  33.463  1.00  0.00     0.058 A 
ATOM     85  C   UNL A   1      44.138  22.962  33.680  1.00  0.00     0.135 A 
ATOM     86  C   UNL A   1      46.233  24.058  33.972  1.00  0.00     0.135 A 
ATOM     87  F   UNL A   1      42.911  22.829  33.159  1.00  0.00    -0.206 F 
ATOM     88  C   UNL A   1      44.617  21.862  34.397  1.00  0.00     0.059 A 
ATOM     89  C   UNL A   1      46.750  22.948  34.636  1.00  0.00     0.059 A 
ATOM     90  F   UNL A   1      47.090  25.080  33.828  1.00  0.00    -0.206 F 
ATOM     91  C   UNL A   1      45.927  21.861  34.869  1.00  0.00     0.060 A 
BRANCH  91  92
ATOM     92  S   UNL A   1      46.575  20.414  35.724  1.00  0.00     0.124 S 
ATOM     93  O   UNL A   1      45.565  19.409  35.402  1.00  0.00    -0.237 OA
ATOM     94  O   UNL A   1      47.877  20.221  35.094  1.00  0.00    -0.237 OA
ATOM     95  O   UNL A   1      46.620  20.842  37.118  1.00  0.00    -0.744 OA
ENDBRANCH  91  92
ENDBRANCH  59  84
ENDBRANCH  33  34
ENDBRANCH  25  28
ENDBRANCH  23  24
ENDBRANCH  22  23
ENDBRANCH   1  22
TORSDOF 17
ENDMDL
MODEL 2
REMARK VINA RESULT:     -13.0      1.399      2.106
REMARK SMILES Cc1cccc(-c2cc(OCC(=O)NCCCCNC(=O)c3ccc(-c4c5nc(c(-c6c(F)cc(S(=O)(=O)[O-])cc6F)c6ccc([nH]6)c(-c6c(F)cc(S(=O)(=O)[O-])cc6F)c6nc(c(-c7c(F)cc(S(=O)(=O)[O-])cc7F)c7ccc4[nH]7)C=C6)C=C5)cc3)ncn2)c1
REMARK SMILES IDX 16 1 15 2 14 3 12 4 13 5 11 7 10 8 9 9 7 10 8 11 90 12 89 13
REMARK SMILES IDX 88 14 6 15 1 16 2 17 3 18 91 19 4 20 5 21 17 22 18 23 19 24
REMARK SMILES IDX 20 25 21 27 22 28 23 29 87 30 24 31 86 32 25 33 26 34 27 35
REMARK SMILES IDX 80 36 28 37 85 38 79 39 81 40 29 41 84 42 78 43 77 44 30 46
REMARK SMILES IDX 64 47 43 48 63 49 44 50 47 51 62 52 82 53 45 54 46 55 61 57
REMARK SMILES IDX 83 58 48 59 31 60 32 61 41 62 33 63 34 64 40 65 42 66 35 67
REMARK SMILES IDX 36 68 37 69 38 70 39 71 65 72 66 73 75 74 67 75 68 76 74 77
REMARK SMILES IDX 76 78 69 79 70 80 71 81 72 82 73 83 49 84 50 85 59 86 51 87
REMARK SMILES IDX 52 88 58 89 60 90 53 91 54 92 55 93 56 94 57 95
REMARK H PARENT 14 6 19 26 81 45 47 56
REMARK Flexibility Score: inf
ROOT
ATOM      1  C   UNL A   1      32.093  30.322  25.917  1.00  0.00     0.023 C 
ENDROOT
BRANCH   1   2
ATOM      2  C   UNL A   1      32.071  29.296  24.776  1.00  0.00     0.116 C 
BRANCH   2   3
ATOM      3  N   UNL A   1      31.180  29.662  23.685  1.00  0.00    -0.353 N 
ATOM      4  C   UNL A   1      30.780  28.918  22.617  1.00  0.00     0.258 C 
ATOM      5  O   UNL A   1      30.015  29.421  21.789  1.00  0.00    -0.271 OA
ATOM      6  H   UNL A   1      30.816  30.575  23.724  1.00  0.00     0.163 HD
BRANCH   4   7
ATOM      7  C   UNL A   1      31.269  27.474  22.460  1.00  0.00     0.331 C 
BRANCH   7   8
ATOM      8  O   UNL A   1      30.421  26.444  22.935  1.00  0.00    -0.467 OA
BRANCH   8   9
ATOM      9  C   UNL A   1      30.737  25.843  24.117  1.00  0.00     0.217 A 
ATOM     10  C   UNL A   1      31.997  24.554  25.623  1.00  0.00     0.077 A 
ATOM     11  C   UNL A   1      31.818  25.023  24.334  1.00  0.00     0.097 A 
ATOM     12  N   UNL A   1      31.140  24.834  26.623  1.00  0.00    -0.236 NA
ATOM     13  C   UNL A   1      30.117  25.636  26.301  1.00  0.00     0.226 A 
ATOM     14  N   UNL A   1      29.865  26.148  25.092  1.00  0.00    -0.202 NA
BRANCH  10  15
ATOM     15  C   UNL A   1      33.160  23.730  25.972  1.00  0.00     0.001 A 
ATOM     16  C   UNL A   1      36.968  23.868  25.654  1.00  0.00     0.044 C 
ATOM     17  C   UNL A   1      35.584  23.381  25.971  1.00  0.00    -0.050 A 
ATOM     18  C   UNL A   1      35.394  22.120  26.542  1.00  0.00     0.003 A 
ATOM     19  C   UNL A   1      34.465  24.174  25.684  1.00  0.00     0.013 A 
ATOM     20  C   UNL A   1      34.109  21.668  26.845  1.00  0.00     0.001 A 
ATOM     21  C   UNL A   1      33.001  22.472  26.571  1.00  0.00     0.010 A 
ENDBRANCH  10  15
ENDBRANCH   8   9
ENDBRANCH   7   8
ENDBRANCH   4   7
ENDBRANCH   2   3
ENDBRANCH   1   2
BRANCH   1  22
ATOM     22  C   UNL A   1      32.652  29.822  27.251  1.00  0.00     0.023 C 
BRANCH  22  23
ATOM     23  C   UNL A   1      34.156  29.588  27.260  1.00  0.00     0.116 C 
BRANCH  23  24
ATOM     24  N   UNL A   1      34.956  30.798  27.320  1.00  0.00    -0.352 N 
ATOM     25  C   UNL A   1      36.021  30.979  28.199  1.00  0.00     0.251 C 
ATOM     26  H   UNL A   1      34.733  31.532  26.704  1.00  0.00     0.163 HD
ATOM     27  O   UNL A   1      36.238  32.009  28.801  1.00  0.00    -0.269 OA
BRANCH  25  28
ATOM     28  C   UNL A   1      36.982  29.852  28.261  1.00  0.00     0.039 A 
ATOM     29  C   UNL A   1      37.090  29.136  29.459  1.00  0.00     0.014 A 
ATOM     30  C   UNL A   1      37.906  29.679  27.235  1.00  0.00     0.014 A 
ATOM     31  C   UNL A   1      38.225  28.361  29.691  1.00  0.00     0.010 A 
ATOM     32  C   UNL A   1      39.068  28.985  27.499  1.00  0.00     0.010 A 
ATOM     33  C   UNL A   1      39.244  28.358  28.739  1.00  0.00    -0.014 A 
BRANCH  33  34
ATOM     34  C   UNL A   1      40.568  27.789  28.959  1.00  0.00     0.031 A 
ATOM     35  C   UNL A   1      40.872  26.413  28.508  1.00  0.00     0.074 A 
ATOM     36  C   UNL A   1      41.552  28.579  29.441  1.00  0.00     0.049 A 
ATOM     37  N   UNL A   1      41.868  25.714  28.933  1.00  0.00    -0.248 NA
ATOM     38  C   UNL A   1      40.041  25.699  27.546  1.00  0.00     0.031 C 
ATOM     39  C   UNL A   1      42.989  28.329  29.399  1.00  0.00     0.029 A 
ATOM     40  N   UNL A   1      41.421  29.708  30.250  1.00  0.00    -0.354 N 
ATOM     41  C   UNL A   1      41.977  24.599  28.130  1.00  0.00     0.074 A 
ATOM     42  C   UNL A   1      40.784  24.611  27.317  1.00  0.00     0.031 C 
ATOM     43  C   UNL A   1      43.592  29.094  30.321  1.00  0.00     0.029 A 
ATOM     44  C   UNL A   1      42.547  29.746  31.093  1.00  0.00     0.049 A 
ATOM     45  H   UNL A   1      40.680  30.357  30.235  1.00  0.00     0.167 HD
ATOM     46  C   UNL A   1      43.128  23.866  28.159  1.00  0.00     0.037 A 
ATOM     47  C   UNL A   1      42.409  29.641  32.448  1.00  0.00     0.037 A 
ATOM     48  C   UNL A   1      44.059  24.400  29.154  1.00  0.00     0.049 A 
ATOM     49  C   UNL A   1      43.077  28.417  33.036  1.00  0.00     0.074 A 
ATOM     50  C   UNL A   1      45.137  25.264  29.053  1.00  0.00     0.029 A 
ATOM     51  N   UNL A   1      43.749  24.312  30.506  1.00  0.00    -0.354 N 
ATOM     52  N   UNL A   1      43.438  27.374  32.340  1.00  0.00    -0.248 NA
ATOM     53  C   UNL A   1      43.399  28.274  34.452  1.00  0.00     0.031 C 
ATOM     54  C   UNL A   1      45.442  25.741  30.351  1.00  0.00     0.029 A 
ATOM     55  C   UNL A   1      44.562  25.152  31.243  1.00  0.00     0.049 A 
ATOM     56  H   UNL A   1      43.047  23.734  30.885  1.00  0.00     0.167 HD
ATOM     57  C   UNL A   1      44.005  26.434  33.166  1.00  0.00     0.074 A 
ATOM     58  C   UNL A   1      43.981  27.061  34.475  1.00  0.00     0.031 C 
ATOM     59  C   UNL A   1      44.444  25.227  32.694  1.00  0.00     0.037 A 
BRANCH  46  60
ATOM     60  C   UNL A   1      43.525  22.859  27.095  1.00  0.00     0.058 A 
ATOM     61  C   UNL A   1      42.818  21.642  26.950  1.00  0.00     0.135 A 
ATOM     62  C   UNL A   1      44.619  23.004  26.220  1.00  0.00     0.135 A 
ATOM     63  F   UNL A   1      41.696  21.394  27.638  1.00  0.00    -0.206 F 
ATOM     64  C   UNL A   1      43.233  20.614  26.100  1.00  0.00     0.059 A 
ATOM     65  C   UNL A   1      45.087  21.970  25.400  1.00  0.00     0.059 A 
ATOM     66  F   UNL A   1      45.251  24.178  26.088  1.00  0.00    -0.206 F 
ATOM     67  C   UNL A   1      44.392  20.770  25.356  1.00  0.00     0.060 A 
BRANCH  67  68
ATOM     68  S   UNL A   1      44.961  19.395  24.338  1.00  0.00     0.124 S 
ATOM     69  O   UNL A   1      44.360  18.245  25.008  1.00  0.00    -0.237 OA
ATOM     70  O   UNL A   1      44.405  19.732  23.032  1.00  0.00    -0.237 OA
ATOM     71  O   UNL A   1      46.416  19.477  24.439  1.00  0.00    -0.744 OA
ENDBRANCH  67  68
ENDBRANCH  46  60
BRANCH  47  72
ATOM     72  C   UNL A   1      41.171  30.301  32.952  1.00  0.00     0.058 A 
ATOM     73  C   UNL A   1      41.234  31.687  33.199  1.00  0.00     0.135 A 
ATOM     74  C   UNL A   1      39.904  29.742  32.735  1.00  0.00     0.135 A 
ATOM     75  F   UNL A   1      42.421  32.271  33.435  1.00  0.00    -0.206 F 
ATOM     76  C   UNL A   1      40.123  32.511  33.049  1.00  0.00     0.059 A 
ATOM     77  C   UNL A   1      38.772  30.550  32.591  1.00  0.00     0.059 A 
ATOM     78  F   UNL A   1      39.776  28.426  32.503  1.00  0.00    -0.206 F 
ATOM     79  C   UNL A   1      38.913  31.937  32.667  1.00  0.00     0.060 A 
BRANCH  79  80
ATOM     80  S   UNL A   1      37.588  33.042  32.114  1.00  0.00     0.124 S 
ATOM     81  O   UNL A   1      36.424  32.166  32.160  1.00  0.00    -0.237 OA
ATOM     82  O   UNL A   1      37.626  34.098  33.128  1.00  0.00    -0.237 OA
ATOM     83  O   UNL A   1      38.024  33.444  30.783  1.00  0.00    -0.744 OA
ENDBRANCH  79  80
ENDBRANCH  47  72
BRANCH  59  84
ATOM     84  C   UNL A   1      44.896  24.030  33.512  1.00  0.00     0.058 A 
ATOM     85  C   UNL A   1      44.080  22.937  33.847  1.00  0.00     0.135 A 
ATOM     86  C   UNL A   1      46.263  23.890  33.876  1.00  0.00     0.135 A 
ATOM     87  F   UNL A   1      42.797  22.878  33.466  1.00  0.00    -0.206 F 
ATOM     88  C   UNL A   1      44.561  21.824  34.543  1.00  0.00     0.059 A 
ATOM     89  C   UNL A   1      46.775  22.763  34.515  1.00  0.00     0.059 A 
ATOM     90  F   UNL A   1      47.166  24.846  33.608  1.00  0.00    -0.206 F 
ATOM     91  C   UNL A   1      45.911  21.742  34.870  1.00  0.00     0.060 A 
BRANCH  91  92
ATOM     92  S   UNL A   1      46.551  20.274  35.695  1.00  0.00     0.124 S 
ATOM     93  O   UNL A   1      46.478  20.673  37.097  1.00  0.00    -0.237 OA
ATOM     94  O   UNL A   1      45.609  19.236  35.286  1.00  0.00    -0.237 OA
ATOM     95  O   UNL A   1      47.895  20.141  35.143  1.00  0.00    -0.744 OA
ENDBRANCH  91  92
ENDBRANCH  59  84
ENDBRANCH  33  34
ENDBRANCH  25  28
ENDBRANCH  23  24
ENDBRANCH  22  23
ENDBRANCH   1  22
TORSDOF 17
ENDMDL
MODEL 3
REMARK VINA RESULT:     -13.0      5.007     11.559
REMARK SMILES Cc1cccc(-c2cc(OCC(=O)NCCCCNC(=O)c3ccc(-c4c5nc(c(-c6c(F)cc(S(=O)(=O)[O-])cc6F)c6ccc([nH]6)c(-c6c(F)cc(S(=O)(=O)[O-])cc6F)c6nc(c(-c7c(F)cc(S(=O)(=O)[O-])cc7F)c7ccc4[nH]7)C=C6)C=C5)cc3)ncn2)c1
REMARK SMILES IDX 16 1 15 2 14 3 12 4 13 5 11 7 10 8 9 9 7 10 8 11 90 12 89 13
REMARK SMILES IDX 88 14 6 15 1 16 2 17 3 18 91 19 4 20 5 21 17 22 18 23 19 24
REMARK SMILES IDX 20 25 21 27 22 28 23 29 87 30 24 31 86 32 25 33 26 34 27 35
REMARK SMILES IDX 80 36 28 37 85 38 79 39 81 40 29 41 84 42 78 43 77 44 30 46
REMARK SMILES IDX 64 47 43 48 63 49 44 50 47 51 62 52 82 53 45 54 46 55 61 57
REMARK SMILES IDX 83 58 48 59 31 60 32 61 41 62 33 63 34 64 40 65 42 66 35 67
REMARK SMILES IDX 36 68 37 69 38 70 39 71 65 72 66 73 75 74 67 75 68 76 74 77
REMARK SMILES IDX 76 78 69 79 70 80 71 81 72 82 73 83 49 84 50 85 59 86 51 87
REMARK SMILES IDX 52 88 58 89 60 90 53 91 54 92 55 93 56 94 57 95
REMARK H PARENT 14 6 19 26 81 45 47 56
REMARK Flexibility Score: inf
ROOT
ATOM      1  C   UNL A   1      36.289  22.072  24.710  1.00  0.00     0.023 C 
ENDROOT
BRANCH   1   2
ATOM      2  C   UNL A   1      35.464  21.369  25.795  1.00  0.00     0.116 C 
BRANCH   2   3
ATOM      3  N   UNL A   1      34.825  20.145  25.334  1.00  0.00    -0.353 N 
ATOM      4  C   UNL A   1      33.636  19.989  24.688  1.00  0.00     0.258 C 
ATOM      5  O   UNL A   1      33.264  18.852  24.383  1.00  0.00    -0.271 OA
ATOM      6  H   UNL A   1      35.321  19.315  25.514  1.00  0.00     0.163 HD
BRANCH   4   7
ATOM      7  C   UNL A   1      32.784  21.213  24.338  1.00  0.00     0.331 C 
BRANCH   7   8
ATOM      8  O   UNL A   1      31.441  21.221  24.784  1.00  0.00    -0.467 OA
BRANCH   8   9
ATOM      9  C   UNL A   1      30.979  22.334  25.422  1.00  0.00     0.217 A 
ATOM     10  C   UNL A   1      30.639  24.626  25.805  1.00  0.00     0.077 A 
ATOM     11  C   UNL A   1      31.249  23.633  25.061  1.00  0.00     0.097 A 
ATOM     12  N   UNL A   1      29.854  24.361  26.867  1.00  0.00    -0.236 NA
ATOM     13  C   UNL A   1      29.664  23.063  27.136  1.00  0.00     0.226 A 
ATOM     14  N   UNL A   1      30.197  22.032  26.471  1.00  0.00    -0.202 NA
BRANCH  10  15
ATOM     15  C   UNL A   1      30.806  26.041  25.455  1.00  0.00     0.001 A 
ATOM     16  C   UNL A   1      29.603  28.492  22.778  1.00  0.00     0.044 C 
ATOM     17  C   UNL A   1      30.320  27.926  23.968  1.00  0.00    -0.050 A 
ATOM     18  C   UNL A   1      31.193  28.726  24.711  1.00  0.00     0.003 A 
ATOM     19  C   UNL A   1      30.138  26.588  24.342  1.00  0.00     0.013 A 
ATOM     20  C   UNL A   1      31.855  28.205  25.824  1.00  0.00     0.001 A 
ATOM     21  C   UNL A   1      31.654  26.875  26.199  1.00  0.00     0.010 A 
ENDBRANCH  10  15
ENDBRANCH   8   9
ENDBRANCH   7   8
ENDBRANCH   4   7
ENDBRANCH   2   3
ENDBRANCH   1   2
BRANCH   1  22
ATOM     22  C   UNL A   1      37.773  22.273  25.029  1.00  0.00     0.023 C 
BRANCH  22  23
ATOM     23  C   UNL A   1      38.057  23.324  26.091  1.00  0.00     0.116 C 
BRANCH  23  24
ATOM     24  N   UNL A   1      39.141  22.991  26.997  1.00  0.00    -0.352 N 
ATOM     25  C   UNL A   1      40.199  23.850  27.288  1.00  0.00     0.251 C 
ATOM     26  H   UNL A   1      39.128  22.109  27.431  1.00  0.00     0.163 HD
ATOM     27  O   UNL A   1      41.355  23.497  27.383  1.00  0.00    -0.269 OA
BRANCH  25  28
ATOM     28  C   UNL A   1      39.805  25.241  27.618  1.00  0.00     0.039 A 
ATOM     29  C   UNL A   1      40.248  26.272  26.781  1.00  0.00     0.014 A 
ATOM     30  C   UNL A   1      39.220  25.516  28.850  1.00  0.00     0.014 A 
ATOM     31  C   UNL A   1      40.249  27.583  27.256  1.00  0.00     0.010 A 
ATOM     32  C   UNL A   1      39.303  26.798  29.351  1.00  0.00     0.010 A 
ATOM     33  C   UNL A   1      39.851  27.823  28.571  1.00  0.00    -0.014 A 
BRANCH  33  34
ATOM     34  C   UNL A   1      40.028  29.095  29.260  1.00  0.00     0.031 A 
ATOM     35  C   UNL A   1      38.959  30.117  29.223  1.00  0.00     0.074 A 
ATOM     36  C   UNL A   1      41.108  29.270  30.052  1.00  0.00     0.049 A 
ATOM     37  N   UNL A   1      39.135  31.363  29.505  1.00  0.00    -0.248 NA
ATOM     38  C   UNL A   1      37.589  29.809  28.829  1.00  0.00     0.031 C 
ATOM     39  C   UNL A   1      41.294  30.286  31.082  1.00  0.00     0.029 A 
ATOM     40  N   UNL A   1      42.355  28.656  29.942  1.00  0.00    -0.354 N 
ATOM     41  C   UNL A   1      37.895  31.957  29.599  1.00  0.00     0.074 A 
ATOM     42  C   UNL A   1      36.970  30.959  29.117  1.00  0.00     0.031 C 
ATOM     43  C   UNL A   1      42.605  30.408  31.342  1.00  0.00     0.029 A 
ATOM     44  C   UNL A   1      43.316  29.588  30.376  1.00  0.00     0.049 A 
ATOM     45  H   UNL A   1      42.532  27.741  29.621  1.00  0.00     0.167 HD
ATOM     46  C   UNL A   1      37.785  33.179  30.196  1.00  0.00     0.037 A 
ATOM     47  C   UNL A   1      44.270  30.057  29.518  1.00  0.00     0.037 A 
ATOM     48  C   UNL A   1      39.101  33.688  30.583  1.00  0.00     0.049 A 
ATOM     49  C   UNL A   1      44.187  31.547  29.269  1.00  0.00     0.074 A 
ATOM     50  C   UNL A   1      39.797  33.662  31.781  1.00  0.00     0.029 A 
ATOM     51  N   UNL A   1      40.020  34.043  29.602  1.00  0.00    -0.354 N 
ATOM     52  N   UNL A   1      43.134  32.275  29.528  1.00  0.00    -0.248 NA
ATOM     53  C   UNL A   1      45.282  32.338  28.719  1.00  0.00     0.031 C 
ATOM     54  C   UNL A   1      41.155  33.949  31.508  1.00  0.00     0.029 A 
ATOM     55  C   UNL A   1      41.283  34.171  30.147  1.00  0.00     0.049 A 
ATOM     56  H   UNL A   1      39.801  34.182  28.652  1.00  0.00     0.167 HD
ATOM     57  C   UNL A   1      43.375  33.583  29.182  1.00  0.00     0.074 A 
ATOM     58  C   UNL A   1      44.745  33.571  28.705  1.00  0.00     0.031 C 
ATOM     59  C   UNL A   1      42.421  34.554  29.321  1.00  0.00     0.037 A 
BRANCH  46  60
ATOM     60  C   UNL A   1      36.478  33.773  30.689  1.00  0.00     0.058 A 
ATOM     61  C   UNL A   1      35.486  34.199  29.774  1.00  0.00     0.135 A 
ATOM     62  C   UNL A   1      36.158  33.998  32.041  1.00  0.00     0.135 A 
ATOM     63  F   UNL A   1      35.595  33.967  28.460  1.00  0.00    -0.206 F 
ATOM     64  C   UNL A   1      34.338  34.894  30.161  1.00  0.00     0.059 A 
ATOM     65  C   UNL A   1      35.042  34.739  32.452  1.00  0.00     0.059 A 
ATOM     66  F   UNL A   1      36.890  33.462  33.027  1.00  0.00    -0.206 F 
ATOM     67  C   UNL A   1      34.142  35.196  31.500  1.00  0.00     0.060 A 
BRANCH  67  68
ATOM     68  S   UNL A   1      32.702  36.175  31.967  1.00  0.00     0.124 S 
ATOM     69  O   UNL A   1      33.259  37.089  32.961  1.00  0.00    -0.237 OA
ATOM     70  O   UNL A   1      32.318  36.778  30.696  1.00  0.00    -0.237 OA
ATOM     71  O   UNL A   1      31.771  35.181  32.494  1.00  0.00    -0.744 OA
ENDBRANCH  67  68
ENDBRANCH  46  60
BRANCH  47  72
ATOM     72  C   UNL A   1      44.729  29.024  28.548  1.00  0.00     0.058 A 
ATOM     73  C   UNL A   1      44.151  29.042  27.262  1.00  0.00     0.135 A 
ATOM     74  C   UNL A   1      45.975  28.395  28.684  1.00  0.00     0.135 A 
ATOM     75  F   UNL A   1      42.948  29.613  27.079  1.00  0.00    -0.206 F 
ATOM     76  C   UNL A   1      44.854  28.631  26.135  1.00  0.00     0.059 A 
ATOM     77  C   UNL A   1      46.695  27.964  27.565  1.00  0.00     0.059 A 
ATOM     78  F   UNL A   1      46.574  28.336  29.883  1.00  0.00    -0.206 F 
ATOM     79  C   UNL A   1      46.157  28.165  26.292  1.00  0.00     0.060 A 
BRANCH  79  80
ATOM     80  S   UNL A   1      47.181  27.993  24.808  1.00  0.00     0.124 S 
ATOM     81  O   UNL A   1      46.873  26.632  24.385  1.00  0.00    -0.237 OA
ATOM     82  O   UNL A   1      46.657  29.057  23.948  1.00  0.00    -0.237 OA
ATOM     83  O   UNL A   1      48.532  28.208  25.309  1.00  0.00    -0.744 OA
ENDBRANCH  79  80
ENDBRANCH  47  72
BRANCH  59  84
ATOM     84  C   UNL A   1      42.477  35.978  28.796  1.00  0.00     0.058 A 
ATOM     85  C   UNL A   1      42.989  37.073  29.511  1.00  0.00     0.135 A 
ATOM     86  C   UNL A   1      42.124  36.256  27.447  1.00  0.00     0.135 A 
ATOM     87  F   UNL A   1      43.469  36.937  30.754  1.00  0.00    -0.206 F 
ATOM     88  C   UNL A   1      43.084  38.355  28.959  1.00  0.00     0.059 A 
ATOM     89  C   UNL A   1      42.268  37.511  26.860  1.00  0.00     0.059 A 
ATOM     90  F   UNL A   1      41.635  35.306  26.636  1.00  0.00    -0.206 F 
ATOM     91  C   UNL A   1      42.726  38.565  27.631  1.00  0.00     0.060 A 
BRANCH  91  92
ATOM     92  S   UNL A   1      42.923  40.196  26.892  1.00  0.00     0.124 S 
ATOM     93  O   UNL A   1      43.430  40.968  28.022  1.00  0.00    -0.237 OA
ATOM     94  O   UNL A   1      43.880  39.951  25.817  1.00  0.00    -0.237 OA
ATOM     95  O   UNL A   1      41.572  40.528  26.453  1.00  0.00    -0.744 OA
ENDBRANCH  91  92
ENDBRANCH  59  84
ENDBRANCH  33  34
ENDBRANCH  25  28
ENDBRANCH  23  24
ENDBRANCH  22  23
ENDBRANCH   1  22
TORSDOF 17
ENDMDL
