MODEL 1
REMARK VINA RESULT:     -13.2      0.000      0.000
REMARK SMILES COc1ccc(N2C(=O)/C(=C/c3c(C(=O)NCCCCNC(=O)c4ccc(-c5c6nc(c(-c7c(F)cc(S(=O)(=O)[O-])cc7F)c7ccc([nH]7)c(-c7c(F)cc(S(=O)(=O)[O-])cc7F)c7nc(c(-c8c(F)cc(S(=O)(=O)[O-])cc8F)c8ccc5[nH]8)C=C7)C=C6)cc4)[nH]c4cc(OC)ccc34)SC2=S)cc1
REMARK SMILES IDX 18 1 17 2 16 3 14 4 15 5 13 7 12 8 98 9 90 10 91 11 97 12
REMARK SMILES IDX 92 14 96 15 93 16 11 17 7 18 8 19 100 20 9 21 10 22 99 23
REMARK SMILES IDX 101 24 6 25 3 26 4 27 103 28 5 29 102 30 2 31 1 32 94 33
REMARK SMILES IDX 95 34 19 35 20 36 21 37 22 38 23 40 24 41 25 42 89 43 26 44
REMARK SMILES IDX 88 45 27 46 28 47 29 48 82 49 30 50 87 51 81 52 83 53 31 54
REMARK SMILES IDX 86 55 80 56 79 57 32 59 66 60 45 61 65 62 46 63 49 64 64 65
REMARK SMILES IDX 84 66 47 67 48 68 63 70 85 71 50 72 33 73 34 74 43 75 35 76
REMARK SMILES IDX 36 77 42 78 44 79 37 80 38 81 39 82 40 83 41 84 67 85 68 86
REMARK SMILES IDX 77 87 69 88 70 89 76 90 78 91 71 92 72 93 73 94 74 95 75 96
REMARK SMILES IDX 51 97 52 98 61 99 53 100 54 101 60 102 62 103 55 104 56 105
REMARK SMILES IDX 57 106 58 107 59 108
REMARK H PARENT 16 6 90 13 21 39 83 58 49 69
REMARK Flexibility Score: inf
ROOT
ATOM      1  C   UNL A   1      33.249  32.220  28.351  1.00  0.00     0.023 C 
ENDROOT
BRANCH   1   2
ATOM      2  C   UNL A   1      32.887  31.435  27.093  1.00  0.00     0.116 C 
BRANCH   2   3
ATOM      3  N   UNL A   1      33.859  30.448  26.648  1.00  0.00    -0.351 N 
ATOM      4  C   UNL A   1      33.638  29.267  25.970  1.00  0.00     0.268 C 
ATOM      5  O   UNL A   1      34.589  28.502  25.810  1.00  0.00    -0.268 OA
ATOM      6  H   UNL A   1      34.799  30.650  26.858  1.00  0.00     0.163 HD
BRANCH   4   7
ATOM      7  C   UNL A   1      32.309  28.896  25.535  1.00  0.00     0.112 A 
ATOM      8  C   UNL A   1      31.526  27.734  25.565  1.00  0.00     0.014 A 
ATOM      9  C   UNL A   1      30.501  27.975  24.501  1.00  0.00     0.008 A 
ATOM     10  N   UNL A   1      31.498  29.884  25.048  1.00  0.00    -0.350 N 
ATOM     11  C   UNL A   1      30.574  29.344  24.208  1.00  0.00     0.050 A 
ATOM     12  C   UNL A   1      29.533  27.280  23.703  1.00  0.00     0.015 A 
ATOM     13  H   UNL A   1      31.572  30.841  25.271  1.00  0.00     0.167 HD
ATOM     14  C   UNL A   1      29.842  30.017  23.219  1.00  0.00     0.073 A 
ATOM     15  C   UNL A   1      28.779  27.960  22.666  1.00  0.00     0.047 A 
ATOM     16  C   UNL A   1      28.951  29.318  22.421  1.00  0.00     0.120 A 
BRANCH   8  17
ATOM     17  C   UNL A   1      31.980  26.572  26.374  1.00  0.00     0.032 C 
ATOM     18  N   UNL A   1      33.501  23.314  25.379  1.00  0.00    -0.261 N 
ATOM     19  C   UNL A   1      32.961  24.129  26.419  1.00  0.00     0.270 C 
ATOM     20  C   UNL A   1      33.954  24.009  24.280  1.00  0.00     0.152 C 
ATOM     21  O   UNL A   1      32.479  23.756  27.480  1.00  0.00    -0.268 OA
ATOM     22  C   UNL A   1      32.879  25.607  25.971  1.00  0.00     0.081 C 
ATOM     23  S   UNL A   1      33.981  25.741  24.639  1.00  0.00    -0.054 SA
ATOM     24  S   UNL A   1      34.472  23.418  22.811  1.00  0.00    -0.051 S 
BRANCH  18  25
ATOM     25  C   UNL A   1      33.550  21.837  25.450  1.00  0.00     0.051 A 
ATOM     26  C   UNL A   1      33.758  18.426  24.154  1.00  0.00     0.119 A 
ATOM     27  C   UNL A   1      35.357  19.370  24.968  1.00  0.00     0.048 A 
ATOM     28  C   UNL A   1      32.195  19.338  24.150  1.00  0.00     0.048 A 
ATOM     29  C   UNL A   1      35.120  21.051  25.628  1.00  0.00     0.030 A 
ATOM     30  C   UNL A   1      32.153  20.979  24.795  1.00  0.00     0.030 A 
BRANCH  26  31
ATOM     31  O   UNL A   1      33.652  17.197  23.487  1.00  0.00    -0.497 OA
ATOM     32  C   UNL A   1      34.253  16.018  24.008  1.00  0.00     0.278 C 
ENDBRANCH  26  31
ENDBRANCH  18  25
ENDBRANCH   8  17
BRANCH  16  33
ATOM     33  O   UNL A   1      28.431  30.095  21.425  1.00  0.00    -0.497 OA
ATOM     34  C   UNL A   1      28.714  31.482  21.364  1.00  0.00     0.278 C 
ENDBRANCH  16  33
ENDBRANCH   4   7
ENDBRANCH   2   3
ENDBRANCH   1   2
BRANCH   1  35
ATOM     35  C   UNL A   1      34.598  32.934  28.343  1.00  0.00     0.023 C 
BRANCH  35  36
ATOM     36  C   UNL A   1      35.430  32.978  29.623  1.00  0.00     0.116 C 
BRANCH  36  37
ATOM     37  N   UNL A   1      35.200  32.120  30.762  1.00  0.00    -0.352 N 
ATOM     38  C   UNL A   1      36.124  31.184  31.244  1.00  0.00     0.251 C 
ATOM     39  H   UNL A   1      34.337  32.198  31.230  1.00  0.00     0.163 HD
ATOM     40  O   UNL A   1      35.870  30.492  32.223  1.00  0.00    -0.269 OA
BRANCH  38  41
ATOM     41  C   UNL A   1      37.414  31.000  30.520  1.00  0.00     0.039 A 
ATOM     42  C   UNL A   1      38.931  31.133  31.375  1.00  0.00     0.014 A 
ATOM     43  C   UNL A   1      37.423  30.274  28.886  1.00  0.00     0.014 A 
ATOM     44  C   UNL A   1      40.488  30.574  30.706  1.00  0.00     0.010 A 
ATOM     45  C   UNL A   1      39.164  29.595  28.098  1.00  0.00     0.010 A 
ATOM     46  C   UNL A   1      40.674  29.797  29.115  1.00  0.00    -0.014 A 
BRANCH  46  47
ATOM     47  C   UNL A   1      42.086  29.389  28.774  1.00  0.00     0.031 A 
ATOM     48  C   UNL A   1      42.396  27.956  28.421  1.00  0.00     0.074 A 
ATOM     49  C   UNL A   1      43.062  30.312  28.579  1.00  0.00     0.049 A 
ATOM     50  N   UNL A   1      43.493  27.417  27.947  1.00  0.00    -0.248 NA
ATOM     51  C   UNL A   1      41.296  27.003  28.566  1.00  0.00     0.031 C 
ATOM     52  C   UNL A   1      42.920  31.764  28.721  1.00  0.00     0.029 A 
ATOM     53  N   UNL A   1      44.390  30.164  28.218  1.00  0.00    -0.354 N 
ATOM     54  C   UNL A   1      43.186  26.082  27.690  1.00  0.00     0.074 A 
ATOM     55  C   UNL A   1      41.805  25.890  28.061  1.00  0.00     0.031 C 
ATOM     56  C   UNL A   1      44.108  32.359  28.499  1.00  0.00     0.029 A 
ATOM     57  C   UNL A   1      45.118  31.338  28.239  1.00  0.00     0.049 A 
ATOM     58  H   UNL A   1      44.783  29.296  27.967  1.00  0.00     0.167 HD
ATOM     59  C   UNL A   1      43.982  25.089  27.227  1.00  0.00     0.037 A 
ATOM     60  C   UNL A   1      46.446  31.566  28.112  1.00  0.00     0.037 A 
ATOM     61  C   UNL A   1      45.397  25.231  27.014  1.00  0.00     0.049 A 
ATOM     62  C   UNL A   1      47.367  30.397  27.834  1.00  0.00     0.074 A 
ATOM     63  C   UNL A   1      46.319  24.255  26.676  1.00  0.00     0.029 A 
ATOM     64  N   UNL A   1      46.102  26.412  27.168  1.00  0.00    -0.354 N 
ATOM     65  N   UNL A   1      47.059  29.141  27.610  1.00  0.00    -0.248 NA
ATOM     66  C   UNL A   1      48.813  30.670  27.787  1.00  0.00     0.031 C 
ATOM     67  C   UNL A   1      47.592  24.830  26.714  1.00  0.00     0.029 A 
ATOM     68  C   UNL A   1      47.452  26.183  26.971  1.00  0.00     0.049 A 
ATOM     69  H   UNL A   1      45.702  27.286  27.385  1.00  0.00     0.167 HD
ATOM     70  C   UNL A   1      48.261  28.493  27.340  1.00  0.00     0.074 A 
ATOM     71  C   UNL A   1      49.305  29.490  27.434  1.00  0.00     0.031 C 
ATOM     72  C   UNL A   1      48.478  27.192  27.031  1.00  0.00     0.037 A 
BRANCH  59  73
ATOM     73  C   UNL A   1      43.368  23.731  27.006  1.00  0.00     0.058 A 
ATOM     74  C   UNL A   1      43.028  23.276  25.722  1.00  0.00     0.135 A 
ATOM     75  C   UNL A   1      43.182  22.847  28.082  1.00  0.00     0.135 A 
ATOM     76  F   UNL A   1      43.157  24.088  24.661  1.00  0.00    -0.206 F 
ATOM     77  C   UNL A   1      42.535  21.991  25.513  1.00  0.00     0.059 A 
ATOM     78  C   UNL A   1      42.713  21.551  27.893  1.00  0.00     0.059 A 
ATOM     79  F   UNL A   1      43.475  23.236  29.333  1.00  0.00    -0.206 F 
ATOM     80  C   UNL A   1      42.390  21.131  26.605  1.00  0.00     0.060 A 
BRANCH  80  81
ATOM     81  S   UNL A   1      41.788  19.455  26.308  1.00  0.00     0.124 S 
ATOM     82  O   UNL A   1      42.583  19.059  25.149  1.00  0.00    -0.237 OA
ATOM     83  O   UNL A   1      42.117  18.783  27.560  1.00  0.00    -0.237 OA
ATOM     84  O   UNL A   1      40.363  19.644  26.053  1.00  0.00    -0.744 OA
ENDBRANCH  80  81
ENDBRANCH  59  73
BRANCH  60  85
ATOM     85  C   UNL A   1      47.022  32.934  28.321  1.00  0.00     0.058 A 
ATOM     86  C   UNL A   1      47.168  33.848  27.264  1.00  0.00     0.135 A 
ATOM     87  C   UNL A   1      47.519  33.324  29.576  1.00  0.00     0.135 A 
ATOM     88  F   UNL A   1      46.733  33.529  26.035  1.00  0.00    -0.206 F 
ATOM     89  C   UNL A   1      47.810  35.075  27.434  1.00  0.00     0.059 A 
ATOM     90  C   UNL A   1      48.131  34.559  29.780  1.00  0.00     0.059 A 
ATOM     91  F   UNL A   1      47.416  32.496  30.629  1.00  0.00    -0.206 F 
ATOM     92  C   UNL A   1      48.291  35.420  28.698  1.00  0.00     0.060 A 
BRANCH  92  93
ATOM     93  S   UNL A   1      49.121  37.012  28.910  1.00  0.00     0.124 S 
ATOM     94  O   UNL A   1      49.048  37.192  30.355  1.00  0.00    -0.237 OA
ATOM     95  O   UNL A   1      50.447  36.741  28.366  1.00  0.00    -0.237 OA
ATOM     96  O   UNL A   1      48.301  37.926  28.120  1.00  0.00    -0.744 OA
ENDBRANCH  92  93
ENDBRANCH  60  85
BRANCH  72  97
ATOM     97  C   UNL A   1      49.875  26.764  26.674  1.00  0.00     0.058 A 
ATOM     98  C   UNL A   1      50.761  26.224  27.617  1.00  0.00     0.135 A 
ATOM     99  C   UNL A   1      50.289  26.803  25.331  1.00  0.00     0.135 A 
ATOM    100  F   UNL A   1      50.419  26.167  28.914  1.00  0.00    -0.206 F 
ATOM    101  C   UNL A   1      52.013  25.746  27.243  1.00  0.00     0.059 A 
ATOM    102  C   UNL A   1      51.520  26.298  24.929  1.00  0.00     0.059 A 
ATOM    103  F   UNL A   1      49.474  27.300  24.386  1.00  0.00    -0.206 F 
ATOM    104  C   UNL A   1      52.378  25.776  25.894  1.00  0.00     0.060 A 
BRANCH 104 105
ATOM    105  S   UNL A   1      53.974  25.083  25.415  1.00  0.00     0.124 S 
ATOM    106  O   UNL A   1      53.681  23.654  25.396  1.00  0.00    -0.237 OA
ATOM    107  O   UNL A   1      54.202  25.701  24.113  1.00  0.00    -0.237 OA
ATOM    108  O   UNL A   1      54.872  25.526  26.478  1.00  0.00    -0.744 OA
ENDBRANCH 104 105
ENDBRANCH  72  97
ENDBRANCH  46  47
ENDBRANCH  38  41
ENDBRANCH  36  37
ENDBRANCH  35  36
ENDBRANCH   1  35
TORSDOF 18
ENDMDL
MODEL 2
REMARK VINA RESULT:     -12.8      6.123     12.474
REMARK SMILES COc1ccc(N2C(=O)/C(=C/c3c(C(=O)NCCCCNC(=O)c4ccc(-c5c6nc(c(-c7c(F)cc(S(=O)(=O)[O-])cc7F)c7ccc([nH]7)c(-c7c(F)cc(S(=O)(=O)[O-])cc7F)c7nc(c(-c8c(F)cc(S(=O)(=O)[O-])cc8F)c8ccc5[nH]8)C=C7)C=C6)cc4)[nH]c4cc(OC)ccc34)SC2=S)cc1
REMARK SMILES IDX 18 1 17 2 16 3 14 4 15 5 13 7 12 8 98 9 90 10 91 11 97 12
REMARK SMILES IDX 92 14 96 15 93 16 11 17 7 18 8 19 100 20 9 21 10 22 99 23
REMARK SMILES IDX 101 24 6 25 3 26 4 27 103 28 5 29 102 30 2 31 1 32 94 33
REMARK SMILES IDX 95 34 19 35 20 36 21 37 22 38 23 40 24 41 25 42 89 43 26 44
REMARK SMILES IDX 88 45 27 46 28 47 29 48 82 49 30 50 87 51 81 52 83 53 31 54
REMARK SMILES IDX 86 55 80 56 79 57 32 59 66 60 45 61 65 62 46 63 49 64 64 65
REMARK SMILES IDX 84 66 47 67 48 68 63 70 85 71 50 72 33 73 34 74 43 75 35 76
REMARK SMILES IDX 36 77 42 78 44 79 37 80 38 81 39 82 40 83 41 84 67 85 68 86
REMARK SMILES IDX 77 87 69 88 70 89 76 90 78 91 71 92 72 93 73 94 74 95 75 96
REMARK SMILES IDX 51 97 52 98 61 99 53 100 54 101 60 102 62 103 55 104 56 105
REMARK SMILES IDX 57 106 58 107 59 108
REMARK H PARENT 16 6 90 13 21 39 83 58 49 69
REMARK Flexibility Score: inf
ROOT
ATOM      1  C   UNL A   1      39.077  21.285  25.869  1.00  0.00     0.023 C 
ENDROOT
BRANCH   1   2
ATOM      2  C   UNL A   1      37.747  21.721  25.260  1.00  0.00     0.116 C 
BRANCH   2   3
ATOM      3  N   UNL A   1      36.925  22.605  26.074  1.00  0.00    -0.351 N 
ATOM      4  C   UNL A   1      35.552  22.628  26.203  1.00  0.00     0.268 C 
ATOM      5  O   UNL A   1      35.043  23.552  26.838  1.00  0.00    -0.268 OA
ATOM      6  H   UNL A   1      37.415  23.275  26.603  1.00  0.00     0.163 HD
BRANCH   4   7
ATOM      7  C   UNL A   1      34.726  21.645  25.538  1.00  0.00     0.112 A 
ATOM      8  C   UNL A   1      33.358  21.490  25.271  1.00  0.00     0.014 A 
ATOM      9  C   UNL A   1      33.217  20.024  25.007  1.00  0.00     0.008 A 
ATOM     10  N   UNL A   1      35.355  20.618  24.887  1.00  0.00    -0.350 N 
ATOM     11  C   UNL A   1      34.520  19.546  24.813  1.00  0.00     0.050 A 
ATOM     12  C   UNL A   1      32.221  18.994  24.922  1.00  0.00     0.015 A 
ATOM     13  H   UNL A   1      36.272  20.650  24.528  1.00  0.00     0.167 HD
ATOM     14  C   UNL A   1      34.887  18.209  24.602  1.00  0.00     0.073 A 
ATOM     15  C   UNL A   1      32.587  17.605  24.720  1.00  0.00     0.047 A 
ATOM     16  C   UNL A   1      33.916  17.221  24.577  1.00  0.00     0.120 A 
BRANCH   8  17
ATOM     17  C   UNL A   1      32.437  22.631  25.518  1.00  0.00     0.032 C 
ATOM     18  N   UNL A   1      31.766  25.732  23.555  1.00  0.00    -0.261 N 
ATOM     19  C   UNL A   1      31.547  24.988  24.753  1.00  0.00     0.270 C 
ATOM     20  C   UNL A   1      32.160  24.976  22.472  1.00  0.00     0.152 C 
ATOM     21  O   UNL A   1      31.215  25.425  25.847  1.00  0.00    -0.268 OA
ATOM     22  C   UNL A   1      31.966  23.510  24.566  1.00  0.00     0.081 C 
ATOM     23  S   UNL A   1      31.987  23.256  22.851  1.00  0.00    -0.054 SA
ATOM     24  S   UNL A   1      32.682  25.488  20.976  1.00  0.00    -0.051 S 
BRANCH  18  25
ATOM     25  C   UNL A   1      31.615  27.202  23.474  1.00  0.00     0.051 A 
ATOM     26  C   UNL A   1      30.067  30.450  24.112  1.00  0.00     0.119 A 
ATOM     27  C   UNL A   1      31.705  29.818  25.127  1.00  0.00     0.048 A 
ATOM     28  C   UNL A   1      29.435  29.346  22.825  1.00  0.00     0.048 A 
ATOM     29  C   UNL A   1      32.419  28.201  24.685  1.00  0.00     0.030 A 
ATOM     30  C   UNL A   1      30.227  27.792  22.557  1.00  0.00     0.030 A 
BRANCH  26  31
ATOM     31  O   UNL A   1      29.249  31.575  24.289  1.00  0.00    -0.497 OA
ATOM     32  C   UNL A   1      28.885  32.405  23.192  1.00  0.00     0.278 C 
ENDBRANCH  26  31
ENDBRANCH  18  25
ENDBRANCH   8  17
BRANCH  16  33
ATOM     33  O   UNL A   1      34.457  15.968  24.501  1.00  0.00    -0.497 OA
ATOM     34  C   UNL A   1      33.824  14.866  25.128  1.00  0.00     0.278 C 
ENDBRANCH  16  33
ENDBRANCH   4   7
ENDBRANCH   2   3
ENDBRANCH   1   2
BRANCH   1  35
ATOM     35  C   UNL A   1      39.790  22.308  26.751  1.00  0.00     0.023 C 
BRANCH  35  36
ATOM     36  C   UNL A   1      41.298  22.500  26.604  1.00  0.00     0.116 C 
BRANCH  36  37
ATOM     37  N   UNL A   1      41.908  23.346  25.606  1.00  0.00    -0.352 N 
ATOM     38  C   UNL A   1      42.240  24.691  25.808  1.00  0.00     0.251 C 
ATOM     39  H   UNL A   1      42.103  22.951  24.725  1.00  0.00     0.163 HD
ATOM     40  O   UNL A   1      42.766  25.354  24.921  1.00  0.00    -0.269 OA
BRANCH  38  41
ATOM     41  C   UNL A   1      41.901  25.334  27.110  1.00  0.00     0.039 A 
ATOM     42  C   UNL A   1      43.108  26.244  27.985  1.00  0.00     0.014 A 
ATOM     43  C   UNL A   1      40.190  25.509  27.599  1.00  0.00     0.014 A 
ATOM     44  C   UNL A   1      42.722  27.344  29.334  1.00  0.00     0.010 A 
ATOM     45  C   UNL A   1      39.699  26.774  29.106  1.00  0.00     0.010 A 
ATOM     46  C   UNL A   1      41.074  27.665  29.926  1.00  0.00    -0.014 A 
BRANCH  46  47
ATOM     47  C   UNL A   1      40.994  28.650  31.066  1.00  0.00     0.031 A 
ATOM     48  C   UNL A   1      39.986  29.772  31.027  1.00  0.00     0.074 A 
ATOM     49  C   UNL A   1      41.668  28.448  32.227  1.00  0.00     0.049 A 
ATOM     50  N   UNL A   1      39.637  30.630  31.954  1.00  0.00    -0.248 NA
ATOM     51  C   UNL A   1      39.221  29.910  29.789  1.00  0.00     0.031 C 
ATOM     52  C   UNL A   1      42.576  27.334  32.516  1.00  0.00     0.029 A 
ATOM     53  N   UNL A   1      41.698  29.186  33.398  1.00  0.00    -0.354 N 
ATOM     54  C   UNL A   1      38.577  31.362  31.421  1.00  0.00     0.074 A 
ATOM     55  C   UNL A   1      38.342  30.852  30.092  1.00  0.00     0.031 C 
ATOM     56  C   UNL A   1      43.101  27.486  33.747  1.00  0.00     0.029 A 
ATOM     57  C   UNL A   1      42.609  28.730  34.332  1.00  0.00     0.049 A 
ATOM     58  H   UNL A   1      41.120  29.967  33.553  1.00  0.00     0.167 HD
ATOM     59  C   UNL A   1      37.884  32.393  31.961  1.00  0.00     0.037 A 
ATOM     60  C   UNL A   1      43.035  29.269  35.498  1.00  0.00     0.037 A 
ATOM     61  C   UNL A   1      38.220  33.015  33.212  1.00  0.00     0.049 A 
ATOM     62  C   UNL A   1      42.418  30.566  35.974  1.00  0.00     0.074 A 
ATOM     63  C   UNL A   1      37.669  34.148  33.787  1.00  0.00     0.029 A 
ATOM     64  N   UNL A   1      39.229  32.587  34.058  1.00  0.00    -0.354 N 
ATOM     65  N   UNL A   1      41.429  31.249  35.448  1.00  0.00    -0.248 NA
ATOM     66  C   UNL A   1      42.965  31.166  37.203  1.00  0.00     0.031 C 
ATOM     67  C   UNL A   1      38.405  34.454  34.933  1.00  0.00     0.029 A 
ATOM     68  C   UNL A   1      39.344  33.455  35.129  1.00  0.00     0.049 A 
ATOM     69  H   UNL A   1      39.783  31.785  33.919  1.00  0.00     0.167 HD
ATOM     70  C   UNL A   1      41.202  32.320  36.308  1.00  0.00     0.074 A 
ATOM     71  C   UNL A   1      42.158  32.202  37.386  1.00  0.00     0.031 C 
ATOM     72  C   UNL A   1      40.276  33.306  36.218  1.00  0.00     0.037 A 
BRANCH  59  73
ATOM     73  C   UNL A   1      36.748  32.980  31.164  1.00  0.00     0.058 A 
ATOM     74  C   UNL A   1      35.408  32.753  31.514  1.00  0.00     0.135 A 
ATOM     75  C   UNL A   1      37.004  33.836  30.080  1.00  0.00     0.135 A 
ATOM     76  F   UNL A   1      35.103  31.921  32.523  1.00  0.00    -0.206 F 
ATOM     77  C   UNL A   1      34.363  33.362  30.823  1.00  0.00     0.059 A 
ATOM     78  C   UNL A   1      35.976  34.473  29.390  1.00  0.00     0.059 A 
ATOM     79  F   UNL A   1      38.266  34.074  29.692  1.00  0.00    -0.206 F 
ATOM     80  C   UNL A   1      34.658  34.229  29.769  1.00  0.00     0.060 A 
BRANCH  80  81
ATOM     81  S   UNL A   1      33.291  35.040  28.912  1.00  0.00     0.124 S 
ATOM     82  O   UNL A   1      32.381  35.327  30.017  1.00  0.00    -0.237 OA
ATOM     83  O   UNL A   1      33.946  36.198  28.314  1.00  0.00    -0.237 OA
ATOM     84  O   UNL A   1      32.828  34.026  27.969  1.00  0.00    -0.744 OA
ENDBRANCH  80  81
ENDBRANCH  59  73
BRANCH  60  85
ATOM     85  C   UNL A   1      44.156  28.648  36.275  1.00  0.00     0.058 A 
ATOM     86  C   UNL A   1      45.485  29.080  36.136  1.00  0.00     0.135 A 
ATOM     87  C   UNL A   1      43.928  27.545  37.115  1.00  0.00     0.135 A 
ATOM     88  F   UNL A   1      45.774  30.115  35.332  1.00  0.00    -0.206 F 
ATOM     89  C   UNL A   1      46.544  28.427  36.769  1.00  0.00     0.059 A 
ATOM     90  C   UNL A   1      44.963  26.898  37.788  1.00  0.00     0.059 A 
ATOM     91  F   UNL A   1      42.681  27.077  37.290  1.00  0.00    -0.206 F 
ATOM     92  C   UNL A   1      46.271  27.333  37.592  1.00  0.00     0.060 A 
BRANCH  92  93
ATOM     93  S   UNL A   1      47.646  26.494  38.410  1.00  0.00     0.124 S 
ATOM     94  O   UNL A   1      47.240  26.554  39.809  1.00  0.00    -0.237 OA
ATOM     95  O   UNL A   1      47.610  25.173  37.790  1.00  0.00    -0.237 OA
ATOM     96  O   UNL A   1      48.801  27.314  38.054  1.00  0.00    -0.744 OA
ENDBRANCH  92  93
ENDBRANCH  60  85
BRANCH  72  97
ATOM     97  C   UNL A   1      40.168  34.293  37.347  1.00  0.00     0.058 A 
ATOM     98  C   UNL A   1      40.875  35.503  37.360  1.00  0.00     0.135 A 
ATOM     99  C   UNL A   1      39.250  34.058  38.386  1.00  0.00     0.135 A 
ATOM    100  F   UNL A   1      41.768  35.777  36.396  1.00  0.00    -0.206 F 
ATOM    101  C   UNL A   1      40.684  36.442  38.369  1.00  0.00     0.059 A 
ATOM    102  C   UNL A   1      39.015  34.997  39.383  1.00  0.00     0.059 A 
ATOM    103  F   UNL A   1      38.538  32.919  38.415  1.00  0.00    -0.206 F 
ATOM    104  C   UNL A   1      39.743  36.185  39.369  1.00  0.00     0.060 A 
BRANCH 104 105
ATOM    105  S   UNL A   1      39.452  37.446  40.627  1.00  0.00     0.124 S 
ATOM    106  O   UNL A   1      40.735  38.140  40.652  1.00  0.00    -0.237 OA
ATOM    107  O   UNL A   1      38.336  38.196  40.062  1.00  0.00    -0.237 OA
ATOM    108  O   UNL A   1      39.136  36.669  41.823  1.00  0.00    -0.744 OA
ENDBRANCH 104 105
ENDBRANCH  72  97
ENDBRANCH  46  47
ENDBRANCH  38  41
ENDBRANCH  36  37
ENDBRANCH  35  36
ENDBRANCH   1  35
TORSDOF 18
ENDMDL
MODEL 3
REMARK VINA RESULT:     -12.5      6.038     12.127
REMARK SMILES COc1ccc(N2C(=O)/C(=C/c3c(C(=O)NCCCCNC(=O)c4ccc(-c5c6nc(c(-c7c(F)cc(S(=O)(=O)[O-])cc7F)c7ccc([nH]7)c(-c7c(F)cc(S(=O)(=O)[O-])cc7F)c7nc(c(-c8c(F)cc(S(=O)(=O)[O-])cc8F)c8ccc5[nH]8)C=C7)C=C6)cc4)[nH]c4cc(OC)ccc34)SC2=S)cc1
REMARK SMILES IDX 18 1 17 2 16 3 14 4 15 5 13 7 12 8 98 9 90 10 91 11 97 12
REMARK SMILES IDX 92 14 96 15 93 16 11 17 7 18 8 19 100 20 9 21 10 22 99 23
REMARK SMILES IDX 101 24 6 25 3 26 4 27 103 28 5 29 102 30 2 31 1 32 94 33
REMARK SMILES IDX 95 34 19 35 20 36 21 37 22 38 23 40 24 41 25 42 89 43 26 44
REMARK SMILES IDX 88 45 27 46 28 47 29 48 82 49 30 50 87 51 81 52 83 53 31 54
REMARK SMILES IDX 86 55 80 56 79 57 32 59 66 60 45 61 65 62 46 63 49 64 64 65
REMARK SMILES IDX 84 66 47 67 48 68 63 70 85 71 50 72 33 73 34 74 43 75 35 76
REMARK SMILES IDX 36 77 42 78 44 79 37 80 38 81 39 82 40 83 41 84 67 85 68 86
REMARK SMILES IDX 77 87 69 88 70 89 76 90 78 91 71 92 72 93 73 94 74 95 75 96
REMARK SMILES IDX 51 97 52 98 61 99 53 100 54 101 60 102 62 103 55 104 56 105
REMARK SMILES IDX 57 106 58 107 59 108
REMARK H PARENT 16 6 90 13 21 39 83 58 49 69
REMARK Flexibility Score: inf
ROOT
ATOM      1  C   UNL A   1      37.094  23.669  24.742  1.00  0.00     0.023 C 
ENDROOT
BRANCH   1   2
ATOM      2  C   UNL A   1      35.660  23.980  25.163  1.00  0.00     0.116 C 
BRANCH   2   3
ATOM      3  N   UNL A   1      35.302  23.635  26.531  1.00  0.00    -0.351 N 
ATOM      4  C   UNL A   1      34.540  22.576  26.981  1.00  0.00     0.268 C 
ATOM      5  O   UNL A   1      34.237  22.543  28.173  1.00  0.00    -0.268 OA
ATOM      6  H   UNL A   1      35.650  24.236  27.228  1.00  0.00     0.163 HD
BRANCH   4   7
ATOM      7  C   UNL A   1      34.037  21.579  26.062  1.00  0.00     0.112 A 
ATOM      8  C   UNL A   1      32.778  21.203  25.571  1.00  0.00     0.014 A 
ATOM      9  C   UNL A   1      32.998  19.807  25.078  1.00  0.00     0.008 A 
ATOM     10  N   UNL A   1      34.950  20.829  25.371  1.00  0.00    -0.350 N 
ATOM     11  C   UNL A   1      34.389  19.641  25.016  1.00  0.00     0.050 A 
ATOM     12  C   UNL A   1      32.274  18.630  24.694  1.00  0.00     0.015 A 
ATOM     13  H   UNL A   1      35.872  21.106  25.164  1.00  0.00     0.167 HD
ATOM     14  C   UNL A   1      35.065  18.462  24.670  1.00  0.00     0.073 A 
ATOM     15  C   UNL A   1      32.960  17.399  24.348  1.00  0.00     0.047 A 
ATOM     16  C   UNL A   1      34.348  17.320  24.354  1.00  0.00     0.120 A 
BRANCH   8  17
ATOM     17  C   UNL A   1      31.604  22.074  25.839  1.00  0.00     0.032 C 
ATOM     18  N   UNL A   1      30.474  25.253  24.245  1.00  0.00    -0.261 N 
ATOM     19  C   UNL A   1      30.299  24.293  25.287  1.00  0.00     0.270 C 
ATOM     20  C   UNL A   1      31.142  24.782  23.136  1.00  0.00     0.152 C 
ATOM     21  O   UNL A   1      29.760  24.467  26.372  1.00  0.00    -0.268 OA
ATOM     22  C   UNL A   1      31.054  22.984  24.960  1.00  0.00     0.081 C 
ATOM     23  S   UNL A   1      31.318  23.025  23.247  1.00  0.00    -0.054 SA
ATOM     24  S   UNL A   1      31.695  25.629  21.813  1.00  0.00    -0.051 S 
BRANCH  18  25
ATOM     25  C   UNL A   1      30.008  26.654  24.346  1.00  0.00     0.051 A 
ATOM     26  C   UNL A   1      29.493  30.101  23.244  1.00  0.00     0.119 A 
ATOM     27  C   UNL A   1      28.014  28.715  23.181  1.00  0.00     0.048 A 
ATOM     28  C   UNL A   1      31.078  29.561  23.930  1.00  0.00     0.048 A 
ATOM     29  C   UNL A   1      28.374  27.042  23.806  1.00  0.00     0.030 A 
ATOM     30  C   UNL A   1      31.267  27.887  24.452  1.00  0.00     0.030 A 
BRANCH  26  31
ATOM     31  O   UNL A   1      29.550  31.413  22.755  1.00  0.00    -0.497 OA
ATOM     32  C   UNL A   1      28.540  32.364  23.068  1.00  0.00     0.278 C 
ENDBRANCH  26  31
ENDBRANCH  18  25
ENDBRANCH   8  17
BRANCH  16  33
ATOM     33  O   UNL A   1      35.159  16.234  24.179  1.00  0.00    -0.497 OA
ATOM     34  C   UNL A   1      35.087  15.126  25.059  1.00  0.00     0.278 C 
ENDBRANCH  16  33
ENDBRANCH   4   7
ENDBRANCH   2   3
ENDBRANCH   1   2
BRANCH   1  35
ATOM     35  C   UNL A   1      38.189  24.010  25.750  1.00  0.00     0.023 C 
BRANCH  35  36
ATOM     36  C   UNL A   1      39.043  22.886  26.335  1.00  0.00     0.116 C 
BRANCH  36  37
ATOM     37  N   UNL A   1      40.416  22.642  25.961  1.00  0.00    -0.352 N 
ATOM     38  C   UNL A   1      41.484  23.491  26.280  1.00  0.00     0.251 C 
ATOM     39  H   UNL A   1      40.615  21.825  25.449  1.00  0.00     0.163 HD
ATOM     40  O   UNL A   1      42.631  23.220  25.941  1.00  0.00    -0.269 OA
BRANCH  38  41
ATOM     41  C   UNL A   1      41.206  24.765  27.003  1.00  0.00     0.039 A 
ATOM     42  C   UNL A   1      40.134  24.781  28.381  1.00  0.00     0.014 A 
ATOM     43  C   UNL A   1      42.243  26.194  26.719  1.00  0.00     0.014 A 
ATOM     44  C   UNL A   1      40.026  26.146  29.526  1.00  0.00     0.010 A 
ATOM     45  C   UNL A   1      42.178  27.756  28.011  1.00  0.00     0.010 A 
ATOM     46  C   UNL A   1      41.008  27.627  29.415  1.00  0.00    -0.014 A 
BRANCH  46  47
ATOM     47  C   UNL A   1      40.756  28.633  30.510  1.00  0.00     0.031 A 
ATOM     48  C   UNL A   1      41.613  28.632  31.751  1.00  0.00     0.074 A 
ATOM     49  C   UNL A   1      39.905  29.676  30.332  1.00  0.00     0.049 A 
ATOM     50  N   UNL A   1      41.678  29.493  32.737  1.00  0.00    -0.248 NA
ATOM     51  C   UNL A   1      42.575  27.537  31.871  1.00  0.00     0.031 C 
ATOM     52  C   UNL A   1      39.098  29.939  29.137  1.00  0.00     0.029 A 
ATOM     53  N   UNL A   1      39.569  30.725  31.171  1.00  0.00    -0.354 N 
ATOM     54  C   UNL A   1      42.725  29.065  33.553  1.00  0.00     0.074 A 
ATOM     55  C   UNL A   1      43.263  27.870  32.951  1.00  0.00     0.031 C 
ATOM     56  C   UNL A   1      38.337  31.033  29.336  1.00  0.00     0.029 A 
ATOM     57  C   UNL A   1      38.560  31.537  30.688  1.00  0.00     0.049 A 
ATOM     58  H   UNL A   1      40.011  30.881  32.037  1.00  0.00     0.167 HD
ATOM     59  C   UNL A   1      43.178  29.586  34.718  1.00  0.00     0.037 A 
ATOM     60  C   UNL A   1      37.863  32.536  31.275  1.00  0.00     0.037 A 
ATOM     61  C   UNL A   1      42.541  30.675  35.408  1.00  0.00     0.049 A 
ATOM     62  C   UNL A   1      38.222  32.950  32.686  1.00  0.00     0.074 A 
ATOM     63  C   UNL A   1      42.837  31.193  36.658  1.00  0.00     0.029 A 
ATOM     64  N   UNL A   1      41.450  31.380  34.931  1.00  0.00    -0.354 N 
ATOM     65  N   UNL A   1      39.203  32.522  33.445  1.00  0.00    -0.248 NA
ATOM     66  C   UNL A   1      37.387  33.982  33.323  1.00  0.00     0.031 C 
ATOM     67  C   UNL A   1      41.868  32.149  36.972  1.00  0.00     0.029 A 
ATOM     68  C   UNL A   1      41.034  32.300  35.876  1.00  0.00     0.049 A 
ATOM     69  H   UNL A   1      41.031  31.246  34.049  1.00  0.00     0.167 HD
ATOM     70  C   UNL A   1      39.137  33.271  34.617  1.00  0.00     0.074 A 
ATOM     71  C   UNL A   1      38.017  34.174  34.474  1.00  0.00     0.031 C 
ATOM     72  C   UNL A   1      39.940  33.222  35.707  1.00  0.00     0.037 A 
BRANCH  59  73
ATOM     73  C   UNL A   1      44.365  28.932  35.375  1.00  0.00     0.058 A 
ATOM     74  C   UNL A   1      45.675  29.379  35.144  1.00  0.00     0.135 A 
ATOM     75  C   UNL A   1      44.184  27.890  36.301  1.00  0.00     0.135 A 
ATOM     76  F   UNL A   1      45.909  30.351  34.248  1.00  0.00    -0.206 F 
ATOM     77  C   UNL A   1      46.762  28.824  35.814  1.00  0.00     0.059 A 
ATOM     78  C   UNL A   1      45.253  27.337  36.999  1.00  0.00     0.059 A 
ATOM     79  F   UNL A   1      42.954  27.412  36.548  1.00  0.00    -0.206 F 
ATOM     80  C   UNL A   1      46.540  27.809  36.748  1.00  0.00     0.060 A 
BRANCH  80  81
ATOM     81  S   UNL A   1      47.957  27.130  37.636  1.00  0.00     0.124 S 
ATOM     82  O   UNL A   1      48.404  26.084  36.721  1.00  0.00    -0.237 OA
ATOM     83  O   UNL A   1      48.835  28.291  37.749  1.00  0.00    -0.237 OA
ATOM     84  O   UNL A   1      47.381  26.658  38.891  1.00  0.00    -0.744 OA
ENDBRANCH  80  81
ENDBRANCH  59  73
BRANCH  60  85
ATOM     85  C   UNL A   1      36.698  33.179  30.585  1.00  0.00     0.058 A 
ATOM     86  C   UNL A   1      36.870  34.166  29.600  1.00  0.00     0.135 A 
ATOM     87  C   UNL A   1      35.378  32.875  30.962  1.00  0.00     0.135 A 
ATOM     88  F   UNL A   1      38.104  34.519  29.211  1.00  0.00    -0.206 F 
ATOM     89  C   UNL A   1      35.786  34.847  29.043  1.00  0.00     0.059 A 
ATOM     90  C   UNL A   1      34.278  33.514  30.392  1.00  0.00     0.059 A 
ATOM     91  F   UNL A   1      35.142  31.943  31.900  1.00  0.00    -0.206 F 
ATOM     92  C   UNL A   1      34.493  34.515  29.448  1.00  0.00     0.060 A 
BRANCH  92  93
ATOM     93  S   UNL A   1      33.097  35.400  28.720  1.00  0.00     0.124 S 
ATOM     94  O   UNL A   1      33.774  36.426  27.935  1.00  0.00    -0.237 OA
ATOM     95  O   UNL A   1      32.431  34.348  27.958  1.00  0.00    -0.237 OA
ATOM     96  O   UNL A   1      32.360  35.883  29.884  1.00  0.00    -0.744 OA
ENDBRANCH  92  93
ENDBRANCH  60  85
BRANCH  72  97
ATOM     97  C   UNL A   1      39.716  34.223  36.807  1.00  0.00     0.058 A 
ATOM     98  C   UNL A   1      38.909  33.952  37.921  1.00  0.00     0.135 A 
ATOM     99  C   UNL A   1      40.418  35.442  36.786  1.00  0.00     0.135 A 
ATOM    100  F   UNL A   1      38.213  32.805  37.990  1.00  0.00    -0.206 F 
ATOM    101  C   UNL A   1      38.797  34.858  38.971  1.00  0.00     0.059 A 
ATOM    102  C   UNL A   1      40.350  36.344  37.840  1.00  0.00     0.059 A 
ATOM    103  F   UNL A   1      41.214  35.746  35.747  1.00  0.00    -0.206 F 
ATOM    104  C   UNL A   1      39.531  36.046  38.927  1.00  0.00     0.060 A 
BRANCH 104 105
ATOM    105  S   UNL A   1      39.433  37.175  40.331  1.00  0.00     0.124 S 
ATOM    106  O   UNL A   1      38.826  36.326  41.351  1.00  0.00    -0.237 OA
ATOM    107  O   UNL A   1      40.833  37.523  40.546  1.00  0.00    -0.237 OA
ATOM    108  O   UNL A   1      38.591  38.262  39.837  1.00  0.00    -0.744 OA
ENDBRANCH 104 105
ENDBRANCH  72  97
ENDBRANCH  46  47
ENDBRANCH  38  41
ENDBRANCH  36  37
ENDBRANCH  35  36
ENDBRANCH   1  35
TORSDOF 18
ENDMDL
