MODEL 1
REMARK VINA RESULT:     -12.8      0.000      0.000
REMARK SMILES O=C(NCCCCNC(=O)c1cccn1CC(=O)N1CC[C@H]2CCCC[C@H]2C1)c1ccc(-c2c3nc(c(-c4c(F)cc(S(=O)(=O)[O-])cc4F)c4ccc([nH]4)c(-c4c(F)cc(S(=O)(=O)[O-])cc4F)c4nc(c(-c5c(F)cc(S(=O)(=O)[O-])cc5F)c5ccc2[nH]5)C=C4)C=C3)cc1
REMARK SMILES IDX 5 1 4 2 3 3 1 4 2 5 29 7 30 8 94 9 31 10 93 11 32 12 33 13
REMARK SMILES IDX 34 14 87 15 35 16 92 17 86 18 88 19 36 20 91 21 85 22 84 23
REMARK SMILES IDX 37 25 71 26 50 27 70 28 51 29 54 30 69 31 89 32 52 33 53 34
REMARK SMILES IDX 68 36 90 37 55 38 38 39 39 40 48 41 40 42 41 43 47 44 49 45
REMARK SMILES IDX 42 46 43 47 44 48 45 49 46 50 72 51 73 52 82 53 74 54 75 55
REMARK SMILES IDX 81 56 83 57 76 58 77 59 78 60 79 61 80 62 56 63 57 64 66 65
REMARK SMILES IDX 58 66 59 67 65 68 67 69 60 70 61 71 62 72 63 73 64 74 6 75
REMARK SMILES IDX 7 76 8 77 9 78 10 80 11 81 12 82 15 83 13 84 14 85 16 86
REMARK SMILES IDX 17 87 18 88 19 89 20 90 28 91 21 92 27 93 22 94 26 95 23 96
REMARK SMILES IDX 25 97 24 98
REMARK H PARENT 3 6 88 24 54 35 8 79
REMARK Flexibility Score: inf
ROOT
ATOM      1  C   UNL A   1      32.978  28.614  27.285  1.00  0.00     0.023 C 
ENDROOT
BRANCH   1   2
ATOM      2  C   UNL A   1      34.467  28.900  27.138  1.00  0.00     0.116 C 
BRANCH   2   3
ATOM      3  N   UNL A   1      34.932  30.200  27.587  1.00  0.00    -0.352 N 
ATOM      4  O   UNL A   1      36.221  31.957  27.995  1.00  0.00    -0.269 OA
ATOM      5  C   UNL A   1      36.161  30.731  27.892  1.00  0.00     0.251 C 
ATOM      6  H   UNL A   1      34.200  30.849  27.698  1.00  0.00     0.163 HD
BRANCH   5   7
ATOM      7  C   UNL A   1      37.368  29.919  28.199  1.00  0.00     0.039 A 
ATOM      8  C   UNL A   1      38.517  29.891  27.412  1.00  0.00     0.014 A 
ATOM      9  C   UNL A   1      37.323  29.117  29.355  1.00  0.00     0.014 A 
ATOM     10  C   UNL A   1      39.533  28.980  27.678  1.00  0.00     0.010 A 
ATOM     11  C   UNL A   1      38.366  28.240  29.665  1.00  0.00     0.010 A 
ATOM     12  C   UNL A   1      39.468  28.161  28.812  1.00  0.00    -0.014 A 
BRANCH  12  13
ATOM     13  C   UNL A   1      40.733  27.504  29.221  1.00  0.00     0.031 A 
ATOM     14  C   UNL A   1      40.905  26.181  28.413  1.00  0.00     0.074 A 
ATOM     15  C   UNL A   1      41.453  28.072  30.245  1.00  0.00     0.049 A 
ATOM     16  N   UNL A   1      41.422  25.044  28.764  1.00  0.00    -0.248 NA
ATOM     17  C   UNL A   1      40.297  26.070  27.050  1.00  0.00     0.031 C 
ATOM     18  C   UNL A   1      41.154  29.381  30.873  1.00  0.00     0.029 A 
ATOM     19  N   UNL A   1      42.569  27.689  30.973  1.00  0.00    -0.354 N 
ATOM     20  C   UNL A   1      41.445  24.208  27.617  1.00  0.00     0.074 A 
ATOM     21  C   UNL A   1      40.592  24.828  26.656  1.00  0.00     0.031 C 
ATOM     22  C   UNL A   1      41.987  29.632  31.913  1.00  0.00     0.029 A 
ATOM     23  C   UNL A   1      42.928  28.539  32.067  1.00  0.00     0.049 A 
ATOM     24  H   UNL A   1      43.084  26.881  30.750  1.00  0.00     0.167 HD
ATOM     25  C   UNL A   1      42.311  23.157  27.477  1.00  0.00     0.037 A 
ATOM     26  C   UNL A   1      43.890  28.353  33.036  1.00  0.00     0.037 A 
ATOM     27  C   UNL A   1      43.105  23.063  28.653  1.00  0.00     0.049 A 
ATOM     28  C   UNL A   1      44.640  27.180  32.575  1.00  0.00     0.074 A 
ATOM     29  C   UNL A   1      42.808  22.702  29.940  1.00  0.00     0.029 A 
ATOM     30  N   UNL A   1      44.294  23.754  28.628  1.00  0.00    -0.354 N 
ATOM     31  N   UNL A   1      45.469  27.184  31.576  1.00  0.00    -0.248 NA
ATOM     32  C   UNL A   1      44.402  25.889  33.233  1.00  0.00     0.031 C 
ATOM     33  C   UNL A   1      43.548  23.629  30.695  1.00  0.00     0.029 A 
ATOM     34  C   UNL A   1      44.462  24.299  29.870  1.00  0.00     0.049 A 
ATOM     35  H   UNL A   1      44.907  23.839  27.862  1.00  0.00     0.167 HD
ATOM     36  C   UNL A   1      45.557  25.850  31.278  1.00  0.00     0.074 A 
ATOM     37  C   UNL A   1      45.189  25.127  32.479  1.00  0.00     0.031 C 
ATOM     38  C   UNL A   1      45.320  25.452  30.003  1.00  0.00     0.037 A 
BRANCH  25  39
ATOM     39  C   UNL A   1      42.796  22.349  26.294  1.00  0.00     0.058 A 
ATOM     40  C   UNL A   1      42.463  20.966  26.276  1.00  0.00     0.135 A 
ATOM     41  C   UNL A   1      43.850  22.734  25.457  1.00  0.00     0.135 A 
ATOM     42  F   UNL A   1      41.409  20.501  26.968  1.00  0.00    -0.206 F 
ATOM     43  C   UNL A   1      43.252  20.012  25.645  1.00  0.00     0.059 A 
ATOM     44  C   UNL A   1      44.623  21.794  24.766  1.00  0.00     0.059 A 
ATOM     45  F   UNL A   1      44.213  24.017  25.344  1.00  0.00    -0.206 F 
ATOM     46  C   UNL A   1      44.361  20.434  24.926  1.00  0.00     0.060 A 
BRANCH  46  47
ATOM     47  S   UNL A   1      45.465  19.178  24.249  1.00  0.00     0.124 S 
ATOM     48  O   UNL A   1      44.920  18.997  22.908  1.00  0.00    -0.237 OA
ATOM     49  O   UNL A   1      46.765  19.839  24.318  1.00  0.00    -0.237 OA
ATOM     50  O   UNL A   1      45.294  18.055  25.164  1.00  0.00    -0.744 OA
ENDBRANCH  46  47
ENDBRANCH  25  39
BRANCH  26  51
ATOM     51  C   UNL A   1      44.350  28.894  34.392  1.00  0.00     0.058 A 
ATOM     52  C   UNL A   1      45.530  29.596  34.661  1.00  0.00     0.135 A 
ATOM     53  C   UNL A   1      43.453  28.844  35.508  1.00  0.00     0.135 A 
ATOM     54  F   UNL A   1      46.535  29.609  33.776  1.00  0.00    -0.206 F 
ATOM     55  C   UNL A   1      45.716  30.331  35.857  1.00  0.00     0.059 A 
ATOM     56  C   UNL A   1      43.580  29.612  36.663  1.00  0.00     0.059 A 
ATOM     57  F   UNL A   1      42.365  28.059  35.513  1.00  0.00    -0.206 F 
ATOM     58  C   UNL A   1      44.704  30.391  36.818  1.00  0.00     0.060 A 
BRANCH  58  59
ATOM     59  S   UNL A   1      44.762  31.578  38.182  1.00  0.00     0.124 S 
ATOM     60  O   UNL A   1      43.578  31.221  38.954  1.00  0.00    -0.237 OA
ATOM     61  O   UNL A   1      46.046  31.274  38.806  1.00  0.00    -0.237 OA
ATOM     62  O   UNL A   1      44.704  32.872  37.504  1.00  0.00    -0.744 OA
ENDBRANCH  58  59
ENDBRANCH  26  51
BRANCH  38  63
ATOM     63  C   UNL A   1      45.656  26.476  28.927  1.00  0.00     0.058 A 
ATOM     64  C   UNL A   1      46.979  26.925  28.782  1.00  0.00     0.135 A 
ATOM     65  C   UNL A   1      44.713  27.091  28.085  1.00  0.00     0.135 A 
ATOM     66  F   UNL A   1      47.953  26.389  29.536  1.00  0.00    -0.206 F 
ATOM     67  C   UNL A   1      47.341  27.920  27.866  1.00  0.00     0.059 A 
ATOM     68  C   UNL A   1      45.044  28.086  27.156  1.00  0.00     0.059 A 
ATOM     69  F   UNL A   1      43.428  26.741  28.141  1.00  0.00    -0.206 F 
ATOM     70  C   UNL A   1      46.367  28.495  27.052  1.00  0.00     0.060 A 
BRANCH  70  71
ATOM     71  S   UNL A   1      46.860  29.755  25.851  1.00  0.00     0.124 S 
ATOM     72  O   UNL A   1      45.891  30.818  26.093  1.00  0.00    -0.237 OA
ATOM     73  O   UNL A   1      48.231  30.047  26.259  1.00  0.00    -0.237 OA
ATOM     74  O   UNL A   1      46.726  29.078  24.562  1.00  0.00    -0.744 OA
ENDBRANCH  70  71
ENDBRANCH  38  63
ENDBRANCH  12  13
ENDBRANCH   5   7
ENDBRANCH   2   3
ENDBRANCH   1   2
BRANCH   1  75
ATOM     75  C   UNL A   1      32.264  28.206  26.010  1.00  0.00     0.023 C 
BRANCH  75  76
ATOM     76  C   UNL A   1      31.813  26.750  25.914  1.00  0.00     0.116 C 
BRANCH  76  77
ATOM     77  N   UNL A   1      30.483  26.616  25.338  1.00  0.00    -0.351 N 
ATOM     78  C   UNL A   1      30.087  26.192  24.090  1.00  0.00     0.267 C 
ATOM     79  H   UNL A   1      29.747  26.871  25.940  1.00  0.00     0.163 HD
ATOM     80  O   UNL A   1      28.900  26.314  23.804  1.00  0.00    -0.268 OA
BRANCH  78  81
ATOM     81  C   UNL A   1      31.062  25.634  23.170  1.00  0.00     0.107 A 
ATOM     82  C   UNL A   1      31.724  26.271  22.129  1.00  0.00     0.033 A 
ATOM     83  N   UNL A   1      31.581  24.344  23.229  1.00  0.00    -0.334 N 
ATOM     84  C   UNL A   1      32.652  25.370  21.562  1.00  0.00     0.020 A 
ATOM     85  C   UNL A   1      32.570  24.201  22.280  1.00  0.00     0.087 A 
BRANCH  83  86
ATOM     86  C   UNL A   1      31.233  23.310  24.201  1.00  0.00     0.222 C 
BRANCH  86  87
ATOM     87  C   UNL A   1      32.197  22.152  24.461  1.00  0.00     0.242 C 
ATOM     88  O   UNL A   1      31.989  21.075  23.887  1.00  0.00    -0.273 OA
BRANCH  87  89
ATOM     89  N   UNL A   1      33.402  22.378  25.103  1.00  0.00    -0.341 N 
ATOM     90  C   UNL A   1      33.650  23.385  26.107  1.00  0.00     0.120 C 
ATOM     91  C   UNL A   1      34.615  21.671  24.683  1.00  0.00     0.123 C 
ATOM     92  C   UNL A   1      34.491  24.477  25.488  1.00  0.00     0.025 C 
ATOM     93  C   UNL A   1      35.606  22.689  24.062  1.00  0.00     0.012 C 
ATOM     94  C   UNL A   1      35.823  23.948  24.929  1.00  0.00    -0.005 C 
ATOM     95  C   UNL A   1      36.960  22.085  23.697  1.00  0.00     0.006 C 
ATOM     96  C   UNL A   1      36.842  23.822  26.071  1.00  0.00     0.004 C 
ATOM     97  C   UNL A   1      37.752  21.666  24.924  1.00  0.00     0.000 C 
ATOM     98  C   UNL A   1      37.941  22.774  25.951  1.00  0.00     0.000 C 
ENDBRANCH  87  89
ENDBRANCH  86  87
ENDBRANCH  83  86
ENDBRANCH  78  81
ENDBRANCH  76  77
ENDBRANCH  75  76
ENDBRANCH   1  75
TORSDOF 17
ENDMDL
MODEL 2
REMARK VINA RESULT:     -12.4      1.176      1.859
REMARK SMILES O=C(NCCCCNC(=O)c1cccn1CC(=O)N1CC[C@H]2CCCC[C@H]2C1)c1ccc(-c2c3nc(c(-c4c(F)cc(S(=O)(=O)[O-])cc4F)c4ccc([nH]4)c(-c4c(F)cc(S(=O)(=O)[O-])cc4F)c4nc(c(-c5c(F)cc(S(=O)(=O)[O-])cc5F)c5ccc2[nH]5)C=C4)C=C3)cc1
REMARK SMILES IDX 5 1 4 2 3 3 1 4 2 5 29 7 30 8 94 9 31 10 93 11 32 12 33 13
REMARK SMILES IDX 34 14 87 15 35 16 92 17 86 18 88 19 36 20 91 21 85 22 84 23
REMARK SMILES IDX 37 25 71 26 50 27 70 28 51 29 54 30 69 31 89 32 52 33 53 34
REMARK SMILES IDX 68 36 90 37 55 38 38 39 39 40 48 41 40 42 41 43 47 44 49 45
REMARK SMILES IDX 42 46 43 47 44 48 45 49 46 50 72 51 73 52 82 53 74 54 75 55
REMARK SMILES IDX 81 56 83 57 76 58 77 59 78 60 79 61 80 62 56 63 57 64 66 65
REMARK SMILES IDX 58 66 59 67 65 68 67 69 60 70 61 71 62 72 63 73 64 74 6 75
REMARK SMILES IDX 7 76 8 77 9 78 10 80 11 81 12 82 15 83 13 84 14 85 16 86
REMARK SMILES IDX 17 87 18 88 19 89 20 90 28 91 21 92 27 93 22 94 26 95 23 96
REMARK SMILES IDX 25 97 24 98
REMARK H PARENT 3 6 88 24 54 35 8 79
REMARK Flexibility Score: inf
ROOT
ATOM      1  C   UNL A   1      33.249  28.884  26.482  1.00  0.00     0.023 C 
ENDROOT
BRANCH   1   2
ATOM      2  C   UNL A   1      34.742  29.055  26.729  1.00  0.00     0.116 C 
BRANCH   2   3
ATOM      3  N   UNL A   1      35.167  30.302  27.338  1.00  0.00    -0.352 N 
ATOM      4  O   UNL A   1      36.416  32.003  28.017  1.00  0.00    -0.269 OA
ATOM      5  C   UNL A   1      36.366  30.793  27.790  1.00  0.00     0.251 C 
ATOM      6  H   UNL A   1      34.427  30.942  27.452  1.00  0.00     0.163 HD
BRANCH   5   7
ATOM      7  C   UNL A   1      37.546  29.948  28.113  1.00  0.00     0.039 A 
ATOM      8  C   UNL A   1      38.738  29.953  27.392  1.00  0.00     0.014 A 
ATOM      9  C   UNL A   1      37.428  29.076  29.213  1.00  0.00     0.014 A 
ATOM     10  C   UNL A   1      39.728  29.014  27.656  1.00  0.00     0.010 A 
ATOM     11  C   UNL A   1      38.443  28.168  29.525  1.00  0.00     0.010 A 
ATOM     12  C   UNL A   1      39.591  28.127  28.731  1.00  0.00    -0.014 A 
BRANCH  12  13
ATOM     13  C   UNL A   1      40.824  27.429  29.169  1.00  0.00     0.031 A 
ATOM     14  C   UNL A   1      40.980  26.110  28.351  1.00  0.00     0.074 A 
ATOM     15  C   UNL A   1      41.530  27.965  30.219  1.00  0.00     0.049 A 
ATOM     16  N   UNL A   1      41.454  24.955  28.704  1.00  0.00    -0.248 NA
ATOM     17  C   UNL A   1      40.409  26.031  26.970  1.00  0.00     0.031 C 
ATOM     18  C   UNL A   1      41.252  29.276  30.853  1.00  0.00     0.029 A 
ATOM     19  N   UNL A   1      42.613  27.543  30.974  1.00  0.00    -0.354 N 
ATOM     20  C   UNL A   1      41.485  24.130  27.549  1.00  0.00     0.074 A 
ATOM     21  C   UNL A   1      40.679  24.786  26.571  1.00  0.00     0.031 C 
ATOM     22  C   UNL A   1      42.061  29.492  31.919  1.00  0.00     0.029 A 
ATOM     23  C   UNL A   1      42.966  28.370  32.087  1.00  0.00     0.049 A 
ATOM     24  H   UNL A   1      43.111  26.721  30.757  1.00  0.00     0.167 HD
ATOM     25  C   UNL A   1      42.325  23.056  27.422  1.00  0.00     0.037 A 
ATOM     26  C   UNL A   1      43.893  28.145  33.081  1.00  0.00     0.037 A 
ATOM     27  C   UNL A   1      43.082  22.927  28.619  1.00  0.00     0.049 A 
ATOM     28  C   UNL A   1      44.622  26.956  32.629  1.00  0.00     0.074 A 
ATOM     29  C   UNL A   1      42.738  22.561  29.892  1.00  0.00     0.029 A 
ATOM     30  N   UNL A   1      44.290  23.583  28.635  1.00  0.00    -0.354 N 
ATOM     31  N   UNL A   1      45.480  26.946  31.654  1.00  0.00    -0.248 NA
ATOM     32  C   UNL A   1      44.328  25.666  33.265  1.00  0.00     0.031 C 
ATOM     33  C   UNL A   1      43.482  23.458  30.679  1.00  0.00     0.029 A 
ATOM     34  C   UNL A   1      44.438  24.110  29.887  1.00  0.00     0.049 A 
ATOM     35  H   UNL A   1      44.927  23.658  27.887  1.00  0.00     0.167 HD
ATOM     36  C   UNL A   1      45.537  25.614  31.343  1.00  0.00     0.074 A 
ATOM     37  C   UNL A   1      45.114  24.890  32.524  1.00  0.00     0.031 C 
ATOM     38  C   UNL A   1      45.325  25.236  30.057  1.00  0.00     0.037 A 
BRANCH  25  39
ATOM     39  C   UNL A   1      42.820  22.247  26.244  1.00  0.00     0.058 A 
ATOM     40  C   UNL A   1      42.496  20.862  26.230  1.00  0.00     0.135 A 
ATOM     41  C   UNL A   1      43.875  22.635  25.410  1.00  0.00     0.135 A 
ATOM     42  F   UNL A   1      41.441  20.393  26.919  1.00  0.00    -0.206 F 
ATOM     43  C   UNL A   1      43.293  19.910  25.605  1.00  0.00     0.059 A 
ATOM     44  C   UNL A   1      44.657  21.697  24.725  1.00  0.00     0.059 A 
ATOM     45  F   UNL A   1      44.231  23.920  25.293  1.00  0.00    -0.206 F 
ATOM     46  C   UNL A   1      44.402  20.337  24.890  1.00  0.00     0.060 A 
BRANCH  46  47
ATOM     47  S   UNL A   1      45.518  19.085  24.222  1.00  0.00     0.124 S 
ATOM     48  O   UNL A   1      45.325  17.987  25.162  1.00  0.00    -0.237 OA
ATOM     49  O   UNL A   1      44.977  18.871  22.883  1.00  0.00    -0.237 OA
ATOM     50  O   UNL A   1      46.820  19.741  24.266  1.00  0.00    -0.744 OA
ENDBRANCH  46  47
ENDBRANCH  25  39
BRANCH  26  51
ATOM     51  C   UNL A   1      44.330  28.659  34.455  1.00  0.00     0.058 A 
ATOM     52  C   UNL A   1      43.605  28.584  35.650  1.00  0.00     0.135 A 
ATOM     53  C   UNL A   1      45.670  29.135  34.634  1.00  0.00     0.135 A 
ATOM     54  F   UNL A   1      42.297  28.300  35.640  1.00  0.00    -0.206 F 
ATOM     55  C   UNL A   1      44.211  28.785  36.915  1.00  0.00     0.059 A 
ATOM     56  C   UNL A   1      46.306  29.272  35.865  1.00  0.00     0.059 A 
ATOM     57  F   UNL A   1      46.454  29.460  33.595  1.00  0.00    -0.206 F 
ATOM     58  C   UNL A   1      45.577  29.056  37.012  1.00  0.00     0.060 A 
BRANCH  58  59
ATOM     59  S   UNL A   1      46.448  28.980  38.597  1.00  0.00     0.124 S 
ATOM     60  O   UNL A   1      45.357  29.103  39.556  1.00  0.00    -0.237 OA
ATOM     61  O   UNL A   1      47.096  27.674  38.534  1.00  0.00    -0.237 OA
ATOM     62  O   UNL A   1      47.361  30.118  38.534  1.00  0.00    -0.744 OA
ENDBRANCH  58  59
ENDBRANCH  26  51
BRANCH  38  63
ATOM     63  C   UNL A   1      45.722  26.260  29.003  1.00  0.00     0.058 A 
ATOM     64  C   UNL A   1      47.070  26.631  28.864  1.00  0.00     0.135 A 
ATOM     65  C   UNL A   1      44.816  26.950  28.177  1.00  0.00     0.135 A 
ATOM     66  F   UNL A   1      48.010  26.021  29.603  1.00  0.00    -0.206 F 
ATOM     67  C   UNL A   1      47.490  27.621  27.969  1.00  0.00     0.059 A 
ATOM     68  C   UNL A   1      45.206  27.944  27.269  1.00  0.00     0.059 A 
ATOM     69  F   UNL A   1      43.513  26.679  28.230  1.00  0.00    -0.206 F 
ATOM     70  C   UNL A   1      46.552  28.274  27.171  1.00  0.00     0.060 A 
BRANCH  70  71
ATOM     71  S   UNL A   1      47.119  29.527  25.995  1.00  0.00     0.124 S 
ATOM     72  O   UNL A   1      48.061  30.304  26.793  1.00  0.00    -0.237 OA
ATOM     73  O   UNL A   1      47.711  28.710  24.940  1.00  0.00    -0.237 OA
ATOM     74  O   UNL A   1      45.895  30.233  25.622  1.00  0.00    -0.744 OA
ENDBRANCH  70  71
ENDBRANCH  38  63
ENDBRANCH  12  13
ENDBRANCH   5   7
ENDBRANCH   2   3
ENDBRANCH   1   2
BRANCH   1  75
ATOM     75  C   UNL A   1      32.583  27.767  27.263  1.00  0.00     0.023 C 
BRANCH  75  76
ATOM     76  C   UNL A   1      31.084  27.576  27.044  1.00  0.00     0.116 C 
BRANCH  76  77
ATOM     77  N   UNL A   1      30.769  26.298  26.424  1.00  0.00    -0.351 N 
ATOM     78  C   UNL A   1      30.503  25.981  25.112  1.00  0.00     0.267 C 
ATOM     79  H   UNL A   1      30.742  25.535  27.046  1.00  0.00     0.163 HD
ATOM     80  O   UNL A   1      30.119  24.840  24.873  1.00  0.00    -0.268 OA
BRANCH  78  81
ATOM     81  C   UNL A   1      30.674  26.983  24.074  1.00  0.00     0.107 A 
ATOM     82  C   UNL A   1      29.740  27.893  23.597  1.00  0.00     0.033 A 
ATOM     83  N   UNL A   1      31.867  27.271  23.418  1.00  0.00    -0.334 N 
ATOM     84  C   UNL A   1      30.369  28.739  22.657  1.00  0.00     0.020 A 
ATOM     85  C   UNL A   1      31.688  28.357  22.591  1.00  0.00     0.087 A 
BRANCH  83  86
ATOM     86  C   UNL A   1      33.155  26.612  23.628  1.00  0.00     0.222 C 
BRANCH  86  87
ATOM     87  C   UNL A   1      33.535  25.394  22.784  1.00  0.00     0.242 C 
ATOM     88  O   UNL A   1      33.666  25.544  21.563  1.00  0.00    -0.273 OA
BRANCH  87  89
ATOM     89  N   UNL A   1      33.974  24.232  23.395  1.00  0.00    -0.341 N 
ATOM     90  C   UNL A   1      33.142  23.263  24.067  1.00  0.00     0.120 C 
ATOM     91  C   UNL A   1      35.407  23.961  23.538  1.00  0.00     0.123 C 
ATOM     92  C   UNL A   1      33.372  23.389  25.555  1.00  0.00     0.025 C 
ATOM     93  C   UNL A   1      35.785  24.011  25.041  1.00  0.00     0.012 C 
ATOM     94  C   UNL A   1      34.846  23.180  25.942  1.00  0.00    -0.005 C 
ATOM     95  C   UNL A   1      37.234  23.621  25.323  1.00  0.00     0.006 C 
ATOM     96  C   UNL A   1      35.142  21.676  26.033  1.00  0.00     0.004 C 
ATOM     97  C   UNL A   1      37.502  22.154  25.036  1.00  0.00     0.000 C 
ATOM     98  C   UNL A   1      36.561  21.197  25.755  1.00  0.00     0.000 C 
ENDBRANCH  87  89
ENDBRANCH  86  87
ENDBRANCH  83  86
ENDBRANCH  78  81
ENDBRANCH  76  77
ENDBRANCH  75  76
ENDBRANCH   1  75
TORSDOF 17
ENDMDL
MODEL 3
REMARK VINA RESULT:     -12.4      1.270      2.244
REMARK SMILES O=C(NCCCCNC(=O)c1cccn1CC(=O)N1CC[C@H]2CCCC[C@H]2C1)c1ccc(-c2c3nc(c(-c4c(F)cc(S(=O)(=O)[O-])cc4F)c4ccc([nH]4)c(-c4c(F)cc(S(=O)(=O)[O-])cc4F)c4nc(c(-c5c(F)cc(S(=O)(=O)[O-])cc5F)c5ccc2[nH]5)C=C4)C=C3)cc1
REMARK SMILES IDX 5 1 4 2 3 3 1 4 2 5 29 7 30 8 94 9 31 10 93 11 32 12 33 13
REMARK SMILES IDX 34 14 87 15 35 16 92 17 86 18 88 19 36 20 91 21 85 22 84 23
REMARK SMILES IDX 37 25 71 26 50 27 70 28 51 29 54 30 69 31 89 32 52 33 53 34
REMARK SMILES IDX 68 36 90 37 55 38 38 39 39 40 48 41 40 42 41 43 47 44 49 45
REMARK SMILES IDX 42 46 43 47 44 48 45 49 46 50 72 51 73 52 82 53 74 54 75 55
REMARK SMILES IDX 81 56 83 57 76 58 77 59 78 60 79 61 80 62 56 63 57 64 66 65
REMARK SMILES IDX 58 66 59 67 65 68 67 69 60 70 61 71 62 72 63 73 64 74 6 75
REMARK SMILES IDX 7 76 8 77 9 78 10 80 11 81 12 82 15 83 13 84 14 85 16 86
REMARK SMILES IDX 17 87 18 88 19 89 20 90 28 91 21 92 27 93 22 94 26 95 23 96
REMARK SMILES IDX 25 97 24 98
REMARK H PARENT 3 6 88 24 54 35 8 79
REMARK Flexibility Score: inf
ROOT
ATOM      1  C   UNL A   1      33.174  28.754  26.249  1.00  0.00     0.023 C 
ENDROOT
BRANCH   1   2
ATOM      2  C   UNL A   1      34.651  28.960  26.557  1.00  0.00     0.116 C 
BRANCH   2   3
ATOM      3  N   UNL A   1      35.011  30.183  27.251  1.00  0.00    -0.352 N 
ATOM      4  O   UNL A   1      36.176  31.881  28.071  1.00  0.00    -0.269 OA
ATOM      5  C   UNL A   1      36.175  30.685  27.776  1.00  0.00     0.251 C 
ATOM      6  H   UNL A   1      34.246  30.792  27.372  1.00  0.00     0.163 HD
BRANCH   5   7
ATOM      7  C   UNL A   1      37.371  29.861  28.097  1.00  0.00     0.039 A 
ATOM      8  C   UNL A   1      38.543  29.850  27.345  1.00  0.00     0.014 A 
ATOM      9  C   UNL A   1      37.289  29.028  29.229  1.00  0.00     0.014 A 
ATOM     10  C   UNL A   1      39.548  28.928  27.615  1.00  0.00     0.010 A 
ATOM     11  C   UNL A   1      38.319  28.138  29.546  1.00  0.00     0.010 A 
ATOM     12  C   UNL A   1      39.446  28.078  28.724  1.00  0.00    -0.014 A 
BRANCH  12  13
ATOM     13  C   UNL A   1      40.696  27.406  29.152  1.00  0.00     0.031 A 
ATOM     14  C   UNL A   1      40.867  26.084  28.342  1.00  0.00     0.074 A 
ATOM     15  C   UNL A   1      41.403  27.961  30.191  1.00  0.00     0.049 A 
ATOM     16  N   UNL A   1      41.366  24.940  28.697  1.00  0.00    -0.248 NA
ATOM     17  C   UNL A   1      40.283  25.986  26.967  1.00  0.00     0.031 C 
ATOM     18  C   UNL A   1      41.108  29.271  30.820  1.00  0.00     0.029 A 
ATOM     19  N   UNL A   1      42.502  27.563  30.937  1.00  0.00    -0.354 N 
ATOM     20  C   UNL A   1      41.399  24.109  27.546  1.00  0.00     0.074 A 
ATOM     21  C   UNL A   1      40.571  24.743  26.573  1.00  0.00     0.031 C 
ATOM     22  C   UNL A   1      41.925  29.508  31.876  1.00  0.00     0.029 A 
ATOM     23  C   UNL A   1      42.851  28.404  32.041  1.00  0.00     0.049 A 
ATOM     24  H   UNL A   1      43.012  26.750  30.720  1.00  0.00     0.167 HD
ATOM     25  C   UNL A   1      42.256  23.049  27.417  1.00  0.00     0.037 A 
ATOM     26  C   UNL A   1      43.793  28.202  33.027  1.00  0.00     0.037 A 
ATOM     27  C   UNL A   1      43.028  22.941  28.607  1.00  0.00     0.049 A 
ATOM     28  C   UNL A   1      44.538  27.023  32.574  1.00  0.00     0.074 A 
ATOM     29  C   UNL A   1      42.705  22.577  29.886  1.00  0.00     0.029 A 
ATOM     30  N   UNL A   1      44.225  23.619  28.606  1.00  0.00    -0.354 N 
ATOM     31  N   UNL A   1      45.386  27.023  31.590  1.00  0.00    -0.248 NA
ATOM     32  C   UNL A   1      44.274  25.732  33.222  1.00  0.00     0.031 C 
ATOM     33  C   UNL A   1      43.441  23.493  30.659  1.00  0.00     0.029 A 
ATOM     34  C   UNL A   1      44.377  24.157  29.853  1.00  0.00     0.049 A 
ATOM     35  H   UNL A   1      44.852  23.701  27.851  1.00  0.00     0.167 HD
ATOM     36  C   UNL A   1      45.464  25.690  31.287  1.00  0.00     0.074 A 
ATOM     37  C   UNL A   1      45.066  24.966  32.478  1.00  0.00     0.031 C 
ATOM     38  C   UNL A   1      45.245  25.299  30.006  1.00  0.00     0.037 A 
BRANCH  25  39
ATOM     39  C   UNL A   1      42.754  22.241  26.239  1.00  0.00     0.058 A 
ATOM     40  C   UNL A   1      42.486  20.844  26.255  1.00  0.00     0.135 A 
ATOM     41  C   UNL A   1      43.770  22.658  25.372  1.00  0.00     0.135 A 
ATOM     42  F   UNL A   1      41.469  20.344  26.979  1.00  0.00    -0.206 F 
ATOM     43  C   UNL A   1      43.304  19.915  25.624  1.00  0.00     0.059 A 
ATOM     44  C   UNL A   1      44.572  21.740  24.682  1.00  0.00     0.059 A 
ATOM     45  F   UNL A   1      44.071  23.954  25.226  1.00  0.00    -0.206 F 
ATOM     46  C   UNL A   1      44.377  20.374  24.873  1.00  0.00     0.060 A 
BRANCH  46  47
ATOM     47  S   UNL A   1      45.525  19.157  24.196  1.00  0.00     0.124 S 
ATOM     48  O   UNL A   1      46.776  19.905  24.185  1.00  0.00    -0.237 OA
ATOM     49  O   UNL A   1      45.444  18.077  25.176  1.00  0.00    -0.237 OA
ATOM     50  O   UNL A   1      44.952  18.850  22.890  1.00  0.00    -0.744 OA
ENDBRANCH  46  47
ENDBRANCH  25  39
BRANCH  26  51
ATOM     51  C   UNL A   1      44.235  28.732  34.393  1.00  0.00     0.058 A 
ATOM     52  C   UNL A   1      43.472  28.775  35.566  1.00  0.00     0.135 A 
ATOM     53  C   UNL A   1      45.607  29.093  34.596  1.00  0.00     0.135 A 
ATOM     54  F   UNL A   1      42.144  28.610  35.524  1.00  0.00    -0.206 F 
ATOM     55  C   UNL A   1      44.057  28.974  36.841  1.00  0.00     0.059 A 
ATOM     56  C   UNL A   1      46.217  29.224  35.841  1.00  0.00     0.059 A 
ATOM     57  F   UNL A   1      46.447  29.301  33.571  1.00  0.00    -0.206 F 
ATOM     58  C   UNL A   1      45.439  29.124  36.972  1.00  0.00     0.060 A 
BRANCH  58  59
ATOM     59  S   UNL A   1      46.252  29.038  38.586  1.00  0.00     0.124 S 
ATOM     60  O   UNL A   1      47.370  28.140  38.322  1.00  0.00    -0.237 OA
ATOM     61  O   UNL A   1      46.600  30.433  38.835  1.00  0.00    -0.237 OA
ATOM     62  O   UNL A   1      45.210  28.504  39.460  1.00  0.00    -0.744 OA
ENDBRANCH  58  59
ENDBRANCH  26  51
BRANCH  38  63
ATOM     63  C   UNL A   1      45.612  26.324  28.942  1.00  0.00     0.058 A 
ATOM     64  C   UNL A   1      46.940  26.768  28.830  1.00  0.00     0.135 A 
ATOM     65  C   UNL A   1      44.692  26.945  28.078  1.00  0.00     0.135 A 
ATOM     66  F   UNL A   1      47.893  26.226  29.606  1.00  0.00    -0.206 F 
ATOM     67  C   UNL A   1      47.328  27.763  27.925  1.00  0.00     0.059 A 
ATOM     68  C   UNL A   1      45.050  27.941  27.160  1.00  0.00     0.059 A 
ATOM     69  F   UNL A   1      43.405  26.601  28.103  1.00  0.00    -0.206 F 
ATOM     70  C   UNL A   1      46.377  28.345  27.089  1.00  0.00     0.060 A 
BRANCH  70  71
ATOM     71  S   UNL A   1      46.905  29.605  25.903  1.00  0.00     0.124 S 
ATOM     72  O   UNL A   1      48.183  30.040  26.454  1.00  0.00    -0.237 OA
ATOM     73  O   UNL A   1      46.982  28.841  24.660  1.00  0.00    -0.237 OA
ATOM     74  O   UNL A   1      45.837  30.601  25.956  1.00  0.00    -0.744 OA
ENDBRANCH  70  71
ENDBRANCH  38  63
ENDBRANCH  12  13
ENDBRANCH   5   7
ENDBRANCH   2   3
ENDBRANCH   1   2
BRANCH   1  75
ATOM     75  C   UNL A   1      32.431  27.836  27.203  1.00  0.00     0.023 C 
BRANCH  75  76
ATOM     76  C   UNL A   1      30.983  27.507  26.849  1.00  0.00     0.116 C 
BRANCH  76  77
ATOM     77  N   UNL A   1      30.779  26.088  26.600  1.00  0.00    -0.351 N 
ATOM     78  C   UNL A   1      31.073  25.321  25.496  1.00  0.00     0.267 C 
ATOM     79  H   UNL A   1      30.361  25.596  27.344  1.00  0.00     0.163 HD
ATOM     80  O   UNL A   1      30.659  24.165  25.485  1.00  0.00    -0.268 OA
BRANCH  78  81
ATOM     81  C   UNL A   1      31.839  25.889  24.401  1.00  0.00     0.107 A 
ATOM     82  C   UNL A   1      31.385  26.685  23.357  1.00  0.00     0.033 A 
ATOM     83  N   UNL A   1      33.220  25.803  24.251  1.00  0.00    -0.334 N 
ATOM     84  C   UNL A   1      32.492  27.088  22.579  1.00  0.00     0.020 A 
ATOM     85  C   UNL A   1      33.614  26.561  23.171  1.00  0.00     0.087 A 
BRANCH  83  86
ATOM     86  C   UNL A   1      34.149  25.113  25.143  1.00  0.00     0.222 C 
BRANCH  86  87
ATOM     87  C   UNL A   1      35.086  24.040  24.586  1.00  0.00     0.242 C 
ATOM     88  O   UNL A   1      36.278  24.070  24.921  1.00  0.00    -0.273 OA
BRANCH  87  89
ATOM     89  N   UNL A   1      34.570  22.926  23.947  1.00  0.00    -0.341 N 
ATOM     90  C   UNL A   1      33.903  22.919  22.667  1.00  0.00     0.120 C 
ATOM     91  C   UNL A   1      34.531  21.628  24.625  1.00  0.00     0.123 C 
ATOM     92  C   UNL A   1      32.428  22.694  22.900  1.00  0.00     0.025 C 
ATOM     93  C   UNL A   1      33.054  21.239  24.891  1.00  0.00     0.012 C 
ATOM     94  C   UNL A   1      32.144  21.382  23.652  1.00  0.00    -0.005 C 
ATOM     95  C   UNL A   1      32.884  19.843  25.487  1.00  0.00     0.006 C 
ATOM     96  C   UNL A   1      32.157  20.211  22.659  1.00  0.00     0.004 C 
ATOM     97  C   UNL A   1      33.269  18.749  24.507  1.00  0.00     0.000 C 
ATOM     98  C   UNL A   1      32.548  18.830  23.169  1.00  0.00     0.000 C 
ENDBRANCH  87  89
ENDBRANCH  86  87
ENDBRANCH  83  86
ENDBRANCH  78  81
ENDBRANCH  76  77
ENDBRANCH  75  76
ENDBRANCH   1  75
TORSDOF 17
ENDMDL
