MODEL 1
REMARK VINA RESULT:     -11.4      0.000      0.000
REMARK SMILES COc1ccc(CCc2nnc(NC(=O)[C@@H]3[C@@H](C(=O)NCCCCNC(=O)c4ccc(-c5c6nc(c(-c7c(F)cc(S(=O)(=O)[O-])cc7F)c7ccc([nH]7)c(-c7c(F)cc(S(=O)(=O)[O-])cc7F)c7nc(c(-c8c(F)cc(S(=O)(=O)[O-])cc8F)c8ccc5[nH]8)C=C7)C=C6)cc4)C3(C)C)s2)cc1
REMARK SMILES IDX 21 1 20 2 18 3 19 4 17 6 16 7 94 8 95 9 96 10 14 11 13 12
REMARK SMILES IDX 15 14 12 15 9 16 10 17 97 18 11 19 8 20 7 21 6 22 3 23 4 24
REMARK SMILES IDX 99 25 5 26 98 27 2 28 1 29 22 30 23 31 24 32 25 33 26 34
REMARK SMILES IDX 27 36 28 37 29 38 93 39 30 40 92 41 31 42 32 43 33 44 86 45
REMARK SMILES IDX 34 46 91 47 85 48 87 49 35 50 90 51 84 52 83 53 36 55 70 56
REMARK SMILES IDX 49 57 69 58 50 59 53 60 68 61 88 62 51 63 52 64 67 66 89 67
REMARK SMILES IDX 54 68 37 69 38 70 47 71 39 72 40 73 46 74 48 75 41 76 42 77
REMARK SMILES IDX 43 78 44 79 45 80 71 81 72 82 81 83 73 84 74 85 80 86 82 87
REMARK SMILES IDX 75 88 76 89 77 90 78 91 79 92 55 93 56 94 65 95 57 96 58 97
REMARK SMILES IDX 64 98 66 99 59 100 60 101 61 102 62 103 63 104
REMARK H PARENT 20 5 13 13 25 35 87 54 53 65
REMARK Flexibility Score: inf
ROOT
ATOM      1  C   UNL A   1      33.370  25.846  25.747  1.00  0.00     0.116 C 
ENDROOT
BRANCH   1   2
ATOM      2  N   UNL A   1      32.386  26.304  26.704  1.00  0.00    -0.356 N 
ATOM      3  C   UNL A   1      31.470  27.316  26.717  1.00  0.00     0.224 C 
ATOM      4  O   UNL A   1      30.841  27.479  27.763  1.00  0.00    -0.275 OA
ATOM      5  H   UNL A   1      32.376  25.766  27.528  1.00  0.00     0.163 HD
BRANCH   3   6
ATOM      6  C   UNL A   1      31.144  28.225  25.588  1.00  0.00     0.098 C 
ATOM      7  C   UNL A   1      31.805  28.364  24.251  1.00  0.00     0.098 C 
ATOM      8  C   UNL A   1      31.924  29.500  25.272  1.00  0.00    -0.011 C 
ATOM      9  C   UNL A   1      33.299  29.733  25.861  1.00  0.00     0.013 C 
ATOM     10  C   UNL A   1      31.133  30.773  25.105  1.00  0.00     0.013 C 
BRANCH   7  11
ATOM     11  C   UNL A   1      30.977  28.408  23.012  1.00  0.00     0.230 C 
ATOM     12  N   UNL A   1      30.880  27.251  22.280  1.00  0.00    -0.300 N 
ATOM     13  H   UNL A   1      30.669  27.336  21.322  1.00  0.00     0.172 HD
ATOM     14  O   UNL A   1      30.521  29.452  22.574  1.00  0.00    -0.274 OA
BRANCH  12  15
ATOM     15  C   UNL A   1      31.056  25.993  22.775  1.00  0.00     0.212 A 
ATOM     16  C   UNL A   1      31.827  23.765  22.989  1.00  0.00     0.119 A 
ATOM     17  N   UNL A   1      30.767  24.004  23.739  1.00  0.00    -0.142 NA
ATOM     18  S   UNL A   1      32.414  25.169  22.179  1.00  0.00    -0.080 S 
ATOM     19  N   UNL A   1      30.333  25.316  23.632  1.00  0.00    -0.120 NA
BRANCH  16  20
ATOM     20  C   UNL A   1      32.507  22.430  22.872  1.00  0.00     0.074 C 
BRANCH  20  21
ATOM     21  C   UNL A   1      32.293  21.505  24.085  1.00  0.00     0.043 C 
BRANCH  21  22
ATOM     22  C   UNL A   1      32.897  20.129  23.888  1.00  0.00    -0.047 A 
ATOM     23  C   UNL A   1      33.748  17.469  23.834  1.00  0.00     0.118 A 
ATOM     24  C   UNL A   1      34.392  18.382  24.664  1.00  0.00     0.046 A 
ATOM     25  C   UNL A   1      32.716  17.878  22.994  1.00  0.00     0.046 A 
ATOM     26  C   UNL A   1      33.992  19.719  24.663  1.00  0.00     0.007 A 
ATOM     27  C   UNL A   1      32.292  19.208  23.020  1.00  0.00     0.007 A 
BRANCH  23  28
ATOM     28  O   UNL A   1      34.056  16.142  23.947  1.00  0.00    -0.497 OA
ATOM     29  C   UNL A   1      34.887  15.919  25.083  1.00  0.00     0.278 C 
ENDBRANCH  23  28
ENDBRANCH  21  22
ENDBRANCH  20  21
ENDBRANCH  16  20
ENDBRANCH  12  15
ENDBRANCH   7  11
ENDBRANCH   3   6
ENDBRANCH   1   2
BRANCH   1  30
ATOM     30  C   UNL A   1      33.795  24.407  26.025  1.00  0.00     0.023 C 
BRANCH  30  31
ATOM     31  C   UNL A   1      34.970  23.922  25.183  1.00  0.00     0.023 C 
BRANCH  31  32
ATOM     32  C   UNL A   1      36.342  24.152  25.804  1.00  0.00     0.116 C 
BRANCH  32  33
ATOM     33  N   UNL A   1      37.254  23.030  25.619  1.00  0.00    -0.352 N 
ATOM     34  C   UNL A   1      38.579  22.927  25.969  1.00  0.00     0.251 C 
ATOM     35  H   UNL A   1      36.867  22.236  25.182  1.00  0.00     0.163 HD
ATOM     36  O   UNL A   1      39.234  21.944  25.637  1.00  0.00    -0.269 OA
BRANCH  34  37
ATOM     37  C   UNL A   1      39.208  24.028  26.723  1.00  0.00     0.039 A 
ATOM     38  C   UNL A   1      40.005  24.951  26.041  1.00  0.00     0.014 A 
ATOM     39  C   UNL A   1      38.963  24.175  28.091  1.00  0.00     0.014 A 
ATOM     40  C   UNL A   1      40.491  26.070  26.720  1.00  0.00     0.010 A 
ATOM     41  C   UNL A   1      39.381  25.329  28.743  1.00  0.00     0.010 A 
ATOM     42  C   UNL A   1      40.149  26.288  28.064  1.00  0.00    -0.014 A 
BRANCH  42  43
ATOM     43  C   UNL A   1      40.586  27.506  28.792  1.00  0.00     0.031 A 
ATOM     44  C   UNL A   1      41.940  27.534  29.447  1.00  0.00     0.074 A 
ATOM     45  C   UNL A   1      39.741  28.547  28.926  1.00  0.00     0.049 A 
ATOM     46  N   UNL A   1      42.462  28.446  30.224  1.00  0.00    -0.248 NA
ATOM     47  C   UNL A   1      42.807  26.365  29.225  1.00  0.00     0.031 C 
ATOM     48  C   UNL A   1      38.384  28.618  28.378  1.00  0.00     0.029 A 
ATOM     49  N   UNL A   1      39.893  29.743  29.582  1.00  0.00    -0.354 N 
ATOM     50  C   UNL A   1      43.707  27.954  30.598  1.00  0.00     0.074 A 
ATOM     51  C   UNL A   1      43.841  26.642  30.006  1.00  0.00     0.031 C 
ATOM     52  C   UNL A   1      37.839  29.803  28.701  1.00  0.00     0.029 A 
ATOM     53  C   UNL A   1      38.789  30.560  29.510  1.00  0.00     0.049 A 
ATOM     54  H   UNL A   1      40.718  29.994  30.059  1.00  0.00     0.167 HD
ATOM     55  C   UNL A   1      44.664  28.554  31.345  1.00  0.00     0.037 A 
ATOM     56  C   UNL A   1      38.568  31.777  30.041  1.00  0.00     0.037 A 
ATOM     57  C   UNL A   1      44.541  29.876  31.898  1.00  0.00     0.049 A 
ATOM     58  C   UNL A   1      39.654  32.428  30.855  1.00  0.00     0.074 A 
ATOM     59  C   UNL A   1      45.471  30.592  32.632  1.00  0.00     0.029 A 
ATOM     60  N   UNL A   1      43.424  30.688  31.765  1.00  0.00    -0.354 N 
ATOM     61  N   UNL A   1      40.841  31.966  31.165  1.00  0.00    -0.248 NA
ATOM     62  C   UNL A   1      39.373  33.769  31.388  1.00  0.00     0.031 C 
ATOM     63  C   UNL A   1      44.905  31.828  32.965  1.00  0.00     0.029 A 
ATOM     64  C   UNL A   1      43.639  31.895  32.407  1.00  0.00     0.049 A 
ATOM     65  H   UNL A   1      42.601  30.440  31.287  1.00  0.00     0.167 HD
ATOM     66  C   UNL A   1      41.460  32.971  31.900  1.00  0.00     0.074 A 
ATOM     67  C   UNL A   1      40.520  34.068  31.983  1.00  0.00     0.031 C 
ATOM     68  C   UNL A   1      42.696  32.984  32.456  1.00  0.00     0.037 A 
BRANCH  55  69
ATOM     69  C   UNL A   1      45.937  27.792  31.586  1.00  0.00     0.058 A 
ATOM     70  C   UNL A   1      46.077  26.936  32.691  1.00  0.00     0.135 A 
ATOM     71  C   UNL A   1      47.014  27.892  30.692  1.00  0.00     0.135 A 
ATOM     72  F   UNL A   1      45.084  26.819  33.586  1.00  0.00    -0.206 F 
ATOM     73  C   UNL A   1      47.251  26.224  32.914  1.00  0.00     0.059 A 
ATOM     74  C   UNL A   1      48.189  27.169  30.881  1.00  0.00     0.059 A 
ATOM     75  F   UNL A   1      46.934  28.699  29.622  1.00  0.00    -0.206 F 
ATOM     76  C   UNL A   1      48.302  26.349  32.003  1.00  0.00     0.060 A 
BRANCH  76  77
ATOM     77  S   UNL A   1      49.816  25.413  32.304  1.00  0.00     0.124 S 
ATOM     78  O   UNL A   1      50.154  24.968  30.956  1.00  0.00    -0.237 OA
ATOM     79  O   UNL A   1      50.700  26.421  32.879  1.00  0.00    -0.237 OA
ATOM     80  O   UNL A   1      49.388  24.363  33.223  1.00  0.00    -0.744 OA
ENDBRANCH  76  77
ENDBRANCH  55  69
BRANCH  56  81
ATOM     81  C   UNL A   1      37.277  32.476  29.804  1.00  0.00     0.058 A 
ATOM     82  C   UNL A   1      37.191  33.529  28.882  1.00  0.00     0.135 A 
ATOM     83  C   UNL A   1      36.112  32.120  30.500  1.00  0.00     0.135 A 
ATOM     84  F   UNL A   1      38.280  33.909  28.195  1.00  0.00    -0.206 F 
ATOM     85  C   UNL A   1      36.003  34.223  28.675  1.00  0.00     0.059 A 
ATOM     86  C   UNL A   1      34.905  32.783  30.294  1.00  0.00     0.059 A 
ATOM     87  F   UNL A   1      36.137  31.107  31.380  1.00  0.00    -0.206 F 
ATOM     88  C   UNL A   1      34.866  33.844  29.390  1.00  0.00     0.060 A 
BRANCH  88  89
ATOM     89  S   UNL A   1      33.322  34.737  29.099  1.00  0.00     0.124 S 
ATOM     90  O   UNL A   1      32.675  33.887  28.106  1.00  0.00    -0.237 OA
ATOM     91  O   UNL A   1      32.715  34.746  30.426  1.00  0.00    -0.237 OA
ATOM     92  O   UNL A   1      33.776  36.039  28.618  1.00  0.00    -0.744 OA
ENDBRANCH  88  89
ENDBRANCH  56  81
BRANCH  68  93
ATOM     93  C   UNL A   1      43.123  34.239  33.161  1.00  0.00     0.058 A 
ATOM     94  C   UNL A   1      43.730  35.300  32.475  1.00  0.00     0.135 A 
ATOM     95  C   UNL A   1      42.868  34.402  34.533  1.00  0.00     0.135 A 
ATOM     96  F   UNL A   1      44.001  35.189  31.164  1.00  0.00    -0.206 F 
ATOM     97  C   UNL A   1      44.086  36.476  33.127  1.00  0.00     0.059 A 
ATOM     98  C   UNL A   1      43.194  35.577  35.200  1.00  0.00     0.059 A 
ATOM     99  F   UNL A   1      42.280  33.418  35.232  1.00  0.00    -0.206 F 
ATOM    100  C   UNL A   1      43.812  36.606  34.490  1.00  0.00     0.060 A 
BRANCH 100 101
ATOM    101  S   UNL A   1      44.238  38.153  35.317  1.00  0.00     0.124 S 
ATOM    102  O   UNL A   1      43.792  37.889  36.681  1.00  0.00    -0.237 OA
ATOM    103  O   UNL A   1      45.684  38.223  35.126  1.00  0.00    -0.237 OA
ATOM    104  O   UNL A   1      43.466  39.152  34.585  1.00  0.00    -0.744 OA
ENDBRANCH 100 101
ENDBRANCH  68  93
ENDBRANCH  42  43
ENDBRANCH  34  37
ENDBRANCH  32  33
ENDBRANCH  31  32
ENDBRANCH  30  31
ENDBRANCH   1  30
TORSDOF 20
ENDMDL
MODEL 2
REMARK VINA RESULT:     -10.3      2.365      2.867
REMARK SMILES COc1ccc(CCc2nnc(NC(=O)[C@@H]3[C@@H](C(=O)NCCCCNC(=O)c4ccc(-c5c6nc(c(-c7c(F)cc(S(=O)(=O)[O-])cc7F)c7ccc([nH]7)c(-c7c(F)cc(S(=O)(=O)[O-])cc7F)c7nc(c(-c8c(F)cc(S(=O)(=O)[O-])cc8F)c8ccc5[nH]8)C=C7)C=C6)cc4)C3(C)C)s2)cc1
REMARK SMILES IDX 21 1 20 2 18 3 19 4 17 6 16 7 94 8 95 9 96 10 14 11 13 12
REMARK SMILES IDX 15 14 12 15 9 16 10 17 97 18 11 19 8 20 7 21 6 22 3 23 4 24
REMARK SMILES IDX 99 25 5 26 98 27 2 28 1 29 22 30 23 31 24 32 25 33 26 34
REMARK SMILES IDX 27 36 28 37 29 38 93 39 30 40 92 41 31 42 32 43 33 44 86 45
REMARK SMILES IDX 34 46 91 47 85 48 87 49 35 50 90 51 84 52 83 53 36 55 70 56
REMARK SMILES IDX 49 57 69 58 50 59 53 60 68 61 88 62 51 63 52 64 67 66 89 67
REMARK SMILES IDX 54 68 37 69 38 70 47 71 39 72 40 73 46 74 48 75 41 76 42 77
REMARK SMILES IDX 43 78 44 79 45 80 71 81 72 82 81 83 73 84 74 85 80 86 82 87
REMARK SMILES IDX 75 88 76 89 77 90 78 91 79 92 55 93 56 94 65 95 57 96 58 97
REMARK SMILES IDX 64 98 66 99 59 100 60 101 61 102 62 103 63 104
REMARK H PARENT 20 5 13 13 25 35 87 54 53 65
REMARK Flexibility Score: inf
ROOT
ATOM      1  C   UNL A   1      33.847  25.108  25.734  1.00  0.00     0.116 C 
ENDROOT
BRANCH   1   2
ATOM      2  N   UNL A   1      34.014  26.496  26.106  1.00  0.00    -0.356 N 
ATOM      3  C   UNL A   1      33.604  27.682  25.567  1.00  0.00     0.224 C 
ATOM      4  O   UNL A   1      34.015  28.707  26.110  1.00  0.00    -0.275 OA
ATOM      5  H   UNL A   1      34.540  26.611  26.930  1.00  0.00     0.163 HD
BRANCH   3   6
ATOM      6  C   UNL A   1      32.695  27.853  24.404  1.00  0.00     0.098 C 
ATOM      7  C   UNL A   1      32.533  27.002  23.183  1.00  0.00     0.098 C 
ATOM      8  C   UNL A   1      33.142  28.401  23.050  1.00  0.00    -0.011 C 
ATOM      9  C   UNL A   1      34.611  28.464  22.687  1.00  0.00     0.013 C 
ATOM     10  C   UNL A   1      32.344  29.538  22.464  1.00  0.00     0.013 C 
BRANCH   7  11
ATOM     11  C   UNL A   1      31.169  26.614  22.722  1.00  0.00     0.230 C 
ATOM     12  N   UNL A   1      31.046  25.412  22.071  1.00  0.00    -0.300 N 
ATOM     13  H   UNL A   1      30.282  25.303  21.459  1.00  0.00     0.172 HD
ATOM     14  O   UNL A   1      30.223  27.382  22.779  1.00  0.00    -0.274 OA
BRANCH  12  15
ATOM     15  C   UNL A   1      31.899  24.357  22.204  1.00  0.00     0.212 A 
ATOM     16  C   UNL A   1      32.995  22.475  23.132  1.00  0.00     0.119 A 
ATOM     17  N   UNL A   1      33.661  22.996  22.117  1.00  0.00    -0.142 NA
ATOM     18  S   UNL A   1      31.470  23.232  23.400  1.00  0.00    -0.080 S 
ATOM     19  N   UNL A   1      33.005  24.081  21.560  1.00  0.00    -0.120 NA
BRANCH  16  20
ATOM     20  C   UNL A   1      33.467  21.310  23.956  1.00  0.00     0.074 C 
BRANCH  20  21
ATOM     21  C   UNL A   1      32.347  20.340  24.375  1.00  0.00     0.043 C 
BRANCH  21  22
ATOM     22  C   UNL A   1      32.838  18.918  24.552  1.00  0.00    -0.047 A 
ATOM     23  C   UNL A   1      33.347  16.180  24.776  1.00  0.00     0.118 A 
ATOM     24  C   UNL A   1      32.918  16.894  25.890  1.00  0.00     0.046 A 
ATOM     25  C   UNL A   1      33.572  16.825  23.563  1.00  0.00     0.046 A 
ATOM     26  C   UNL A   1      32.700  18.269  25.788  1.00  0.00     0.007 A 
ATOM     27  C   UNL A   1      33.319  18.194  23.451  1.00  0.00     0.007 A 
BRANCH  23  28
ATOM     28  O   UNL A   1      33.423  14.818  24.853  1.00  0.00    -0.497 OA
ATOM     29  C   UNL A   1      32.467  14.319  25.785  1.00  0.00     0.278 C 
ENDBRANCH  23  28
ENDBRANCH  21  22
ENDBRANCH  20  21
ENDBRANCH  16  20
ENDBRANCH  12  15
ENDBRANCH   7  11
ENDBRANCH   3   6
ENDBRANCH   1   2
BRANCH   1  30
ATOM     30  C   UNL A   1      35.085  24.283  26.078  1.00  0.00     0.023 C 
BRANCH  30  31
ATOM     31  C   UNL A   1      35.759  23.625  24.879  1.00  0.00     0.023 C 
BRANCH  31  32
ATOM     32  C   UNL A   1      37.271  23.799  24.818  1.00  0.00     0.116 C 
BRANCH  32  33
ATOM     33  N   UNL A   1      37.999  22.767  25.546  1.00  0.00    -0.352 N 
ATOM     34  C   UNL A   1      39.017  22.909  26.459  1.00  0.00     0.251 C 
ATOM     35  H   UNL A   1      37.724  21.840  25.358  1.00  0.00     0.163 HD
ATOM     36  O   UNL A   1      39.599  21.923  26.898  1.00  0.00    -0.269 OA
BRANCH  34  37
ATOM     37  C   UNL A   1      39.418  24.265  26.880  1.00  0.00     0.039 A 
ATOM     38  C   UNL A   1      39.187  24.665  28.198  1.00  0.00     0.014 A 
ATOM     39  C   UNL A   1      40.071  25.116  25.984  1.00  0.00     0.014 A 
ATOM     40  C   UNL A   1      39.685  25.892  28.640  1.00  0.00     0.010 A 
ATOM     41  C   UNL A   1      40.633  26.300  26.447  1.00  0.00     0.010 A 
ATOM     42  C   UNL A   1      40.446  26.699  27.779  1.00  0.00    -0.014 A 
BRANCH  42  43
ATOM     43  C   UNL A   1      41.053  27.973  28.241  1.00  0.00     0.031 A 
ATOM     44  C   UNL A   1      42.544  28.156  28.163  1.00  0.00     0.074 A 
ATOM     45  C   UNL A   1      40.277  28.924  28.796  1.00  0.00     0.049 A 
ATOM     46  N   UNL A   1      43.282  29.134  28.619  1.00  0.00    -0.248 NA
ATOM     47  C   UNL A   1      43.311  27.077  27.516  1.00  0.00     0.031 C 
ATOM     48  C   UNL A   1      38.825  28.842  28.972  1.00  0.00     0.029 A 
ATOM     49  N   UNL A   1      40.604  30.144  29.332  1.00  0.00    -0.354 N 
ATOM     50  C   UNL A   1      44.595  28.783  28.331  1.00  0.00     0.074 A 
ATOM     51  C   UNL A   1      44.559  27.478  27.711  1.00  0.00     0.031 C 
ATOM     52  C   UNL A   1      38.386  29.971  29.553  1.00  0.00     0.029 A 
ATOM     53  C   UNL A   1      39.526  30.841  29.825  1.00  0.00     0.049 A 
ATOM     54  H   UNL A   1      41.526  30.490  29.360  1.00  0.00     0.167 HD
ATOM     55  C   UNL A   1      45.727  29.496  28.541  1.00  0.00     0.037 A 
ATOM     56  C   UNL A   1      39.466  32.041  30.433  1.00  0.00     0.037 A 
ATOM     57  C   UNL A   1      45.752  30.811  29.124  1.00  0.00     0.049 A 
ATOM     58  C   UNL A   1      40.737  32.820  30.640  1.00  0.00     0.074 A 
ATOM     59  C   UNL A   1      46.842  31.636  29.340  1.00  0.00     0.029 A 
ATOM     60  N   UNL A   1      44.633  31.500  29.570  1.00  0.00    -0.354 N 
ATOM     61  N   UNL A   1      41.967  32.490  30.326  1.00  0.00    -0.248 NA
ATOM     62  C   UNL A   1      40.613  34.137  31.282  1.00  0.00     0.031 C 
ATOM     63  C   UNL A   1      46.385  32.814  29.940  1.00  0.00     0.029 A 
ATOM     64  C   UNL A   1      45.007  32.738  30.063  1.00  0.00     0.049 A 
ATOM     65  H   UNL A   1      43.711  31.157  29.540  1.00  0.00     0.167 HD
ATOM     66  C   UNL A   1      42.757  33.570  30.700  1.00  0.00     0.074 A 
ATOM     67  C   UNL A   1      41.868  34.566  31.258  1.00  0.00     0.031 C 
ATOM     68  C   UNL A   1      44.100  33.725  30.592  1.00  0.00     0.037 A 
BRANCH  55  69
ATOM     69  C   UNL A   1      47.028  28.875  28.117  1.00  0.00     0.058 A 
ATOM     70  C   UNL A   1      47.797  28.110  29.009  1.00  0.00     0.135 A 
ATOM     71  C   UNL A   1      47.496  29.018  26.802  1.00  0.00     0.135 A 
ATOM     72  F   UNL A   1      47.404  27.958  30.283  1.00  0.00    -0.206 F 
ATOM     73  C   UNL A   1      48.998  27.529  28.618  1.00  0.00     0.059 A 
ATOM     74  C   UNL A   1      48.683  28.424  26.382  1.00  0.00     0.059 A 
ATOM     75  F   UNL A   1      46.802  29.742  25.911  1.00  0.00    -0.206 F 
ATOM     76  C   UNL A   1      49.434  27.692  27.302  1.00  0.00     0.060 A 
BRANCH  76  77
ATOM     77  S   UNL A   1      50.992  26.925  26.810  1.00  0.00     0.124 S 
ATOM     78  O   UNL A   1      50.965  27.117  25.363  1.00  0.00    -0.237 OA
ATOM     79  O   UNL A   1      51.976  27.721  27.535  1.00  0.00    -0.237 OA
ATOM     80  O   UNL A   1      50.849  25.546  27.263  1.00  0.00    -0.744 OA
ENDBRANCH  76  77
ENDBRANCH  55  69
BRANCH  56  81
ATOM     81  C   UNL A   1      38.157  32.598  30.868  1.00  0.00     0.058 A 
ATOM     82  C   UNL A   1      37.338  33.291  29.965  1.00  0.00     0.135 A 
ATOM     83  C   UNL A   1      37.706  32.462  32.189  1.00  0.00     0.135 A 
ATOM     84  F   UNL A   1      37.729  33.451  28.691  1.00  0.00    -0.206 F 
ATOM     85  C   UNL A   1      36.129  33.855  30.361  1.00  0.00     0.059 A 
ATOM     86  C   UNL A   1      36.489  32.997  32.604  1.00  0.00     0.059 A 
ATOM     87  F   UNL A   1      38.444  31.791  33.087  1.00  0.00    -0.206 F 
ATOM     88  C   UNL A   1      35.716  33.705  31.686  1.00  0.00     0.060 A 
BRANCH  88  89
ATOM     89  S   UNL A   1      34.135  34.422  32.187  1.00  0.00     0.124 S 
ATOM     90  O   UNL A   1      33.502  34.667  30.896  1.00  0.00    -0.237 OA
ATOM     91  O   UNL A   1      33.552  33.353  32.991  1.00  0.00    -0.237 OA
ATOM     92  O   UNL A   1      34.530  35.613  32.934  1.00  0.00    -0.744 OA
ENDBRANCH  88  89
ENDBRANCH  56  81
BRANCH  68  93
ATOM     93  C   UNL A   1      44.684  35.033  31.040  1.00  0.00     0.058 A 
ATOM     94  C   UNL A   1      44.824  36.116  30.162  1.00  0.00     0.135 A 
ATOM     95  C   UNL A   1      45.054  35.220  32.383  1.00  0.00     0.135 A 
ATOM     96  F   UNL A   1      44.491  35.985  28.868  1.00  0.00    -0.206 F 
ATOM     97  C   UNL A   1      45.328  37.339  30.594  1.00  0.00     0.059 A 
ATOM     98  C   UNL A   1      45.538  36.440  32.841  1.00  0.00     0.059 A 
ATOM     99  F   UNL A   1      44.929  34.215  33.264  1.00  0.00    -0.206 F 
ATOM    100  C   UNL A   1      45.681  37.492  31.937  1.00  0.00     0.060 A 
BRANCH 100 101
ATOM    101  S   UNL A   1      46.293  39.095  32.496  1.00  0.00     0.124 S 
ATOM    102  O   UNL A   1      47.259  39.421  31.453  1.00  0.00    -0.237 OA
ATOM    103  O   UNL A   1      45.079  39.907  32.511  1.00  0.00    -0.237 OA
ATOM    104  O   UNL A   1      46.859  38.802  33.809  1.00  0.00    -0.744 OA
ENDBRANCH 100 101
ENDBRANCH  68  93
ENDBRANCH  42  43
ENDBRANCH  34  37
ENDBRANCH  32  33
ENDBRANCH  31  32
ENDBRANCH  30  31
ENDBRANCH   1  30
TORSDOF 20
ENDMDL
MODEL 3
REMARK VINA RESULT:      -9.9      4.903     13.185
REMARK SMILES COc1ccc(CCc2nnc(NC(=O)[C@@H]3[C@@H](C(=O)NCCCCNC(=O)c4ccc(-c5c6nc(c(-c7c(F)cc(S(=O)(=O)[O-])cc7F)c7ccc([nH]7)c(-c7c(F)cc(S(=O)(=O)[O-])cc7F)c7nc(c(-c8c(F)cc(S(=O)(=O)[O-])cc8F)c8ccc5[nH]8)C=C7)C=C6)cc4)C3(C)C)s2)cc1
REMARK SMILES IDX 21 1 20 2 18 3 19 4 17 6 16 7 94 8 95 9 96 10 14 11 13 12
REMARK SMILES IDX 15 14 12 15 9 16 10 17 97 18 11 19 8 20 7 21 6 22 3 23 4 24
REMARK SMILES IDX 99 25 5 26 98 27 2 28 1 29 22 30 23 31 24 32 25 33 26 34
REMARK SMILES IDX 27 36 28 37 29 38 93 39 30 40 92 41 31 42 32 43 33 44 86 45
REMARK SMILES IDX 34 46 91 47 85 48 87 49 35 50 90 51 84 52 83 53 36 55 70 56
REMARK SMILES IDX 49 57 69 58 50 59 53 60 68 61 88 62 51 63 52 64 67 66 89 67
REMARK SMILES IDX 54 68 37 69 38 70 47 71 39 72 40 73 46 74 48 75 41 76 42 77
REMARK SMILES IDX 43 78 44 79 45 80 71 81 72 82 81 83 73 84 74 85 80 86 82 87
REMARK SMILES IDX 75 88 76 89 77 90 78 91 79 92 55 93 56 94 65 95 57 96 58 97
REMARK SMILES IDX 64 98 66 99 59 100 60 101 61 102 62 103 63 104
REMARK H PARENT 20 5 13 13 25 35 87 54 53 65
REMARK Flexibility Score: inf
ROOT
ATOM      1  C   UNL A   1      36.532  33.003  32.468  1.00  0.00     0.116 C 
ENDROOT
BRANCH   1   2
ATOM      2  N   UNL A   1      37.788  33.709  32.345  1.00  0.00    -0.356 N 
ATOM      3  C   UNL A   1      38.933  33.753  33.088  1.00  0.00     0.224 C 
ATOM      4  O   UNL A   1      39.794  34.556  32.731  1.00  0.00    -0.275 OA
ATOM      5  H   UNL A   1      37.826  34.287  31.549  1.00  0.00     0.163 HD
BRANCH   3   6
ATOM      6  C   UNL A   1      39.247  32.911  34.272  1.00  0.00     0.098 C 
ATOM      7  C   UNL A   1      38.410  32.600  35.474  1.00  0.00     0.098 C 
ATOM      8  C   UNL A   1      39.657  33.476  35.631  1.00  0.00    -0.011 C 
ATOM      9  C   UNL A   1      39.418  34.932  35.968  1.00  0.00     0.013 C 
ATOM     10  C   UNL A   1      40.912  32.926  36.260  1.00  0.00     0.013 C 
BRANCH   7  11
ATOM     11  C   UNL A   1      38.285  31.193  35.951  1.00  0.00     0.230 C 
ATOM     12  N   UNL A   1      38.211  30.995  37.307  1.00  0.00    -0.300 N 
ATOM     13  H   UNL A   1      38.491  30.116  37.653  1.00  0.00     0.172 HD
ATOM     14  O   UNL A   1      38.393  30.241  35.195  1.00  0.00    -0.274 OA
BRANCH  12  15
ATOM     15  C   UNL A   1      37.781  31.918  38.212  1.00  0.00     0.212 A 
ATOM     16  C   UNL A   1      37.731  33.325  40.116  1.00  0.00     0.119 A 
ATOM     17  N   UNL A   1      36.542  33.191  39.558  1.00  0.00    -0.142 NA
ATOM     18  S   UNL A   1      38.987  32.547  39.227  1.00  0.00    -0.080 S 
ATOM     19  N   UNL A   1      36.578  32.388  38.430  1.00  0.00    -0.120 NA
BRANCH  16  20
ATOM     20  C   UNL A   1      38.005  34.110  41.368  1.00  0.00     0.074 C 
BRANCH  20  21
ATOM     21  C   UNL A   1      38.103  35.631  41.149  1.00  0.00     0.043 C 
BRANCH  21  22
ATOM     22  C   UNL A   1      39.367  36.039  40.419  1.00  0.00    -0.047 A 
ATOM     23  C   UNL A   1      41.632  36.445  38.837  1.00  0.00     0.118 A 
ATOM     24  C   UNL A   1      41.735  35.701  40.008  1.00  0.00     0.046 A 
ATOM     25  C   UNL A   1      40.424  37.031  38.471  1.00  0.00     0.046 A 
ATOM     26  C   UNL A   1      40.612  35.530  40.818  1.00  0.00     0.007 A 
ATOM     27  C   UNL A   1      39.292  36.829  39.262  1.00  0.00     0.007 A 
BRANCH  23  28
ATOM     28  O   UNL A   1      42.702  36.488  37.986  1.00  0.00    -0.497 OA
ATOM     29  C   UNL A   1      43.330  35.211  37.911  1.00  0.00     0.278 C 
ENDBRANCH  23  28
ENDBRANCH  21  22
ENDBRANCH  20  21
ENDBRANCH  16  20
ENDBRANCH  12  15
ENDBRANCH   7  11
ENDBRANCH   3   6
ENDBRANCH   1   2
BRANCH   1  30
ATOM     30  C   UNL A   1      35.423  33.689  31.674  1.00  0.00     0.023 C 
BRANCH  30  31
ATOM     31  C   UNL A   1      34.590  32.748  30.811  1.00  0.00     0.023 C 
BRANCH  31  32
ATOM     32  C   UNL A   1      34.957  32.739  29.332  1.00  0.00     0.116 C 
BRANCH  32  33
ATOM     33  N   UNL A   1      34.129  31.841  28.538  1.00  0.00    -0.352 N 
ATOM     34  C   UNL A   1      34.467  30.641  27.957  1.00  0.00     0.251 C 
ATOM     35  H   UNL A   1      33.199  32.133  28.397  1.00  0.00     0.163 HD
ATOM     36  O   UNL A   1      33.674  30.062  27.223  1.00  0.00    -0.269 OA
BRANCH  34  37
ATOM     37  C   UNL A   1      35.807  30.077  28.208  1.00  0.00     0.039 A 
ATOM     38  C   UNL A   1      36.788  30.188  27.219  1.00  0.00     0.014 A 
ATOM     39  C   UNL A   1      36.105  29.491  29.441  1.00  0.00     0.014 A 
ATOM     40  C   UNL A   1      38.093  29.780  27.499  1.00  0.00     0.010 A 
ATOM     41  C   UNL A   1      37.420  29.159  29.744  1.00  0.00     0.010 A 
ATOM     42  C   UNL A   1      38.427  29.301  28.777  1.00  0.00    -0.014 A 
BRANCH  42  43
ATOM     43  C   UNL A   1      39.821  28.932  29.129  1.00  0.00     0.031 A 
ATOM     44  C   UNL A   1      40.704  29.935  29.819  1.00  0.00     0.074 A 
ATOM     45  C   UNL A   1      40.311  27.731  28.762  1.00  0.00     0.049 A 
ATOM     46  N   UNL A   1      41.977  29.857  30.106  1.00  0.00    -0.248 NA
ATOM     47  C   UNL A   1      40.078  31.211  30.208  1.00  0.00     0.031 C 
ATOM     48  C   UNL A   1      39.567  26.691  28.045  1.00  0.00     0.029 A 
ATOM     49  N   UNL A   1      41.559  27.186  28.928  1.00  0.00    -0.354 N 
ATOM     50  C   UNL A   1      42.308  31.074  30.689  1.00  0.00     0.074 A 
ATOM     51  C   UNL A   1      41.117  31.893  30.668  1.00  0.00     0.031 C 
ATOM     52  C   UNL A   1      40.367  25.629  27.854  1.00  0.00     0.029 A 
ATOM     53  C   UNL A   1      41.688  25.923  28.399  1.00  0.00     0.049 A 
ATOM     54  H   UNL A   1      42.295  27.655  29.385  1.00  0.00     0.167 HD
ATOM     55  C   UNL A   1      43.491  31.463  31.220  1.00  0.00     0.037 A 
ATOM     56  C   UNL A   1      42.754  25.100  28.353  1.00  0.00     0.037 A 
ATOM     57  C   UNL A   1      44.662  30.630  31.273  1.00  0.00     0.049 A 
ATOM     58  C   UNL A   1      44.053  25.552  28.963  1.00  0.00     0.074 A 
ATOM     59  C   UNL A   1      45.897  30.915  31.829  1.00  0.00     0.029 A 
ATOM     60  N   UNL A   1      44.738  29.341  30.765  1.00  0.00    -0.354 N 
ATOM     61  N   UNL A   1      44.337  26.692  29.547  1.00  0.00    -0.248 NA
ATOM     62  C   UNL A   1      45.177  24.605  28.913  1.00  0.00     0.031 C 
ATOM     63  C   UNL A   1      46.729  29.806  31.634  1.00  0.00     0.029 A 
ATOM     64  C   UNL A   1      46.000  28.819  30.991  1.00  0.00     0.049 A 
ATOM     65  H   UNL A   1      44.004  28.869  30.311  1.00  0.00     0.167 HD
ATOM     66  C   UNL A   1      45.660  26.586  29.963  1.00  0.00     0.074 A 
ATOM     67  C   UNL A   1      46.118  25.270  29.569  1.00  0.00     0.031 C 
ATOM     68  C   UNL A   1      46.427  27.496  30.611  1.00  0.00     0.037 A 
BRANCH  55  69
ATOM     69  C   UNL A   1      43.569  32.846  31.805  1.00  0.00     0.058 A 
ATOM     70  C   UNL A   1      43.148  33.108  33.119  1.00  0.00     0.135 A 
ATOM     71  C   UNL A   1      44.096  33.911  31.058  1.00  0.00     0.135 A 
ATOM     72  F   UNL A   1      42.619  32.128  33.868  1.00  0.00    -0.206 F 
ATOM     73  C   UNL A   1      43.224  34.385  33.665  1.00  0.00     0.059 A 
ATOM     74  C   UNL A   1      44.205  35.192  31.593  1.00  0.00     0.059 A 
ATOM     75  F   UNL A   1      44.508  33.716  29.797  1.00  0.00    -0.206 F 
ATOM     76  C   UNL A   1      43.753  35.421  32.893  1.00  0.00     0.060 A 
BRANCH  76  77
ATOM     77  S   UNL A   1      43.851  37.071  33.619  1.00  0.00     0.124 S 
ATOM     78  O   UNL A   1      42.805  37.003  34.635  1.00  0.00    -0.237 OA
ATOM     79  O   UNL A   1      45.220  37.112  34.122  1.00  0.00    -0.237 OA
ATOM     80  O   UNL A   1      43.574  37.955  32.492  1.00  0.00    -0.744 OA
ENDBRANCH  76  77
ENDBRANCH  55  69
BRANCH  56  81
ATOM     81  C   UNL A   1      42.637  23.755  27.730  1.00  0.00     0.058 A 
ATOM     82  C   UNL A   1      42.418  22.617  28.520  1.00  0.00     0.135 A 
ATOM     83  C   UNL A   1      42.754  23.577  26.344  1.00  0.00     0.135 A 
ATOM     84  F   UNL A   1      42.302  22.736  29.852  1.00  0.00    -0.206 F 
ATOM     85  C   UNL A   1      42.346  21.344  27.962  1.00  0.00     0.059 A 
ATOM     86  C   UNL A   1      42.663  22.316  25.759  1.00  0.00     0.059 A 
ATOM     87  F   UNL A   1      42.946  24.636  25.543  1.00  0.00    -0.206 F 
ATOM     88  C   UNL A   1      42.475  21.205  26.579  1.00  0.00     0.060 A 
BRANCH  88  89
ATOM     89  S   UNL A   1      42.358  19.551  25.860  1.00  0.00     0.124 S 
ATOM     90  O   UNL A   1      40.957  19.502  25.462  1.00  0.00    -0.237 OA
ATOM     91  O   UNL A   1      43.330  19.617  24.773  1.00  0.00    -0.237 OA
ATOM     92  O   UNL A   1      42.731  18.679  26.971  1.00  0.00    -0.744 OA
ENDBRANCH  88  89
ENDBRANCH  56  81
BRANCH  68  93
ATOM     93  C   UNL A   1      47.823  27.086  30.981  1.00  0.00     0.058 A 
ATOM     94  C   UNL A   1      48.127  26.562  32.245  1.00  0.00     0.135 A 
ATOM     95  C   UNL A   1      48.858  27.165  30.034  1.00  0.00     0.135 A 
ATOM     96  F   UNL A   1      47.173  26.471  33.186  1.00  0.00    -0.206 F 
ATOM     97  C   UNL A   1      49.415  26.145  32.566  1.00  0.00     0.059 A 
ATOM     98  C   UNL A   1      50.147  26.734  30.326  1.00  0.00     0.059 A 
ATOM     99  F   UNL A   1      48.615  27.652  28.806  1.00  0.00    -0.206 F 
ATOM    100  C   UNL A   1      50.418  26.234  31.599  1.00  0.00     0.060 A 
BRANCH 100 101
ATOM    101  S   UNL A   1      52.076  25.650  32.013  1.00  0.00     0.124 S 
ATOM    102  O   UNL A   1      52.298  26.289  33.305  1.00  0.00    -0.237 OA
ATOM    103  O   UNL A   1      51.900  24.201  32.044  1.00  0.00    -0.237 OA
ATOM    104  O   UNL A   1      52.895  26.153  30.914  1.00  0.00    -0.744 OA
ENDBRANCH 100 101
ENDBRANCH  68  93
ENDBRANCH  42  43
ENDBRANCH  34  37
ENDBRANCH  32  33
ENDBRANCH  31  32
ENDBRANCH  30  31
ENDBRANCH   1  30
TORSDOF 20
ENDMDL
