MODEL 1
REMARK VINA RESULT:     -11.3      0.000      0.000
REMARK SMILES O=C(NCCCCNC(=O)[C@@H]1C[C@@H]1C(=O)N1CCN(c2ncc(C(F)(F)F)cc2Cl)CC1)c1ccc(-c2c3nc(c(-c4c(F)cc(S(=O)(=O)[O-])cc4F)c4ccc([nH]4)c(-c4c(F)cc(S(=O)(=O)[O-])cc4F)c4nc(c(-c5c(F)cc(S(=O)(=O)[O-])cc5F)c5ccc2[nH]5)C=C4)C=C3)cc1
REMARK SMILES IDX 5 1 4 2 3 3 1 4 2 5 33 7 34 8 98 9 35 10 97 11 36 12 37 13
REMARK SMILES IDX 38 14 91 15 39 16 96 17 90 18 92 19 40 20 95 21 89 22 88 23
REMARK SMILES IDX 41 25 75 26 54 27 74 28 55 29 58 30 73 31 93 32 56 33 57 34
REMARK SMILES IDX 72 36 94 37 59 38 42 39 43 40 52 41 44 42 45 43 51 44 53 45
REMARK SMILES IDX 46 46 47 47 48 48 49 49 50 50 76 51 77 52 86 53 78 54 79 55
REMARK SMILES IDX 85 56 87 57 80 58 81 59 82 60 83 61 84 62 60 63 61 64 70 65
REMARK SMILES IDX 62 66 63 67 69 68 71 69 64 70 65 71 66 72 67 73 68 74 6 75
REMARK SMILES IDX 7 76 8 77 9 78 10 80 11 81 12 82 13 83 14 84 15 85 16 86
REMARK SMILES IDX 17 87 32 88 18 89 31 90 19 91 20 92 21 93 29 94 22 95 28 96
REMARK SMILES IDX 30 97 23 98 24 99 25 100 26 101 27 102
REMARK H PARENT 3 6 92 24 58 35 8 79
REMARK Flexibility Score: inf
ROOT
ATOM      1  C   UNL A   1      33.939  33.731  27.832  1.00  0.00     0.023 C 
ENDROOT
BRANCH   1   2
ATOM      2  C   UNL A   1      34.396  32.520  28.636  1.00  0.00     0.116 C 
BRANCH   2   3
ATOM      3  N   UNL A   1      33.772  31.274  28.210  1.00  0.00    -0.352 N 
ATOM      4  O   UNL A   1      33.691  29.138  27.485  1.00  0.00    -0.269 OA
ATOM      5  C   UNL A   1      34.356  30.051  27.966  1.00  0.00     0.251 C 
ATOM      6  H   UNL A   1      32.797  31.312  28.078  1.00  0.00     0.163 HD
BRANCH   5   7
ATOM      7  C   UNL A   1      35.793  29.856  28.257  1.00  0.00     0.039 A 
ATOM      8  C   UNL A   1      36.751  30.077  27.267  1.00  0.00     0.014 A 
ATOM      9  C   UNL A   1      36.186  29.425  29.528  1.00  0.00     0.014 A 
ATOM     10  C   UNL A   1      38.073  29.710  27.491  1.00  0.00     0.010 A 
ATOM     11  C   UNL A   1      37.535  29.154  29.783  1.00  0.00     0.010 A 
ATOM     12  C   UNL A   1      38.486  29.263  28.756  1.00  0.00    -0.014 A 
BRANCH  12  13
ATOM     13  C   UNL A   1      39.928  28.995  28.995  1.00  0.00     0.031 A 
ATOM     14  C   UNL A   1      40.834  30.037  29.592  1.00  0.00     0.074 A 
ATOM     15  C   UNL A   1      40.411  27.774  28.685  1.00  0.00     0.049 A 
ATOM     16  N   UNL A   1      42.112  29.956  29.863  1.00  0.00    -0.248 NA
ATOM     17  C   UNL A   1      40.236  31.341  29.920  1.00  0.00     0.031 C 
ATOM     18  C   UNL A   1      39.627  26.686  28.092  1.00  0.00     0.029 A 
ATOM     19  N   UNL A   1      41.662  27.235  28.832  1.00  0.00    -0.354 N 
ATOM     20  C   UNL A   1      42.477  31.194  30.378  1.00  0.00     0.074 A 
ATOM     21  C   UNL A   1      41.289  32.022  30.357  1.00  0.00     0.031 C 
ATOM     22  C   UNL A   1      40.403  25.601  27.965  1.00  0.00     0.029 A 
ATOM     23  C   UNL A   1      41.755  25.934  28.395  1.00  0.00     0.049 A 
ATOM     24  H   UNL A   1      42.423  27.731  29.214  1.00  0.00     0.167 HD
ATOM     25  C   UNL A   1      43.689  31.598  30.833  1.00  0.00     0.037 A 
ATOM     26  C   UNL A   1      42.813  25.106  28.319  1.00  0.00     0.037 A 
ATOM     27  C   UNL A   1      44.862  30.759  30.856  1.00  0.00     0.049 A 
ATOM     28  C   UNL A   1      44.152  25.594  28.792  1.00  0.00     0.074 A 
ATOM     29  C   UNL A   1      46.128  31.064  31.329  1.00  0.00     0.029 A 
ATOM     30  N   UNL A   1      44.922  29.456  30.381  1.00  0.00    -0.354 N 
ATOM     31  N   UNL A   1      44.467  26.757  29.312  1.00  0.00    -0.248 NA
ATOM     32  C   UNL A   1      45.279  24.661  28.671  1.00  0.00     0.031 C 
ATOM     33  C   UNL A   1      46.965  29.971  31.085  1.00  0.00     0.029 A 
ATOM     34  C   UNL A   1      46.208  28.956  30.522  1.00  0.00     0.049 A 
ATOM     35  H   UNL A   1      44.163  28.960  29.998  1.00  0.00     0.167 HD
ATOM     36  C   UNL A   1      45.824  26.685  29.605  1.00  0.00     0.074 A 
ATOM     37  C   UNL A   1      46.263  25.359  29.219  1.00  0.00     0.031 C 
ATOM     38  C   UNL A   1      46.631  27.631  30.143  1.00  0.00     0.037 A 
BRANCH  25  39
ATOM     39  C   UNL A   1      43.827  33.014  31.329  1.00  0.00     0.058 A 
ATOM     40  C   UNL A   1      43.929  34.103  30.450  1.00  0.00     0.135 A 
ATOM     41  C   UNL A   1      43.781  33.291  32.707  1.00  0.00     0.135 A 
ATOM     42  F   UNL A   1      43.990  33.899  29.124  1.00  0.00    -0.206 F 
ATOM     43  C   UNL A   1      43.999  35.413  30.917  1.00  0.00     0.059 A 
ATOM     44  C   UNL A   1      43.821  34.595  33.195  1.00  0.00     0.059 A 
ATOM     45  F   UNL A   1      43.682  32.290  33.594  1.00  0.00    -0.206 F 
ATOM     46  C   UNL A   1      43.940  35.649  32.292  1.00  0.00     0.060 A 
BRANCH  46  47
ATOM     47  S   UNL A   1      44.012  37.356  32.878  1.00  0.00     0.124 S 
ATOM     48  O   UNL A   1      43.865  38.099  31.630  1.00  0.00    -0.237 OA
ATOM     49  O   UNL A   1      42.873  37.419  33.789  1.00  0.00    -0.237 OA
ATOM     50  O   UNL A   1      45.324  37.446  33.509  1.00  0.00    -0.744 OA
ENDBRANCH  46  47
ENDBRANCH  25  39
BRANCH  26  51
ATOM     51  C   UNL A   1      42.647  23.741  27.752  1.00  0.00     0.058 A 
ATOM     52  C   UNL A   1      42.461  22.627  28.581  1.00  0.00     0.135 A 
ATOM     53  C   UNL A   1      42.662  23.527  26.363  1.00  0.00     0.135 A 
ATOM     54  F   UNL A   1      42.440  22.780  29.915  1.00  0.00    -0.206 F 
ATOM     55  C   UNL A   1      42.320  21.346  28.059  1.00  0.00     0.059 A 
ATOM     56  C   UNL A   1      42.490  22.260  25.816  1.00  0.00     0.059 A 
ATOM     57  F   UNL A   1      42.816  24.562  25.524  1.00  0.00    -0.206 F 
ATOM     58  C   UNL A   1      42.335  21.173  26.673  1.00  0.00     0.060 A 
BRANCH  58  59
ATOM     59  S   UNL A   1      42.122  19.510  26.005  1.00  0.00     0.124 S 
ATOM     60  O   UNL A   1      40.681  19.466  25.786  1.00  0.00    -0.237 OA
ATOM     61  O   UNL A   1      42.951  19.554  24.805  1.00  0.00    -0.237 OA
ATOM     62  O   UNL A   1      42.625  18.652  27.074  1.00  0.00    -0.744 OA
ENDBRANCH  58  59
ENDBRANCH  26  51
BRANCH  38  63
ATOM     63  C   UNL A   1      48.067  27.254  30.391  1.00  0.00     0.058 A 
ATOM     64  C   UNL A   1      49.097  27.632  29.515  1.00  0.00     0.135 A 
ATOM     65  C   UNL A   1      48.420  26.539  31.547  1.00  0.00     0.135 A 
ATOM     66  F   UNL A   1      48.813  28.307  28.389  1.00  0.00    -0.206 F 
ATOM     67  C   UNL A   1      50.423  27.290  29.763  1.00  0.00     0.059 A 
ATOM     68  C   UNL A   1      49.743  26.217  31.831  1.00  0.00     0.059 A 
ATOM     69  F   UNL A   1      47.477  26.159  32.423  1.00  0.00    -0.206 F 
ATOM     70  C   UNL A   1      50.737  26.586  30.926  1.00  0.00     0.060 A 
BRANCH  70  71
ATOM     71  S   UNL A   1      52.465  26.181  31.252  1.00  0.00     0.124 S 
ATOM     72  O   UNL A   1      52.339  24.944  32.015  1.00  0.00    -0.237 OA
ATOM     73  O   UNL A   1      53.011  26.042  29.906  1.00  0.00    -0.237 OA
ATOM     74  O   UNL A   1      52.949  27.335  32.003  1.00  0.00    -0.744 OA
ENDBRANCH  70  71
ENDBRANCH  38  63
ENDBRANCH  12  13
ENDBRANCH   5   7
ENDBRANCH   2   3
ENDBRANCH   1   2
BRANCH   1  75
ATOM     75  C   UNL A   1      33.372  34.879  28.660  1.00  0.00     0.023 C 
BRANCH  75  76
ATOM     76  C   UNL A   1      34.150  36.186  28.552  1.00  0.00     0.116 C 
BRANCH  76  77
ATOM     77  N   UNL A   1      33.657  37.233  29.438  1.00  0.00    -0.356 N 
ATOM     78  C   UNL A   1      33.137  37.059  30.701  1.00  0.00     0.223 C 
ATOM     79  H   UNL A   1      33.699  38.156  29.098  1.00  0.00     0.163 HD
ATOM     80  O   UNL A   1      32.886  38.000  31.445  1.00  0.00    -0.275 OA
BRANCH  78  81
ATOM     81  C   UNL A   1      32.972  35.660  31.134  1.00  0.00     0.091 C 
ATOM     82  C   UNL A   1      32.271  35.462  32.464  1.00  0.00     0.028 C 
ATOM     83  C   UNL A   1      33.650  34.905  32.236  1.00  0.00     0.092 C 
BRANCH  83  84
ATOM     84  C   UNL A   1      34.754  35.355  33.121  1.00  0.00     0.226 C 
ATOM     85  O   UNL A   1      34.553  36.172  34.011  1.00  0.00    -0.275 OA
ATOM     86  N   UNL A   1      35.912  34.603  33.024  1.00  0.00    -0.339 N 
ATOM     87  C   UNL A   1      36.708  34.342  34.230  1.00  0.00     0.141 C 
ATOM     88  C   UNL A   1      36.422  33.989  31.786  1.00  0.00     0.141 C 
ATOM     89  C   UNL A   1      36.934  32.819  34.416  1.00  0.00     0.139 C 
ATOM     90  C   UNL A   1      36.707  32.485  31.964  1.00  0.00     0.139 C 
ATOM     91  N   UNL A   1      37.502  32.285  33.177  1.00  0.00    -0.352 N 
BRANCH  91  92
ATOM     92  C   UNL A   1      38.524  31.369  33.219  1.00  0.00     0.147 A 
ATOM     93  N   UNL A   1      38.225  30.079  32.927  1.00  0.00    -0.237 NA
ATOM     94  C   UNL A   1      39.828  31.730  33.601  1.00  0.00     0.084 A 
ATOM     95  C   UNL A   1      39.218  29.154  32.980  1.00  0.00     0.126 A 
ATOM     96  C   UNL A   1      40.826  30.757  33.667  1.00  0.00     0.039 A 
ATOM     97  Cl  UNL A   1      40.253  33.332  34.098  1.00  0.00    -0.080 Cl
ATOM     98  C   UNL A   1      40.525  29.434  33.347  1.00  0.00     0.075 A 
BRANCH  98  99
ATOM     99  C   UNL A   1      41.548  28.347  33.395  1.00  0.00     0.417 C 
ATOM    100  F   UNL A   1      41.133  27.265  34.109  1.00  0.00    -0.166 F 
ATOM    101  F   UNL A   1      41.871  27.879  32.159  1.00  0.00    -0.166 F 
ATOM    102  F   UNL A   1      42.724  28.736  33.963  1.00  0.00    -0.166 F 
ENDBRANCH  98  99
ENDBRANCH  91  92
ENDBRANCH  83  84
ENDBRANCH  78  81
ENDBRANCH  76  77
ENDBRANCH  75  76
ENDBRANCH   1  75
TORSDOF 17
ENDMDL
MODEL 2
REMARK VINA RESULT:     -11.2      0.424      7.988
REMARK SMILES O=C(NCCCCNC(=O)[C@@H]1C[C@@H]1C(=O)N1CCN(c2ncc(C(F)(F)F)cc2Cl)CC1)c1ccc(-c2c3nc(c(-c4c(F)cc(S(=O)(=O)[O-])cc4F)c4ccc([nH]4)c(-c4c(F)cc(S(=O)(=O)[O-])cc4F)c4nc(c(-c5c(F)cc(S(=O)(=O)[O-])cc5F)c5ccc2[nH]5)C=C4)C=C3)cc1
REMARK SMILES IDX 5 1 4 2 3 3 1 4 2 5 33 7 34 8 98 9 35 10 97 11 36 12 37 13
REMARK SMILES IDX 38 14 91 15 39 16 96 17 90 18 92 19 40 20 95 21 89 22 88 23
REMARK SMILES IDX 41 25 75 26 54 27 74 28 55 29 58 30 73 31 93 32 56 33 57 34
REMARK SMILES IDX 72 36 94 37 59 38 42 39 43 40 52 41 44 42 45 43 51 44 53 45
REMARK SMILES IDX 46 46 47 47 48 48 49 49 50 50 76 51 77 52 86 53 78 54 79 55
REMARK SMILES IDX 85 56 87 57 80 58 81 59 82 60 83 61 84 62 60 63 61 64 70 65
REMARK SMILES IDX 62 66 63 67 69 68 71 69 64 70 65 71 66 72 67 73 68 74 6 75
REMARK SMILES IDX 7 76 8 77 9 78 10 80 11 81 12 82 13 83 14 84 15 85 16 86
REMARK SMILES IDX 17 87 32 88 18 89 31 90 19 91 20 92 21 93 29 94 22 95 28 96
REMARK SMILES IDX 30 97 23 98 24 99 25 100 26 101 27 102
REMARK H PARENT 3 6 92 24 58 35 8 79
REMARK Flexibility Score: inf
ROOT
ATOM      1  C   UNL A   1      34.284  33.776  28.003  1.00  0.00     0.023 C 
ENDROOT
BRANCH   1   2
ATOM      2  C   UNL A   1      34.573  32.537  28.842  1.00  0.00     0.116 C 
BRANCH   2   3
ATOM      3  N   UNL A   1      33.927  31.333  28.335  1.00  0.00    -0.352 N 
ATOM      4  O   UNL A   1      33.810  29.254  27.464  1.00  0.00    -0.269 OA
ATOM      5  C   UNL A   1      34.491  30.122  28.002  1.00  0.00     0.251 C 
ATOM      6  H   UNL A   1      32.952  31.394  28.214  1.00  0.00     0.163 HD
BRANCH   5   7
ATOM      7  C   UNL A   1      35.928  29.887  28.268  1.00  0.00     0.039 A 
ATOM      8  C   UNL A   1      36.876  30.103  27.267  1.00  0.00     0.014 A 
ATOM      9  C   UNL A   1      36.329  29.423  29.524  1.00  0.00     0.014 A 
ATOM     10  C   UNL A   1      38.191  29.699  27.464  1.00  0.00     0.010 A 
ATOM     11  C   UNL A   1      37.674  29.114  29.753  1.00  0.00     0.010 A 
ATOM     12  C   UNL A   1      38.613  29.220  28.714  1.00  0.00    -0.014 A 
BRANCH  12  13
ATOM     13  C   UNL A   1      40.051  28.912  28.925  1.00  0.00     0.031 A 
ATOM     14  C   UNL A   1      40.631  27.573  28.556  1.00  0.00     0.074 A 
ATOM     15  C   UNL A   1      40.843  29.875  29.439  1.00  0.00     0.049 A 
ATOM     16  N   UNL A   1      41.864  27.152  28.676  1.00  0.00    -0.248 NA
ATOM     17  C   UNL A   1      39.713  26.576  27.985  1.00  0.00     0.031 C 
ATOM     18  C   UNL A   1      40.388  31.209  29.845  1.00  0.00     0.029 A 
ATOM     19  N   UNL A   1      42.188  29.894  29.700  1.00  0.00    -0.354 N 
ATOM     20  C   UNL A   1      41.871  25.841  28.213  1.00  0.00     0.074 A 
ATOM     21  C   UNL A   1      40.511  25.525  27.833  1.00  0.00     0.031 C 
ATOM     22  C   UNL A   1      41.440  31.926  30.262  1.00  0.00     0.029 A 
ATOM     23  C   UNL A   1      42.629  31.085  30.226  1.00  0.00     0.049 A 
ATOM     24  H   UNL A   1      42.782  29.127  29.527  1.00  0.00     0.167 HD
ATOM     25  C   UNL A   1      42.918  24.986  28.109  1.00  0.00     0.037 A 
ATOM     26  C   UNL A   1      43.848  31.455  30.661  1.00  0.00     0.037 A 
ATOM     27  C   UNL A   1      44.272  25.318  28.483  1.00  0.00     0.049 A 
ATOM     28  C   UNL A   1      44.980  30.473  30.571  1.00  0.00     0.074 A 
ATOM     29  C   UNL A   1      45.408  24.532  28.383  1.00  0.00     0.029 A 
ATOM     30  N   UNL A   1      44.674  26.526  29.037  1.00  0.00    -0.354 N 
ATOM     31  N   UNL A   1      44.974  29.252  30.094  1.00  0.00    -0.248 NA
ATOM     32  C   UNL A   1      46.285  30.918  31.075  1.00  0.00     0.031 C 
ATOM     33  C   UNL A   1      46.483  25.241  28.931  1.00  0.00     0.029 A 
ATOM     34  C   UNL A   1      46.033  26.496  29.310  1.00  0.00     0.049 A 
ATOM     35  H   UNL A   1      44.081  27.292  29.211  1.00  0.00     0.167 HD
ATOM     36  C   UNL A   1      46.279  28.790  30.216  1.00  0.00     0.074 A 
ATOM     37  C   UNL A   1      47.050  29.871  30.796  1.00  0.00     0.031 C 
ATOM     38  C   UNL A   1      46.791  27.582  29.879  1.00  0.00     0.037 A 
BRANCH  25  39
ATOM     39  C   UNL A   1      42.654  23.598  27.586  1.00  0.00     0.058 A 
ATOM     40  C   UNL A   1      42.681  23.303  26.214  1.00  0.00     0.135 A 
ATOM     41  C   UNL A   1      42.445  22.531  28.478  1.00  0.00     0.135 A 
ATOM     42  F   UNL A   1      42.863  24.283  25.314  1.00  0.00    -0.206 F 
ATOM     43  C   UNL A   1      42.491  22.007  25.743  1.00  0.00     0.059 A 
ATOM     44  C   UNL A   1      42.283  21.222  28.031  1.00  0.00     0.059 A 
ATOM     45  F   UNL A   1      42.412  22.753  29.800  1.00  0.00    -0.206 F 
ATOM     46  C   UNL A   1      42.297  20.972  26.660  1.00  0.00     0.060 A 
BRANCH  46  47
ATOM     47  S   UNL A   1      42.075  19.293  26.032  1.00  0.00     0.124 S 
ATOM     48  O   UNL A   1      42.517  18.494  27.171  1.00  0.00    -0.237 OA
ATOM     49  O   UNL A   1      40.643  19.255  25.751  1.00  0.00    -0.237 OA
ATOM     50  O   UNL A   1      42.944  19.247  24.861  1.00  0.00    -0.744 OA
ENDBRANCH  46  47
ENDBRANCH  25  39
BRANCH  26  51
ATOM     51  C   UNL A   1      44.048  32.811  31.240  1.00  0.00     0.058 A 
ATOM     52  C   UNL A   1      44.083  33.012  32.627  1.00  0.00     0.135 A 
ATOM     53  C   UNL A   1      44.217  33.934  30.413  1.00  0.00     0.135 A 
ATOM     54  F   UNL A   1      43.924  31.971  33.459  1.00  0.00    -0.206 F 
ATOM     55  C   UNL A   1      44.254  34.278  33.175  1.00  0.00     0.059 A 
ATOM     56  C   UNL A   1      44.424  35.205  30.937  1.00  0.00     0.059 A 
ATOM     57  F   UNL A   1      44.212  33.794  29.078  1.00  0.00    -0.206 F 
ATOM     58  C   UNL A   1      44.425  35.370  32.320  1.00  0.00     0.060 A 
BRANCH  58  59
ATOM     59  S   UNL A   1      44.676  37.004  33.042  1.00  0.00     0.124 S 
ATOM     60  O   UNL A   1      45.343  36.671  34.296  1.00  0.00    -0.237 OA
ATOM     61  O   UNL A   1      45.501  37.661  32.033  1.00  0.00    -0.237 OA
ATOM     62  O   UNL A   1      43.319  37.527  33.169  1.00  0.00    -0.744 OA
ENDBRANCH  58  59
ENDBRANCH  26  51
BRANCH  38  63
ATOM     63  C   UNL A   1      48.267  27.375  30.087  1.00  0.00     0.058 A 
ATOM     64  C   UNL A   1      48.775  26.737  31.230  1.00  0.00     0.135 A 
ATOM     65  C   UNL A   1      49.184  27.787  29.106  1.00  0.00     0.135 A 
ATOM     66  F   UNL A   1      47.944  26.333  32.204  1.00  0.00    -0.206 F 
ATOM     67  C   UNL A   1      50.142  26.538  31.404  1.00  0.00     0.059 A 
ATOM     68  C   UNL A   1      50.550  27.568  29.243  1.00  0.00     0.059 A 
ATOM     69  F   UNL A   1      48.752  28.396  27.989  1.00  0.00    -0.206 F 
ATOM     70  C   UNL A   1      51.021  26.953  30.402  1.00  0.00     0.060 A 
BRANCH  70  71
ATOM     71  S   UNL A   1      52.787  26.657  30.626  1.00  0.00     0.124 S 
ATOM     72  O   UNL A   1      53.238  27.944  31.147  1.00  0.00    -0.237 OA
ATOM     73  O   UNL A   1      52.799  25.549  31.576  1.00  0.00    -0.237 OA
ATOM     74  O   UNL A   1      53.250  26.328  29.281  1.00  0.00    -0.744 OA
ENDBRANCH  70  71
ENDBRANCH  38  63
ENDBRANCH  12  13
ENDBRANCH   5   7
ENDBRANCH   2   3
ENDBRANCH   1   2
BRANCH   1  75
ATOM     75  C   UNL A   1      33.530  34.886  28.728  1.00  0.00     0.023 C 
BRANCH  75  76
ATOM     76  C   UNL A   1      34.038  36.294  28.439  1.00  0.00     0.116 C 
BRANCH  76  77
ATOM     77  N   UNL A   1      33.589  37.286  29.407  1.00  0.00    -0.356 N 
ATOM     78  C   UNL A   1      33.156  37.040  30.691  1.00  0.00     0.223 C 
ATOM     79  H   UNL A   1      33.596  38.226  29.114  1.00  0.00     0.163 HD
ATOM     80  O   UNL A   1      32.941  37.938  31.497  1.00  0.00    -0.275 OA
BRANCH  78  81
ATOM     81  C   UNL A   1      33.040  35.618  31.061  1.00  0.00     0.091 C 
ATOM     82  C   UNL A   1      32.310  35.334  32.361  1.00  0.00     0.028 C 
ATOM     83  C   UNL A   1      33.719  34.847  32.151  1.00  0.00     0.092 C 
BRANCH  83  84
ATOM     84  C   UNL A   1      34.776  35.305  33.087  1.00  0.00     0.226 C 
ATOM     85  O   UNL A   1      34.515  36.077  34.001  1.00  0.00    -0.275 OA
ATOM     86  N   UNL A   1      35.967  34.603  32.997  1.00  0.00    -0.339 N 
ATOM     87  C   UNL A   1      36.736  34.327  34.217  1.00  0.00     0.141 C 
ATOM     88  C   UNL A   1      36.537  34.060  31.754  1.00  0.00     0.141 C 
ATOM     89  C   UNL A   1      37.019  32.808  34.352  1.00  0.00     0.139 C 
ATOM     90  C   UNL A   1      36.879  32.562  31.883  1.00  0.00     0.139 C 
ATOM     91  N   UNL A   1      37.644  32.346  33.112  1.00  0.00    -0.352 N 
BRANCH  91  92
ATOM     92  C   UNL A   1      38.702  31.471  33.151  1.00  0.00     0.147 A 
ATOM     93  N   UNL A   1      38.452  30.170  32.861  1.00  0.00    -0.237 NA
ATOM     94  C   UNL A   1      39.992  31.883  33.528  1.00  0.00     0.084 A 
ATOM     95  C   UNL A   1      39.480  29.285  32.911  1.00  0.00     0.126 A 
ATOM     96  C   UNL A   1      41.027  30.950  33.592  1.00  0.00     0.039 A 
ATOM     97  Cl  UNL A   1      40.356  33.501  34.023  1.00  0.00    -0.080 Cl
ATOM     98  C   UNL A   1      40.777  29.616  33.273  1.00  0.00     0.075 A 
BRANCH  98  99
ATOM     99  C   UNL A   1      41.842  28.569  33.318  1.00  0.00     0.417 C 
ATOM    100  F   UNL A   1      41.896  27.824  32.180  1.00  0.00    -0.166 F 
ATOM    101  F   UNL A   1      43.085  29.097  33.481  1.00  0.00    -0.166 F 
ATOM    102  F   UNL A   1      41.681  27.678  34.336  1.00  0.00    -0.166 F 
ENDBRANCH  98  99
ENDBRANCH  91  92
ENDBRANCH  83  84
ENDBRANCH  78  81
ENDBRANCH  76  77
ENDBRANCH  75  76
ENDBRANCH   1  75
TORSDOF 17
ENDMDL
MODEL 3
REMARK VINA RESULT:     -11.1      5.087      7.824
REMARK SMILES O=C(NCCCCNC(=O)[C@@H]1C[C@@H]1C(=O)N1CCN(c2ncc(C(F)(F)F)cc2Cl)CC1)c1ccc(-c2c3nc(c(-c4c(F)cc(S(=O)(=O)[O-])cc4F)c4ccc([nH]4)c(-c4c(F)cc(S(=O)(=O)[O-])cc4F)c4nc(c(-c5c(F)cc(S(=O)(=O)[O-])cc5F)c5ccc2[nH]5)C=C4)C=C3)cc1
REMARK SMILES IDX 5 1 4 2 3 3 1 4 2 5 33 7 34 8 98 9 35 10 97 11 36 12 37 13
REMARK SMILES IDX 38 14 91 15 39 16 96 17 90 18 92 19 40 20 95 21 89 22 88 23
REMARK SMILES IDX 41 25 75 26 54 27 74 28 55 29 58 30 73 31 93 32 56 33 57 34
REMARK SMILES IDX 72 36 94 37 59 38 42 39 43 40 52 41 44 42 45 43 51 44 53 45
REMARK SMILES IDX 46 46 47 47 48 48 49 49 50 50 76 51 77 52 86 53 78 54 79 55
REMARK SMILES IDX 85 56 87 57 80 58 81 59 82 60 83 61 84 62 60 63 61 64 70 65
REMARK SMILES IDX 62 66 63 67 69 68 71 69 64 70 65 71 66 72 67 73 68 74 6 75
REMARK SMILES IDX 7 76 8 77 9 78 10 80 11 81 12 82 13 83 14 84 15 85 16 86
REMARK SMILES IDX 17 87 32 88 18 89 31 90 19 91 20 92 21 93 29 94 22 95 28 96
REMARK SMILES IDX 30 97 23 98 24 99 25 100 26 101 27 102
REMARK H PARENT 3 6 92 24 58 35 8 79
REMARK Flexibility Score: inf
ROOT
ATOM      1  C   UNL A   1      34.616  30.557  27.613  1.00  0.00     0.023 C 
ENDROOT
BRANCH   1   2
ATOM      2  C   UNL A   1      35.663  31.269  28.461  1.00  0.00     0.116 C 
BRANCH   2   3
ATOM      3  N   UNL A   1      35.533  31.000  29.887  1.00  0.00    -0.352 N 
ATOM      4  O   UNL A   1      36.073  30.098  31.884  1.00  0.00    -0.269 OA
ATOM      5  C   UNL A   1      36.406  30.350  30.729  1.00  0.00     0.251 C 
ATOM      6  H   UNL A   1      34.704  31.328  30.306  1.00  0.00     0.163 HD
BRANCH   5   7
ATOM      7  C   UNL A   1      37.733  29.932  30.225  1.00  0.00     0.039 A 
ATOM      8  C   UNL A   1      38.720  29.498  31.111  1.00  0.00     0.014 A 
ATOM      9  C   UNL A   1      38.001  29.997  28.855  1.00  0.00     0.014 A 
ATOM     10  C   UNL A   1      40.016  29.292  30.653  1.00  0.00     0.010 A 
ATOM     11  C   UNL A   1      39.281  29.688  28.382  1.00  0.00     0.010 A 
ATOM     12  C   UNL A   1      40.310  29.363  29.282  1.00  0.00    -0.014 A 
BRANCH  12  13
ATOM     13  C   UNL A   1      41.677  29.019  28.814  1.00  0.00     0.031 A 
ATOM     14  C   UNL A   1      42.778  30.044  28.778  1.00  0.00     0.074 A 
ATOM     15  C   UNL A   1      41.924  27.746  28.441  1.00  0.00     0.049 A 
ATOM     16  N   UNL A   1      44.022  29.899  28.398  1.00  0.00    -0.248 NA
ATOM     17  C   UNL A   1      42.442  31.408  29.215  1.00  0.00     0.031 C 
ATOM     18  C   UNL A   1      40.930  26.668  28.425  1.00  0.00     0.029 A 
ATOM     19  N   UNL A   1      43.075  27.138  28.015  1.00  0.00    -0.354 N 
ATOM     20  C   UNL A   1      44.615  31.149  28.534  1.00  0.00     0.074 A 
ATOM     21  C   UNL A   1      43.586  32.051  29.007  1.00  0.00     0.031 C 
ATOM     22  C   UNL A   1      41.524  25.526  28.052  1.00  0.00     0.029 A 
ATOM     23  C   UNL A   1      42.918  25.801  27.730  1.00  0.00     0.049 A 
ATOM     24  H   UNL A   1      43.934  27.611  27.922  1.00  0.00     0.167 HD
ATOM     25  C   UNL A   1      45.901  31.506  28.294  1.00  0.00     0.037 A 
ATOM     26  C   UNL A   1      43.786  24.901  27.236  1.00  0.00     0.037 A 
ATOM     27  C   UNL A   1      46.919  30.595  27.832  1.00  0.00     0.049 A 
ATOM     28  C   UNL A   1      45.194  25.335  26.941  1.00  0.00     0.074 A 
ATOM     29  C   UNL A   1      48.258  30.853  27.591  1.00  0.00     0.029 A 
ATOM     30  N   UNL A   1      46.714  29.256  27.529  1.00  0.00    -0.354 N 
ATOM     31  N   UNL A   1      45.744  26.513  27.113  1.00  0.00    -0.248 NA
ATOM     32  C   UNL A   1      46.098  24.321  26.386  1.00  0.00     0.031 C 
ATOM     33  C   UNL A   1      48.847  29.688  27.088  1.00  0.00     0.029 A 
ATOM     34  C   UNL A   1      47.894  28.683  27.078  1.00  0.00     0.049 A 
ATOM     35  H   UNL A   1      45.856  28.782  27.621  1.00  0.00     0.167 HD
ATOM     36  C   UNL A   1      47.068  26.374  26.713  1.00  0.00     0.074 A 
ATOM     37  C   UNL A   1      47.237  24.994  26.306  1.00  0.00     0.031 C 
ATOM     38  C   UNL A   1      48.052  27.305  26.684  1.00  0.00     0.037 A 
BRANCH  25  39
ATOM     39  C   UNL A   1      46.290  32.946  28.506  1.00  0.00     0.058 A 
ATOM     40  C   UNL A   1      46.190  33.901  27.482  1.00  0.00     0.135 A 
ATOM     41  C   UNL A   1      46.699  33.392  29.775  1.00  0.00     0.135 A 
ATOM     42  F   UNL A   1      45.818  33.532  26.246  1.00  0.00    -0.206 F 
ATOM     43  C   UNL A   1      46.499  35.241  27.702  1.00  0.00     0.059 A 
ATOM     44  C   UNL A   1      46.985  34.732  30.026  1.00  0.00     0.059 A 
ATOM     45  F   UNL A   1      46.811  32.525  30.792  1.00  0.00    -0.206 F 
ATOM     46  C   UNL A   1      46.891  35.648  28.979  1.00  0.00     0.060 A 
BRANCH  46  47
ATOM     47  S   UNL A   1      47.267  37.393  29.252  1.00  0.00     0.124 S 
ATOM     48  O   UNL A   1      47.698  37.385  30.646  1.00  0.00    -0.237 OA
ATOM     49  O   UNL A   1      48.315  37.642  28.267  1.00  0.00    -0.237 OA
ATOM     50  O   UNL A   1      45.995  38.062  28.994  1.00  0.00    -0.744 OA
ENDBRANCH  46  47
ENDBRANCH  25  39
BRANCH  26  51
ATOM     51  C   UNL A   1      43.339  23.507  26.971  1.00  0.00     0.058 A 
ATOM     52  C   UNL A   1      43.149  22.593  28.017  1.00  0.00     0.135 A 
ATOM     53  C   UNL A   1      43.083  23.064  25.662  1.00  0.00     0.135 A 
ATOM     54  F   UNL A   1      43.382  22.967  29.285  1.00  0.00    -0.206 F 
ATOM     55  C   UNL A   1      42.745  21.285  27.776  1.00  0.00     0.059 A 
ATOM     56  C   UNL A   1      42.646  21.771  25.399  1.00  0.00     0.059 A 
ATOM     57  F   UNL A   1      43.229  23.905  24.627  1.00  0.00    -0.206 F 
ATOM     58  C   UNL A   1      42.495  20.883  26.462  1.00  0.00     0.060 A 
BRANCH  58  59
ATOM     59  S   UNL A   1      41.944  19.191  26.163  1.00  0.00     0.124 S 
ATOM     60  O   UNL A   1      40.519  19.387  25.916  1.00  0.00    -0.237 OA
ATOM     61  O   UNL A   1      42.747  18.807  25.007  1.00  0.00    -0.237 OA
ATOM     62  O   UNL A   1      42.280  18.504  27.406  1.00  0.00    -0.744 OA
ENDBRANCH  58  59
ENDBRANCH  26  51
BRANCH  38  63
ATOM     63  C   UNL A   1      49.417  26.854  26.239  1.00  0.00     0.058 A 
ATOM     64  C   UNL A   1      50.314  26.223  27.116  1.00  0.00     0.135 A 
ATOM     65  C   UNL A   1      49.815  27.019  24.903  1.00  0.00     0.135 A 
ATOM     66  F   UNL A   1      49.988  26.051  28.407  1.00  0.00    -0.206 F 
ATOM     67  C   UNL A   1      51.568  25.796  26.690  1.00  0.00     0.059 A 
ATOM     68  C   UNL A   1      51.050  26.569  24.447  1.00  0.00     0.059 A 
ATOM     69  F   UNL A   1      48.994  27.608  24.019  1.00  0.00    -0.206 F 
ATOM     70  C   UNL A   1      51.925  25.970  25.351  1.00  0.00     0.060 A 
BRANCH  70  71
ATOM     71  S   UNL A   1      53.540  25.379  24.805  1.00  0.00     0.124 S 
ATOM     72  O   UNL A   1      53.460  23.959  25.132  1.00  0.00    -0.237 OA
ATOM     73  O   UNL A   1      53.525  25.704  23.382  1.00  0.00    -0.237 OA
ATOM     74  O   UNL A   1      54.477  26.156  25.610  1.00  0.00    -0.744 OA
ENDBRANCH  70  71
ENDBRANCH  38  63
ENDBRANCH  12  13
ENDBRANCH   5   7
ENDBRANCH   2   3
ENDBRANCH   1   2
BRANCH   1  75
ATOM     75  C   UNL A   1      33.375  31.384  27.289  1.00  0.00     0.023 C 
BRANCH  75  76
ATOM     76  C   UNL A   1      32.163  30.569  26.855  1.00  0.00     0.116 C 
BRANCH  76  77
ATOM     77  N   UNL A   1      32.302  29.978  25.530  1.00  0.00    -0.356 N 
ATOM     78  C   UNL A   1      32.216  28.640  25.216  1.00  0.00     0.223 C 
ATOM     79  H   UNL A   1      32.476  30.598  24.785  1.00  0.00     0.163 HD
ATOM     80  O   UNL A   1      32.190  28.235  24.060  1.00  0.00    -0.275 OA
BRANCH  78  81
ATOM     81  C   UNL A   1      32.078  27.726  26.364  1.00  0.00     0.091 C 
ATOM     82  C   UNL A   1      32.940  26.478  26.319  1.00  0.00     0.028 C 
ATOM     83  C   UNL A   1      31.444  26.371  26.447  1.00  0.00     0.092 C 
BRANCH  83  84
ATOM     84  C   UNL A   1      30.692  25.637  25.399  1.00  0.00     0.226 C 
ATOM     85  O   UNL A   1      30.079  26.239  24.526  1.00  0.00    -0.275 OA
ATOM     86  N   UNL A   1      30.957  24.278  25.346  1.00  0.00    -0.339 N 
ATOM     87  C   UNL A   1      31.001  23.601  24.044  1.00  0.00     0.141 C 
ATOM     88  C   UNL A   1      31.241  23.426  26.512  1.00  0.00     0.141 C 
ATOM     89  C   UNL A   1      32.344  22.846  23.867  1.00  0.00     0.139 C 
ATOM     90  C   UNL A   1      32.545  22.623  26.334  1.00  0.00     0.139 C 
ATOM     91  N   UNL A   1      32.534  21.969  25.024  1.00  0.00    -0.352 N 
BRANCH  91  92
ATOM     92  C   UNL A   1      33.011  20.693  24.857  1.00  0.00     0.147 A 
ATOM     93  N   UNL A   1      32.108  19.681  24.846  1.00  0.00    -0.237 NA
ATOM     94  C   UNL A   1      34.386  20.422  24.753  1.00  0.00     0.084 A 
ATOM     95  C   UNL A   1      32.560  18.409  24.701  1.00  0.00     0.126 A 
ATOM     96  C   UNL A   1      34.826  19.104  24.625  1.00  0.00     0.039 A 
ATOM     97  Cl  UNL A   1      35.599  21.651  24.876  1.00  0.00    -0.080 Cl
ATOM     98  C   UNL A   1      33.898  18.065  24.592  1.00  0.00     0.075 A 
BRANCH  98  99
ATOM     99  C   UNL A   1      34.304  16.634  24.454  1.00  0.00     0.417 C 
ATOM    100  F   UNL A   1      35.521  16.377  25.007  1.00  0.00    -0.166 F 
ATOM    101  F   UNL A   1      33.430  15.783  25.056  1.00  0.00    -0.166 F 
ATOM    102  F   UNL A   1      34.392  16.220  23.159  1.00  0.00    -0.166 F 
ENDBRANCH  98  99
ENDBRANCH  91  92
ENDBRANCH  83  84
ENDBRANCH  78  81
ENDBRANCH  76  77
ENDBRANCH  75  76
ENDBRANCH   1  75
TORSDOF 17
ENDMDL
