MODEL 1
REMARK VINA RESULT:     -12.9      0.000      0.000
REMARK SMILES CCOC(=O)c1ccc(NC(=O)[C@H]2CC(C)=C(C)C[C@@H]2C(=O)NCCCCNC(=O)c2ccc(-c3c4nc(c(-c5c(F)cc(S(=O)(=O)[O-])cc5F)c5ccc([nH]5)c(-c5c(F)cc(S(=O)(=O)[O-])cc5F)c5nc(c(-c6c(F)cc(S(=O)(=O)[O-])cc6F)c6ccc3[nH]6)C=C5)C=C4)cc2)cc1
REMARK SMILES IDX 24 1 23 2 21 3 22 4 20 6 13 7 14 8 15 9 19 10 16 11 17 12
REMARK SMILES IDX 18 13 11 14 10 15 12 17 9 18 6 19 7 20 98 21 8 22 97 23 4 24
REMARK SMILES IDX 5 25 3 26 2 27 1 28 25 29 26 30 27 31 28 32 29 33 30 35
REMARK SMILES IDX 31 36 32 37 96 38 33 39 95 40 34 41 35 42 36 43 89 44 37 45
REMARK SMILES IDX 94 46 88 47 90 48 38 49 93 50 87 51 86 52 39 54 73 55 52 56
REMARK SMILES IDX 72 57 53 58 56 59 71 60 91 61 54 62 55 63 70 65 92 66 57 67
REMARK SMILES IDX 40 68 41 69 50 70 42 71 43 72 49 73 51 74 44 75 45 76 46 77
REMARK SMILES IDX 47 78 48 79 74 80 75 81 84 82 76 83 77 84 83 85 85 86 78 87
REMARK SMILES IDX 79 88 80 89 81 90 82 91 58 92 59 93 68 94 60 95 61 96 67 97
REMARK SMILES IDX 69 98 62 99 63 100 64 101 65 102 66 103
REMARK H PARENT 23 5 10 16 28 34 90 53 56 64
REMARK Flexibility Score: inf
ROOT
ATOM      1  C   UNL A   1      35.175  23.178  25.420  1.00  0.00     0.116 C 
ENDROOT
BRANCH   1   2
ATOM      2  N   UNL A   1      34.043  22.954  26.284  1.00  0.00    -0.356 N 
ATOM      3  C   UNL A   1      32.902  23.647  26.511  1.00  0.00     0.224 C 
ATOM      4  O   UNL A   1      32.210  23.161  27.412  1.00  0.00    -0.275 OA
ATOM      5  H   UNL A   1      34.113  22.129  26.816  1.00  0.00     0.163 HD
BRANCH   3   6
ATOM      6  C   UNL A   1      32.398  24.840  25.639  1.00  0.00     0.095 C 
ATOM      7  C   UNL A   1      33.397  25.455  24.636  1.00  0.00     0.095 C 
ATOM      8  C   UNL A   1      33.992  26.835  24.929  1.00  0.00     0.045 C 
ATOM      9  C   UNL A   1      33.258  27.735  25.879  1.00  0.00    -0.074 C 
ATOM     10  C   UNL A   1      31.747  25.868  26.616  1.00  0.00     0.045 C 
ATOM     11  C   UNL A   1      33.819  29.136  25.918  1.00  0.00     0.039 C 
ATOM     12  C   UNL A   1      32.236  27.297  26.635  1.00  0.00    -0.074 C 
ATOM     13  C   UNL A   1      31.489  28.177  27.607  1.00  0.00     0.039 C 
BRANCH   7  14
ATOM     14  C   UNL A   1      33.080  25.273  23.129  1.00  0.00     0.228 C 
ATOM     15  N   UNL A   1      32.122  25.901  22.401  1.00  0.00    -0.326 N 
ATOM     16  H   UNL A   1      32.161  25.682  21.442  1.00  0.00     0.169 HD
ATOM     17  O   UNL A   1      33.841  24.574  22.441  1.00  0.00    -0.274 OA
BRANCH  15  18
ATOM     18  C   UNL A   1      31.096  26.790  22.714  1.00  0.00     0.041 A 
ATOM     19  C   UNL A   1      28.848  28.383  23.087  1.00  0.00     0.060 A 
ATOM     20  C   UNL A   1      30.007  28.939  22.549  1.00  0.00     0.018 A 
ATOM     21  C   UNL A   1      28.842  27.071  23.557  1.00  0.00     0.018 A 
ATOM     22  C   UNL A   1      31.136  28.136  22.390  1.00  0.00     0.027 A 
ATOM     23  C   UNL A   1      29.983  26.282  23.394  1.00  0.00     0.027 A 
BRANCH  19  24
ATOM     24  C   UNL A   1      27.592  29.138  23.037  1.00  0.00     0.338 C 
ATOM     25  O   UNL A   1      26.529  28.688  23.426  1.00  0.00    -0.246 OA
BRANCH  24  26
ATOM     26  O   UNL A   1      27.830  30.349  22.484  1.00  0.00    -0.462 OA
BRANCH  26  27
ATOM     27  C   UNL A   1      27.746  31.452  23.395  1.00  0.00     0.230 C 
ATOM     28  C   UNL A   1      28.600  32.585  22.860  1.00  0.00     0.049 C 
ENDBRANCH  26  27
ENDBRANCH  24  26
ENDBRANCH  19  24
ENDBRANCH  15  18
ENDBRANCH   7  14
ENDBRANCH   3   6
ENDBRANCH   1   2
BRANCH   1  29
ATOM     29  C   UNL A   1      36.239  24.023  26.128  1.00  0.00     0.023 C 
BRANCH  29  30
ATOM     30  C   UNL A   1      37.677  23.577  25.856  1.00  0.00     0.023 C 
BRANCH  30  31
ATOM     31  C   UNL A   1      38.736  24.324  26.655  1.00  0.00     0.116 C 
BRANCH  31  32
ATOM     32  N   UNL A   1      40.043  24.307  26.018  1.00  0.00    -0.352 N 
ATOM     33  C   UNL A   1      41.156  25.037  26.352  1.00  0.00     0.251 C 
ATOM     34  H   UNL A   1      40.143  23.695  25.253  1.00  0.00     0.163 HD
ATOM     35  O   UNL A   1      42.160  25.004  25.648  1.00  0.00    -0.269 OA
BRANCH  33  36
ATOM     36  C   UNL A   1      41.107  25.898  27.551  1.00  0.00     0.039 A 
ATOM     37  C   UNL A   1      42.089  26.877  27.715  1.00  0.00     0.014 A 
ATOM     38  C   UNL A   1      40.064  25.772  28.472  1.00  0.00     0.014 A 
ATOM     39  C   UNL A   1      41.988  27.774  28.778  1.00  0.00     0.010 A 
ATOM     40  C   UNL A   1      39.929  26.709  29.490  1.00  0.00     0.010 A 
ATOM     41  C   UNL A   1      40.889  27.719  29.652  1.00  0.00    -0.014 A 
BRANCH  41  42
ATOM     42  C   UNL A   1      40.725  28.716  30.738  1.00  0.00     0.031 A 
ATOM     43  C   UNL A   1      41.545  28.603  31.993  1.00  0.00     0.074 A 
ATOM     44  C   UNL A   1      39.785  29.674  30.620  1.00  0.00     0.049 A 
ATOM     45  N   UNL A   1      41.500  29.336  33.074  1.00  0.00    -0.248 NA
ATOM     46  C   UNL A   1      42.524  27.503  32.054  1.00  0.00     0.031 C 
ATOM     47  C   UNL A   1      38.878  29.837  29.481  1.00  0.00     0.029 A 
ATOM     48  N   UNL A   1      39.422  30.683  31.477  1.00  0.00    -0.354 N 
ATOM     49  C   UNL A   1      42.423  28.777  33.949  1.00  0.00     0.074 A 
ATOM     50  C   UNL A   1      42.984  27.618  33.291  1.00  0.00     0.031 C 
ATOM     51  C   UNL A   1      38.074  30.890  29.704  1.00  0.00     0.029 A 
ATOM     52  C   UNL A   1      38.386  31.459  31.010  1.00  0.00     0.049 A 
ATOM     53  H   UNL A   1      39.863  30.838  32.343  1.00  0.00     0.167 HD
ATOM     54  C   UNL A   1      42.784  29.204  35.182  1.00  0.00     0.037 A 
ATOM     55  C   UNL A   1      37.757  32.507  31.576  1.00  0.00     0.037 A 
ATOM     56  C   UNL A   1      42.256  30.388  35.810  1.00  0.00     0.049 A 
ATOM     57  C   UNL A   1      38.214  32.991  32.925  1.00  0.00     0.074 A 
ATOM     58  C   UNL A   1      42.626  30.959  37.014  1.00  0.00     0.029 A 
ATOM     59  N   UNL A   1      41.249  31.181  35.282  1.00  0.00    -0.354 N 
ATOM     60  N   UNL A   1      39.153  32.503  33.701  1.00  0.00    -0.248 NA
ATOM     61  C   UNL A   1      37.536  34.175  33.472  1.00  0.00     0.031 C 
ATOM     62  C   UNL A   1      41.818  32.078  37.234  1.00  0.00     0.029 A 
ATOM     63  C   UNL A   1      40.971  32.227  36.146  1.00  0.00     0.049 A 
ATOM     64  H   UNL A   1      40.798  31.025  34.422  1.00  0.00     0.167 HD
ATOM     65  C   UNL A   1      39.193  33.332  34.816  1.00  0.00     0.074 A 
ATOM     66  C   UNL A   1      38.195  34.362  34.608  1.00  0.00     0.031 C 
ATOM     67  C   UNL A   1      39.981  33.248  35.916  1.00  0.00     0.037 A 
BRANCH  54  68
ATOM     68  C   UNL A   1      43.810  28.404  35.932  1.00  0.00     0.058 A 
ATOM     69  C   UNL A   1      43.443  27.339  36.772  1.00  0.00     0.135 A 
ATOM     70  C   UNL A   1      45.180  28.663  35.762  1.00  0.00     0.135 A 
ATOM     71  F   UNL A   1      42.147  27.061  36.982  1.00  0.00    -0.206 F 
ATOM     72  C   UNL A   1      44.397  26.568  37.425  1.00  0.00     0.059 A 
ATOM     73  C   UNL A   1      46.153  27.889  36.388  1.00  0.00     0.059 A 
ATOM     74  F   UNL A   1      45.584  29.673  34.974  1.00  0.00    -0.206 F 
ATOM     75  C   UNL A   1      45.751  26.848  37.224  1.00  0.00     0.060 A 
BRANCH  75  76
ATOM     76  S   UNL A   1      46.977  25.814  38.052  1.00  0.00     0.124 S 
ATOM     77  O   UNL A   1      47.682  25.232  36.914  1.00  0.00    -0.237 OA
ATOM     78  O   UNL A   1      47.732  26.790  38.833  1.00  0.00    -0.237 OA
ATOM     79  O   UNL A   1      46.168  24.884  38.832  1.00  0.00    -0.744 OA
ENDBRANCH  75  76
ENDBRANCH  54  68
BRANCH  55  80
ATOM     80  C   UNL A   1      36.637  33.178  30.866  1.00  0.00     0.058 A 
ATOM     81  C   UNL A   1      36.877  34.030  29.777  1.00  0.00     0.135 A 
ATOM     82  C   UNL A   1      35.306  32.988  31.266  1.00  0.00     0.135 A 
ATOM     83  F   UNL A   1      38.134  34.245  29.360  1.00  0.00    -0.206 F 
ATOM     84  C   UNL A   1      35.841  34.692  29.127  1.00  0.00     0.059 A 
ATOM     85  C   UNL A   1      34.249  33.621  30.617  1.00  0.00     0.059 A 
ATOM     86  F   UNL A   1      35.021  32.168  32.289  1.00  0.00    -0.206 F 
ATOM     87  C   UNL A   1      34.530  34.483  29.557  1.00  0.00     0.060 A 
BRANCH  87  88
ATOM     88  S   UNL A   1      33.186  35.325  28.692  1.00  0.00     0.124 S 
ATOM     89  O   UNL A   1      33.923  36.254  27.843  1.00  0.00    -0.237 OA
ATOM     90  O   UNL A   1      32.521  34.222  28.006  1.00  0.00    -0.237 OA
ATOM     91  O   UNL A   1      32.419  35.932  29.776  1.00  0.00    -0.744 OA
ENDBRANCH  87  88
ENDBRANCH  55  80
BRANCH  67  92
ATOM     92  C   UNL A   1      39.817  34.311  36.965  1.00  0.00     0.058 A 
ATOM     93  C   UNL A   1      38.971  34.129  38.069  1.00  0.00     0.135 A 
ATOM     94  C   UNL A   1      40.552  35.505  36.887  1.00  0.00     0.135 A 
ATOM     95  F   UNL A   1      38.243  33.007  38.185  1.00  0.00    -0.206 F 
ATOM     96  C   UNL A   1      38.841  35.106  39.051  1.00  0.00     0.059 A 
ATOM     97  C   UNL A   1      40.457  36.484  37.870  1.00  0.00     0.059 A 
ATOM     98  F   UNL A   1      41.385  35.721  35.856  1.00  0.00    -0.206 F 
ATOM     99  C   UNL A   1      39.588  36.281  38.942  1.00  0.00     0.060 A 
BRANCH  99 100
ATOM    100  S   UNL A   1      39.434  37.529  40.236  1.00  0.00     0.124 S 
ATOM    101  O   UNL A   1      38.461  38.442  39.648  1.00  0.00    -0.237 OA
ATOM    102  O   UNL A   1      38.962  36.746  41.374  1.00  0.00    -0.237 OA
ATOM    103  O   UNL A   1      40.791  38.053  40.365  1.00  0.00    -0.744 OA
ENDBRANCH  99 100
ENDBRANCH  67  92
ENDBRANCH  41  42
ENDBRANCH  33  36
ENDBRANCH  31  32
ENDBRANCH  30  31
ENDBRANCH  29  30
ENDBRANCH   1  29
TORSDOF 19
ENDMDL
MODEL 2
REMARK VINA RESULT:     -12.6      6.615     12.276
REMARK SMILES CCOC(=O)c1ccc(NC(=O)[C@H]2CC(C)=C(C)C[C@@H]2C(=O)NCCCCNC(=O)c2ccc(-c3c4nc(c(-c5c(F)cc(S(=O)(=O)[O-])cc5F)c5ccc([nH]5)c(-c5c(F)cc(S(=O)(=O)[O-])cc5F)c5nc(c(-c6c(F)cc(S(=O)(=O)[O-])cc6F)c6ccc3[nH]6)C=C5)C=C4)cc2)cc1
REMARK SMILES IDX 24 1 23 2 21 3 22 4 20 6 13 7 14 8 15 9 19 10 16 11 17 12
REMARK SMILES IDX 18 13 11 14 10 15 12 17 9 18 6 19 7 20 98 21 8 22 97 23 4 24
REMARK SMILES IDX 5 25 3 26 2 27 1 28 25 29 26 30 27 31 28 32 29 33 30 35
REMARK SMILES IDX 31 36 32 37 96 38 33 39 95 40 34 41 35 42 36 43 89 44 37 45
REMARK SMILES IDX 94 46 88 47 90 48 38 49 93 50 87 51 86 52 39 54 73 55 52 56
REMARK SMILES IDX 72 57 53 58 56 59 71 60 91 61 54 62 55 63 70 65 92 66 57 67
REMARK SMILES IDX 40 68 41 69 50 70 42 71 43 72 49 73 51 74 44 75 45 76 46 77
REMARK SMILES IDX 47 78 48 79 74 80 75 81 84 82 76 83 77 84 83 85 85 86 78 87
REMARK SMILES IDX 79 88 80 89 81 90 82 91 58 92 59 93 68 94 60 95 61 96 67 97
REMARK SMILES IDX 69 98 62 99 63 100 64 101 65 102 66 103
REMARK H PARENT 23 5 10 16 28 34 90 53 56 64
REMARK Flexibility Score: inf
ROOT
ATOM      1  C   UNL A   1      33.739  27.453  26.035  1.00  0.00     0.116 C 
ENDROOT
BRANCH   1   2
ATOM      2  N   UNL A   1      33.280  27.368  24.671  1.00  0.00    -0.356 N 
ATOM      3  C   UNL A   1      33.152  26.338  23.802  1.00  0.00     0.224 C 
ATOM      4  O   UNL A   1      32.801  26.697  22.672  1.00  0.00    -0.275 OA
ATOM      5  H   UNL A   1      33.004  28.235  24.296  1.00  0.00     0.163 HD
BRANCH   3   6
ATOM      6  C   UNL A   1      33.264  24.829  24.187  1.00  0.00     0.095 C 
ATOM      7  C   UNL A   1      33.400  24.491  25.688  1.00  0.00     0.095 C 
ATOM      8  C   UNL A   1      34.750  24.006  26.224  1.00  0.00     0.045 C 
ATOM      9  C   UNL A   1      35.729  23.422  25.249  1.00  0.00    -0.074 C 
ATOM     10  C   UNL A   1      34.379  24.215  23.284  1.00  0.00     0.045 C 
ATOM     11  C   UNL A   1      36.921  22.784  25.920  1.00  0.00     0.039 C 
ATOM     12  C   UNL A   1      35.554  23.509  23.918  1.00  0.00    -0.074 C 
ATOM     13  C   UNL A   1      36.529  22.942  22.916  1.00  0.00     0.039 C 
BRANCH   7  14
ATOM     14  C   UNL A   1      32.215  23.738  26.346  1.00  0.00     0.228 C 
ATOM     15  N   UNL A   1      31.917  22.417  26.254  1.00  0.00    -0.326 N 
ATOM     16  H   UNL A   1      31.160  22.152  26.825  1.00  0.00     0.169 HD
ATOM     17  O   UNL A   1      31.499  24.348  27.157  1.00  0.00    -0.274 OA
BRANCH  15  18
ATOM     18  C   UNL A   1      32.451  21.353  25.531  1.00  0.00     0.041 A 
ATOM     19  C   UNL A   1      33.183  19.074  24.117  1.00  0.00     0.060 A 
ATOM     20  C   UNL A   1      33.766  19.336  25.355  1.00  0.00     0.018 A 
ATOM     21  C   UNL A   1      32.331  20.004  23.522  1.00  0.00     0.018 A 
ATOM     22  C   UNL A   1      33.410  20.496  26.043  1.00  0.00     0.027 A 
ATOM     23  C   UNL A   1      31.989  21.162  24.224  1.00  0.00     0.027 A 
BRANCH  19  24
ATOM     24  C   UNL A   1      33.359  17.757  23.498  1.00  0.00     0.338 C 
ATOM     25  O   UNL A   1      32.775  17.414  22.484  1.00  0.00    -0.246 OA
BRANCH  24  26
ATOM     26  O   UNL A   1      34.225  17.034  24.243  1.00  0.00    -0.462 OA
BRANCH  26  27
ATOM     27  C   UNL A   1      33.758  15.730  24.610  1.00  0.00     0.230 C 
ATOM     28  C   UNL A   1      32.562  15.886  25.529  1.00  0.00     0.049 C 
ENDBRANCH  26  27
ENDBRANCH  24  26
ENDBRANCH  19  24
ENDBRANCH  15  18
ENDBRANCH   7  14
ENDBRANCH   3   6
ENDBRANCH   1   2
BRANCH   1  29
ATOM     29  C   UNL A   1      33.103  28.650  26.748  1.00  0.00     0.023 C 
BRANCH  29  30
ATOM     30  C   UNL A   1      34.077  29.793  27.046  1.00  0.00     0.023 C 
BRANCH  30  31
ATOM     31  C   UNL A   1      35.204  29.434  28.003  1.00  0.00     0.116 C 
BRANCH  31  32
ATOM     32  N   UNL A   1      35.283  30.329  29.147  1.00  0.00    -0.352 N 
ATOM     33  C   UNL A   1      36.374  30.603  29.932  1.00  0.00     0.251 C 
ATOM     34  H   UNL A   1      34.450  30.797  29.387  1.00  0.00     0.163 HD
ATOM     35  O   UNL A   1      36.262  31.293  30.940  1.00  0.00    -0.269 OA
BRANCH  33  36
ATOM     36  C   UNL A   1      37.678  30.015  29.567  1.00  0.00     0.039 A 
ATOM     37  C   UNL A   1      38.042  29.971  28.220  1.00  0.00     0.014 A 
ATOM     38  C   UNL A   1      38.556  29.564  30.558  1.00  0.00     0.014 A 
ATOM     39  C   UNL A   1      39.317  29.530  27.870  1.00  0.00     0.010 A 
ATOM     40  C   UNL A   1      39.848  29.189  30.212  1.00  0.00     0.010 A 
ATOM     41  C   UNL A   1      40.242  29.169  28.866  1.00  0.00    -0.014 A 
BRANCH  41  42
ATOM     42  C   UNL A   1      41.628  28.775  28.515  1.00  0.00     0.031 A 
ATOM     43  C   UNL A   1      42.711  29.816  28.439  1.00  0.00     0.074 A 
ATOM     44  C   UNL A   1      41.890  27.493  28.193  1.00  0.00     0.049 A 
ATOM     45  N   UNL A   1      43.962  29.677  28.088  1.00  0.00    -0.248 NA
ATOM     46  C   UNL A   1      42.330  31.200  28.770  1.00  0.00     0.031 C 
ATOM     47  C   UNL A   1      40.904  26.409  28.159  1.00  0.00     0.029 A 
ATOM     48  N   UNL A   1      43.060  26.885  27.815  1.00  0.00    -0.354 N 
ATOM     49  C   UNL A   1      44.511  30.952  28.135  1.00  0.00     0.074 A 
ATOM     50  C   UNL A   1      43.448  31.860  28.507  1.00  0.00     0.031 C 
ATOM     51  C   UNL A   1      41.514  25.269  27.793  1.00  0.00     0.029 A 
ATOM     52  C   UNL A   1      42.924  25.544  27.541  1.00  0.00     0.049 A 
ATOM     53  H   UNL A   1      43.918  27.364  27.748  1.00  0.00     0.167 HD
ATOM     54  C   UNL A   1      45.792  31.329  27.908  1.00  0.00     0.037 A 
ATOM     55  C   UNL A   1      43.833  24.641  27.126  1.00  0.00     0.037 A 
ATOM     56  C   UNL A   1      46.855  30.413  27.587  1.00  0.00     0.049 A 
ATOM     57  C   UNL A   1      45.260  25.078  26.931  1.00  0.00     0.074 A 
ATOM     58  C   UNL A   1      48.203  30.682  27.432  1.00  0.00     0.029 A 
ATOM     59  N   UNL A   1      46.690  29.053  27.373  1.00  0.00    -0.354 N 
ATOM     60  N   UNL A   1      45.782  26.274  27.069  1.00  0.00    -0.248 NA
ATOM     61  C   UNL A   1      46.225  24.042  26.537  1.00  0.00     0.031 C 
ATOM     62  C   UNL A   1      48.850  29.490  27.090  1.00  0.00     0.029 A 
ATOM     63  C   UNL A   1      47.910  28.472  27.069  1.00  0.00     0.049 A 
ATOM     64  H   UNL A   1      45.833  28.572  27.428  1.00  0.00     0.167 HD
ATOM     65  C   UNL A   1      47.137  26.130  26.799  1.00  0.00     0.074 A 
ATOM     66  C   UNL A   1      47.360  24.729  26.506  1.00  0.00     0.031 C 
ATOM     67  C   UNL A   1      48.111  27.073  26.791  1.00  0.00     0.037 A 
BRANCH  54  68
ATOM     68  C   UNL A   1      46.126  32.789  28.015  1.00  0.00     0.058 A 
ATOM     69  C   UNL A   1      45.966  33.663  26.928  1.00  0.00     0.135 A 
ATOM     70  C   UNL A   1      46.551  33.335  29.238  1.00  0.00     0.135 A 
ATOM     71  F   UNL A   1      45.579  33.190  25.733  1.00  0.00    -0.206 F 
ATOM     72  C   UNL A   1      46.227  35.024  27.044  1.00  0.00     0.059 A 
ATOM     73  C   UNL A   1      46.796  34.698  29.384  1.00  0.00     0.059 A 
ATOM     74  F   UNL A   1      46.724  32.543  30.308  1.00  0.00    -0.206 F 
ATOM     75  C   UNL A   1      46.639  35.533  28.278  1.00  0.00     0.060 A 
BRANCH  75  76
ATOM     76  S   UNL A   1      46.939  37.307  28.422  1.00  0.00     0.124 S 
ATOM     77  O   UNL A   1      47.698  37.374  29.667  1.00  0.00    -0.237 OA
ATOM     78  O   UNL A   1      47.692  37.596  27.204  1.00  0.00    -0.237 OA
ATOM     79  O   UNL A   1      45.596  37.876  28.473  1.00  0.00    -0.744 OA
ENDBRANCH  75  76
ENDBRANCH  54  68
BRANCH  55  80
ATOM     80  C   UNL A   1      43.428  23.232  26.879  1.00  0.00     0.058 A 
ATOM     81  C   UNL A   1      43.150  22.362  27.943  1.00  0.00     0.135 A 
ATOM     82  C   UNL A   1      43.320  22.725  25.575  1.00  0.00     0.135 A 
ATOM     83  F   UNL A   1      43.244  22.799  29.209  1.00  0.00    -0.206 F 
ATOM     84  C   UNL A   1      42.806  21.032  27.727  1.00  0.00     0.059 A 
ATOM     85  C   UNL A   1      42.953  21.405  25.332  1.00  0.00     0.059 A 
ATOM     86  F   UNL A   1      43.556  23.522  24.521  1.00  0.00    -0.206 F 
ATOM     87  C   UNL A   1      42.713  20.562  26.416  1.00  0.00     0.060 A 
BRANCH  87  88
ATOM     88  S   UNL A   1      42.239  18.840  26.141  1.00  0.00     0.124 S 
ATOM     89  O   UNL A   1      43.159  18.451  25.079  1.00  0.00    -0.237 OA
ATOM     90  O   UNL A   1      42.482  18.240  27.449  1.00  0.00    -0.237 OA
ATOM     91  O   UNL A   1      40.834  18.939  25.757  1.00  0.00    -0.744 OA
ENDBRANCH  87  88
ENDBRANCH  55  80
BRANCH  67  92
ATOM     92  C   UNL A   1      49.509  26.617  26.483  1.00  0.00     0.058 A 
ATOM     93  C   UNL A   1      50.335  26.061  27.472  1.00  0.00     0.135 A 
ATOM     94  C   UNL A   1      50.010  26.694  25.174  1.00  0.00     0.135 A 
ATOM     95  F   UNL A   1      49.903  25.970  28.741  1.00  0.00    -0.206 F 
ATOM     96  C   UNL A   1      51.620  25.618  27.179  1.00  0.00     0.059 A 
ATOM     97  C   UNL A   1      51.283  26.234  24.853  1.00  0.00     0.059 A 
ATOM     98  F   UNL A   1      49.254  27.207  24.190  1.00  0.00    -0.206 F 
ATOM     99  C   UNL A   1      52.085  25.709  25.865  1.00  0.00     0.060 A 
BRANCH  99 100
ATOM    100  S   UNL A   1      53.744  25.104  25.488  1.00  0.00     0.124 S 
ATOM    101  O   UNL A   1      54.502  25.598  26.633  1.00  0.00    -0.237 OA
ATOM    102  O   UNL A   1      53.547  23.659  25.434  1.00  0.00    -0.237 OA
ATOM    103  O   UNL A   1      54.053  25.736  24.209  1.00  0.00    -0.744 OA
ENDBRANCH  99 100
ENDBRANCH  67  92
ENDBRANCH  41  42
ENDBRANCH  33  36
ENDBRANCH  31  32
ENDBRANCH  30  31
ENDBRANCH  29  30
ENDBRANCH   1  29
TORSDOF 19
ENDMDL
MODEL 3
REMARK VINA RESULT:     -12.4      5.062     10.298
REMARK SMILES CCOC(=O)c1ccc(NC(=O)[C@H]2CC(C)=C(C)C[C@@H]2C(=O)NCCCCNC(=O)c2ccc(-c3c4nc(c(-c5c(F)cc(S(=O)(=O)[O-])cc5F)c5ccc([nH]5)c(-c5c(F)cc(S(=O)(=O)[O-])cc5F)c5nc(c(-c6c(F)cc(S(=O)(=O)[O-])cc6F)c6ccc3[nH]6)C=C5)C=C4)cc2)cc1
REMARK SMILES IDX 24 1 23 2 21 3 22 4 20 6 13 7 14 8 15 9 19 10 16 11 17 12
REMARK SMILES IDX 18 13 11 14 10 15 12 17 9 18 6 19 7 20 98 21 8 22 97 23 4 24
REMARK SMILES IDX 5 25 3 26 2 27 1 28 25 29 26 30 27 31 28 32 29 33 30 35
REMARK SMILES IDX 31 36 32 37 96 38 33 39 95 40 34 41 35 42 36 43 89 44 37 45
REMARK SMILES IDX 94 46 88 47 90 48 38 49 93 50 87 51 86 52 39 54 73 55 52 56
REMARK SMILES IDX 72 57 53 58 56 59 71 60 91 61 54 62 55 63 70 65 92 66 57 67
REMARK SMILES IDX 40 68 41 69 50 70 42 71 43 72 49 73 51 74 44 75 45 76 46 77
REMARK SMILES IDX 47 78 48 79 74 80 75 81 84 82 76 83 77 84 83 85 85 86 78 87
REMARK SMILES IDX 79 88 80 89 81 90 82 91 58 92 59 93 68 94 60 95 61 96 67 97
REMARK SMILES IDX 69 98 62 99 63 100 64 101 65 102 66 103
REMARK H PARENT 23 5 10 16 28 34 90 53 56 64
REMARK Flexibility Score: inf
ROOT
ATOM      1  C   UNL A   1      31.629  28.157  23.894  1.00  0.00     0.116 C 
ENDROOT
BRANCH   1   2
ATOM      2  N   UNL A   1      30.253  27.730  23.955  1.00  0.00    -0.356 N 
ATOM      3  C   UNL A   1      29.666  26.510  23.980  1.00  0.00     0.224 C 
ATOM      4  O   UNL A   1      28.431  26.565  23.940  1.00  0.00    -0.275 OA
ATOM      5  H   UNL A   1      29.612  28.475  23.984  1.00  0.00     0.163 HD
BRANCH   3   6
ATOM      6  C   UNL A   1      30.421  25.163  24.203  1.00  0.00     0.095 C 
ATOM      7  C   UNL A   1      31.082  24.941  25.580  1.00  0.00     0.095 C 
ATOM      8  C   UNL A   1      32.607  25.007  25.695  1.00  0.00     0.045 C 
ATOM      9  C   UNL A   1      33.419  24.799  24.451  1.00  0.00    -0.074 C 
ATOM     10  C   UNL A   1      31.384  24.980  22.988  1.00  0.00     0.045 C 
ATOM     11  C   UNL A   1      34.897  24.669  24.725  1.00  0.00     0.039 C 
ATOM     12  C   UNL A   1      32.862  24.778  23.226  1.00  0.00    -0.074 C 
ATOM     13  C   UNL A   1      33.656  24.584  21.959  1.00  0.00     0.039 C 
BRANCH   7  14
ATOM     14  C   UNL A   1      30.485  23.822  26.472  1.00  0.00     0.228 C 
ATOM     15  N   UNL A   1      30.962  22.564  26.655  1.00  0.00    -0.326 N 
ATOM     16  H   UNL A   1      30.458  22.057  27.332  1.00  0.00     0.169 HD
ATOM     17  O   UNL A   1      29.531  24.099  27.217  1.00  0.00    -0.274 OA
BRANCH  15  18
ATOM     18  C   UNL A   1      32.010  21.836  26.098  1.00  0.00     0.041 A 
ATOM     19  C   UNL A   1      33.884  20.087  25.022  1.00  0.00     0.060 A 
ATOM     20  C   UNL A   1      34.146  20.719  26.236  1.00  0.00     0.018 A 
ATOM     21  C   UNL A   1      32.752  20.418  24.279  1.00  0.00     0.018 A 
ATOM     22  C   UNL A   1      33.209  21.614  26.753  1.00  0.00     0.027 A 
ATOM     23  C   UNL A   1      31.827  21.319  24.810  1.00  0.00     0.027 A 
BRANCH  19  24
ATOM     24  C   UNL A   1      34.734  18.974  24.587  1.00  0.00     0.338 C 
ATOM     25  O   UNL A   1      35.939  18.947  24.768  1.00  0.00    -0.246 OA
BRANCH  24  26
ATOM     26  O   UNL A   1      33.967  18.053  23.962  1.00  0.00    -0.462 OA
BRANCH  26  27
ATOM     27  C   UNL A   1      34.323  16.692  24.230  1.00  0.00     0.230 C 
ATOM     28  C   UNL A   1      33.552  16.222  25.449  1.00  0.00     0.049 C 
ENDBRANCH  26  27
ENDBRANCH  24  26
ENDBRANCH  19  24
ENDBRANCH  15  18
ENDBRANCH   7  14
ENDBRANCH   3   6
ENDBRANCH   1   2
BRANCH   1  29
ATOM     29  C   UNL A   1      32.111  28.629  25.270  1.00  0.00     0.023 C 
BRANCH  29  30
ATOM     30  C   UNL A   1      33.613  28.449  25.504  1.00  0.00     0.023 C 
BRANCH  30  31
ATOM     31  C   UNL A   1      34.038  28.499  26.964  1.00  0.00     0.116 C 
BRANCH  31  32
ATOM     32  N   UNL A   1      33.838  29.807  27.568  1.00  0.00    -0.352 N 
ATOM     33  C   UNL A   1      34.737  30.551  28.290  1.00  0.00     0.251 C 
ATOM     34  H   UNL A   1      32.948  30.209  27.443  1.00  0.00     0.163 HD
ATOM     35  O   UNL A   1      34.388  31.591  28.840  1.00  0.00    -0.269 OA
BRANCH  33  36
ATOM     36  C   UNL A   1      36.120  30.055  28.430  1.00  0.00     0.039 A 
ATOM     37  C   UNL A   1      36.985  30.162  27.340  1.00  0.00     0.014 A 
ATOM     38  C   UNL A   1      36.570  29.543  29.650  1.00  0.00     0.014 A 
ATOM     39  C   UNL A   1      38.326  29.810  27.494  1.00  0.00     0.010 A 
ATOM     40  C   UNL A   1      37.919  29.256  29.819  1.00  0.00     0.010 A 
ATOM     41  C   UNL A   1      38.810  29.388  28.744  1.00  0.00    -0.014 A 
BRANCH  41  42
ATOM     42  C   UNL A   1      40.248  29.086  28.944  1.00  0.00     0.031 A 
ATOM     43  C   UNL A   1      40.793  27.735  28.572  1.00  0.00     0.074 A 
ATOM     44  C   UNL A   1      41.042  30.004  29.530  1.00  0.00     0.049 A 
ATOM     45  N   UNL A   1      42.002  27.263  28.730  1.00  0.00    -0.248 NA
ATOM     46  C   UNL A   1      39.848  26.777  27.972  1.00  0.00     0.031 C 
ATOM     47  C   UNL A   1      40.608  31.323  30.001  1.00  0.00     0.029 A 
ATOM     48  N   UNL A   1      42.376  29.965  29.846  1.00  0.00    -0.354 N 
ATOM     49  C   UNL A   1      41.959  25.952  28.272  1.00  0.00     0.074 A 
ATOM     50  C   UNL A   1      40.595  25.688  27.868  1.00  0.00     0.031 C 
ATOM     51  C   UNL A   1      41.659  31.968  30.534  1.00  0.00     0.029 A 
ATOM     52  C   UNL A   1      42.832  31.104  30.468  1.00  0.00     0.049 A 
ATOM     53  H   UNL A   1      42.954  29.193  29.645  1.00  0.00     0.167 HD
ATOM     54  C   UNL A   1      42.970  25.057  28.177  1.00  0.00     0.037 A 
ATOM     55  C   UNL A   1      44.056  31.412  30.938  1.00  0.00     0.037 A 
ATOM     56  C   UNL A   1      44.335  25.345  28.535  1.00  0.00     0.049 A 
ATOM     57  C   UNL A   1      45.173  30.417  30.773  1.00  0.00     0.074 A 
ATOM     58  C   UNL A   1      45.449  24.539  28.388  1.00  0.00     0.029 A 
ATOM     59  N   UNL A   1      44.769  26.529  29.109  1.00  0.00    -0.354 N 
ATOM     60  N   UNL A   1      45.134  29.213  30.253  1.00  0.00    -0.248 NA
ATOM     61  C   UNL A   1      46.503  30.825  31.247  1.00  0.00     0.031 C 
ATOM     62  C   UNL A   1      46.554  25.222  28.905  1.00  0.00     0.029 A 
ATOM     63  C   UNL A   1      46.133  26.469  29.340  1.00  0.00     0.049 A 
ATOM     64  H   UNL A   1      44.194  27.299  29.323  1.00  0.00     0.167 HD
ATOM     65  C   UNL A   1      46.435  28.729  30.317  1.00  0.00     0.074 A 
ATOM     66  C   UNL A   1      47.242  29.775  30.912  1.00  0.00     0.031 C 
ATOM     67  C   UNL A   1      46.920  27.526  29.924  1.00  0.00     0.037 A 
BRANCH  54  68
ATOM     68  C   UNL A   1      42.651  23.687  27.651  1.00  0.00     0.058 A 
ATOM     69  C   UNL A   1      42.609  23.419  26.273  1.00  0.00     0.135 A 
ATOM     70  C   UNL A   1      42.447  22.614  28.535  1.00  0.00     0.135 A 
ATOM     71  F   UNL A   1      42.780  24.412  25.387  1.00  0.00    -0.206 F 
ATOM     72  C   UNL A   1      42.365  22.139  25.789  1.00  0.00     0.059 A 
ATOM     73  C   UNL A   1      42.223  21.320  28.073  1.00  0.00     0.059 A 
ATOM     74  F   UNL A   1      42.472  22.818  29.862  1.00  0.00    -0.206 F 
ATOM     75  C   UNL A   1      42.176  21.094  26.697  1.00  0.00     0.060 A 
BRANCH  75  76
ATOM     76  S   UNL A   1      41.894  19.432  26.053  1.00  0.00     0.124 S 
ATOM     77  O   UNL A   1      42.792  19.410  24.902  1.00  0.00    -0.237 OA
ATOM     78  O   UNL A   1      42.287  18.590  27.180  1.00  0.00    -0.237 OA
ATOM     79  O   UNL A   1      40.469  19.425  25.738  1.00  0.00    -0.744 OA
ENDBRANCH  75  76
ENDBRANCH  54  68
BRANCH  55  80
ATOM     80  C   UNL A   1      44.296  32.723  31.596  1.00  0.00     0.058 A 
ATOM     81  C   UNL A   1      44.665  33.851  30.849  1.00  0.00     0.135 A 
ATOM     82  C   UNL A   1      44.169  32.872  32.985  1.00  0.00     0.135 A 
ATOM     83  F   UNL A   1      44.802  33.757  29.517  1.00  0.00    -0.206 F 
ATOM     84  C   UNL A   1      44.927  35.074  31.456  1.00  0.00     0.059 A 
ATOM     85  C   UNL A   1      44.403  34.091  33.615  1.00  0.00     0.059 A 
ATOM     86  F   UNL A   1      43.799  31.828  33.743  1.00  0.00    -0.206 F 
ATOM     87  C   UNL A   1      44.797  35.183  32.842  1.00  0.00     0.060 A 
BRANCH  87  88
ATOM     88  S   UNL A   1      45.113  36.781  33.622  1.00  0.00     0.124 S 
ATOM     89  O   UNL A   1      44.406  37.689  32.726  1.00  0.00    -0.237 OA
ATOM     90  O   UNL A   1      44.522  36.601  34.945  1.00  0.00    -0.237 OA
ATOM     91  O   UNL A   1      46.569  36.880  33.603  1.00  0.00    -0.744 OA
ENDBRANCH  87  88
ENDBRANCH  55  80
BRANCH  67  92
ATOM     92  C   UNL A   1      48.393  27.286  30.096  1.00  0.00     0.058 A 
ATOM     93  C   UNL A   1      49.318  27.656  29.108  1.00  0.00     0.135 A 
ATOM     94  C   UNL A   1      48.887  26.723  31.284  1.00  0.00     0.135 A 
ATOM     95  F   UNL A   1      48.894  28.192  27.952  1.00  0.00    -0.206 F 
ATOM     96  C   UNL A   1      50.683  27.454  29.281  1.00  0.00     0.059 A 
ATOM     97  C   UNL A   1      50.250  26.536  31.489  1.00  0.00     0.059 A 
ATOM     98  F   UNL A   1      48.043  26.365  32.265  1.00  0.00    -0.206 F 
ATOM     99  C   UNL A   1      51.139  26.893  30.476  1.00  0.00     0.060 A 
BRANCH  99 100
ATOM    100  S   UNL A   1      52.915  26.662  30.703  1.00  0.00     0.124 S 
ATOM    101  O   UNL A   1      53.347  26.363  29.342  1.00  0.00    -0.237 OA
ATOM    102  O   UNL A   1      53.335  27.956  31.232  1.00  0.00    -0.237 OA
ATOM    103  O   UNL A   1      52.995  25.552  31.647  1.00  0.00    -0.744 OA
ENDBRANCH  99 100
ENDBRANCH  67  92
ENDBRANCH  41  42
ENDBRANCH  33  36
ENDBRANCH  31  32
ENDBRANCH  30  31
ENDBRANCH  29  30
ENDBRANCH   1  29
TORSDOF 19
ENDMDL
