MODEL 1
REMARK VINA RESULT:     -12.2      0.000      0.000
REMARK SMILES CC(C)CSc1cc2c(cc1Cl)C=C(C(=O)NCCCCNC(=O)c1ccc(-c3c4nc(c(-c5c(F)cc(S(=O)(=O)[O-])cc5F)c5ccc([nH]5)c(-c5c(F)cc(S(=O)(=O)[O-])cc5F)c5nc(c(-c6c(F)cc(S(=O)(=O)[O-])cc6F)c6ccc3[nH]6)C=C5)C=C4)cc1)[C@@H](C(F)(F)F)O2
REMARK SMILES IDX 19 1 18 2 17 3 15 4 16 5 14 7 6 8 7 9 11 10 8 11 10 12 12 13
REMARK SMILES IDX 9 14 96 15 13 16 91 17 5 18 4 19 2 20 1 21 3 22 92 23 93 24
REMARK SMILES IDX 94 25 95 26 20 27 21 28 22 29 23 30 24 32 25 33 26 34 90 35
REMARK SMILES IDX 27 36 89 37 28 38 29 39 30 40 83 41 31 42 88 43 82 44 84 45
REMARK SMILES IDX 32 46 87 47 81 48 80 49 33 51 67 52 46 53 66 54 47 55 50 56
REMARK SMILES IDX 65 57 85 58 48 59 49 60 64 62 86 63 51 64 34 65 35 66 44 67
REMARK SMILES IDX 36 68 37 69 43 70 45 71 38 72 39 73 40 74 41 75 42 76 68 77
REMARK SMILES IDX 69 78 78 79 70 80 71 81 77 82 79 83 72 84 73 85 74 86 75 87
REMARK SMILES IDX 76 88 52 89 53 90 62 91 54 92 55 93 61 94 63 95 56 96 57 97
REMARK SMILES IDX 58 98 59 99 60 100
REMARK H PARENT 17 6 22 31 84 50 50 61
REMARK Flexibility Score: inf
ROOT
ATOM      1  C   UNL A   1      33.692  30.315  27.230  1.00  0.00     0.023 C 
ENDROOT
BRANCH   1   2
ATOM      2  C   UNL A   1      32.235  30.498  26.810  1.00  0.00     0.116 C 
BRANCH   2   3
ATOM      3  N   UNL A   1      32.026  30.196  25.405  1.00  0.00    -0.352 N 
ATOM      4  C   UNL A   1      31.921  29.087  24.636  1.00  0.00     0.251 C 
ATOM      5  O   UNL A   1      31.721  29.293  23.434  1.00  0.00    -0.270 OA
ATOM      6  H   UNL A   1      31.936  31.016  24.868  1.00  0.00     0.163 HD
BRANCH   4   7
ATOM      7  C   UNL A   1      32.030  27.680  25.128  1.00  0.00     0.067 C 
ATOM      8  C   UNL A   1      33.801  23.163  26.557  1.00  0.00     0.030 A 
ATOM      9  C   UNL A   1      32.573  23.828  26.685  1.00  0.00     0.063 A 
ATOM     10  C   UNL A   1      34.884  23.862  25.997  1.00  0.00     0.055 A 
ATOM     11  C   UNL A   1      32.410  25.124  26.201  1.00  0.00     0.129 A 
ATOM     12  C   UNL A   1      34.715  25.171  25.520  1.00  0.00     0.033 A 
ATOM     13  Cl  UNL A   1      36.480  23.202  25.908  1.00  0.00    -0.083 Cl
ATOM     14  C   UNL A   1      33.473  25.803  25.613  1.00  0.00     0.019 A 
ATOM     15  O   UNL A   1      31.180  25.687  26.374  1.00  0.00    -0.475 OA
ATOM     16  C   UNL A   1      33.278  27.174  25.162  1.00  0.00     0.025 C 
ATOM     17  C   UNL A   1      30.858  26.827  25.527  1.00  0.00     0.314 C 
BRANCH   8  18
ATOM     18  S   UNL A   1      33.845  21.486  27.180  1.00  0.00    -0.124 SA
BRANCH  18  19
ATOM     19  C   UNL A   1      32.941  20.558  25.885  1.00  0.00     0.078 C 
BRANCH  19  20
ATOM     20  C   UNL A   1      33.749  20.204  24.622  1.00  0.00    -0.007 C 
ATOM     21  C   UNL A   1      35.230  19.942  24.903  1.00  0.00     0.008 C 
ATOM     22  C   UNL A   1      33.141  18.949  23.981  1.00  0.00     0.008 C 
ENDBRANCH  19  20
ENDBRANCH  18  19
ENDBRANCH   8  18
BRANCH  17  23
ATOM     23  C   UNL A   1      30.046  26.333  24.314  1.00  0.00     0.429 C 
ATOM     24  F   UNL A   1      30.823  26.306  23.202  1.00  0.00    -0.167 F 
ATOM     25  F   UNL A   1      29.568  25.079  24.481  1.00  0.00    -0.167 F 
ATOM     26  F   UNL A   1      28.984  27.127  24.046  1.00  0.00    -0.167 F 
ENDBRANCH  17  23
ENDBRANCH   4   7
ENDBRANCH   2   3
ENDBRANCH   1   2
BRANCH   1  27
ATOM     27  C   UNL A   1      34.381  31.602  27.688  1.00  0.00     0.023 C 
BRANCH  27  28
ATOM     28  C   UNL A   1      35.690  31.417  28.455  1.00  0.00     0.116 C 
BRANCH  28  29
ATOM     29  N   UNL A   1      35.547  30.709  29.720  1.00  0.00    -0.352 N 
ATOM     30  C   UNL A   1      36.511  30.026  30.428  1.00  0.00     0.251 C 
ATOM     31  H   UNL A   1      34.647  30.719  30.119  1.00  0.00     0.163 HD
ATOM     32  O   UNL A   1      36.215  29.421  31.454  1.00  0.00    -0.269 OA
BRANCH  30  33
ATOM     33  C   UNL A   1      37.892  29.988  29.904  1.00  0.00     0.039 A 
ATOM     34  C   UNL A   1      38.122  29.842  28.535  1.00  0.00     0.014 A 
ATOM     35  C   UNL A   1      38.960  30.012  30.804  1.00  0.00     0.014 A 
ATOM     36  C   UNL A   1      39.402  29.541  28.087  1.00  0.00     0.010 A 
ATOM     37  C   UNL A   1      40.259  29.788  30.338  1.00  0.00     0.010 A 
ATOM     38  C   UNL A   1      40.481  29.491  28.985  1.00  0.00    -0.014 A 
BRANCH  38  39
ATOM     39  C   UNL A   1      41.822  29.093  28.483  1.00  0.00     0.031 A 
ATOM     40  C   UNL A   1      42.973  30.065  28.512  1.00  0.00     0.074 A 
ATOM     41  C   UNL A   1      42.019  27.825  28.076  1.00  0.00     0.049 A 
ATOM     42  N   UNL A   1      44.218  29.877  28.156  1.00  0.00    -0.248 NA
ATOM     43  C   UNL A   1      42.693  31.426  28.999  1.00  0.00     0.031 C 
ATOM     44  C   UNL A   1      40.984  26.790  28.016  1.00  0.00     0.029 A 
ATOM     45  N   UNL A   1      43.157  27.178  27.670  1.00  0.00    -0.354 N 
ATOM     46  C   UNL A   1      44.863  31.092  28.359  1.00  0.00     0.074 A 
ATOM     47  C   UNL A   1      43.867  32.022  28.845  1.00  0.00     0.031 C 
ATOM     48  C   UNL A   1      41.546  25.626  27.659  1.00  0.00     0.029 A 
ATOM     49  C   UNL A   1      42.968  25.843  27.409  1.00  0.00     0.049 A 
ATOM     50  H   UNL A   1      44.028  27.629  27.573  1.00  0.00     0.167 HD
ATOM     51  C   UNL A   1      46.169  31.400  28.169  1.00  0.00     0.037 A 
ATOM     52  C   UNL A   1      43.838  24.896  27.010  1.00  0.00     0.037 A 
ATOM     53  C   UNL A   1      47.163  30.463  27.715  1.00  0.00     0.049 A 
ATOM     54  C   UNL A   1      45.274  25.269  26.783  1.00  0.00     0.074 A 
ATOM     55  C   UNL A   1      48.516  30.676  27.510  1.00  0.00     0.029 A 
ATOM     56  N   UNL A   1      46.917  29.134  27.404  1.00  0.00    -0.354 N 
ATOM     57  N   UNL A   1      45.861  26.426  26.969  1.00  0.00    -0.248 NA
ATOM     58  C   UNL A   1      46.163  24.215  26.274  1.00  0.00     0.031 C 
ATOM     59  C   UNL A   1      49.081  29.484  27.045  1.00  0.00     0.029 A 
ATOM     60  C   UNL A   1      48.089  28.519  26.992  1.00  0.00     0.049 A 
ATOM     61  H   UNL A   1      46.039  28.693  27.466  1.00  0.00     0.167 HD
ATOM     62  C   UNL A   1      47.188  26.241  26.602  1.00  0.00     0.074 A 
ATOM     63  C   UNL A   1      47.322  24.854  26.203  1.00  0.00     0.031 C 
ATOM     64  C   UNL A   1      48.202  27.141  26.591  1.00  0.00     0.037 A 
BRANCH  51  65
ATOM     65  C   UNL A   1      46.604  32.811  28.449  1.00  0.00     0.058 A 
ATOM     66  C   UNL A   1      47.076  33.197  29.712  1.00  0.00     0.135 A 
ATOM     67  C   UNL A   1      46.601  33.774  27.426  1.00  0.00     0.135 A 
ATOM     68  F   UNL A   1      47.082  32.321  30.729  1.00  0.00    -0.206 F 
ATOM     69  C   UNL A   1      47.515  34.495  29.957  1.00  0.00     0.059 A 
ATOM     70  C   UNL A   1      47.056  35.072  27.643  1.00  0.00     0.059 A 
ATOM     71  F   UNL A   1      46.159  33.455  26.199  1.00  0.00    -0.206 F 
ATOM     72  C   UNL A   1      47.501  35.425  28.916  1.00  0.00     0.060 A 
BRANCH  72  73
ATOM     73  S   UNL A   1      48.083  37.101  29.250  1.00  0.00     0.124 S 
ATOM     74  O   UNL A   1      46.940  37.671  29.957  1.00  0.00    -0.237 OA
ATOM     75  O   UNL A   1      49.275  36.864  30.059  1.00  0.00    -0.237 OA
ATOM     76  O   UNL A   1      48.332  37.647  27.919  1.00  0.00    -0.744 OA
ENDBRANCH  72  73
ENDBRANCH  51  65
BRANCH  52  77
ATOM     77  C   UNL A   1      43.362  23.504  26.805  1.00  0.00     0.058 A 
ATOM     78  C   UNL A   1      43.128  23.006  25.516  1.00  0.00     0.135 A 
ATOM     79  C   UNL A   1      43.181  22.633  27.889  1.00  0.00     0.135 A 
ATOM     80  F   UNL A   1      43.282  23.805  24.449  1.00  0.00    -0.206 F 
ATOM     81  C   UNL A   1      42.733  21.690  25.307  1.00  0.00     0.059 A 
ATOM     82  C   UNL A   1      42.808  21.306  27.705  1.00  0.00     0.059 A 
ATOM     83  F   UNL A   1      43.407  23.061  29.142  1.00  0.00    -0.206 F 
ATOM     84  C   UNL A   1      42.583  20.845  26.409  1.00  0.00     0.060 A 
BRANCH  84  85
ATOM     85  S   UNL A   1      42.146  19.116  26.124  1.00  0.00     0.124 S 
ATOM     86  O   UNL A   1      40.713  19.213  25.873  1.00  0.00    -0.237 OA
ATOM     87  O   UNL A   1      42.976  18.775  24.972  1.00  0.00    -0.237 OA
ATOM     88  O   UNL A   1      42.526  18.464  27.374  1.00  0.00    -0.744 OA
ENDBRANCH  84  85
ENDBRANCH  52  77
BRANCH  64  89
ATOM     89  C   UNL A   1      49.546  26.659  26.128  1.00  0.00     0.058 A 
ATOM     90  C   UNL A   1      50.004  26.925  24.829  1.00  0.00     0.135 A 
ATOM     91  C   UNL A   1      50.410  25.992  27.009  1.00  0.00     0.135 A 
ATOM     92  F   UNL A   1      49.210  27.554  23.948  1.00  0.00    -0.206 F 
ATOM     93  C   UNL A   1      51.273  26.538  24.415  1.00  0.00     0.059 A 
ATOM     94  C   UNL A   1      51.692  25.612  26.623  1.00  0.00     0.059 A 
ATOM     95  F   UNL A   1      50.018  25.722  28.264  1.00  0.00    -0.206 F 
ATOM     96  C   UNL A   1      52.113  25.886  25.322  1.00  0.00     0.060 A 
BRANCH  96  97
ATOM     97  S   UNL A   1      53.777  25.436  24.789  1.00  0.00     0.124 S 
ATOM     98  O   UNL A   1      53.718  23.980  24.835  1.00  0.00    -0.237 OA
ATOM     99  O   UNL A   1      53.848  26.026  23.454  1.00  0.00    -0.237 OA
ATOM    100  O   UNL A   1      54.635  26.063  25.789  1.00  0.00    -0.744 OA
ENDBRANCH  96  97
ENDBRANCH  64  89
ENDBRANCH  38  39
ENDBRANCH  30  33
ENDBRANCH  28  29
ENDBRANCH  27  28
ENDBRANCH   1  27
TORSDOF 18
ENDMDL
MODEL 2
REMARK VINA RESULT:     -11.8      6.476     11.913
REMARK SMILES CC(C)CSc1cc2c(cc1Cl)C=C(C(=O)NCCCCNC(=O)c1ccc(-c3c4nc(c(-c5c(F)cc(S(=O)(=O)[O-])cc5F)c5ccc([nH]5)c(-c5c(F)cc(S(=O)(=O)[O-])cc5F)c5nc(c(-c6c(F)cc(S(=O)(=O)[O-])cc6F)c6ccc3[nH]6)C=C5)C=C4)cc1)[C@@H](C(F)(F)F)O2
REMARK SMILES IDX 19 1 18 2 17 3 15 4 16 5 14 7 6 8 7 9 11 10 8 11 10 12 12 13
REMARK SMILES IDX 9 14 96 15 13 16 91 17 5 18 4 19 2 20 1 21 3 22 92 23 93 24
REMARK SMILES IDX 94 25 95 26 20 27 21 28 22 29 23 30 24 32 25 33 26 34 90 35
REMARK SMILES IDX 27 36 89 37 28 38 29 39 30 40 83 41 31 42 88 43 82 44 84 45
REMARK SMILES IDX 32 46 87 47 81 48 80 49 33 51 67 52 46 53 66 54 47 55 50 56
REMARK SMILES IDX 65 57 85 58 48 59 49 60 64 62 86 63 51 64 34 65 35 66 44 67
REMARK SMILES IDX 36 68 37 69 43 70 45 71 38 72 39 73 40 74 41 75 42 76 68 77
REMARK SMILES IDX 69 78 78 79 70 80 71 81 77 82 79 83 72 84 73 85 74 86 75 87
REMARK SMILES IDX 76 88 52 89 53 90 62 91 54 92 55 93 61 94 63 95 56 96 57 97
REMARK SMILES IDX 58 98 59 99 60 100
REMARK H PARENT 17 6 22 31 84 50 50 61
REMARK Flexibility Score: inf
ROOT
ATOM      1  C   UNL A   1      37.770  22.028  25.959  1.00  0.00     0.023 C 
ENDROOT
BRANCH   1   2
ATOM      2  C   UNL A   1      37.393  21.414  24.613  1.00  0.00     0.116 C 
BRANCH   2   3
ATOM      3  N   UNL A   1      36.319  20.443  24.733  1.00  0.00    -0.352 N 
ATOM      4  C   UNL A   1      34.972  20.469  24.866  1.00  0.00     0.251 C 
ATOM      5  O   UNL A   1      34.424  19.363  24.919  1.00  0.00    -0.270 OA
ATOM      6  H   UNL A   1      36.661  19.521  24.710  1.00  0.00     0.163 HD
BRANCH   4   7
ATOM      7  C   UNL A   1      34.135  21.704  24.954  1.00  0.00     0.067 C 
ATOM      8  C   UNL A   1      32.049  26.225  24.068  1.00  0.00     0.030 A 
ATOM      9  C   UNL A   1      31.736  25.139  24.898  1.00  0.00     0.063 A 
ATOM     10  C   UNL A   1      33.120  26.091  23.168  1.00  0.00     0.055 A 
ATOM     11  C   UNL A   1      32.515  23.983  24.884  1.00  0.00     0.129 A 
ATOM     12  C   UNL A   1      33.893  24.921  23.152  1.00  0.00     0.033 A 
ATOM     13  Cl  UNL A   1      33.519  27.304  22.001  1.00  0.00    -0.083 Cl
ATOM     14  C   UNL A   1      33.597  23.865  24.018  1.00  0.00     0.019 A 
ATOM     15  O   UNL A   1      32.129  22.981  25.725  1.00  0.00    -0.475 OA
ATOM     16  C   UNL A   1      34.358  22.624  23.997  1.00  0.00     0.025 C 
ATOM     17  C   UNL A   1      33.132  21.973  26.041  1.00  0.00     0.314 C 
BRANCH   8  18
ATOM     18  S   UNL A   1      30.990  27.658  24.233  1.00  0.00    -0.124 SA
BRANCH  18  19
ATOM     19  C   UNL A   1      32.120  28.905  24.957  1.00  0.00     0.078 C 
BRANCH  19  20
ATOM     20  C   UNL A   1      31.856  29.281  26.427  1.00  0.00    -0.007 C 
ATOM     21  C   UNL A   1      32.884  28.695  27.398  1.00  0.00     0.008 C 
ATOM     22  C   UNL A   1      31.872  30.810  26.558  1.00  0.00     0.008 C 
ENDBRANCH  19  20
ENDBRANCH  18  19
ENDBRANCH   8  18
BRANCH  17  23
ATOM     23  C   UNL A   1      33.796  22.335  27.384  1.00  0.00     0.429 C 
ATOM     24  F   UNL A   1      34.513  21.285  27.856  1.00  0.00    -0.167 F 
ATOM     25  F   UNL A   1      34.656  23.373  27.279  1.00  0.00    -0.167 F 
ATOM     26  F   UNL A   1      32.891  22.667  28.334  1.00  0.00    -0.167 F 
ENDBRANCH  17  23
ENDBRANCH   4   7
ENDBRANCH   2   3
ENDBRANCH   1   2
BRANCH   1  27
ATOM     27  C   UNL A   1      39.262  21.952  26.291  1.00  0.00     0.023 C 
BRANCH  27  28
ATOM     28  C   UNL A   1      39.896  23.248  26.791  1.00  0.00     0.116 C 
BRANCH  28  29
ATOM     29  N   UNL A   1      41.074  23.667  26.043  1.00  0.00    -0.352 N 
ATOM     30  C   UNL A   1      41.765  24.854  26.135  1.00  0.00     0.251 C 
ATOM     31  H   UNL A   1      41.419  23.018  25.387  1.00  0.00     0.163 HD
ATOM     32  O   UNL A   1      42.707  25.084  25.381  1.00  0.00    -0.269 OA
BRANCH  30  33
ATOM     33  C   UNL A   1      41.321  25.867  27.114  1.00  0.00     0.039 A 
ATOM     34  C   UNL A   1      41.898  27.138  27.123  1.00  0.00     0.014 A 
ATOM     35  C   UNL A   1      40.381  25.509  28.083  1.00  0.00     0.014 A 
ATOM     36  C   UNL A   1      41.671  27.983  28.202  1.00  0.00     0.010 A 
ATOM     37  C   UNL A   1      40.094  26.394  29.125  1.00  0.00     0.010 A 
ATOM     38  C   UNL A   1      40.782  27.614  29.225  1.00  0.00    -0.014 A 
BRANCH  38  39
ATOM     39  C   UNL A   1      40.620  28.508  30.401  1.00  0.00     0.031 A 
ATOM     40  C   UNL A   1      41.590  28.446  31.552  1.00  0.00     0.074 A 
ATOM     41  C   UNL A   1      39.641  29.432  30.391  1.00  0.00     0.049 A 
ATOM     42  N   UNL A   1      41.628  29.178  32.636  1.00  0.00    -0.248 NA
ATOM     43  C   UNL A   1      42.655  27.433  31.481  1.00  0.00     0.031 C 
ATOM     44  C   UNL A   1      38.649  29.596  29.326  1.00  0.00     0.029 A 
ATOM     45  N   UNL A   1      39.337  30.428  31.282  1.00  0.00    -0.354 N 
ATOM     46  C   UNL A   1      42.702  28.705  33.381  1.00  0.00     0.074 A 
ATOM     47  C   UNL A   1      43.278  27.605  32.640  1.00  0.00     0.031 C 
ATOM     48  C   UNL A   1      37.889  30.668  29.594  1.00  0.00     0.029 A 
ATOM     49  C   UNL A   1      38.299  31.232  30.876  1.00  0.00     0.049 A 
ATOM     50  H   UNL A   1      39.817  30.556  32.134  1.00  0.00     0.167 HD
ATOM     51  C   UNL A   1      43.173  29.155  34.569  1.00  0.00     0.037 A 
ATOM     52  C   UNL A   1      37.736  32.302  31.468  1.00  0.00     0.037 A 
ATOM     53  C   UNL A   1      42.616  30.271  35.290  1.00  0.00     0.049 A 
ATOM     54  C   UNL A   1      38.261  32.766  32.796  1.00  0.00     0.074 A 
ATOM     55  C   UNL A   1      43.036  30.814  36.492  1.00  0.00     0.029 A 
ATOM     56  N   UNL A   1      41.527  31.020  34.872  1.00  0.00    -0.354 N 
ATOM     57  N   UNL A   1      39.270  32.297  33.489  1.00  0.00    -0.248 NA
ATOM     58  C   UNL A   1      37.560  33.890  33.432  1.00  0.00     0.031 C 
ATOM     59  C   UNL A   1      42.180  31.871  36.817  1.00  0.00     0.029 A 
ATOM     60  C   UNL A   1      41.249  32.009  35.801  1.00  0.00     0.049 A 
ATOM     61  H   UNL A   1      41.024  30.870  34.039  1.00  0.00     0.167 HD
ATOM     62  C   UNL A   1      39.329  33.069  34.643  1.00  0.00     0.074 A 
ATOM     63  C   UNL A   1      38.264  34.050  34.544  1.00  0.00     0.031 C 
ATOM     64  C   UNL A   1      40.181  32.970  35.691  1.00  0.00     0.037 A 
BRANCH  51  65
ATOM     65  C   UNL A   1      44.350  28.442  35.173  1.00  0.00     0.058 A 
ATOM     66  C   UNL A   1      44.183  27.347  36.033  1.00  0.00     0.135 A 
ATOM     67  C   UNL A   1      45.661  28.823  34.842  1.00  0.00     0.135 A 
ATOM     68  F   UNL A   1      42.952  26.952  36.395  1.00  0.00    -0.206 F 
ATOM     69  C   UNL A   1      45.276  26.663  36.559  1.00  0.00     0.059 A 
ATOM     70  C   UNL A   1      46.768  28.141  35.340  1.00  0.00     0.059 A 
ATOM     71  F   UNL A   1      45.875  29.865  34.023  1.00  0.00    -0.206 F 
ATOM     72  C   UNL A   1      46.564  27.068  36.207  1.00  0.00     0.060 A 
BRANCH  72  73
ATOM     73  S   UNL A   1      47.969  26.165  36.891  1.00  0.00     0.124 S 
ATOM     74  O   UNL A   1      47.878  26.514  38.306  1.00  0.00    -0.237 OA
ATOM     75  O   UNL A   1      47.644  24.781  36.558  1.00  0.00    -0.237 OA
ATOM     76  O   UNL A   1      49.114  26.725  36.180  1.00  0.00    -0.744 OA
ENDBRANCH  72  73
ENDBRANCH  51  65
BRANCH  52  77
ATOM     77  C   UNL A   1      36.613  33.003  30.796  1.00  0.00     0.058 A 
ATOM     78  C   UNL A   1      35.292  32.830  31.234  1.00  0.00     0.135 A 
ATOM     79  C   UNL A   1      36.843  33.897  29.739  1.00  0.00     0.135 A 
ATOM     80  F   UNL A   1      35.023  31.981  32.237  1.00  0.00    -0.206 F 
ATOM     81  C   UNL A   1      34.238  33.520  30.648  1.00  0.00     0.059 A 
ATOM     82  C   UNL A   1      35.808  34.615  29.152  1.00  0.00     0.059 A 
ATOM     83  F   UNL A   1      38.093  34.106  29.296  1.00  0.00    -0.206 F 
ATOM     84  C   UNL A   1      34.507  34.417  29.612  1.00  0.00     0.060 A 
BRANCH  84  85
ATOM     85  S   UNL A   1      33.142  35.368  28.909  1.00  0.00     0.124 S 
ATOM     86  O   UNL A   1      32.415  35.768  30.108  1.00  0.00    -0.237 OA
ATOM     87  O   UNL A   1      33.843  36.435  28.201  1.00  0.00    -0.237 OA
ATOM     88  O   UNL A   1      32.464  34.399  28.053  1.00  0.00    -0.744 OA
ENDBRANCH  84  85
ENDBRANCH  52  77
BRANCH  64  89
ATOM     89  C   UNL A   1      40.000  33.941  36.821  1.00  0.00     0.058 A 
ATOM     90  C   UNL A   1      40.618  35.201  36.802  1.00  0.00     0.135 A 
ATOM     91  C   UNL A   1      39.147  33.640  37.893  1.00  0.00     0.135 A 
ATOM     92  F   UNL A   1      41.449  35.530  35.801  1.00  0.00    -0.206 F 
ATOM     93  C   UNL A   1      40.403  36.128  37.814  1.00  0.00     0.059 A 
ATOM     94  C   UNL A   1      38.902  34.561  38.908  1.00  0.00     0.059 A 
ATOM     95  F   UNL A   1      38.528  32.451  37.952  1.00  0.00    -0.206 F 
ATOM     96  C   UNL A   1      39.538  35.801  38.861  1.00  0.00     0.060 A 
BRANCH  96  97
ATOM     97  S   UNL A   1      39.226  37.035  40.141  1.00  0.00     0.124 S 
ATOM     98  O   UNL A   1      38.421  36.276  41.092  1.00  0.00    -0.237 OA
ATOM     99  O   UNL A   1      40.576  37.375  40.583  1.00  0.00    -0.237 OA
ATOM    100  O   UNL A   1      38.522  38.095  39.427  1.00  0.00    -0.744 OA
ENDBRANCH  96  97
ENDBRANCH  64  89
ENDBRANCH  38  39
ENDBRANCH  30  33
ENDBRANCH  28  29
ENDBRANCH  27  28
ENDBRANCH   1  27
TORSDOF 18
ENDMDL
MODEL 3
REMARK VINA RESULT:     -11.6      0.818      8.141
REMARK SMILES CC(C)CSc1cc2c(cc1Cl)C=C(C(=O)NCCCCNC(=O)c1ccc(-c3c4nc(c(-c5c(F)cc(S(=O)(=O)[O-])cc5F)c5ccc([nH]5)c(-c5c(F)cc(S(=O)(=O)[O-])cc5F)c5nc(c(-c6c(F)cc(S(=O)(=O)[O-])cc6F)c6ccc3[nH]6)C=C5)C=C4)cc1)[C@@H](C(F)(F)F)O2
REMARK SMILES IDX 19 1 18 2 17 3 15 4 16 5 14 7 6 8 7 9 11 10 8 11 10 12 12 13
REMARK SMILES IDX 9 14 96 15 13 16 91 17 5 18 4 19 2 20 1 21 3 22 92 23 93 24
REMARK SMILES IDX 94 25 95 26 20 27 21 28 22 29 23 30 24 32 25 33 26 34 90 35
REMARK SMILES IDX 27 36 89 37 28 38 29 39 30 40 83 41 31 42 88 43 82 44 84 45
REMARK SMILES IDX 32 46 87 47 81 48 80 49 33 51 67 52 46 53 66 54 47 55 50 56
REMARK SMILES IDX 65 57 85 58 48 59 49 60 64 62 86 63 51 64 34 65 35 66 44 67
REMARK SMILES IDX 36 68 37 69 43 70 45 71 38 72 39 73 40 74 41 75 42 76 68 77
REMARK SMILES IDX 69 78 78 79 70 80 71 81 77 82 79 83 72 84 73 85 74 86 75 87
REMARK SMILES IDX 76 88 52 89 53 90 62 91 54 92 55 93 61 94 63 95 56 96 57 97
REMARK SMILES IDX 58 98 59 99 60 100
REMARK H PARENT 17 6 22 31 84 50 50 61
REMARK Flexibility Score: inf
ROOT
ATOM      1  C   UNL A   1      34.796  29.919  27.372  1.00  0.00     0.023 C 
ENDROOT
BRANCH   1   2
ATOM      2  C   UNL A   1      33.441  29.539  26.781  1.00  0.00     0.116 C 
BRANCH   2   3
ATOM      3  N   UNL A   1      33.471  29.479  25.330  1.00  0.00    -0.352 N 
ATOM      4  C   UNL A   1      33.327  28.530  24.376  1.00  0.00     0.251 C 
ATOM      5  O   UNL A   1      33.417  28.932  23.211  1.00  0.00    -0.270 OA
ATOM      6  H   UNL A   1      33.641  30.364  24.935  1.00  0.00     0.163 HD
BRANCH   4   7
ATOM      7  C   UNL A   1      33.080  27.078  24.631  1.00  0.00     0.067 C 
ATOM      8  C   UNL A   1      33.670  22.165  25.679  1.00  0.00     0.030 A 
ATOM      9  C   UNL A   1      32.571  23.031  25.592  1.00  0.00     0.063 A 
ATOM     10  C   UNL A   1      34.960  22.709  25.553  1.00  0.00     0.055 A 
ATOM     11  C   UNL A   1      32.749  24.385  25.311  1.00  0.00     0.129 A 
ATOM     12  C   UNL A   1      35.133  24.074  25.280  1.00  0.00     0.033 A 
ATOM     13  Cl  UNL A   1      36.397  21.772  25.776  1.00  0.00    -0.083 Cl
ATOM     14  C   UNL A   1      34.025  24.916  25.150  1.00  0.00     0.019 A 
ATOM     15  O   UNL A   1      31.619  25.146  25.249  1.00  0.00    -0.475 OA
ATOM     16  C   UNL A   1      34.174  26.343  24.905  1.00  0.00     0.025 C 
ATOM     17  C   UNL A   1      31.729  26.422  24.555  1.00  0.00     0.314 C 
BRANCH   8  18
ATOM     18  S   UNL A   1      33.282  20.448  25.995  1.00  0.00    -0.124 SA
BRANCH  18  19
ATOM     19  C   UNL A   1      32.893  19.814  24.320  1.00  0.00     0.078 C 
BRANCH  19  20
ATOM     20  C   UNL A   1      33.264  18.344  24.054  1.00  0.00    -0.007 C 
ATOM     21  C   UNL A   1      34.721  18.014  24.388  1.00  0.00     0.008 C 
ATOM     22  C   UNL A   1      32.351  17.442  24.896  1.00  0.00     0.008 C 
ENDBRANCH  19  20
ENDBRANCH  18  19
ENDBRANCH   8  18
BRANCH  17  23
ATOM     23  C   UNL A   1      31.238  26.244  23.105  1.00  0.00     0.429 C 
ATOM     24  F   UNL A   1      30.574  27.352  22.691  1.00  0.00    -0.167 F 
ATOM     25  F   UNL A   1      32.251  26.052  22.229  1.00  0.00    -0.167 F 
ATOM     26  F   UNL A   1      30.395  25.194  22.970  1.00  0.00    -0.167 F 
ENDBRANCH  17  23
ENDBRANCH   4   7
ENDBRANCH   2   3
ENDBRANCH   1   2
BRANCH   1  27
ATOM     27  C   UNL A   1      34.957  31.412  27.671  1.00  0.00     0.023 C 
BRANCH  27  28
ATOM     28  C   UNL A   1      35.903  31.760  28.819  1.00  0.00     0.116 C 
BRANCH  28  29
ATOM     29  N   UNL A   1      35.696  30.970  30.026  1.00  0.00    -0.352 N 
ATOM     30  C   UNL A   1      36.616  30.214  30.717  1.00  0.00     0.251 C 
ATOM     31  H   UNL A   1      34.783  30.978  30.393  1.00  0.00     0.163 HD
ATOM     32  O   UNL A   1      36.268  29.547  31.687  1.00  0.00    -0.269 OA
BRANCH  30  33
ATOM     33  C   UNL A   1      38.014  30.173  30.239  1.00  0.00     0.039 A 
ATOM     34  C   UNL A   1      38.292  29.917  28.895  1.00  0.00     0.014 A 
ATOM     35  C   UNL A   1      39.052  30.308  31.164  1.00  0.00     0.014 A 
ATOM     36  C   UNL A   1      39.593  29.618  28.513  1.00  0.00     0.010 A 
ATOM     37  C   UNL A   1      40.370  30.085  30.759  1.00  0.00     0.010 A 
ATOM     38  C   UNL A   1      40.644  29.679  29.443  1.00  0.00    -0.014 A 
BRANCH  38  39
ATOM     39  C   UNL A   1      42.011  29.281  29.018  1.00  0.00     0.031 A 
ATOM     40  C   UNL A   1      42.284  27.884  28.523  1.00  0.00     0.074 A 
ATOM     41  C   UNL A   1      42.989  30.206  29.003  1.00  0.00     0.049 A 
ATOM     42  N   UNL A   1      43.403  27.375  28.073  1.00  0.00    -0.248 NA
ATOM     43  C   UNL A   1      41.161  26.932  28.537  1.00  0.00     0.031 C 
ATOM     44  C   UNL A   1      42.840  31.594  29.446  1.00  0.00     0.029 A 
ATOM     45  N   UNL A   1      44.288  30.133  28.570  1.00  0.00    -0.354 N 
ATOM     46  C   UNL A   1      43.125  26.047  27.767  1.00  0.00     0.074 A 
ATOM     47  C   UNL A   1      41.738  25.818  28.107  1.00  0.00     0.031 C 
ATOM     48  C   UNL A   1      43.981  32.257  29.204  1.00  0.00     0.029 A 
ATOM     49  C   UNL A   1      44.959  31.330  28.643  1.00  0.00     0.049 A 
ATOM     50  H   UNL A   1      44.701  29.303  28.239  1.00  0.00     0.167 HD
ATOM     51  C   UNL A   1      43.947  25.109  27.240  1.00  0.00     0.037 A 
ATOM     52  C   UNL A   1      46.222  31.649  28.302  1.00  0.00     0.037 A 
ATOM     53  C   UNL A   1      45.319  25.348  26.874  1.00  0.00     0.049 A 
ATOM     54  C   UNL A   1      47.121  30.585  27.742  1.00  0.00     0.074 A 
ATOM     55  C   UNL A   1      46.227  24.466  26.315  1.00  0.00     0.029 A 
ATOM     56  N   UNL A   1      45.978  26.560  27.021  1.00  0.00    -0.354 N 
ATOM     57  N   UNL A   1      46.841  29.332  27.472  1.00  0.00    -0.248 NA
ATOM     58  C   UNL A   1      48.510  30.970  27.458  1.00  0.00     0.031 C 
ATOM     59  C   UNL A   1      47.445  25.135  26.153  1.00  0.00     0.029 A 
ATOM     60  C   UNL A   1      47.286  26.443  26.579  1.00  0.00     0.049 A 
ATOM     61  H   UNL A   1      45.577  27.381  27.386  1.00  0.00     0.167 HD
ATOM     62  C   UNL A   1      48.018  28.778  26.985  1.00  0.00     0.074 A 
ATOM     63  C   UNL A   1      49.008  29.838  26.978  1.00  0.00     0.031 C 
ATOM     64  C   UNL A   1      48.259  27.506  26.587  1.00  0.00     0.037 A 
BRANCH  51  65
ATOM     65  C   UNL A   1      43.391  23.729  27.027  1.00  0.00     0.058 A 
ATOM     66  C   UNL A   1      43.021  23.275  25.752  1.00  0.00     0.135 A 
ATOM     67  C   UNL A   1      43.279  22.831  28.102  1.00  0.00     0.135 A 
ATOM     68  F   UNL A   1      43.092  24.098  24.694  1.00  0.00    -0.206 F 
ATOM     69  C   UNL A   1      42.543  21.982  25.552  1.00  0.00     0.059 A 
ATOM     70  C   UNL A   1      42.824  21.528  27.921  1.00  0.00     0.059 A 
ATOM     71  F   UNL A   1      43.620  23.217  29.342  1.00  0.00    -0.206 F 
ATOM     72  C   UNL A   1      42.448  21.117  26.643  1.00  0.00     0.060 A 
BRANCH  72  73
ATOM     73  S   UNL A   1      41.835  19.442  26.363  1.00  0.00     0.124 S 
ATOM     74  O   UNL A   1      42.300  18.757  27.566  1.00  0.00    -0.237 OA
ATOM     75  O   UNL A   1      40.393  19.648  26.269  1.00  0.00    -0.237 OA
ATOM     76  O   UNL A   1      42.490  19.042  25.122  1.00  0.00    -0.744 OA
ENDBRANCH  72  73
ENDBRANCH  51  65
BRANCH  52  77
ATOM     77  C   UNL A   1      46.698  33.044  28.481  1.00  0.00     0.058 A 
ATOM     78  C   UNL A   1      46.549  33.992  27.459  1.00  0.00     0.135 A 
ATOM     79  C   UNL A   1      47.265  33.467  29.692  1.00  0.00     0.135 A 
ATOM     80  F   UNL A   1      46.019  33.631  26.281  1.00  0.00    -0.206 F 
ATOM     81  C   UNL A   1      46.943  35.314  27.632  1.00  0.00     0.059 A 
ATOM     82  C   UNL A   1      47.646  34.788  29.898  1.00  0.00     0.059 A 
ATOM     83  F   UNL A   1      47.414  32.598  30.705  1.00  0.00    -0.206 F 
ATOM     84  C   UNL A   1      47.484  35.704  28.859  1.00  0.00     0.060 A 
BRANCH  84  85
ATOM     85  S   UNL A   1      47.921  37.439  29.103  1.00  0.00     0.124 S 
ATOM     86  O   UNL A   1      49.187  37.325  29.817  1.00  0.00    -0.237 OA
ATOM     87  O   UNL A   1      48.002  37.931  27.730  1.00  0.00    -0.237 OA
ATOM     88  O   UNL A   1      46.801  37.960  29.881  1.00  0.00    -0.744 OA
ENDBRANCH  84  85
ENDBRANCH  52  77
BRANCH  64  89
ATOM     89  C   UNL A   1      49.646  27.182  26.114  1.00  0.00     0.058 A 
ATOM     90  C   UNL A   1      50.638  26.758  27.011  1.00  0.00     0.135 A 
ATOM     91  C   UNL A   1      49.965  27.226  24.749  1.00  0.00     0.135 A 
ATOM     92  F   UNL A   1      50.382  26.708  28.327  1.00  0.00    -0.206 F 
ATOM     93  C   UNL A   1      51.905  26.395  26.570  1.00  0.00     0.059 A 
ATOM     94  C   UNL A   1      51.221  26.849  24.283  1.00  0.00     0.059 A 
ATOM     95  F   UNL A   1      49.047  27.619  23.852  1.00  0.00    -0.206 F 
ATOM     96  C   UNL A   1      52.186  26.439  25.202  1.00  0.00     0.060 A 
BRANCH  96  97
ATOM     97  S   UNL A   1      53.819  25.915  24.638  1.00  0.00     0.124 S 
ATOM     98  O   UNL A   1      54.646  26.230  25.797  1.00  0.00    -0.237 OA
ATOM     99  O   UNL A   1      53.615  24.493  24.372  1.00  0.00    -0.237 OA
ATOM    100  O   UNL A   1      54.051  26.740  23.457  1.00  0.00    -0.744 OA
ENDBRANCH  96  97
ENDBRANCH  64  89
ENDBRANCH  38  39
ENDBRANCH  30  33
ENDBRANCH  28  29
ENDBRANCH  27  28
ENDBRANCH   1  27
TORSDOF 18
ENDMDL
