MODEL 1
REMARK VINA RESULT:     -11.9      0.000      0.000
REMARK SMILES COC(=O)c1ccc(Cl)c(-c2ccc(C(=O)NCCCCNC(=O)c3ccc(-c4c5nc(c(-c6c(F)cc(S(=O)(=O)[O-])cc6F)c6ccc([nH]6)c(-c6c(F)cc(S(=O)(=O)[O-])cc6F)c6nc(c(-c7c(F)cc(S(=O)(=O)[O-])cc7F)c7ccc4[nH]7)C=C6)C=C5)cc3)c(F)c2)c1
REMARK SMILES IDX 19 1 18 2 17 3 15 4 16 5 14 7 11 8 12 9 93 10 13 11 91 12
REMARK SMILES IDX 92 13 10 14 5 15 6 16 94 17 7 18 8 19 9 20 3 21 4 22 2 23
REMARK SMILES IDX 1 24 20 25 21 26 22 27 23 28 24 30 25 31 26 32 90 33 27 34
REMARK SMILES IDX 89 35 28 36 29 37 30 38 83 39 31 40 88 41 82 42 84 43 32 44
REMARK SMILES IDX 87 45 81 46 80 47 33 49 67 50 46 51 66 52 47 53 50 54 65 55
REMARK SMILES IDX 85 56 48 57 49 58 64 60 86 61 51 62 34 63 35 64 44 65 36 66
REMARK SMILES IDX 37 67 43 68 45 69 38 70 39 71 40 72 41 73 42 74 68 75 69 76
REMARK SMILES IDX 78 77 70 78 71 79 77 80 79 81 72 82 73 83 74 84 75 85 76 86
REMARK SMILES IDX 52 87 53 88 62 89 54 90 55 91 61 92 63 93 56 94 57 95 58 96
REMARK SMILES IDX 59 97 60 98
REMARK H PARENT 17 6 22 29 84 48 50 59
REMARK Flexibility Score: inf
ROOT
ATOM      1  C   UNL A   1      32.927  29.141  26.639  1.00  0.00     0.023 C 
ENDROOT
BRANCH   1   2
ATOM      2  C   UNL A   1      32.986  29.346  25.122  1.00  0.00     0.116 C 
BRANCH   2   3
ATOM      3  N   UNL A   1      31.745  28.926  24.507  1.00  0.00    -0.352 N 
ATOM      4  C   UNL A   1      31.273  27.704  24.111  1.00  0.00     0.254 C 
ATOM      5  O   UNL A   1      30.156  27.689  23.585  1.00  0.00    -0.269 OA
ATOM      6  H   UNL A   1      31.115  29.665  24.341  1.00  0.00     0.163 HD
BRANCH   4   7
ATOM      7  C   UNL A   1      31.966  26.401  24.320  1.00  0.00     0.075 A 
ATOM      8  C   UNL A   1      33.415  23.951  24.468  1.00  0.00    -0.014 A 
ATOM      9  C   UNL A   1      33.467  24.738  23.315  1.00  0.00     0.010 A 
ATOM     10  C   UNL A   1      32.648  24.411  25.543  1.00  0.00     0.048 A 
ATOM     11  C   UNL A   1      32.749  25.941  23.243  1.00  0.00     0.017 A 
ATOM     12  C   UNL A   1      31.964  25.626  25.476  1.00  0.00     0.136 A 
ATOM     13  F   UNL A   1      31.369  26.009  26.608  1.00  0.00    -0.206 F 
BRANCH   8  14
ATOM     14  C   UNL A   1      34.154  22.689  24.593  1.00  0.00     0.001 A 
ATOM     15  C   UNL A   1      34.081  20.246  24.683  1.00  0.00     0.060 A 
ATOM     16  C   UNL A   1      35.439  20.209  25.015  1.00  0.00     0.017 A 
ATOM     17  C   UNL A   1      33.452  21.476  24.456  1.00  0.00     0.026 A 
ATOM     18  C   UNL A   1      36.157  21.401  25.129  1.00  0.00     0.022 A 
ATOM     19  C   UNL A   1      35.521  22.631  24.927  1.00  0.00     0.048 A 
ATOM     20  Cl  UNL A   1      36.472  24.060  25.154  1.00  0.00    -0.084 Cl
BRANCH  15  21
ATOM     21  C   UNL A   1      33.261  19.012  24.583  1.00  0.00     0.337 C 
ATOM     22  O   UNL A   1      32.143  18.906  25.043  1.00  0.00    -0.246 OA
BRANCH  21  23
ATOM     23  O   UNL A   1      33.986  18.034  23.981  1.00  0.00    -0.465 OA
ATOM     24  C   UNL A   1      33.442  16.725  24.153  1.00  0.00     0.282 C 
ENDBRANCH  21  23
ENDBRANCH  15  21
ENDBRANCH   8  14
ENDBRANCH   4   7
ENDBRANCH   2   3
ENDBRANCH   1   2
BRANCH   1  25
ATOM     25  C   UNL A   1      34.212  28.586  27.254  1.00  0.00     0.023 C 
BRANCH  25  26
ATOM     26  C   UNL A   1      35.307  29.620  27.472  1.00  0.00     0.116 C 
BRANCH  26  27
ATOM     27  N   UNL A   1      35.286  30.214  28.801  1.00  0.00    -0.352 N 
ATOM     28  C   UNL A   1      36.312  30.273  29.713  1.00  0.00     0.251 C 
ATOM     29  H   UNL A   1      34.435  30.623  29.079  1.00  0.00     0.163 HD
ATOM     30  O   UNL A   1      36.118  30.705  30.844  1.00  0.00    -0.269 OA
BRANCH  28  31
ATOM     31  C   UNL A   1      37.641  29.767  29.317  1.00  0.00     0.039 A 
ATOM     32  C   UNL A   1      38.039  29.875  27.984  1.00  0.00     0.014 A 
ATOM     33  C   UNL A   1      38.507  29.235  30.277  1.00  0.00     0.014 A 
ATOM     34  C   UNL A   1      39.332  29.494  27.624  1.00  0.00     0.010 A 
ATOM     35  C   UNL A   1      39.819  28.941  29.933  1.00  0.00     0.010 A 
ATOM     36  C   UNL A   1      40.240  29.050  28.600  1.00  0.00    -0.014 A 
BRANCH  36  37
ATOM     37  C   UNL A   1      41.623  28.649  28.239  1.00  0.00     0.031 A 
ATOM     38  C   UNL A   1      42.720  29.679  28.250  1.00  0.00     0.074 A 
ATOM     39  C   UNL A   1      41.883  27.380  27.870  1.00  0.00     0.049 A 
ATOM     40  N   UNL A   1      43.979  29.547  27.922  1.00  0.00    -0.248 NA
ATOM     41  C   UNL A   1      42.348  31.046  28.655  1.00  0.00     0.031 C 
ATOM     42  C   UNL A   1      40.894  26.303  27.787  1.00  0.00     0.029 A 
ATOM     43  N   UNL A   1      43.059  26.779  27.498  1.00  0.00    -0.354 N 
ATOM     44  C   UNL A   1      44.543  30.808  28.080  1.00  0.00     0.074 A 
ATOM     45  C   UNL A   1      43.476  31.708  28.455  1.00  0.00     0.031 C 
ATOM     46  C   UNL A   1      41.512  25.165  27.437  1.00  0.00     0.029 A 
ATOM     47  C   UNL A   1      42.932  25.436  27.230  1.00  0.00     0.049 A 
ATOM     48  H   UNL A   1      43.914  27.263  27.431  1.00  0.00     0.167 HD
ATOM     49  C   UNL A   1      45.841  31.175  27.965  1.00  0.00     0.037 A 
ATOM     50  C   UNL A   1      43.858  24.527  26.866  1.00  0.00     0.037 A 
ATOM     51  C   UNL A   1      46.901  30.269  27.613  1.00  0.00     0.049 A 
ATOM     52  C   UNL A   1      45.290  24.963  26.717  1.00  0.00     0.074 A 
ATOM     53  C   UNL A   1      48.253  30.535  27.488  1.00  0.00     0.029 A 
ATOM     54  N   UNL A   1      46.730  28.919  27.341  1.00  0.00    -0.354 N 
ATOM     55  N   UNL A   1      45.813  26.153  26.895  1.00  0.00    -0.248 NA
ATOM     56  C   UNL A   1      46.262  23.934  26.321  1.00  0.00     0.031 C 
ATOM     57  C   UNL A   1      48.894  29.355  27.100  1.00  0.00     0.029 A 
ATOM     58  C   UNL A   1      47.951  28.340  27.039  1.00  0.00     0.049 A 
ATOM     59  H   UNL A   1      45.869  28.443  27.360  1.00  0.00     0.167 HD
ATOM     60  C   UNL A   1      47.178  26.010  26.670  1.00  0.00     0.074 A 
ATOM     61  C   UNL A   1      47.400  24.615  26.345  1.00  0.00     0.031 C 
ATOM     62  C   UNL A   1      48.157  26.946  26.732  1.00  0.00     0.037 A 
BRANCH  49  63
ATOM     63  C   UNL A   1      46.185  32.613  28.244  1.00  0.00     0.058 A 
ATOM     64  C   UNL A   1      46.193  33.566  27.213  1.00  0.00     0.135 A 
ATOM     65  C   UNL A   1      46.540  33.044  29.534  1.00  0.00     0.135 A 
ATOM     66  F   UNL A   1      45.857  33.213  25.962  1.00  0.00    -0.206 F 
ATOM     67  C   UNL A   1      46.548  34.890  27.449  1.00  0.00     0.059 A 
ATOM     68  C   UNL A   1      46.867  34.370  29.799  1.00  0.00     0.059 A 
ATOM     69  F   UNL A   1      46.524  32.180  30.562  1.00  0.00    -0.206 F 
ATOM     70  C   UNL A   1      46.881  35.284  28.746  1.00  0.00     0.060 A 
BRANCH  70  71
ATOM     71  S   UNL A   1      47.292  37.016  29.045  1.00  0.00     0.124 S 
ATOM     72  O   UNL A   1      47.166  37.109  30.494  1.00  0.00    -0.237 OA
ATOM     73  O   UNL A   1      48.650  37.103  28.516  1.00  0.00    -0.237 OA
ATOM     74  O   UNL A   1      46.284  37.740  28.276  1.00  0.00    -0.744 OA
ENDBRANCH  70  71
ENDBRANCH  49  63
BRANCH  50  75
ATOM     75  C   UNL A   1      43.464  23.105  26.682  1.00  0.00     0.058 A 
ATOM     76  C   UNL A   1      43.144  22.283  27.775  1.00  0.00     0.135 A 
ATOM     77  C   UNL A   1      43.445  22.527  25.404  1.00  0.00     0.135 A 
ATOM     78  F   UNL A   1      43.157  22.783  29.020  1.00  0.00    -0.206 F 
ATOM     79  C   UNL A   1      42.844  20.935  27.608  1.00  0.00     0.059 A 
ATOM     80  C   UNL A   1      43.123  21.187  25.209  1.00  0.00     0.059 A 
ATOM     81  F   UNL A   1      43.734  23.274  24.328  1.00  0.00    -0.206 F 
ATOM     82  C   UNL A   1      42.842  20.395  26.321  1.00  0.00     0.060 A 
BRANCH  82  83
ATOM     83  S   UNL A   1      42.475  18.637  26.130  1.00  0.00     0.124 S 
ATOM     84  O   UNL A   1      41.073  18.673  25.725  1.00  0.00    -0.237 OA
ATOM     85  O   UNL A   1      43.425  18.238  25.096  1.00  0.00    -0.237 OA
ATOM     86  O   UNL A   1      42.730  18.091  27.459  1.00  0.00    -0.744 OA
ENDBRANCH  82  83
ENDBRANCH  50  75
BRANCH  62  87
ATOM     87  C   UNL A   1      49.572  26.499  26.485  1.00  0.00     0.058 A 
ATOM     88  C   UNL A   1      50.390  26.116  27.561  1.00  0.00     0.135 A 
ATOM     89  C   UNL A   1      50.146  26.533  25.205  1.00  0.00     0.135 A 
ATOM     90  F   UNL A   1      49.892  26.074  28.808  1.00  0.00    -0.206 F 
ATOM     91  C   UNL A   1      51.731  25.804  27.381  1.00  0.00     0.059 A 
ATOM     92  C   UNL A   1      51.480  26.195  24.996  1.00  0.00     0.059 A 
ATOM     93  F   UNL A   1      49.405  26.883  24.142  1.00  0.00    -0.206 F 
ATOM     94  C   UNL A   1      52.269  25.848  26.094  1.00  0.00     0.060 A 
BRANCH  94  95
ATOM     95  S   UNL A   1      54.012  25.432  25.877  1.00  0.00     0.124 S 
ATOM     96  O   UNL A   1      54.522  26.620  25.201  1.00  0.00    -0.237 OA
ATOM     97  O   UNL A   1      54.457  25.246  27.255  1.00  0.00    -0.237 OA
ATOM     98  O   UNL A   1      53.973  24.216  25.069  1.00  0.00    -0.744 OA
ENDBRANCH  94  95
ENDBRANCH  62  87
ENDBRANCH  36  37
ENDBRANCH  28  31
ENDBRANCH  26  27
ENDBRANCH  25  26
ENDBRANCH   1  25
TORSDOF 17
ENDMDL
MODEL 2
REMARK VINA RESULT:     -11.9      6.582     12.259
REMARK SMILES COC(=O)c1ccc(Cl)c(-c2ccc(C(=O)NCCCCNC(=O)c3ccc(-c4c5nc(c(-c6c(F)cc(S(=O)(=O)[O-])cc6F)c6ccc([nH]6)c(-c6c(F)cc(S(=O)(=O)[O-])cc6F)c6nc(c(-c7c(F)cc(S(=O)(=O)[O-])cc7F)c7ccc4[nH]7)C=C6)C=C5)cc3)c(F)c2)c1
REMARK SMILES IDX 19 1 18 2 17 3 15 4 16 5 14 7 11 8 12 9 93 10 13 11 91 12
REMARK SMILES IDX 92 13 10 14 5 15 6 16 94 17 7 18 8 19 9 20 3 21 4 22 2 23
REMARK SMILES IDX 1 24 20 25 21 26 22 27 23 28 24 30 25 31 26 32 90 33 27 34
REMARK SMILES IDX 89 35 28 36 29 37 30 38 83 39 31 40 88 41 82 42 84 43 32 44
REMARK SMILES IDX 87 45 81 46 80 47 33 49 67 50 46 51 66 52 47 53 50 54 65 55
REMARK SMILES IDX 85 56 48 57 49 58 64 60 86 61 51 62 34 63 35 64 44 65 36 66
REMARK SMILES IDX 37 67 43 68 45 69 38 70 39 71 40 72 41 73 42 74 68 75 69 76
REMARK SMILES IDX 78 77 70 78 71 79 77 80 79 81 72 82 73 83 74 84 75 85 76 86
REMARK SMILES IDX 52 87 53 88 62 89 54 90 55 91 61 92 63 93 56 94 57 95 58 96
REMARK SMILES IDX 59 97 60 98
REMARK H PARENT 17 6 22 29 84 48 50 59
REMARK Flexibility Score: inf
ROOT
ATOM      1  C   UNL A   1      38.712  21.891  25.753  1.00  0.00     0.023 C 
ENDROOT
BRANCH   1   2
ATOM      2  C   UNL A   1      37.412  22.672  25.970  1.00  0.00     0.116 C 
BRANCH   2   3
ATOM      3  N   UNL A   1      36.278  21.773  25.974  1.00  0.00    -0.352 N 
ATOM      4  C   UNL A   1      34.931  21.979  25.842  1.00  0.00     0.254 C 
ATOM      5  O   UNL A   1      34.211  20.978  25.917  1.00  0.00    -0.269 OA
ATOM      6  H   UNL A   1      36.523  20.827  26.098  1.00  0.00     0.163 HD
BRANCH   4   7
ATOM      7  C   UNL A   1      34.280  23.289  25.554  1.00  0.00     0.075 A 
ATOM      8  C   UNL A   1      32.918  25.775  25.260  1.00  0.00    -0.014 A 
ATOM      9  C   UNL A   1      32.696  24.971  26.381  1.00  0.00     0.010 A 
ATOM     10  C   UNL A   1      33.836  25.328  24.304  1.00  0.00     0.048 A 
ATOM     11  C   UNL A   1      33.364  23.746  26.521  1.00  0.00     0.017 A 
ATOM     12  C   UNL A   1      34.523  24.124  24.468  1.00  0.00     0.136 A 
ATOM     13  F   UNL A   1      35.457  23.871  23.548  1.00  0.00    -0.206 F 
BRANCH   8  14
ATOM     14  C   UNL A   1      32.248  27.068  25.073  1.00  0.00     0.001 A 
ATOM     15  C   UNL A   1      30.487  28.346  23.956  1.00  0.00     0.060 A 
ATOM     16  C   UNL A   1      31.001  29.533  24.485  1.00  0.00     0.017 A 
ATOM     17  C   UNL A   1      31.096  27.123  24.265  1.00  0.00     0.026 A 
ATOM     18  C   UNL A   1      32.126  29.494  25.311  1.00  0.00     0.022 A 
ATOM     19  C   UNL A   1      32.750  28.274  25.598  1.00  0.00     0.048 A 
ATOM     20  Cl  UNL A   1      34.178  28.326  26.575  1.00  0.00    -0.084 Cl
BRANCH  15  21
ATOM     21  C   UNL A   1      29.315  28.332  23.044  1.00  0.00     0.337 C 
ATOM     22  O   UNL A   1      28.299  27.704  23.261  1.00  0.00    -0.246 OA
BRANCH  21  23
ATOM     23  O   UNL A   1      29.600  29.053  21.929  1.00  0.00    -0.465 OA
ATOM     24  C   UNL A   1      28.645  30.076  21.645  1.00  0.00     0.282 C 
ENDBRANCH  21  23
ENDBRANCH  15  21
ENDBRANCH   8  14
ENDBRANCH   4   7
ENDBRANCH   2   3
ENDBRANCH   1   2
BRANCH   1  25
ATOM     25  C   UNL A   1      39.736  22.039  26.879  1.00  0.00     0.023 C 
BRANCH  25  26
ATOM     26  C   UNL A   1      40.161  23.472  27.163  1.00  0.00     0.116 C 
BRANCH  26  27
ATOM     27  N   UNL A   1      40.988  24.049  26.113  1.00  0.00    -0.352 N 
ATOM     28  C   UNL A   1      41.425  25.347  26.002  1.00  0.00     0.251 C 
ATOM     29  H   UNL A   1      41.269  23.435  25.396  1.00  0.00     0.163 HD
ATOM     30  O   UNL A   1      42.024  25.721  25.000  1.00  0.00    -0.269 OA
BRANCH  28  31
ATOM     31  C   UNL A   1      41.122  26.291  27.096  1.00  0.00     0.039 A 
ATOM     32  C   UNL A   1      40.177  25.934  28.058  1.00  0.00     0.014 A 
ATOM     33  C   UNL A   1      41.813  27.502  27.193  1.00  0.00     0.014 A 
ATOM     34  C   UNL A   1      39.962  26.776  29.150  1.00  0.00     0.010 A 
ATOM     35  C   UNL A   1      41.661  28.293  28.323  1.00  0.00     0.010 A 
ATOM     36  C   UNL A   1      40.721  27.947  29.305  1.00  0.00    -0.014 A 
BRANCH  36  37
ATOM     37  C   UNL A   1      40.516  28.851  30.465  1.00  0.00     0.031 A 
ATOM     38  C   UNL A   1      41.392  28.711  31.679  1.00  0.00     0.074 A 
ATOM     39  C   UNL A   1      39.526  29.765  30.439  1.00  0.00     0.049 A 
ATOM     40  N   UNL A   1      41.345  29.364  32.812  1.00  0.00    -0.248 NA
ATOM     41  C   UNL A   1      42.443  27.678  31.628  1.00  0.00     0.031 C 
ATOM     42  C   UNL A   1      38.591  29.970  29.331  1.00  0.00     0.029 A 
ATOM     43  N   UNL A   1      39.144  30.696  31.372  1.00  0.00    -0.354 N 
ATOM     44  C   UNL A   1      42.353  28.823  33.600  1.00  0.00     0.074 A 
ATOM     45  C   UNL A   1      42.943  27.736  32.851  1.00  0.00     0.031 C 
ATOM     46  C   UNL A   1      37.775  30.993  29.629  1.00  0.00     0.029 A 
ATOM     47  C   UNL A   1      38.100  31.492  30.962  1.00  0.00     0.049 A 
ATOM     48  H   UNL A   1      39.577  30.787  32.252  1.00  0.00     0.167 HD
ATOM     49  C   UNL A   1      42.779  29.222  34.822  1.00  0.00     0.037 A 
ATOM     50  C   UNL A   1      37.482  32.513  31.589  1.00  0.00     0.037 A 
ATOM     51  C   UNL A   1      42.203  30.319  35.550  1.00  0.00     0.049 A 
ATOM     52  C   UNL A   1      37.954  32.922  32.958  1.00  0.00     0.074 A 
ATOM     53  C   UNL A   1      42.571  30.819  36.787  1.00  0.00     0.029 A 
ATOM     54  N   UNL A   1      41.142  31.095  35.105  1.00  0.00    -0.354 N 
ATOM     55  N   UNL A   1      38.925  32.418  33.681  1.00  0.00    -0.248 NA
ATOM     56  C   UNL A   1      37.249  34.042  33.597  1.00  0.00     0.031 C 
ATOM     57  C   UNL A   1      41.707  31.869  37.107  1.00  0.00     0.029 A 
ATOM     58  C   UNL A   1      40.836  32.064  36.047  1.00  0.00     0.049 A 
ATOM     59  H   UNL A   1      40.675  30.975  34.247  1.00  0.00     0.167 HD
ATOM     60  C   UNL A   1      38.974  33.180  34.842  1.00  0.00     0.074 A 
ATOM     61  C   UNL A   1      37.934  34.182  34.724  1.00  0.00     0.031 C 
ATOM     62  C   UNL A   1      39.807  33.064  35.906  1.00  0.00     0.037 A 
BRANCH  49  63
ATOM     63  C   UNL A   1      43.938  28.481  35.432  1.00  0.00     0.058 A 
ATOM     64  C   UNL A   1      43.726  27.465  36.377  1.00  0.00     0.135 A 
ATOM     65  C   UNL A   1      45.267  28.800  35.102  1.00  0.00     0.135 A 
ATOM     66  F   UNL A   1      42.478  27.113  36.725  1.00  0.00    -0.206 F 
ATOM     67  C   UNL A   1      44.788  26.799  36.980  1.00  0.00     0.059 A 
ATOM     68  C   UNL A   1      46.343  28.125  35.669  1.00  0.00     0.059 A 
ATOM     69  F   UNL A   1      45.526  29.746  34.186  1.00  0.00    -0.206 F 
ATOM     70  C   UNL A   1      46.094  27.134  36.617  1.00  0.00     0.060 A 
BRANCH  70  71
ATOM     71  S   UNL A   1      47.459  26.227  37.371  1.00  0.00     0.124 S 
ATOM     72  O   UNL A   1      48.504  27.242  37.421  1.00  0.00    -0.237 OA
ATOM     73  O   UNL A   1      46.891  25.833  38.658  1.00  0.00    -0.237 OA
ATOM     74  O   UNL A   1      47.692  25.128  36.439  1.00  0.00    -0.744 OA
ENDBRANCH  70  71
ENDBRANCH  49  63
BRANCH  50  75
ATOM     75  C   UNL A   1      36.395  33.254  30.896  1.00  0.00     0.058 A 
ATOM     76  C   UNL A   1      36.667  34.149  29.849  1.00  0.00     0.135 A 
ATOM     77  C   UNL A   1      35.060  33.113  31.303  1.00  0.00     0.135 A 
ATOM     78  F   UNL A   1      37.927  34.330  29.428  1.00  0.00    -0.206 F 
ATOM     79  C   UNL A   1      35.657  34.896  29.249  1.00  0.00     0.059 A 
ATOM     80  C   UNL A   1      34.029  33.829  30.701  1.00  0.00     0.059 A 
ATOM     81  F   UNL A   1      34.749  32.262  32.293  1.00  0.00    -0.206 F 
ATOM     82  C   UNL A   1      34.341  34.732  29.686  1.00  0.00     0.060 A 
BRANCH  82  83
ATOM     83  S   UNL A   1      33.051  35.729  28.912  1.00  0.00     0.124 S 
ATOM     84  O   UNL A   1      32.359  34.731  28.101  1.00  0.00    -0.237 OA
ATOM     85  O   UNL A   1      32.315  36.227  30.069  1.00  0.00    -0.237 OA
ATOM     86  O   UNL A   1      33.800  36.733  28.165  1.00  0.00    -0.744 OA
ENDBRANCH  82  83
ENDBRANCH  50  75
BRANCH  62  87
ATOM     87  C   UNL A   1      39.667  34.065  37.020  1.00  0.00     0.058 A 
ATOM     88  C   UNL A   1      40.370  35.281  36.969  1.00  0.00     0.135 A 
ATOM     89  C   UNL A   1      38.915  33.791  38.172  1.00  0.00     0.135 A 
ATOM     90  F   UNL A   1      41.111  35.589  35.892  1.00  0.00    -0.206 F 
ATOM     91  C   UNL A   1      40.349  36.178  38.029  1.00  0.00     0.059 A 
ATOM     92  C   UNL A   1      38.855  34.689  39.234  1.00  0.00     0.059 A 
ATOM     93  F   UNL A   1      38.217  32.648  38.267  1.00  0.00    -0.206 F 
ATOM     94  C   UNL A   1      39.591  35.873  39.159  1.00  0.00     0.060 A 
BRANCH  94  95
ATOM     95  S   UNL A   1      39.570  37.054  40.524  1.00  0.00     0.124 S 
ATOM     96  O   UNL A   1      40.839  37.748  40.340  1.00  0.00    -0.237 OA
ATOM     97  O   UNL A   1      38.371  37.835  40.236  1.00  0.00    -0.237 OA
ATOM     98  O   UNL A   1      39.484  36.203  41.708  1.00  0.00    -0.744 OA
ENDBRANCH  94  95
ENDBRANCH  62  87
ENDBRANCH  36  37
ENDBRANCH  28  31
ENDBRANCH  26  27
ENDBRANCH  25  26
ENDBRANCH   1  25
TORSDOF 17
ENDMDL
MODEL 3
REMARK VINA RESULT:     -11.9      4.714      7.660
REMARK SMILES COC(=O)c1ccc(Cl)c(-c2ccc(C(=O)NCCCCNC(=O)c3ccc(-c4c5nc(c(-c6c(F)cc(S(=O)(=O)[O-])cc6F)c6ccc([nH]6)c(-c6c(F)cc(S(=O)(=O)[O-])cc6F)c6nc(c(-c7c(F)cc(S(=O)(=O)[O-])cc7F)c7ccc4[nH]7)C=C6)C=C5)cc3)c(F)c2)c1
REMARK SMILES IDX 19 1 18 2 17 3 15 4 16 5 14 7 11 8 12 9 93 10 13 11 91 12
REMARK SMILES IDX 92 13 10 14 5 15 6 16 94 17 7 18 8 19 9 20 3 21 4 22 2 23
REMARK SMILES IDX 1 24 20 25 21 26 22 27 23 28 24 30 25 31 26 32 90 33 27 34
REMARK SMILES IDX 89 35 28 36 29 37 30 38 83 39 31 40 88 41 82 42 84 43 32 44
REMARK SMILES IDX 87 45 81 46 80 47 33 49 67 50 46 51 66 52 47 53 50 54 65 55
REMARK SMILES IDX 85 56 48 57 49 58 64 60 86 61 51 62 34 63 35 64 44 65 36 66
REMARK SMILES IDX 37 67 43 68 45 69 38 70 39 71 40 72 41 73 42 74 68 75 69 76
REMARK SMILES IDX 78 77 70 78 71 79 77 80 79 81 72 82 73 83 74 84 75 85 76 86
REMARK SMILES IDX 52 87 53 88 62 89 54 90 55 91 61 92 63 93 56 94 57 95 58 96
REMARK SMILES IDX 59 97 60 98
REMARK H PARENT 17 6 22 29 84 48 50 59
REMARK Flexibility Score: inf
ROOT
ATOM      1  C   UNL A   1      33.918  34.813  29.294  1.00  0.00     0.023 C 
ENDROOT
BRANCH   1   2
ATOM      2  C   UNL A   1      34.741  34.270  30.466  1.00  0.00     0.116 C 
BRANCH   2   3
ATOM      3  N   UNL A   1      34.596  35.126  31.624  1.00  0.00    -0.352 N 
ATOM      4  C   UNL A   1      35.243  35.173  32.830  1.00  0.00     0.254 C 
ATOM      5  O   UNL A   1      34.854  36.029  33.630  1.00  0.00    -0.269 OA
ATOM      6  H   UNL A   1      33.893  35.809  31.526  1.00  0.00     0.163 HD
BRANCH   4   7
ATOM      7  C   UNL A   1      36.405  34.325  33.221  1.00  0.00     0.075 A 
ATOM      8  C   UNL A   1      38.455  32.578  34.153  1.00  0.00    -0.014 A 
ATOM      9  C   UNL A   1      37.197  32.585  34.761  1.00  0.00     0.010 A 
ATOM     10  C   UNL A   1      38.666  33.438  33.070  1.00  0.00     0.048 A 
ATOM     11  C   UNL A   1      36.192  33.450  34.303  1.00  0.00     0.017 A 
ATOM     12  C   UNL A   1      37.649  34.270  32.599  1.00  0.00     0.136 A 
ATOM     13  F   UNL A   1      37.939  34.952  31.488  1.00  0.00    -0.206 F 
BRANCH   8  14
ATOM     14  C   UNL A   1      39.535  31.686  34.592  1.00  0.00     0.001 A 
ATOM     15  C   UNL A   1      40.731  29.574  34.287  1.00  0.00     0.060 A 
ATOM     16  C   UNL A   1      41.452  29.804  35.463  1.00  0.00     0.017 A 
ATOM     17  C   UNL A   1      39.795  30.519  33.848  1.00  0.00     0.026 A 
ATOM     18  C   UNL A   1      41.227  30.969  36.198  1.00  0.00     0.022 A 
ATOM     19  C   UNL A   1      40.273  31.900  35.773  1.00  0.00     0.048 A 
ATOM     20  Cl  UNL A   1      40.012  33.282  36.780  1.00  0.00    -0.084 Cl
BRANCH  15  21
ATOM     21  C   UNL A   1      40.905  28.337  33.485  1.00  0.00     0.337 C 
ATOM     22  O   UNL A   1      40.050  27.881  32.753  1.00  0.00    -0.246 OA
BRANCH  21  23
ATOM     23  O   UNL A   1      42.111  27.781  33.766  1.00  0.00    -0.465 OA
ATOM     24  C   UNL A   1      42.926  27.557  32.615  1.00  0.00     0.282 C 
ENDBRANCH  21  23
ENDBRANCH  15  21
ENDBRANCH   8  14
ENDBRANCH   4   7
ENDBRANCH   2   3
ENDBRANCH   1   2
BRANCH   1  25
ATOM     25  C   UNL A   1      33.642  33.796  28.187  1.00  0.00     0.023 C 
BRANCH  25  26
ATOM     26  C   UNL A   1      34.539  32.567  28.220  1.00  0.00     0.116 C 
BRANCH  26  27
ATOM     27  N   UNL A   1      33.828  31.324  27.954  1.00  0.00    -0.352 N 
ATOM     28  C   UNL A   1      34.349  30.055  27.879  1.00  0.00     0.251 C 
ATOM     29  H   UNL A   1      32.857  31.403  27.813  1.00  0.00     0.163 HD
ATOM     30  O   UNL A   1      33.646  29.111  27.534  1.00  0.00    -0.269 OA
BRANCH  28  31
ATOM     31  C   UNL A   1      35.780  29.859  28.182  1.00  0.00     0.039 A 
ATOM     32  C   UNL A   1      36.153  29.446  29.461  1.00  0.00     0.014 A 
ATOM     33  C   UNL A   1      36.742  30.034  27.182  1.00  0.00     0.014 A 
ATOM     34  C   UNL A   1      37.493  29.159  29.723  1.00  0.00     0.010 A 
ATOM     35  C   UNL A   1      38.058  29.663  27.421  1.00  0.00     0.010 A 
ATOM     36  C   UNL A   1      38.451  29.239  28.698  1.00  0.00    -0.014 A 
BRANCH  36  37
ATOM     37  C   UNL A   1      39.880  28.928  28.953  1.00  0.00     0.031 A 
ATOM     38  C   UNL A   1      40.754  29.953  29.625  1.00  0.00     0.074 A 
ATOM     39  C   UNL A   1      40.396  27.751  28.551  1.00  0.00     0.049 A 
ATOM     40  N   UNL A   1      42.033  29.900  29.892  1.00  0.00    -0.248 NA
ATOM     41  C   UNL A   1      40.112  31.219  30.022  1.00  0.00     0.031 C 
ATOM     42  C   UNL A   1      39.655  26.694  27.859  1.00  0.00     0.029 A 
ATOM     43  N   UNL A   1      41.665  27.242  28.670  1.00  0.00    -0.354 N 
ATOM     44  C   UNL A   1      42.344  31.118  30.485  1.00  0.00     0.074 A 
ATOM     45  C   UNL A   1      41.142  31.921  30.465  1.00  0.00     0.031 C 
ATOM     46  C   UNL A   1      40.469  25.646  27.658  1.00  0.00     0.029 A 
ATOM     47  C   UNL A   1      41.799  25.969  28.168  1.00  0.00     0.049 A 
ATOM     48  H   UNL A   1      42.409  27.741  29.077  1.00  0.00     0.167 HD
ATOM     49  C   UNL A   1      43.515  31.517  31.035  1.00  0.00     0.037 A 
ATOM     50  C   UNL A   1      42.871  25.153  28.132  1.00  0.00     0.037 A 
ATOM     51  C   UNL A   1      44.700  30.703  31.071  1.00  0.00     0.049 A 
ATOM     52  C   UNL A   1      44.170  25.627  28.724  1.00  0.00     0.074 A 
ATOM     53  C   UNL A   1      45.934  31.004  31.621  1.00  0.00     0.029 A 
ATOM     54  N   UNL A   1      44.798  29.423  30.545  1.00  0.00    -0.354 N 
ATOM     55  N   UNL A   1      44.443  26.772  29.304  1.00  0.00    -0.248 NA
ATOM     56  C   UNL A   1      45.308  24.700  28.662  1.00  0.00     0.031 C 
ATOM     57  C   UNL A   1      46.788  29.923  31.391  1.00  0.00     0.029 A 
ATOM     58  C   UNL A   1      46.073  28.924  30.748  1.00  0.00     0.049 A 
ATOM     59  H   UNL A   1      44.068  28.940  30.093  1.00  0.00     0.167 HD
ATOM     60  C   UNL A   1      45.770  26.689  29.709  1.00  0.00     0.074 A 
ATOM     61  C   UNL A   1      46.245  25.380  29.309  1.00  0.00     0.031 C 
ATOM     62  C   UNL A   1      46.525  27.611  30.357  1.00  0.00     0.037 A 
BRANCH  49  63
ATOM     63  C   UNL A   1      43.560  32.884  31.661  1.00  0.00     0.058 A 
ATOM     64  C   UNL A   1      43.210  33.072  33.007  1.00  0.00     0.135 A 
ATOM     65  C   UNL A   1      43.920  34.020  30.915  1.00  0.00     0.135 A 
ATOM     66  F   UNL A   1      42.864  32.023  33.770  1.00  0.00    -0.206 F 
ATOM     67  C   UNL A   1      43.208  34.335  33.589  1.00  0.00     0.059 A 
ATOM     68  C   UNL A   1      43.956  35.288  31.485  1.00  0.00     0.059 A 
ATOM     69  F   UNL A   1      44.288  33.894  29.630  1.00  0.00    -0.206 F 
ATOM     70  C   UNL A   1      43.585  35.438  32.820  1.00  0.00     0.060 A 
BRANCH  70  71
ATOM     71  S   UNL A   1      43.624  37.064  33.603  1.00  0.00     0.124 S 
ATOM     72  O   UNL A   1      43.443  37.952  32.461  1.00  0.00    -0.237 OA
ATOM     73  O   UNL A   1      42.501  36.983  34.532  1.00  0.00    -0.237 OA
ATOM     74  O   UNL A   1      44.942  37.106  34.231  1.00  0.00    -0.744 OA
ENDBRANCH  70  71
ENDBRANCH  49  63
BRANCH  50  75
ATOM     75  C   UNL A   1      42.737  23.782  27.569  1.00  0.00     0.058 A 
ATOM     76  C   UNL A   1      42.440  22.679  28.384  1.00  0.00     0.135 A 
ATOM     77  C   UNL A   1      42.950  23.546  26.203  1.00  0.00     0.135 A 
ATOM     78  F   UNL A   1      42.238  22.848  29.699  1.00  0.00    -0.206 F 
ATOM     79  C   UNL A   1      42.385  21.388  27.869  1.00  0.00     0.059 A 
ATOM     80  C   UNL A   1      42.874  22.267  25.659  1.00  0.00     0.059 A 
ATOM     81  F   UNL A   1      43.226  24.570  25.382  1.00  0.00    -0.206 F 
ATOM     82  C   UNL A   1      42.609  21.192  26.505  1.00  0.00     0.060 A 
BRANCH  82  83
ATOM     83  S   UNL A   1      42.558  19.505  25.862  1.00  0.00     0.124 S 
ATOM     84  O   UNL A   1      43.530  19.577  24.776  1.00  0.00    -0.237 OA
ATOM     85  O   UNL A   1      42.963  18.723  27.026  1.00  0.00    -0.237 OA
ATOM     86  O   UNL A   1      41.168  19.341  25.450  1.00  0.00    -0.744 OA
ENDBRANCH  82  83
ENDBRANCH  50  75
BRANCH  62  87
ATOM     87  C   UNL A   1      47.936  27.235  30.718  1.00  0.00     0.058 A 
ATOM     88  C   UNL A   1      48.996  27.555  29.853  1.00  0.00     0.135 A 
ATOM     89  C   UNL A   1      48.231  26.486  31.866  1.00  0.00     0.135 A 
ATOM     90  F   UNL A   1      48.767  28.264  28.735  1.00  0.00    -0.206 F 
ATOM     91  C   UNL A   1      50.293  27.127  30.103  1.00  0.00     0.059 A 
ATOM     92  C   UNL A   1      49.529  26.072  32.152  1.00  0.00     0.059 A 
ATOM     93  F   UNL A   1      47.255  26.162  32.730  1.00  0.00    -0.206 F 
ATOM     94  C   UNL A   1      50.551  26.383  31.254  1.00  0.00     0.060 A 
BRANCH  94  95
ATOM     95  S   UNL A   1      52.244  25.841  31.567  1.00  0.00     0.124 S 
ATOM     96  O   UNL A   1      52.049  24.443  31.934  1.00  0.00    -0.237 OA
ATOM     97  O   UNL A   1      52.884  26.075  30.276  1.00  0.00    -0.237 OA
ATOM     98  O   UNL A   1      52.688  26.719  32.646  1.00  0.00    -0.744 OA
ENDBRANCH  94  95
ENDBRANCH  62  87
ENDBRANCH  36  37
ENDBRANCH  28  31
ENDBRANCH  26  27
ENDBRANCH  25  26
ENDBRANCH   1  25
TORSDOF 17
ENDMDL
