MODEL 1
REMARK VINA RESULT:     -11.5      0.000      0.000
REMARK SMILES CC(C)(C)OC(=O)N[C@H](Cc1ccc(N=[N+]=[N-])cc1)C(=O)NCCCCNC(=O)c1ccc(-c2c3nc(c(-c4c(F)cc(S(=O)(=O)[O-])cc4F)c4ccc([nH]4)c(-c4c(F)cc(S(=O)(=O)[O-])cc4F)c4nc(c(-c5c(F)cc(S(=O)(=O)[O-])cc5F)c5ccc2[nH]5)C=C4)C=C3)cc1
REMARK SMILES IDX 24 1 23 2 22 3 20 4 21 5 9 7 8 8 6 9 7 10 5 12 2 13 1 14
REMARK SMILES IDX 3 15 4 16 10 17 11 18 12 19 19 20 13 21 18 22 14 23 15 24
REMARK SMILES IDX 16 25 17 26 25 27 26 28 27 29 28 30 29 32 30 33 31 34 95 35
REMARK SMILES IDX 32 36 94 37 33 38 34 39 35 40 88 41 36 42 93 43 87 44 89 45
REMARK SMILES IDX 37 46 92 47 86 48 85 49 38 51 72 52 51 53 71 54 52 55 55 56
REMARK SMILES IDX 70 57 90 58 53 59 54 60 69 62 91 63 56 64 39 65 40 66 49 67
REMARK SMILES IDX 41 68 42 69 48 70 50 71 43 72 44 73 45 74 46 75 47 76 73 77
REMARK SMILES IDX 74 78 83 79 75 80 76 81 82 82 84 83 77 84 78 85 79 86 80 87
REMARK SMILES IDX 81 88 57 89 58 90 67 91 59 92 60 93 66 94 68 95 61 96 62 97
REMARK SMILES IDX 63 98 64 99 65 100
REMARK H PARENT 22 6 8 11 27 31 89 50 55 61
REMARK Flexibility Score: inf
ROOT
ATOM      1  C   UNL A   1      34.136  29.022  27.185  1.00  0.00     0.023 C 
ENDROOT
BRANCH   1   2
ATOM      2  C   UNL A   1      33.217  28.591  26.043  1.00  0.00     0.116 C 
BRANCH   2   3
ATOM      3  N   UNL A   1      33.769  28.925  24.740  1.00  0.00    -0.354 N 
ATOM      4  C   UNL A   1      33.724  28.243  23.557  1.00  0.00     0.243 C 
ATOM      5  O   UNL A   1      34.289  28.744  22.582  1.00  0.00    -0.273 OA
ATOM      6  H   UNL A   1      34.254  29.782  24.706  1.00  0.00     0.163 HD
BRANCH   4   7
ATOM      7  C   UNL A   1      32.973  26.904  23.438  1.00  0.00     0.179 C 
BRANCH   7   8
ATOM      8  N   UNL A   1      34.035  25.916  23.189  1.00  0.00    -0.309 N 
ATOM      9  C   UNL A   1      34.009  24.571  23.354  1.00  0.00     0.408 C 
ATOM     10  O   UNL A   1      35.000  23.896  23.120  1.00  0.00    -0.225 OA
ATOM     11  H   UNL A   1      34.885  26.284  22.855  1.00  0.00     0.167 HD
BRANCH   9  12
ATOM     12  O   UNL A   1      32.807  24.112  23.757  1.00  0.00    -0.444 OA
BRANCH  12  13
ATOM     13  C   UNL A   1      32.623  23.643  25.115  1.00  0.00     0.106 C 
ATOM     14  C   UNL A   1      31.196  24.071  25.484  1.00  0.00     0.056 C 
ATOM     15  C   UNL A   1      33.605  24.321  26.076  1.00  0.00     0.056 C 
ATOM     16  C   UNL A   1      32.706  22.113  25.192  1.00  0.00     0.056 C 
ENDBRANCH  12  13
ENDBRANCH   9  12
ENDBRANCH   7   8
BRANCH   7  17
ATOM     17  C   UNL A   1      31.844  26.913  22.384  1.00  0.00     0.070 C 
BRANCH  17  18
ATOM     18  C   UNL A   1      30.697  27.890  22.573  1.00  0.00    -0.045 A 
ATOM     19  C   UNL A   1      30.680  29.176  22.024  1.00  0.00     0.004 A 
ATOM     20  C   UNL A   1      29.547  27.456  23.250  1.00  0.00     0.004 A 
ATOM     21  C   UNL A   1      29.571  30.015  22.192  1.00  0.00     0.010 A 
ATOM     22  C   UNL A   1      28.437  28.295  23.410  1.00  0.00     0.010 A 
ATOM     23  C   UNL A   1      28.434  29.593  22.886  1.00  0.00     0.038 A 
BRANCH  23  24
ATOM     24  N   UNL A   1      27.385  30.523  23.019  1.00  0.00    -0.061 NA
ATOM     25  N   UNL A   1      27.715  31.719  23.060  1.00  0.00     0.005 N 
ATOM     26  N   UNL A   1      28.007  32.823  23.086  1.00  0.00    -0.003 NA
ENDBRANCH  23  24
ENDBRANCH  17  18
ENDBRANCH   7  17
ENDBRANCH   4   7
ENDBRANCH   2   3
ENDBRANCH   1   2
BRANCH   1  27
ATOM     27  C   UNL A   1      34.435  30.517  27.232  1.00  0.00     0.023 C 
BRANCH  27  28
ATOM     28  C   UNL A   1      35.657  30.903  28.054  1.00  0.00     0.116 C 
BRANCH  28  29
ATOM     29  N   UNL A   1      35.509  30.601  29.472  1.00  0.00    -0.352 N 
ATOM     30  C   UNL A   1      36.458  30.146  30.356  1.00  0.00     0.251 C 
ATOM     31  H   UNL A   1      34.609  30.739  29.845  1.00  0.00     0.163 HD
ATOM     32  O   UNL A   1      36.134  29.807  31.490  1.00  0.00    -0.269 OA
BRANCH  30  33
ATOM     33  C   UNL A   1      37.862  30.033  29.909  1.00  0.00     0.039 A 
ATOM     34  C   UNL A   1      38.882  30.113  30.859  1.00  0.00     0.014 A 
ATOM     35  C   UNL A   1      38.161  29.784  28.567  1.00  0.00     0.014 A 
ATOM     36  C   UNL A   1      40.199  29.853  30.475  1.00  0.00     0.010 A 
ATOM     37  C   UNL A   1      39.460  29.446  28.205  1.00  0.00     0.010 A 
ATOM     38  C   UNL A   1      40.491  29.467  29.156  1.00  0.00    -0.014 A 
BRANCH  38  39
ATOM     39  C   UNL A   1      41.860  29.046  28.758  1.00  0.00     0.031 A 
ATOM     40  C   UNL A   1      42.962  30.063  28.654  1.00  0.00     0.074 A 
ATOM     41  C   UNL A   1      42.086  27.762  28.414  1.00  0.00     0.049 A 
ATOM     42  N   UNL A   1      44.193  29.905  28.241  1.00  0.00    -0.248 NA
ATOM     43  C   UNL A   1      42.633  31.444  29.043  1.00  0.00     0.031 C 
ATOM     44  C   UNL A   1      41.086  26.692  28.432  1.00  0.00     0.029 A 
ATOM     45  N   UNL A   1      43.227  27.139  27.970  1.00  0.00    -0.354 N 
ATOM     46  C   UNL A   1      44.781  31.162  28.310  1.00  0.00     0.074 A 
ATOM     47  C   UNL A   1      43.757  32.083  28.752  1.00  0.00     0.031 C 
ATOM     48  C   UNL A   1      41.660  25.545  28.037  1.00  0.00     0.029 A 
ATOM     49  C   UNL A   1      43.054  25.803  27.690  1.00  0.00     0.049 A 
ATOM     50  H   UNL A   1      44.087  27.605  27.861  1.00  0.00     0.167 HD
ATOM     51  C   UNL A   1      46.063  31.512  28.049  1.00  0.00     0.037 A 
ATOM     52  C   UNL A   1      43.913  24.892  27.191  1.00  0.00     0.037 A 
ATOM     53  C   UNL A   1      47.078  30.585  27.621  1.00  0.00     0.049 A 
ATOM     54  C   UNL A   1      45.323  25.313  26.875  1.00  0.00     0.074 A 
ATOM     55  C   UNL A   1      48.421  30.829  27.387  1.00  0.00     0.029 A 
ATOM     56  N   UNL A   1      46.866  29.240  27.351  1.00  0.00    -0.354 N 
ATOM     57  N   UNL A   1      45.882  26.491  27.018  1.00  0.00    -0.248 NA
ATOM     58  C   UNL A   1      46.220  24.285  26.330  1.00  0.00     0.031 C 
ATOM     59  C   UNL A   1      49.004  29.649  26.916  1.00  0.00     0.029 A 
ATOM     60  C   UNL A   1      48.043  28.651  26.919  1.00  0.00     0.049 A 
ATOM     61  H   UNL A   1      46.004  28.773  27.453  1.00  0.00     0.167 HD
ATOM     62  C   UNL A   1      47.202  26.339  26.604  1.00  0.00     0.074 A 
ATOM     63  C   UNL A   1      47.361  24.952  26.220  1.00  0.00     0.031 C 
ATOM     64  C   UNL A   1      48.189  27.266  26.544  1.00  0.00     0.037 A 
BRANCH  51  65
ATOM     65  C   UNL A   1      46.444  32.959  28.215  1.00  0.00     0.058 A 
ATOM     66  C   UNL A   1      46.307  33.885  27.167  1.00  0.00     0.135 A 
ATOM     67  C   UNL A   1      46.909  33.437  29.451  1.00  0.00     0.135 A 
ATOM     68  F   UNL A   1      45.882  33.481  25.959  1.00  0.00    -0.206 F 
ATOM     69  C   UNL A   1      46.643  35.224  27.330  1.00  0.00     0.059 A 
ATOM     70  C   UNL A   1      47.220  34.779  29.647  1.00  0.00     0.059 A 
ATOM     71  F   UNL A   1      47.060  32.597  30.488  1.00  0.00    -0.206 F 
ATOM     72  C   UNL A   1      47.096  35.663  28.576  1.00  0.00     0.060 A 
BRANCH  72  73
ATOM     73  S   UNL A   1      47.516  37.407  28.770  1.00  0.00     0.124 S 
ATOM     74  O   UNL A   1      46.991  37.973  27.531  1.00  0.00    -0.237 OA
ATOM     75  O   UNL A   1      46.796  37.766  29.987  1.00  0.00    -0.237 OA
ATOM     76  O   UNL A   1      48.971  37.397  28.886  1.00  0.00    -0.744 OA
ENDBRANCH  72  73
ENDBRANCH  51  65
BRANCH  52  77
ATOM     77  C   UNL A   1      43.464  23.491  26.962  1.00  0.00     0.058 A 
ATOM     78  C   UNL A   1      43.337  22.589  28.028  1.00  0.00     0.135 A 
ATOM     79  C   UNL A   1      43.147  23.028  25.675  1.00  0.00     0.135 A 
ATOM     80  F   UNL A   1      43.636  22.978  29.277  1.00  0.00    -0.206 F 
ATOM     81  C   UNL A   1      42.927  21.274  27.827  1.00  0.00     0.059 A 
ATOM     82  C   UNL A   1      42.705  21.727  25.452  1.00  0.00     0.059 A 
ATOM     83  F   UNL A   1      43.236  23.854  24.621  1.00  0.00    -0.206 F 
ATOM     84  C   UNL A   1      42.609  20.854  26.535  1.00  0.00     0.060 A 
BRANCH  84  85
ATOM     85  S   UNL A   1      42.032  19.160  26.293  1.00  0.00     0.124 S 
ATOM     86  O   UNL A   1      42.213  18.596  27.626  1.00  0.00    -0.237 OA
ATOM     87  O   UNL A   1      40.653  19.366  25.868  1.00  0.00    -0.237 OA
ATOM     88  O   UNL A   1      42.929  18.644  25.263  1.00  0.00    -0.744 OA
ENDBRANCH  84  85
ENDBRANCH  52  77
BRANCH  64  89
ATOM     89  C   UNL A   1      49.545  26.814  26.071  1.00  0.00     0.058 A 
ATOM     90  C   UNL A   1      49.969  27.012  24.748  1.00  0.00     0.135 A 
ATOM     91  C   UNL A   1      50.458  26.243  26.973  1.00  0.00     0.135 A 
ATOM     92  F   UNL A   1      49.133  27.544  23.843  1.00  0.00    -0.206 F 
ATOM     93  C   UNL A   1      51.247  26.651  24.333  1.00  0.00     0.059 A 
ATOM     94  C   UNL A   1      51.752  25.904  26.587  1.00  0.00     0.059 A 
ATOM     95  F   UNL A   1      50.108  26.036  28.252  1.00  0.00    -0.206 F 
ATOM     96  C   UNL A   1      52.134  26.106  25.262  1.00  0.00     0.060 A 
BRANCH  96  97
ATOM     97  S   UNL A   1      53.808  25.700  24.722  1.00  0.00     0.124 S 
ATOM     98  O   UNL A   1      54.616  26.493  25.643  1.00  0.00    -0.237 OA
ATOM     99  O   UNL A   1      53.856  24.255  24.921  1.00  0.00    -0.237 OA
ATOM    100  O   UNL A   1      53.833  26.136  23.330  1.00  0.00    -0.744 OA
ENDBRANCH  96  97
ENDBRANCH  64  89
ENDBRANCH  38  39
ENDBRANCH  30  33
ENDBRANCH  28  29
ENDBRANCH  27  28
ENDBRANCH   1  27
TORSDOF 20
ENDMDL
MODEL 2
REMARK VINA RESULT:     -11.0      1.711      8.877
REMARK SMILES CC(C)(C)OC(=O)N[C@H](Cc1ccc(N=[N+]=[N-])cc1)C(=O)NCCCCNC(=O)c1ccc(-c2c3nc(c(-c4c(F)cc(S(=O)(=O)[O-])cc4F)c4ccc([nH]4)c(-c4c(F)cc(S(=O)(=O)[O-])cc4F)c4nc(c(-c5c(F)cc(S(=O)(=O)[O-])cc5F)c5ccc2[nH]5)C=C4)C=C3)cc1
REMARK SMILES IDX 24 1 23 2 22 3 20 4 21 5 9 7 8 8 6 9 7 10 5 12 2 13 1 14
REMARK SMILES IDX 3 15 4 16 10 17 11 18 12 19 19 20 13 21 18 22 14 23 15 24
REMARK SMILES IDX 16 25 17 26 25 27 26 28 27 29 28 30 29 32 30 33 31 34 95 35
REMARK SMILES IDX 32 36 94 37 33 38 34 39 35 40 88 41 36 42 93 43 87 44 89 45
REMARK SMILES IDX 37 46 92 47 86 48 85 49 38 51 72 52 51 53 71 54 52 55 55 56
REMARK SMILES IDX 70 57 90 58 53 59 54 60 69 62 91 63 56 64 39 65 40 66 49 67
REMARK SMILES IDX 41 68 42 69 48 70 50 71 43 72 44 73 45 74 46 75 47 76 73 77
REMARK SMILES IDX 74 78 83 79 75 80 76 81 82 82 84 83 77 84 78 85 79 86 80 87
REMARK SMILES IDX 81 88 57 89 58 90 67 91 59 92 60 93 66 94 68 95 61 96 62 97
REMARK SMILES IDX 63 98 64 99 65 100
REMARK H PARENT 22 6 8 11 27 31 89 50 55 61
REMARK Flexibility Score: inf
ROOT
ATOM      1  C   UNL A   1      35.322  29.399  27.550  1.00  0.00     0.023 C 
ENDROOT
BRANCH   1   2
ATOM      2  C   UNL A   1      34.255  28.697  26.712  1.00  0.00     0.116 C 
BRANCH   2   3
ATOM      3  N   UNL A   1      33.005  28.540  27.438  1.00  0.00    -0.354 N 
ATOM      4  C   UNL A   1      31.963  27.679  27.234  1.00  0.00     0.243 C 
ATOM      5  O   UNL A   1      30.997  27.755  27.995  1.00  0.00    -0.273 OA
ATOM      6  H   UNL A   1      32.891  29.154  28.199  1.00  0.00     0.163 HD
BRANCH   4   7
ATOM      7  C   UNL A   1      32.005  26.632  26.105  1.00  0.00     0.179 C 
BRANCH   7   8
ATOM      8  N   UNL A   1      30.879  26.999  25.232  1.00  0.00    -0.309 N 
ATOM      9  C   UNL A   1      30.857  27.158  23.886  1.00  0.00     0.408 C 
ATOM     10  O   UNL A   1      29.829  27.493  23.316  1.00  0.00    -0.225 OA
ATOM     11  H   UNL A   1      30.021  27.152  25.690  1.00  0.00     0.167 HD
BRANCH   9  12
ATOM     12  O   UNL A   1      32.040  26.882  23.302  1.00  0.00    -0.444 OA
BRANCH  12  13
ATOM     13  C   UNL A   1      32.179  25.718  22.450  1.00  0.00     0.106 C 
ATOM     14  C   UNL A   1      33.678  25.389  22.484  1.00  0.00     0.056 C 
ATOM     15  C   UNL A   1      31.776  26.035  21.006  1.00  0.00     0.056 C 
ATOM     16  C   UNL A   1      31.406  24.519  23.014  1.00  0.00     0.056 C 
ENDBRANCH  12  13
ENDBRANCH   9  12
ENDBRANCH   7   8
BRANCH   7  17
ATOM     17  C   UNL A   1      31.980  25.172  26.608  1.00  0.00     0.070 C 
BRANCH  17  18
ATOM     18  C   UNL A   1      33.214  24.317  26.387  1.00  0.00    -0.045 A 
ATOM     19  C   UNL A   1      33.254  22.941  26.631  1.00  0.00     0.004 A 
ATOM     20  C   UNL A   1      34.351  24.910  25.816  1.00  0.00     0.004 A 
ATOM     21  C   UNL A   1      34.409  22.196  26.362  1.00  0.00     0.010 A 
ATOM     22  C   UNL A   1      35.502  24.160  25.541  1.00  0.00     0.010 A 
ATOM     23  C   UNL A   1      35.550  22.788  25.816  1.00  0.00     0.038 A 
BRANCH  23  24
ATOM     24  N   UNL A   1      36.666  21.955  25.607  1.00  0.00    -0.061 NA
ATOM     25  N   UNL A   1      37.770  22.429  25.917  1.00  0.00     0.005 N 
ATOM     26  N   UNL A   1      38.789  22.853  26.212  1.00  0.00    -0.003 NA
ENDBRANCH  23  24
ENDBRANCH  17  18
ENDBRANCH   7  17
ENDBRANCH   4   7
ENDBRANCH   2   3
ENDBRANCH   1   2
BRANCH   1  27
ATOM     27  C   UNL A   1      35.001  30.847  27.908  1.00  0.00     0.023 C 
BRANCH  27  28
ATOM     28  C   UNL A   1      35.907  31.466  28.963  1.00  0.00     0.116 C 
BRANCH  28  29
ATOM     29  N   UNL A   1      35.731  30.874  30.283  1.00  0.00    -0.352 N 
ATOM     30  C   UNL A   1      36.657  30.217  31.059  1.00  0.00     0.251 C 
ATOM     31  H   UNL A   1      34.830  30.953  30.669  1.00  0.00     0.163 HD
ATOM     32  O   UNL A   1      36.309  29.655  32.093  1.00  0.00    -0.269 OA
BRANCH  30  33
ATOM     33  C   UNL A   1      38.064  30.166  30.611  1.00  0.00     0.039 A 
ATOM     34  C   UNL A   1      39.009  29.536  31.423  1.00  0.00     0.014 A 
ATOM     35  C   UNL A   1      38.430  30.679  29.364  1.00  0.00     0.014 A 
ATOM     36  C   UNL A   1      40.305  29.343  30.944  1.00  0.00     0.010 A 
ATOM     37  C   UNL A   1      39.697  30.412  28.858  1.00  0.00     0.010 A 
ATOM     38  C   UNL A   1      40.645  29.733  29.638  1.00  0.00    -0.014 A 
BRANCH  38  39
ATOM     39  C   UNL A   1      41.973  29.409  29.054  1.00  0.00     0.031 A 
ATOM     40  C   UNL A   1      42.262  28.018  28.560  1.00  0.00     0.074 A 
ATOM     41  C   UNL A   1      42.942  30.347  29.043  1.00  0.00     0.049 A 
ATOM     42  N   UNL A   1      43.382  27.522  28.101  1.00  0.00    -0.248 NA
ATOM     43  C   UNL A   1      41.154  27.051  28.609  1.00  0.00     0.031 C 
ATOM     44  C   UNL A   1      42.796  31.719  29.536  1.00  0.00     0.029 A 
ATOM     45  N   UNL A   1      44.245  30.288  28.616  1.00  0.00    -0.354 N 
ATOM     46  C   UNL A   1      43.118  26.188  27.818  1.00  0.00     0.074 A 
ATOM     47  C   UNL A   1      41.748  25.937  28.208  1.00  0.00     0.031 C 
ATOM     48  C   UNL A   1      43.954  32.375  29.364  1.00  0.00     0.029 A 
ATOM     49  C   UNL A   1      44.941  31.461  28.798  1.00  0.00     0.049 A 
ATOM     50  H   UNL A   1      44.645  29.482  28.217  1.00  0.00     0.167 HD
ATOM     51  C   UNL A   1      43.938  25.262  27.264  1.00  0.00     0.037 A 
ATOM     52  C   UNL A   1      46.232  31.763  28.556  1.00  0.00     0.037 A 
ATOM     53  C   UNL A   1      45.297  25.527  26.868  1.00  0.00     0.049 A 
ATOM     54  C   UNL A   1      47.132  30.707  27.973  1.00  0.00     0.074 A 
ATOM     55  C   UNL A   1      46.191  24.673  26.245  1.00  0.00     0.029 A 
ATOM     56  N   UNL A   1      45.965  26.727  27.066  1.00  0.00    -0.354 N 
ATOM     57  N   UNL A   1      46.845  29.471  27.641  1.00  0.00    -0.248 NA
ATOM     58  C   UNL A   1      48.532  31.083  27.731  1.00  0.00     0.031 C 
ATOM     59  C   UNL A   1      47.415  25.336  26.123  1.00  0.00     0.029 A 
ATOM     60  C   UNL A   1      47.269  26.625  26.610  1.00  0.00     0.049 A 
ATOM     61  H   UNL A   1      45.569  27.533  27.471  1.00  0.00     0.167 HD
ATOM     62  C   UNL A   1      48.020  28.931  27.129  1.00  0.00     0.074 A 
ATOM     63  C   UNL A   1      49.018  29.979  27.181  1.00  0.00     0.031 C 
ATOM     64  C   UNL A   1      48.252  27.679  26.663  1.00  0.00     0.037 A 
BRANCH  51  65
ATOM     65  C   UNL A   1      43.391  23.876  27.053  1.00  0.00     0.058 A 
ATOM     66  C   UNL A   1      43.022  23.411  25.780  1.00  0.00     0.135 A 
ATOM     67  C   UNL A   1      43.277  22.983  28.132  1.00  0.00     0.135 A 
ATOM     68  F   UNL A   1      43.094  24.227  24.715  1.00  0.00    -0.206 F 
ATOM     69  C   UNL A   1      42.533  22.124  25.588  1.00  0.00     0.059 A 
ATOM     70  C   UNL A   1      42.823  21.679  27.957  1.00  0.00     0.059 A 
ATOM     71  F   UNL A   1      43.615  23.373  29.371  1.00  0.00    -0.206 F 
ATOM     72  C   UNL A   1      42.441  21.263  26.683  1.00  0.00     0.060 A 
BRANCH  72  73
ATOM     73  S   UNL A   1      41.816  19.592  26.411  1.00  0.00     0.124 S 
ATOM     74  O   UNL A   1      40.375  19.823  26.368  1.00  0.00    -0.237 OA
ATOM     75  O   UNL A   1      42.438  19.231  25.142  1.00  0.00    -0.237 OA
ATOM     76  O   UNL A   1      42.297  18.854  27.574  1.00  0.00    -0.744 OA
ENDBRANCH  72  73
ENDBRANCH  51  65
BRANCH  52  77
ATOM     77  C   UNL A   1      46.750  33.125  28.862  1.00  0.00     0.058 A 
ATOM     78  C   UNL A   1      47.282  33.428  30.124  1.00  0.00     0.135 A 
ATOM     79  C   UNL A   1      46.731  34.146  27.899  1.00  0.00     0.135 A 
ATOM     80  F   UNL A   1      47.315  32.490  31.083  1.00  0.00    -0.206 F 
ATOM     81  C   UNL A   1      47.762  34.699  30.427  1.00  0.00     0.059 A 
ATOM     82  C   UNL A   1      47.234  35.416  28.168  1.00  0.00     0.059 A 
ATOM     83  F   UNL A   1      46.247  33.906  26.671  1.00  0.00    -0.206 F 
ATOM     84  C   UNL A   1      47.738  35.685  29.440  1.00  0.00     0.060 A 
BRANCH  84  85
ATOM     85  S   UNL A   1      48.408  37.316  29.830  1.00  0.00     0.124 S 
ATOM     86  O   UNL A   1      48.296  37.995  28.544  1.00  0.00    -0.237 OA
ATOM     87  O   UNL A   1      47.501  37.775  30.876  1.00  0.00    -0.237 OA
ATOM     88  O   UNL A   1      49.768  37.024  30.273  1.00  0.00    -0.744 OA
ENDBRANCH  84  85
ENDBRANCH  52  77
BRANCH  64  89
ATOM     89  C   UNL A   1      49.630  27.370  26.142  1.00  0.00     0.058 A 
ATOM     90  C   UNL A   1      50.657  26.926  26.989  1.00  0.00     0.135 A 
ATOM     91  C   UNL A   1      49.904  27.449  24.766  1.00  0.00     0.135 A 
ATOM     92  F   UNL A   1      50.452  26.842  28.313  1.00  0.00    -0.206 F 
ATOM     93  C   UNL A   1      51.910  26.580  26.493  1.00  0.00     0.059 A 
ATOM     94  C   UNL A   1      51.140  27.078  24.245  1.00  0.00     0.059 A 
ATOM     95  F   UNL A   1      48.957  27.862  23.910  1.00  0.00    -0.206 F 
ATOM     96  C   UNL A   1      52.139  26.650  25.118  1.00  0.00     0.060 A 
BRANCH  96  97
ATOM     97  S   UNL A   1      53.750  26.140  24.484  1.00  0.00     0.124 S 
ATOM     98  O   UNL A   1      54.291  25.396  25.618  1.00  0.00    -0.237 OA
ATOM     99  O   UNL A   1      53.385  25.340  23.319  1.00  0.00    -0.237 OA
ATOM    100  O   UNL A   1      54.416  27.404  24.187  1.00  0.00    -0.744 OA
ENDBRANCH  96  97
ENDBRANCH  64  89
ENDBRANCH  38  39
ENDBRANCH  30  33
ENDBRANCH  28  29
ENDBRANCH  27  28
ENDBRANCH   1  27
TORSDOF 20
ENDMDL
MODEL 3
REMARK VINA RESULT:     -11.0      6.442     11.796
REMARK SMILES CC(C)(C)OC(=O)N[C@H](Cc1ccc(N=[N+]=[N-])cc1)C(=O)NCCCCNC(=O)c1ccc(-c2c3nc(c(-c4c(F)cc(S(=O)(=O)[O-])cc4F)c4ccc([nH]4)c(-c4c(F)cc(S(=O)(=O)[O-])cc4F)c4nc(c(-c5c(F)cc(S(=O)(=O)[O-])cc5F)c5ccc2[nH]5)C=C4)C=C3)cc1
REMARK SMILES IDX 24 1 23 2 22 3 20 4 21 5 9 7 8 8 6 9 7 10 5 12 2 13 1 14
REMARK SMILES IDX 3 15 4 16 10 17 11 18 12 19 19 20 13 21 18 22 14 23 15 24
REMARK SMILES IDX 16 25 17 26 25 27 26 28 27 29 28 30 29 32 30 33 31 34 95 35
REMARK SMILES IDX 32 36 94 37 33 38 34 39 35 40 88 41 36 42 93 43 87 44 89 45
REMARK SMILES IDX 37 46 92 47 86 48 85 49 38 51 72 52 51 53 71 54 52 55 55 56
REMARK SMILES IDX 70 57 90 58 53 59 54 60 69 62 91 63 56 64 39 65 40 66 49 67
REMARK SMILES IDX 41 68 42 69 48 70 50 71 43 72 44 73 45 74 46 75 47 76 73 77
REMARK SMILES IDX 74 78 83 79 75 80 76 81 82 82 84 83 77 84 78 85 79 86 80 87
REMARK SMILES IDX 81 88 57 89 58 90 67 91 59 92 60 93 66 94 68 95 61 96 62 97
REMARK SMILES IDX 63 98 64 99 65 100
REMARK H PARENT 22 6 8 11 27 31 89 50 55 61
REMARK Flexibility Score: inf
ROOT
ATOM      1  C   UNL A   1      39.052  21.428  25.789  1.00  0.00     0.023 C 
ENDROOT
BRANCH   1   2
ATOM      2  C   UNL A   1      37.729  21.012  25.146  1.00  0.00     0.116 C 
BRANCH   2   3
ATOM      3  N   UNL A   1      37.341  21.906  24.067  1.00  0.00    -0.354 N 
ATOM      4  C   UNL A   1      36.148  22.524  23.814  1.00  0.00     0.243 C 
ATOM      5  O   UNL A   1      36.071  23.235  22.810  1.00  0.00    -0.273 OA
ATOM      6  H   UNL A   1      38.052  22.095  23.412  1.00  0.00     0.163 HD
BRANCH   4   7
ATOM      7  C   UNL A   1      34.947  22.358  24.764  1.00  0.00     0.179 C 
BRANCH   7   8
ATOM      8  N   UNL A   1      33.807  22.125  23.864  1.00  0.00    -0.309 N 
ATOM      9  C   UNL A   1      32.916  21.104  23.857  1.00  0.00     0.408 C 
ATOM     10  O   UNL A   1      32.033  21.053  23.014  1.00  0.00    -0.225 OA
ATOM     11  H   UNL A   1      33.670  22.808  23.168  1.00  0.00     0.167 HD
BRANCH   9  12
ATOM     12  O   UNL A   1      33.110  20.227  24.863  1.00  0.00    -0.444 OA
BRANCH  12  13
ATOM     13  C   UNL A   1      33.216  18.809  24.585  1.00  0.00     0.106 C 
ATOM     14  C   UNL A   1      34.724  18.549  24.463  1.00  0.00     0.056 C 
ATOM     15  C   UNL A   1      32.544  18.451  23.256  1.00  0.00     0.056 C 
ATOM     16  C   UNL A   1      32.672  17.972  25.750  1.00  0.00     0.056 C 
ENDBRANCH  12  13
ENDBRANCH   9  12
ENDBRANCH   7   8
BRANCH   7  17
ATOM     17  C   UNL A   1      34.762  23.533  25.747  1.00  0.00     0.070 C 
BRANCH  17  18
ATOM     18  C   UNL A   1      33.748  24.607  25.396  1.00  0.00    -0.045 A 
ATOM     19  C   UNL A   1      32.473  24.680  25.965  1.00  0.00     0.004 A 
ATOM     20  C   UNL A   1      34.134  25.641  24.529  1.00  0.00     0.004 A 
ATOM     21  C   UNL A   1      31.597  25.723  25.637  1.00  0.00     0.010 A 
ATOM     22  C   UNL A   1      33.258  26.687  24.210  1.00  0.00     0.010 A 
ATOM     23  C   UNL A   1      31.971  26.741  24.756  1.00  0.00     0.038 A 
BRANCH  23  24
ATOM     24  N   UNL A   1      31.008  27.729  24.475  1.00  0.00    -0.061 NA
ATOM     25  N   UNL A   1      29.908  27.322  24.069  1.00  0.00     0.005 N 
ATOM     26  N   UNL A   1      28.888  26.955  23.708  1.00  0.00    -0.003 NA
ENDBRANCH  23  24
ENDBRANCH  17  18
ENDBRANCH   7  17
ENDBRANCH   4   7
ENDBRANCH   2   3
ENDBRANCH   1   2
BRANCH   1  27
ATOM     27  C   UNL A   1      39.046  22.818  26.417  1.00  0.00     0.023 C 
BRANCH  27  28
ATOM     28  C   UNL A   1      40.333  23.208  27.130  1.00  0.00     0.116 C 
BRANCH  28  29
ATOM     29  N   UNL A   1      41.378  23.651  26.217  1.00  0.00    -0.352 N 
ATOM     30  C   UNL A   1      41.946  24.898  26.102  1.00  0.00     0.251 C 
ATOM     31  H   UNL A   1      41.723  22.967  25.599  1.00  0.00     0.163 HD
ATOM     32  O   UNL A   1      42.722  25.142  25.184  1.00  0.00    -0.269 OA
BRANCH  30  33
ATOM     33  C   UNL A   1      41.578  25.948  27.076  1.00  0.00     0.039 A 
ATOM     34  C   UNL A   1      40.634  25.654  28.062  1.00  0.00     0.014 A 
ATOM     35  C   UNL A   1      42.214  27.191  27.051  1.00  0.00     0.014 A 
ATOM     36  C   UNL A   1      40.394  26.580  29.078  1.00  0.00     0.010 A 
ATOM     37  C   UNL A   1      42.033  28.076  28.109  1.00  0.00     0.010 A 
ATOM     38  C   UNL A   1      41.129  27.775  29.138  1.00  0.00    -0.014 A 
BRANCH  38  39
ATOM     39  C   UNL A   1      40.995  28.709  30.287  1.00  0.00     0.031 A 
ATOM     40  C   UNL A   1      41.869  28.545  31.500  1.00  0.00     0.074 A 
ATOM     41  C   UNL A   1      40.032  29.653  30.268  1.00  0.00     0.049 A 
ATOM     42  N   UNL A   1      41.842  29.201  32.631  1.00  0.00    -0.248 NA
ATOM     43  C   UNL A   1      42.893  27.489  31.444  1.00  0.00     0.031 C 
ATOM     44  C   UNL A   1      39.093  29.882  29.167  1.00  0.00     0.029 A 
ATOM     45  N   UNL A   1      39.672  30.589  31.207  1.00  0.00    -0.354 N 
ATOM     46  C   UNL A   1      42.833  28.635  33.423  1.00  0.00     0.074 A 
ATOM     47  C   UNL A   1      43.406  27.544  32.665  1.00  0.00     0.031 C 
ATOM     48  C   UNL A   1      38.281  30.902  29.484  1.00  0.00     0.029 A 
ATOM     49  C   UNL A   1      38.603  31.369  30.828  1.00  0.00     0.049 A 
ATOM     50  H   UNL A   1      40.135  30.691  32.069  1.00  0.00     0.167 HD
ATOM     51  C   UNL A   1      43.241  29.003  34.661  1.00  0.00     0.037 A 
ATOM     52  C   UNL A   1      37.945  32.337  31.495  1.00  0.00     0.037 A 
ATOM     53  C   UNL A   1      42.671  30.099  35.402  1.00  0.00     0.049 A 
ATOM     54  C   UNL A   1      38.395  32.705  32.884  1.00  0.00     0.074 A 
ATOM     55  C   UNL A   1      43.053  30.589  36.639  1.00  0.00     0.029 A 
ATOM     56  N   UNL A   1      41.593  30.866  34.985  1.00  0.00    -0.354 N 
ATOM     57  N   UNL A   1      39.383  32.208  33.588  1.00  0.00    -0.248 NA
ATOM     58  C   UNL A   1      37.641  33.764  33.570  1.00  0.00     0.031 C 
ATOM     59  C   UNL A   1      42.168  31.610  36.996  1.00  0.00     0.029 A 
ATOM     60  C   UNL A   1      41.274  31.802  35.955  1.00  0.00     0.049 A 
ATOM     61  H   UNL A   1      41.124  30.761  34.125  1.00  0.00     0.167 HD
ATOM     62  C   UNL A   1      39.385  32.910  34.789  1.00  0.00     0.074 A 
ATOM     63  C   UNL A   1      38.310  33.877  34.709  1.00  0.00     0.031 C 
ATOM     64  C   UNL A   1      40.202  32.763  35.861  1.00  0.00     0.037 A 
BRANCH  51  65
ATOM     65  C   UNL A   1      44.355  28.216  35.296  1.00  0.00     0.058 A 
ATOM     66  C   UNL A   1      44.102  27.092  36.100  1.00  0.00     0.135 A 
ATOM     67  C   UNL A   1      45.697  28.562  35.062  1.00  0.00     0.135 A 
ATOM     68  F   UNL A   1      42.839  26.725  36.371  1.00  0.00    -0.206 F 
ATOM     69  C   UNL A   1      45.136  26.358  36.670  1.00  0.00     0.059 A 
ATOM     70  C   UNL A   1      46.747  27.821  35.595  1.00  0.00     0.059 A 
ATOM     71  F   UNL A   1      45.998  29.627  34.301  1.00  0.00    -0.206 F 
ATOM     72  C   UNL A   1      46.456  26.728  36.409  1.00  0.00     0.060 A 
BRANCH  72  73
ATOM     73  S   UNL A   1      47.783  25.755  37.150  1.00  0.00     0.124 S 
ATOM     74  O   UNL A   1      48.845  26.750  37.266  1.00  0.00    -0.237 OA
ATOM     75  O   UNL A   1      47.184  25.318  38.406  1.00  0.00    -0.237 OA
ATOM     76  O   UNL A   1      48.020  24.699  36.170  1.00  0.00    -0.744 OA
ENDBRANCH  72  73
ENDBRANCH  51  65
BRANCH  52  77
ATOM     77  C   UNL A   1      36.791  33.029  30.857  1.00  0.00     0.058 A 
ATOM     78  C   UNL A   1      36.989  34.024  29.889  1.00  0.00     0.135 A 
ATOM     79  C   UNL A   1      35.468  32.703  31.196  1.00  0.00     0.135 A 
ATOM     80  F   UNL A   1      38.234  34.378  29.536  1.00  0.00    -0.206 F 
ATOM     81  C   UNL A   1      35.920  34.684  29.291  1.00  0.00     0.059 A 
ATOM     82  C   UNL A   1      34.381  33.328  30.589  1.00  0.00     0.059 A 
ATOM     83  F   UNL A   1      35.220  31.748  32.105  1.00  0.00    -0.206 F 
ATOM     84  C   UNL A   1      34.619  34.325  29.645  1.00  0.00     0.060 A 
BRANCH  84  85
ATOM     85  S   UNL A   1      33.239  35.156  28.827  1.00  0.00     0.124 S 
ATOM     86  O   UNL A   1      32.420  35.554  29.966  1.00  0.00    -0.237 OA
ATOM     87  O   UNL A   1      33.914  36.236  28.116  1.00  0.00    -0.237 OA
ATOM     88  O   UNL A   1      32.675  34.112  27.977  1.00  0.00    -0.744 OA
ENDBRANCH  84  85
ENDBRANCH  52  77
BRANCH  64  89
ATOM     89  C   UNL A   1      39.990  33.684  37.033  1.00  0.00     0.058 A 
ATOM     90  C   UNL A   1      40.675  34.903  37.147  1.00  0.00     0.135 A 
ATOM     91  C   UNL A   1      39.033  33.377  38.015  1.00  0.00     0.135 A 
ATOM     92  F   UNL A   1      41.607  35.242  36.242  1.00  0.00    -0.206 F 
ATOM     93  C   UNL A   1      40.427  35.781  38.198  1.00  0.00     0.059 A 
ATOM     94  C   UNL A   1      38.747  34.254  39.056  1.00  0.00     0.059 A 
ATOM     95  F   UNL A   1      38.344  32.226  37.952  1.00  0.00    -0.206 F 
ATOM     96  C   UNL A   1      39.454  35.451  39.143  1.00  0.00     0.060 A 
BRANCH  96  97
ATOM     97  S   UNL A   1      39.102  36.628  40.465  1.00  0.00     0.124 S 
ATOM     98  O   UNL A   1      38.526  37.744  39.722  1.00  0.00    -0.237 OA
ATOM     99  O   UNL A   1      38.172  35.880  41.306  1.00  0.00    -0.237 OA
ATOM    100  O   UNL A   1      40.412  36.878  41.059  1.00  0.00    -0.744 OA
ENDBRANCH  96  97
ENDBRANCH  64  89
ENDBRANCH  38  39
ENDBRANCH  30  33
ENDBRANCH  28  29
ENDBRANCH  27  28
ENDBRANCH   1  27
TORSDOF 20
ENDMDL
