MODEL 1
REMARK VINA RESULT:     -13.5      0.000      0.000
REMARK SMILES O=C(NCCCCNC(=O)[C@@H]1[C@H](C(=O)Nc2ccc(Cn3cncn3)cc2)[C@@H]2C=C[C@H]1CC2)c1ccc(-c2c3nc(c(-c4c(F)cc(S(=O)(=O)[O-])cc4F)c4ccc([nH]4)c(-c4c(F)cc(S(=O)(=O)[O-])cc4F)c4nc(c(-c5c(F)cc(S(=O)(=O)[O-])cc5F)c5ccc2[nH]5)C=C4)C=C3)cc1
REMARK SMILES IDX 6 1 5 2 4 3 3 4 1 5 2 6 34 8 35 9 99 10 36 11 98 12 37 13
REMARK SMILES IDX 38 14 39 15 92 16 40 17 97 18 91 19 93 20 41 21 96 22 90 23
REMARK SMILES IDX 89 24 42 26 76 27 55 28 75 29 56 30 59 31 74 32 94 33 57 34
REMARK SMILES IDX 58 35 73 37 95 38 60 39 43 40 44 41 53 42 45 43 46 44 52 45
REMARK SMILES IDX 54 46 47 47 48 48 49 49 50 50 51 51 77 52 78 53 87 54 79 55
REMARK SMILES IDX 80 56 86 57 88 58 81 59 82 60 83 61 84 62 85 63 61 64 62 65
REMARK SMILES IDX 71 66 63 67 64 68 70 69 72 70 65 71 66 72 67 73 68 74 69 75
REMARK SMILES IDX 7 76 8 77 9 78 10 80 11 81 12 82 31 83 28 84 30 85 32 86
REMARK SMILES IDX 29 87 33 88 13 89 14 90 15 91 16 93 17 94 27 95 18 96 26 97
REMARK SMILES IDX 19 98 20 99 21 100 22 101 25 102 23 103 24 104
REMARK H PARENT 3 7 93 25 59 36 8 79 15 92
REMARK Flexibility Score: inf
ROOT
ATOM      1  C   UNL A   1      31.575  27.782  27.289  1.00  0.00     0.023 C 
ENDROOT
BRANCH   1   2
ATOM      2  C   UNL A   1      31.947  29.218  26.906  1.00  0.00     0.023 C 
BRANCH   2   3
ATOM      3  C   UNL A   1      33.394  29.653  27.140  1.00  0.00     0.116 C 
BRANCH   3   4
ATOM      4  N   UNL A   1      33.600  30.820  27.975  1.00  0.00    -0.352 N 
ATOM      5  O   UNL A   1      34.502  32.576  28.975  1.00  0.00    -0.269 OA
ATOM      6  C   UNL A   1      34.703  31.475  28.456  1.00  0.00     0.251 C 
ATOM      7  H   UNL A   1      32.755  31.237  28.260  1.00  0.00     0.163 HD
BRANCH   6   8
ATOM      8  C   UNL A   1      36.083  30.923  28.471  1.00  0.00     0.039 A 
ATOM      9  C   UNL A   1      36.430  29.614  28.145  1.00  0.00     0.014 A 
ATOM     10  C   UNL A   1      37.098  31.801  28.900  1.00  0.00     0.014 A 
ATOM     11  C   UNL A   1      37.715  29.145  28.391  1.00  0.00     0.010 A 
ATOM     12  C   UNL A   1      38.396  31.350  29.108  1.00  0.00     0.010 A 
ATOM     13  C   UNL A   1      38.686  30.004  28.909  1.00  0.00    -0.014 A 
BRANCH  13  14
ATOM     14  C   UNL A   1      40.030  29.468  29.107  1.00  0.00     0.031 A 
ATOM     15  C   UNL A   1      40.465  29.380  30.533  1.00  0.00     0.074 A 
ATOM     16  C   UNL A   1      40.774  28.962  28.105  1.00  0.00     0.049 A 
ATOM     17  N   UNL A   1      41.483  29.933  31.110  1.00  0.00    -0.248 NA
ATOM     18  C   UNL A   1      39.572  28.665  31.462  1.00  0.00     0.031 C 
ATOM     19  C   UNL A   1      40.367  28.706  26.720  1.00  0.00     0.029 A 
ATOM     20  N   UNL A   1      42.039  28.459  28.148  1.00  0.00    -0.354 N 
ATOM     21  C   UNL A   1      41.473  29.477  32.429  1.00  0.00     0.074 A 
ATOM     22  C   UNL A   1      40.202  28.833  32.624  1.00  0.00     0.031 C 
ATOM     23  C   UNL A   1      41.273  27.891  26.134  1.00  0.00     0.029 A 
ATOM     24  C   UNL A   1      42.380  27.676  27.053  1.00  0.00     0.049 A 
ATOM     25  H   UNL A   1      42.660  28.635  28.892  1.00  0.00     0.167 HD
ATOM     26  C   UNL A   1      42.592  29.482  33.208  1.00  0.00     0.037 A 
ATOM     27  C   UNL A   1      43.448  26.846  26.949  1.00  0.00     0.037 A 
ATOM     28  C   UNL A   1      43.579  30.400  32.703  1.00  0.00     0.049 A 
ATOM     29  C   UNL A   1      44.441  27.271  27.972  1.00  0.00     0.074 A 
ATOM     30  C   UNL A   1      43.613  31.762  32.477  1.00  0.00     0.029 A 
ATOM     31  N   UNL A   1      44.658  29.887  32.026  1.00  0.00    -0.354 N 
ATOM     32  N   UNL A   1      45.079  28.409  27.945  1.00  0.00    -0.248 NA
ATOM     33  C   UNL A   1      44.398  26.611  29.268  1.00  0.00     0.031 C 
ATOM     34  C   UNL A   1      44.390  31.920  31.293  1.00  0.00     0.029 A 
ATOM     35  C   UNL A   1      44.820  30.652  30.899  1.00  0.00     0.049 A 
ATOM     36  H   UNL A   1      45.210  29.118  32.297  1.00  0.00     0.167 HD
ATOM     37  C   UNL A   1      45.155  28.806  29.273  1.00  0.00     0.074 A 
ATOM     38  C   UNL A   1      44.797  27.620  30.046  1.00  0.00     0.031 C 
ATOM     39  C   UNL A   1      45.236  30.125  29.619  1.00  0.00     0.037 A 
BRANCH  26  40
ATOM     40  C   UNL A   1      42.934  28.403  34.215  1.00  0.00     0.058 A 
ATOM     41  C   UNL A   1      43.211  28.767  35.551  1.00  0.00     0.135 A 
ATOM     42  C   UNL A   1      43.296  27.083  33.863  1.00  0.00     0.135 A 
ATOM     43  F   UNL A   1      42.899  29.991  36.008  1.00  0.00    -0.206 F 
ATOM     44  C   UNL A   1      43.894  27.926  36.431  1.00  0.00     0.059 A 
ATOM     45  C   UNL A   1      43.930  26.210  34.740  1.00  0.00     0.059 A 
ATOM     46  F   UNL A   1      43.148  26.604  32.623  1.00  0.00    -0.206 F 
ATOM     47  C   UNL A   1      44.274  26.658  36.004  1.00  0.00     0.060 A 
BRANCH  47  48
ATOM     48  S   UNL A   1      45.291  25.628  37.075  1.00  0.00     0.124 S 
ATOM     49  O   UNL A   1      45.684  24.562  36.161  1.00  0.00    -0.237 OA
ATOM     50  O   UNL A   1      46.346  26.553  37.474  1.00  0.00    -0.237 OA
ATOM     51  O   UNL A   1      44.371  25.240  38.140  1.00  0.00    -0.744 OA
ENDBRANCH  47  48
ENDBRANCH  26  40
BRANCH  27  52
ATOM     52  C   UNL A   1      43.490  25.509  26.296  1.00  0.00     0.058 A 
ATOM     53  C   UNL A   1      44.376  25.233  25.239  1.00  0.00     0.135 A 
ATOM     54  C   UNL A   1      42.853  24.392  26.876  1.00  0.00     0.135 A 
ATOM     55  F   UNL A   1      45.051  26.230  24.648  1.00  0.00    -0.206 F 
ATOM     56  C   UNL A   1      44.639  23.926  24.807  1.00  0.00     0.059 A 
ATOM     57  C   UNL A   1      43.088  23.086  26.454  1.00  0.00     0.059 A 
ATOM     58  F   UNL A   1      42.045  24.529  27.938  1.00  0.00    -0.206 F 
ATOM     59  C   UNL A   1      44.001  22.855  25.433  1.00  0.00     0.060 A 
BRANCH  59  60
ATOM     60  S   UNL A   1      44.449  21.161  24.990  1.00  0.00     0.124 S 
ATOM     61  O   UNL A   1      43.320  20.402  25.518  1.00  0.00    -0.237 OA
ATOM     62  O   UNL A   1      44.544  21.236  23.535  1.00  0.00    -0.237 OA
ATOM     63  O   UNL A   1      45.718  20.952  25.684  1.00  0.00    -0.744 OA
ENDBRANCH  59  60
ENDBRANCH  27  52
BRANCH  39  64
ATOM     64  C   UNL A   1      45.527  31.137  28.542  1.00  0.00     0.058 A 
ATOM     65  C   UNL A   1      44.548  31.702  27.707  1.00  0.00     0.135 A 
ATOM     66  C   UNL A   1      46.816  31.689  28.484  1.00  0.00     0.135 A 
ATOM     67  F   UNL A   1      43.270  31.304  27.773  1.00  0.00    -0.206 F 
ATOM     68  C   UNL A   1      44.844  32.750  26.833  1.00  0.00     0.059 A 
ATOM     69  C   UNL A   1      47.126  32.755  27.643  1.00  0.00     0.059 A 
ATOM     70  F   UNL A   1      47.780  31.234  29.303  1.00  0.00    -0.206 F 
ATOM     71  C   UNL A   1      46.135  33.276  26.814  1.00  0.00     0.060 A 
BRANCH  71  72
ATOM     72  S   UNL A   1      46.490  34.706  25.768  1.00  0.00     0.124 S 
ATOM     73  O   UNL A   1      45.535  34.529  24.675  1.00  0.00    -0.237 OA
ATOM     74  O   UNL A   1      46.217  35.829  26.666  1.00  0.00    -0.237 OA
ATOM     75  O   UNL A   1      47.889  34.532  25.411  1.00  0.00    -0.744 OA
ENDBRANCH  71  72
ENDBRANCH  39  64
ENDBRANCH  13  14
ENDBRANCH   6   8
ENDBRANCH   3   4
ENDBRANCH   2   3
ENDBRANCH   1   2
BRANCH   1  76
ATOM     76  C   UNL A   1      32.179  26.655  26.454  1.00  0.00     0.116 C 
BRANCH  76  77
ATOM     77  N   UNL A   1      31.691  25.341  26.819  1.00  0.00    -0.356 N 
ATOM     78  C   UNL A   1      32.246  24.109  26.734  1.00  0.00     0.224 C 
ATOM     79  H   UNL A   1      30.784  25.346  27.203  1.00  0.00     0.163 HD
ATOM     80  O   UNL A   1      31.573  23.195  27.225  1.00  0.00    -0.275 OA
BRANCH  78  81
ATOM     81  C   UNL A   1      33.537  23.769  25.991  1.00  0.00     0.098 C 
ATOM     82  C   UNL A   1      33.308  23.358  24.497  1.00  0.00     0.098 C 
ATOM     83  C   UNL A   1      34.734  22.943  26.556  1.00  0.00     0.025 C 
ATOM     84  C   UNL A   1      34.504  22.484  24.003  1.00  0.00     0.025 C 
ATOM     85  C   UNL A   1      34.673  21.481  26.171  1.00  0.00    -0.027 C 
ATOM     86  C   UNL A   1      36.006  23.452  25.812  1.00  0.00     0.009 C 
ATOM     87  C   UNL A   1      34.585  21.242  24.853  1.00  0.00    -0.027 C 
ATOM     88  C   UNL A   1      35.823  23.255  24.283  1.00  0.00     0.009 C 
BRANCH  82  89
ATOM     89  C   UNL A   1      31.953  22.864  23.922  1.00  0.00     0.228 C 
ATOM     90  O   UNL A   1      31.716  21.645  23.980  1.00  0.00    -0.274 OA
ATOM     91  N   UNL A   1      30.877  23.631  23.568  1.00  0.00    -0.326 N 
ATOM     92  H   UNL A   1      30.050  23.112  23.448  1.00  0.00     0.169 HD
BRANCH  91  93
ATOM     93  C   UNL A   1      30.711  24.997  23.343  1.00  0.00     0.041 A 
ATOM     94  C   UNL A   1      29.617  25.648  23.914  1.00  0.00     0.026 A 
ATOM     95  C   UNL A   1      31.572  25.727  22.542  1.00  0.00     0.026 A 
ATOM     96  C   UNL A   1      29.543  27.047  23.892  1.00  0.00     0.008 A 
ATOM     97  C   UNL A   1      31.510  27.118  22.518  1.00  0.00     0.008 A 
ATOM     98  C   UNL A   1      30.542  27.796  23.259  1.00  0.00    -0.026 A 
BRANCH  98  99
ATOM     99  C   UNL A   1      30.622  29.294  23.379  1.00  0.00     0.181 C 
BRANCH  99 100
ATOM    100  N   UNL A   1      29.471  29.946  22.798  1.00  0.00    -0.249 N 
ATOM    101  C   UNL A   1      28.676  30.888  23.369  1.00  0.00     0.220 A 
ATOM    102  N   UNL A   1      29.121  29.724  21.520  1.00  0.00    -0.160 NA
ATOM    103  N   UNL A   1      27.800  31.313  22.489  1.00  0.00    -0.224 NA
ATOM    104  C   UNL A   1      28.104  30.579  21.375  1.00  0.00     0.246 A 
ENDBRANCH  99 100
ENDBRANCH  98  99
ENDBRANCH  91  93
ENDBRANCH  82  89
ENDBRANCH  78  81
ENDBRANCH  76  77
ENDBRANCH   1  76
TORSDOF 18
ENDMDL
MODEL 2
REMARK VINA RESULT:     -13.2      3.027      9.497
REMARK SMILES O=C(NCCCCNC(=O)[C@@H]1[C@H](C(=O)Nc2ccc(Cn3cncn3)cc2)[C@@H]2C=C[C@H]1CC2)c1ccc(-c2c3nc(c(-c4c(F)cc(S(=O)(=O)[O-])cc4F)c4ccc([nH]4)c(-c4c(F)cc(S(=O)(=O)[O-])cc4F)c4nc(c(-c5c(F)cc(S(=O)(=O)[O-])cc5F)c5ccc2[nH]5)C=C4)C=C3)cc1
REMARK SMILES IDX 6 1 5 2 4 3 3 4 1 5 2 6 34 8 35 9 99 10 36 11 98 12 37 13
REMARK SMILES IDX 38 14 39 15 92 16 40 17 97 18 91 19 93 20 41 21 96 22 90 23
REMARK SMILES IDX 89 24 42 26 76 27 55 28 75 29 56 30 59 31 74 32 94 33 57 34
REMARK SMILES IDX 58 35 73 37 95 38 60 39 43 40 44 41 53 42 45 43 46 44 52 45
REMARK SMILES IDX 54 46 47 47 48 48 49 49 50 50 51 51 77 52 78 53 87 54 79 55
REMARK SMILES IDX 80 56 86 57 88 58 81 59 82 60 83 61 84 62 85 63 61 64 62 65
REMARK SMILES IDX 71 66 63 67 64 68 70 69 72 70 65 71 66 72 67 73 68 74 69 75
REMARK SMILES IDX 7 76 8 77 9 78 10 80 11 81 12 82 31 83 28 84 30 85 32 86
REMARK SMILES IDX 29 87 33 88 13 89 14 90 15 91 16 93 17 94 27 95 18 96 26 97
REMARK SMILES IDX 19 98 20 99 21 100 22 101 25 102 23 103 24 104
REMARK H PARENT 3 7 93 25 59 36 8 79 15 92
REMARK Flexibility Score: inf
ROOT
ATOM      1  C   UNL A   1      36.333  23.479  23.965  1.00  0.00     0.023 C 
ENDROOT
BRANCH   1   2
ATOM      2  C   UNL A   1      36.742  22.066  24.392  1.00  0.00     0.023 C 
BRANCH   2   3
ATOM      3  C   UNL A   1      37.581  21.936  25.665  1.00  0.00     0.116 C 
BRANCH   3   4
ATOM      4  N   UNL A   1      38.996  21.675  25.491  1.00  0.00    -0.352 N 
ATOM      5  O   UNL A   1      41.182  21.553  25.813  1.00  0.00    -0.269 OA
ATOM      6  C   UNL A   1      40.141  22.166  26.062  1.00  0.00     0.251 C 
ATOM      7  H   UNL A   1      39.175  20.988  24.809  1.00  0.00     0.163 HD
BRANCH   6   8
ATOM      8  C   UNL A   1      40.223  23.409  26.873  1.00  0.00     0.039 A 
ATOM      9  C   UNL A   1      39.360  24.497  26.768  1.00  0.00     0.014 A 
ATOM     10  C   UNL A   1      41.299  23.488  27.779  1.00  0.00     0.014 A 
ATOM     11  C   UNL A   1      39.649  25.689  27.423  1.00  0.00     0.010 A 
ATOM     12  C   UNL A   1      41.569  24.663  28.470  1.00  0.00     0.010 A 
ATOM     13  C   UNL A   1      40.775  25.782  28.242  1.00  0.00    -0.014 A 
BRANCH  13  14
ATOM     14  C   UNL A   1      41.004  27.045  28.939  1.00  0.00     0.031 A 
ATOM     15  C   UNL A   1      42.115  27.874  28.382  1.00  0.00     0.074 A 
ATOM     16  C   UNL A   1      40.199  27.501  29.918  1.00  0.00     0.049 A 
ATOM     17  N   UNL A   1      43.190  28.295  28.967  1.00  0.00    -0.248 NA
ATOM     18  C   UNL A   1      42.066  28.177  26.941  1.00  0.00     0.031 C 
ATOM     19  C   UNL A   1      38.915  26.949  30.360  1.00  0.00     0.029 A 
ATOM     20  N   UNL A   1      40.313  28.637  30.660  1.00  0.00    -0.354 N 
ATOM     21  C   UNL A   1      43.857  29.083  28.027  1.00  0.00     0.074 A 
ATOM     22  C   UNL A   1      43.203  28.847  26.767  1.00  0.00     0.031 C 
ATOM     23  C   UNL A   1      38.270  27.871  31.110  1.00  0.00     0.029 A 
ATOM     24  C   UNL A   1      39.145  29.016  31.307  1.00  0.00     0.049 A 
ATOM     25  H   UNL A   1      41.152  29.148  30.730  1.00  0.00     0.167 HD
ATOM     26  C   UNL A   1      44.770  30.028  28.388  1.00  0.00     0.037 A 
ATOM     27  C   UNL A   1      38.889  30.217  31.885  1.00  0.00     0.037 A 
ATOM     28  C   UNL A   1      45.280  29.787  29.712  1.00  0.00     0.049 A 
ATOM     29  C   UNL A   1      40.199  30.872  32.144  1.00  0.00     0.074 A 
ATOM     30  C   UNL A   1      45.970  28.752  30.314  1.00  0.00     0.029 A 
ATOM     31  N   UNL A   1      44.810  30.563  30.742  1.00  0.00    -0.354 N 
ATOM     32  N   UNL A   1      41.081  30.433  32.999  1.00  0.00    -0.248 NA
ATOM     33  C   UNL A   1      40.713  31.778  31.127  1.00  0.00     0.031 C 
ATOM     34  C   UNL A   1      45.455  28.688  31.641  1.00  0.00     0.029 A 
ATOM     35  C   UNL A   1      44.520  29.715  31.779  1.00  0.00     0.049 A 
ATOM     36  H   UNL A   1      44.702  31.543  30.737  1.00  0.00     0.167 HD
ATOM     37  C   UNL A   1      42.309  30.664  32.394  1.00  0.00     0.074 A 
ATOM     38  C   UNL A   1      42.022  31.570  31.286  1.00  0.00     0.031 C 
ATOM     39  C   UNL A   1      43.399  29.891  32.676  1.00  0.00     0.037 A 
BRANCH  26  40
ATOM     40  C   UNL A   1      44.937  31.362  27.690  1.00  0.00     0.058 A 
ATOM     41  C   UNL A   1      46.114  31.615  26.953  1.00  0.00     0.135 A 
ATOM     42  C   UNL A   1      44.141  32.498  27.962  1.00  0.00     0.135 A 
ATOM     43  F   UNL A   1      46.944  30.614  26.621  1.00  0.00    -0.206 F 
ATOM     44  C   UNL A   1      46.524  32.906  26.613  1.00  0.00     0.059 A 
ATOM     45  C   UNL A   1      44.503  33.787  27.587  1.00  0.00     0.059 A 
ATOM     46  F   UNL A   1      43.023  32.434  28.694  1.00  0.00    -0.206 F 
ATOM     47  C   UNL A   1      45.722  33.988  26.961  1.00  0.00     0.060 A 
BRANCH  47  48
ATOM     48  S   UNL A   1      46.315  35.663  26.668  1.00  0.00     0.124 S 
ATOM     49  O   UNL A   1      45.080  36.346  26.301  1.00  0.00    -0.237 OA
ATOM     50  O   UNL A   1      46.881  36.015  27.966  1.00  0.00    -0.237 OA
ATOM     51  O   UNL A   1      47.287  35.492  25.593  1.00  0.00    -0.744 OA
ENDBRANCH  47  48
ENDBRANCH  26  40
BRANCH  27  52
ATOM     52  C   UNL A   1      37.604  30.968  31.870  1.00  0.00     0.058 A 
ATOM     53  C   UNL A   1      36.982  31.387  33.061  1.00  0.00     0.135 A 
ATOM     54  C   UNL A   1      37.098  31.529  30.679  1.00  0.00     0.135 A 
ATOM     55  F   UNL A   1      37.416  30.931  34.244  1.00  0.00    -0.206 F 
ATOM     56  C   UNL A   1      35.945  32.329  33.070  1.00  0.00     0.059 A 
ATOM     57  C   UNL A   1      36.060  32.457  30.662  1.00  0.00     0.059 A 
ATOM     58  F   UNL A   1      37.663  31.259  29.492  1.00  0.00    -0.206 F 
ATOM     59  C   UNL A   1      35.501  32.872  31.863  1.00  0.00     0.060 A 
BRANCH  59  60
ATOM     60  S   UNL A   1      34.274  34.200  31.876  1.00  0.00     0.124 S 
ATOM     61  O   UNL A   1      33.803  34.189  30.494  1.00  0.00    -0.237 OA
ATOM     62  O   UNL A   1      33.322  33.733  32.878  1.00  0.00    -0.237 OA
ATOM     63  O   UNL A   1      35.051  35.376  32.258  1.00  0.00    -0.744 OA
ENDBRANCH  59  60
ENDBRANCH  27  52
BRANCH  39  64
ATOM     64  C   UNL A   1      43.339  28.960  33.859  1.00  0.00     0.058 A 
ATOM     65  C   UNL A   1      43.580  29.357  35.186  1.00  0.00     0.135 A 
ATOM     66  C   UNL A   1      42.836  27.666  33.658  1.00  0.00     0.135 A 
ATOM     67  F   UNL A   1      43.961  30.609  35.474  1.00  0.00    -0.206 F 
ATOM     68  C   UNL A   1      43.356  28.495  36.262  1.00  0.00     0.059 A 
ATOM     69  C   UNL A   1      42.577  26.801  34.718  1.00  0.00     0.059 A 
ATOM     70  F   UNL A   1      42.527  27.250  32.418  1.00  0.00    -0.206 F 
ATOM     71  C   UNL A   1      42.847  27.221  36.018  1.00  0.00     0.060 A 
BRANCH  71  72
ATOM     72  S   UNL A   1      42.450  26.147  37.416  1.00  0.00     0.124 S 
ATOM     73  O   UNL A   1      42.718  24.819  36.866  1.00  0.00    -0.237 OA
ATOM     74  O   UNL A   1      43.390  26.604  38.441  1.00  0.00    -0.237 OA
ATOM     75  O   UNL A   1      41.053  26.440  37.690  1.00  0.00    -0.744 OA
ENDBRANCH  71  72
ENDBRANCH  39  64
ENDBRANCH  13  14
ENDBRANCH   6   8
ENDBRANCH   3   4
ENDBRANCH   2   3
ENDBRANCH   1   2
BRANCH   1  76
ATOM     76  C   UNL A   1      34.847  23.829  24.028  1.00  0.00     0.116 C 
BRANCH  76  77
ATOM     77  N   UNL A   1      34.398  24.642  22.917  1.00  0.00    -0.356 N 
ATOM     78  C   UNL A   1      33.836  25.873  22.859  1.00  0.00     0.224 C 
ATOM     79  H   UNL A   1      34.527  24.219  22.037  1.00  0.00     0.163 HD
ATOM     80  O   UNL A   1      33.652  26.312  21.718  1.00  0.00    -0.275 OA
BRANCH  78  81
ATOM     81  C   UNL A   1      33.322  26.668  24.057  1.00  0.00     0.098 C 
ATOM     82  C   UNL A   1      31.842  26.329  24.444  1.00  0.00     0.098 C 
ATOM     83  C   UNL A   1      33.573  28.183  24.333  1.00  0.00     0.025 C 
ATOM     84  C   UNL A   1      31.213  27.528  25.219  1.00  0.00     0.025 C 
ATOM     85  C   UNL A   1      32.441  29.063  23.850  1.00  0.00    -0.027 C 
ATOM     86  C   UNL A   1      33.523  28.360  25.881  1.00  0.00     0.009 C 
ATOM     87  C   UNL A   1      31.228  28.746  24.331  1.00  0.00    -0.027 C 
ATOM     88  C   UNL A   1      32.143  27.884  26.411  1.00  0.00     0.009 C 
BRANCH  82  89
ATOM     89  C   UNL A   1      30.820  25.655  23.488  1.00  0.00     0.228 C 
ATOM     90  O   UNL A   1      30.139  26.400  22.761  1.00  0.00    -0.274 OA
ATOM     91  N   UNL A   1      30.735  24.328  23.172  1.00  0.00    -0.326 N 
ATOM     92  H   UNL A   1      30.176  24.149  22.382  1.00  0.00     0.169 HD
BRANCH  91  93
ATOM     93  C   UNL A   1      31.278  23.174  23.739  1.00  0.00     0.041 A 
ATOM     94  C   UNL A   1      31.780  22.181  22.898  1.00  0.00     0.026 A 
ATOM     95  C   UNL A   1      31.304  22.961  25.105  1.00  0.00     0.026 A 
ATOM     96  C   UNL A   1      32.525  21.120  23.430  1.00  0.00     0.008 A 
ATOM     97  C   UNL A   1      32.048  21.914  25.645  1.00  0.00     0.008 A 
ATOM     98  C   UNL A   1      32.733  21.030  24.812  1.00  0.00    -0.026 A 
BRANCH  98  99
ATOM     99  C   UNL A   1      33.688  20.037  25.417  1.00  0.00     0.181 C 
BRANCH  99 100
ATOM    100  N   UNL A   1      33.370  18.679  25.039  1.00  0.00    -0.249 N 
ATOM    101  C   UNL A   1      34.034  17.888  24.157  1.00  0.00     0.220 A 
ATOM    102  N   UNL A   1      32.372  18.009  25.639  1.00  0.00    -0.160 NA
ATOM    103  N   UNL A   1      33.505  16.687  24.162  1.00  0.00    -0.224 NA
ATOM    104  C   UNL A   1      32.494  16.802  25.077  1.00  0.00     0.246 A 
ENDBRANCH  99 100
ENDBRANCH  98  99
ENDBRANCH  91  93
ENDBRANCH  82  89
ENDBRANCH  78  81
ENDBRANCH  76  77
ENDBRANCH   1  76
TORSDOF 18
ENDMDL
MODEL 3
REMARK VINA RESULT:     -12.7      1.875      4.286
REMARK SMILES O=C(NCCCCNC(=O)[C@@H]1[C@H](C(=O)Nc2ccc(Cn3cncn3)cc2)[C@@H]2C=C[C@H]1CC2)c1ccc(-c2c3nc(c(-c4c(F)cc(S(=O)(=O)[O-])cc4F)c4ccc([nH]4)c(-c4c(F)cc(S(=O)(=O)[O-])cc4F)c4nc(c(-c5c(F)cc(S(=O)(=O)[O-])cc5F)c5ccc2[nH]5)C=C4)C=C3)cc1
REMARK SMILES IDX 6 1 5 2 4 3 3 4 1 5 2 6 34 8 35 9 99 10 36 11 98 12 37 13
REMARK SMILES IDX 38 14 39 15 92 16 40 17 97 18 91 19 93 20 41 21 96 22 90 23
REMARK SMILES IDX 89 24 42 26 76 27 55 28 75 29 56 30 59 31 74 32 94 33 57 34
REMARK SMILES IDX 58 35 73 37 95 38 60 39 43 40 44 41 53 42 45 43 46 44 52 45
REMARK SMILES IDX 54 46 47 47 48 48 49 49 50 50 51 51 77 52 78 53 87 54 79 55
REMARK SMILES IDX 80 56 86 57 88 58 81 59 82 60 83 61 84 62 85 63 61 64 62 65
REMARK SMILES IDX 71 66 63 67 64 68 70 69 72 70 65 71 66 72 67 73 68 74 69 75
REMARK SMILES IDX 7 76 8 77 9 78 10 80 11 81 12 82 31 83 28 84 30 85 32 86
REMARK SMILES IDX 29 87 33 88 13 89 14 90 15 91 16 93 17 94 27 95 18 96 26 97
REMARK SMILES IDX 19 98 20 99 21 100 22 101 25 102 23 103 24 104
REMARK H PARENT 3 7 93 25 59 36 8 79 15 92
REMARK Flexibility Score: inf
ROOT
ATOM      1  C   UNL A   1      33.944  28.671  24.457  1.00  0.00     0.023 C 
ENDROOT
BRANCH   1   2
ATOM      2  C   UNL A   1      33.283  29.685  25.396  1.00  0.00     0.023 C 
BRANCH   2   3
ATOM      3  C   UNL A   1      33.419  29.439  26.899  1.00  0.00     0.116 C 
BRANCH   3   4
ATOM      4  N   UNL A   1      33.588  30.608  27.740  1.00  0.00    -0.352 N 
ATOM      5  O   UNL A   1      34.441  32.374  28.765  1.00  0.00    -0.269 OA
ATOM      6  C   UNL A   1      34.670  31.276  28.250  1.00  0.00     0.251 C 
ATOM      7  H   UNL A   1      32.731  31.014  28.004  1.00  0.00     0.163 HD
BRANCH   6   8
ATOM      8  C   UNL A   1      36.056  30.742  28.299  1.00  0.00     0.039 A 
ATOM      9  C   UNL A   1      36.425  29.431  28.007  1.00  0.00     0.014 A 
ATOM     10  C   UNL A   1      37.053  31.642  28.724  1.00  0.00     0.014 A 
ATOM     11  C   UNL A   1      37.711  28.984  28.284  1.00  0.00     0.010 A 
ATOM     12  C   UNL A   1      38.353  31.212  28.962  1.00  0.00     0.010 A 
ATOM     13  C   UNL A   1      38.662  29.867  28.799  1.00  0.00    -0.014 A 
BRANCH  13  14
ATOM     14  C   UNL A   1      40.010  29.352  29.030  1.00  0.00     0.031 A 
ATOM     15  C   UNL A   1      40.413  29.275  30.465  1.00  0.00     0.074 A 
ATOM     16  C   UNL A   1      40.785  28.854  28.046  1.00  0.00     0.049 A 
ATOM     17  N   UNL A   1      41.409  29.847  31.064  1.00  0.00    -0.248 NA
ATOM     18  C   UNL A   1      39.510  28.550  31.376  1.00  0.00     0.031 C 
ATOM     19  C   UNL A   1      40.414  28.587  26.654  1.00  0.00     0.029 A 
ATOM     20  N   UNL A   1      42.056  28.371  28.120  1.00  0.00    -0.354 N 
ATOM     21  C   UNL A   1      41.376  29.394  32.384  1.00  0.00     0.074 A 
ATOM     22  C   UNL A   1      40.110  28.731  32.551  1.00  0.00     0.031 C 
ATOM     23  C   UNL A   1      41.346  27.784  26.092  1.00  0.00     0.029 A 
ATOM     24  C   UNL A   1      42.434  27.590  27.037  1.00  0.00     0.049 A 
ATOM     25  H   UNL A   1      42.657  28.559  28.878  1.00  0.00     0.167 HD
ATOM     26  C   UNL A   1      42.475  29.419  33.188  1.00  0.00     0.037 A 
ATOM     27  C   UNL A   1      43.517  26.776  26.961  1.00  0.00     0.037 A 
ATOM     28  C   UNL A   1      43.460  30.351  32.703  1.00  0.00     0.049 A 
ATOM     29  C   UNL A   1      44.479  27.220  28.005  1.00  0.00     0.074 A 
ATOM     30  C   UNL A   1      43.478  31.713  32.472  1.00  0.00     0.029 A 
ATOM     31  N   UNL A   1      44.562  29.853  32.053  1.00  0.00    -0.354 N 
ATOM     32  N   UNL A   1      45.100  28.367  27.989  1.00  0.00    -0.248 NA
ATOM     33  C   UNL A   1      44.417  26.563  29.302  1.00  0.00     0.031 C 
ATOM     34  C   UNL A   1      44.280  31.879  31.307  1.00  0.00     0.029 A 
ATOM     35  C   UNL A   1      44.738  30.616  30.927  1.00  0.00     0.049 A 
ATOM     36  H   UNL A   1      45.119  29.093  32.339  1.00  0.00     0.167 HD
ATOM     37  C   UNL A   1      45.140  28.770  29.316  1.00  0.00     0.074 A 
ATOM     38  C   UNL A   1      44.782  27.581  30.085  1.00  0.00     0.031 C 
ATOM     39  C   UNL A   1      45.192  30.091  29.659  1.00  0.00     0.037 A 
BRANCH  26  40
ATOM     40  C   UNL A   1      42.811  28.350  34.207  1.00  0.00     0.058 A 
ATOM     41  C   UNL A   1      42.977  28.712  35.562  1.00  0.00     0.135 A 
ATOM     42  C   UNL A   1      43.270  27.057  33.869  1.00  0.00     0.135 A 
ATOM     43  F   UNL A   1      42.567  29.910  36.007  1.00  0.00    -0.206 F 
ATOM     44  C   UNL A   1      43.647  27.900  36.479  1.00  0.00     0.059 A 
ATOM     45  C   UNL A   1      43.893  26.210  34.779  1.00  0.00     0.059 A 
ATOM     46  F   UNL A   1      43.232  26.585  32.618  1.00  0.00    -0.206 F 
ATOM     47  C   UNL A   1      44.126  26.661  36.068  1.00  0.00     0.060 A 
BRANCH  47  48
ATOM     48  S   UNL A   1      45.127  25.677  37.196  1.00  0.00     0.124 S 
ATOM     49  O   UNL A   1      45.185  24.401  36.491  1.00  0.00    -0.237 OA
ATOM     50  O   UNL A   1      46.369  26.440  37.244  1.00  0.00    -0.237 OA
ATOM     51  O   UNL A   1      44.346  25.683  38.430  1.00  0.00    -0.744 OA
ENDBRANCH  47  48
ENDBRANCH  26  40
BRANCH  27  52
ATOM     52  C   UNL A   1      43.595  25.438  26.314  1.00  0.00     0.058 A 
ATOM     53  C   UNL A   1      44.520  25.168  25.288  1.00  0.00     0.135 A 
ATOM     54  C   UNL A   1      42.950  24.316  26.875  1.00  0.00     0.135 A 
ATOM     55  F   UNL A   1      45.204  26.170  24.717  1.00  0.00    -0.206 F 
ATOM     56  C   UNL A   1      44.810  23.863  24.870  1.00  0.00     0.059 A 
ATOM     57  C   UNL A   1      43.213  23.011  26.466  1.00  0.00     0.059 A 
ATOM     58  F   UNL A   1      42.105  24.447  27.908  1.00  0.00    -0.206 F 
ATOM     59  C   UNL A   1      44.162  22.787  25.477  1.00  0.00     0.060 A 
BRANCH  59  60
ATOM     60  S   UNL A   1      44.642  21.096  25.055  1.00  0.00     0.124 S 
ATOM     61  O   UNL A   1      44.534  21.106  23.600  1.00  0.00    -0.237 OA
ATOM     62  O   UNL A   1      45.996  21.015  25.594  1.00  0.00    -0.237 OA
ATOM     63  O   UNL A   1      43.649  20.278  25.747  1.00  0.00    -0.744 OA
ENDBRANCH  59  60
ENDBRANCH  27  52
BRANCH  39  64
ATOM     64  C   UNL A   1      45.492  31.104  28.586  1.00  0.00     0.058 A 
ATOM     65  C   UNL A   1      44.526  31.644  27.719  1.00  0.00     0.135 A 
ATOM     66  C   UNL A   1      46.770  31.684  28.561  1.00  0.00     0.135 A 
ATOM     67  F   UNL A   1      43.256  31.219  27.751  1.00  0.00    -0.206 F 
ATOM     68  C   UNL A   1      44.825  32.694  26.849  1.00  0.00     0.059 A 
ATOM     69  C   UNL A   1      47.081  32.752  27.724  1.00  0.00     0.059 A 
ATOM     70  F   UNL A   1      47.719  31.254  29.410  1.00  0.00    -0.206 F 
ATOM     71  C   UNL A   1      46.104  33.248  26.864  1.00  0.00     0.060 A 
BRANCH  71  72
ATOM     72  S   UNL A   1      46.458  34.679  25.821  1.00  0.00     0.124 S 
ATOM     73  O   UNL A   1      45.478  34.525  24.747  1.00  0.00    -0.237 OA
ATOM     74  O   UNL A   1      46.222  35.800  26.732  1.00  0.00    -0.237 OA
ATOM     75  O   UNL A   1      47.846  34.487  25.432  1.00  0.00    -0.744 OA
ENDBRANCH  71  72
ENDBRANCH  39  64
ENDBRANCH  13  14
ENDBRANCH   6   8
ENDBRANCH   3   4
ENDBRANCH   2   3
ENDBRANCH   1   2
BRANCH   1  76
ATOM     76  C   UNL A   1      33.901  28.969  22.960  1.00  0.00     0.116 C 
BRANCH  76  77
ATOM     77  N   UNL A   1      32.625  28.664  22.347  1.00  0.00    -0.356 N 
ATOM     78  C   UNL A   1      31.580  27.904  22.751  1.00  0.00     0.224 C 
ATOM     79  H   UNL A   1      32.492  29.092  21.470  1.00  0.00     0.163 HD
ATOM     80  O   UNL A   1      30.592  27.931  22.008  1.00  0.00    -0.275 OA
BRANCH  78  81
ATOM     81  C   UNL A   1      31.586  26.957  23.950  1.00  0.00     0.098 C 
ATOM     82  C   UNL A   1      32.386  25.633  23.696  1.00  0.00     0.098 C 
ATOM     83  C   UNL A   1      30.372  26.634  24.875  1.00  0.00     0.025 C 
ATOM     84  C   UNL A   1      31.872  24.516  24.657  1.00  0.00     0.025 C 
ATOM     85  C   UNL A   1      29.643  25.372  24.468  1.00  0.00    -0.027 C 
ATOM     86  C   UNL A   1      30.969  26.265  26.267  1.00  0.00     0.009 C 
ATOM     87  C   UNL A   1      30.409  24.273  24.386  1.00  0.00    -0.027 C 
ATOM     88  C   UNL A   1      31.931  25.055  26.112  1.00  0.00     0.009 C 
BRANCH  82  89
ATOM     89  C   UNL A   1      32.730  25.074  22.288  1.00  0.00     0.228 C 
ATOM     90  O   UNL A   1      32.795  25.887  21.350  1.00  0.00    -0.274 OA
ATOM     91  N   UNL A   1      33.204  23.827  21.988  1.00  0.00    -0.326 N 
ATOM     92  H   UNL A   1      33.571  23.758  21.077  1.00  0.00     0.169 HD
BRANCH  91  93
ATOM     93  C   UNL A   1      33.274  22.634  22.706  1.00  0.00     0.041 A 
ATOM     94  C   UNL A   1      34.343  22.434  23.581  1.00  0.00     0.026 A 
ATOM     95  C   UNL A   1      32.342  21.622  22.558  1.00  0.00     0.026 A 
ATOM     96  C   UNL A   1      34.327  21.354  24.474  1.00  0.00     0.008 A 
ATOM     97  C   UNL A   1      32.314  20.549  23.445  1.00  0.00     0.008 A 
ATOM     98  C   UNL A   1      33.261  20.447  24.464  1.00  0.00    -0.026 A 
BRANCH  98  99
ATOM     99  C   UNL A   1      33.090  19.396  25.526  1.00  0.00     0.181 C 
BRANCH  99 100
ATOM    100  N   UNL A   1      33.311  18.064  25.012  1.00  0.00    -0.249 N 
ATOM    101  C   UNL A   1      34.396  17.607  24.334  1.00  0.00     0.220 A 
ATOM    102  N   UNL A   1      32.438  17.073  25.259  1.00  0.00    -0.160 NA
ATOM    103  N   UNL A   1      34.272  16.317  24.129  1.00  0.00    -0.224 NA
ATOM    104  C   UNL A   1      33.065  16.029  24.706  1.00  0.00     0.246 A 
ENDBRANCH  99 100
ENDBRANCH  98  99
ENDBRANCH  91  93
ENDBRANCH  82  89
ENDBRANCH  78  81
ENDBRANCH  76  77
ENDBRANCH   1  76
TORSDOF 18
ENDMDL
