MODEL 1
REMARK VINA RESULT:     -13.3      0.000      0.000
REMARK SMILES Cc1ccccc1CCNc1ccc(C(=O)NCCCCNC(=O)c2ccc(-c3c4nc(c(-c5c(F)cc(S(=O)(=O)[O-])cc5F)c5ccc([nH]5)c(-c5c(F)cc(S(=O)(=O)[O-])cc5F)c5nc(c(-c6c(F)cc(S(=O)(=O)[O-])cc6F)c6ccc3[nH]6)C=C5)C=C4)cc2)cc1N
REMARK SMILES IDX 19 1 18 2 17 3 15 4 16 5 14 7 11 8 12 9 92 10 13 11 91 12
REMARK SMILES IDX 10 13 9 15 8 16 7 17 1 18 2 19 3 20 4 21 6 22 5 23 93 24
REMARK SMILES IDX 20 27 21 28 22 29 23 30 24 32 25 33 26 34 90 35 27 36 89 37
REMARK SMILES IDX 28 38 29 39 30 40 83 41 31 42 88 43 82 44 84 45 32 46 87 47
REMARK SMILES IDX 81 48 80 49 33 51 67 52 46 53 66 54 47 55 50 56 65 57 85 58
REMARK SMILES IDX 48 59 49 60 64 62 86 63 51 64 34 65 35 66 44 67 36 68 37 69
REMARK SMILES IDX 43 70 45 71 38 72 39 73 40 74 41 75 42 76 68 77 69 78 78 79
REMARK SMILES IDX 70 80 71 81 77 82 79 83 72 84 73 85 74 86 75 87 76 88 52 89
REMARK SMILES IDX 53 90 62 91 54 92 55 93 61 94 63 95 56 96 57 97 58 98 59 99
REMARK SMILES IDX 60 100
REMARK H PARENT 17 6 10 14 93 25 93 26 22 31 84 50 50 61
REMARK Flexibility Score: inf
ROOT
ATOM      1  C   UNL A   1      37.076  20.970  25.112  1.00  0.00     0.023 C 
ENDROOT
BRANCH   1   2
ATOM      2  C   UNL A   1      35.603  21.050  25.520  1.00  0.00     0.116 C 
BRANCH   2   3
ATOM      3  N   UNL A   1      34.793  19.952  25.003  1.00  0.00    -0.352 N 
ATOM      4  C   UNL A   1      33.489  19.876  24.578  1.00  0.00     0.251 C 
ATOM      5  O   UNL A   1      33.023  18.770  24.297  1.00  0.00    -0.269 OA
ATOM      6  H   UNL A   1      35.277  19.095  24.948  1.00  0.00     0.163 HD
BRANCH   4   7
ATOM      7  C   UNL A   1      32.607  21.066  24.480  1.00  0.00     0.041 A 
ATOM      8  C   UNL A   1      30.991  23.384  24.453  1.00  0.00     0.057 A 
ATOM      9  C   UNL A   1      31.763  23.028  23.346  1.00  0.00     0.029 A 
ATOM     10  C   UNL A   1      30.911  22.462  25.526  1.00  0.00     0.056 A 
ATOM     11  C   UNL A   1      32.521  21.856  23.338  1.00  0.00     0.016 A 
ATOM     12  C   UNL A   1      31.768  21.357  25.563  1.00  0.00     0.041 A 
BRANCH   8  13
ATOM     13  N   UNL A   1      30.243  24.548  24.505  1.00  0.00    -0.383 N 
ATOM     14  H   UNL A   1      29.264  24.455  24.440  1.00  0.00     0.160 HD
BRANCH  13  15
ATOM     15  C   UNL A   1      30.771  25.896  24.647  1.00  0.00     0.117 C 
BRANCH  15  16
ATOM     16  C   UNL A   1      30.904  26.253  26.137  1.00  0.00     0.057 C 
BRANCH  16  17
ATOM     17  C   UNL A   1      31.969  27.305  26.378  1.00  0.00    -0.043 A 
ATOM     18  C   UNL A   1      33.888  25.839  25.494  1.00  0.00     0.044 C 
ATOM     19  C   UNL A   1      33.340  27.087  26.134  1.00  0.00    -0.048 A 
ATOM     20  C   UNL A   1      34.258  28.105  26.448  1.00  0.00     0.004 A 
ATOM     21  C   UNL A   1      33.839  29.307  27.018  1.00  0.00     0.000 A 
ATOM     22  C   UNL A   1      31.563  28.536  26.929  1.00  0.00     0.004 A 
ATOM     23  C   UNL A   1      32.489  29.523  27.257  1.00  0.00     0.000 A 
ENDBRANCH  16  17
ENDBRANCH  15  16
ENDBRANCH  13  15
ENDBRANCH   8  13
BRANCH  10  24
ATOM     24  N   UNL A   1      30.060  22.718  26.615  1.00  0.00    -0.397 N 
ATOM     25  H   UNL A   1      29.369  22.063  26.864  1.00  0.00     0.156 HD
ATOM     26  H   UNL A   1      30.156  23.551  27.129  1.00  0.00     0.156 HD
ENDBRANCH  10  24
ENDBRANCH   4   7
ENDBRANCH   2   3
ENDBRANCH   1   2
BRANCH   1  27
ATOM     27  C   UNL A   1      37.762  22.308  24.857  1.00  0.00     0.023 C 
BRANCH  27  28
ATOM     28  C   UNL A   1      37.977  23.159  26.104  1.00  0.00     0.116 C 
BRANCH  28  29
ATOM     29  N   UNL A   1      39.157  22.820  26.884  1.00  0.00    -0.352 N 
ATOM     30  C   UNL A   1      40.024  23.681  27.546  1.00  0.00     0.251 C 
ATOM     31  H   UNL A   1      39.367  21.861  26.952  1.00  0.00     0.163 HD
ATOM     32  O   UNL A   1      41.091  23.289  27.980  1.00  0.00    -0.269 OA
BRANCH  30  33
ATOM     33  C   UNL A   1      39.579  25.079  27.777  1.00  0.00     0.039 A 
ATOM     34  C   UNL A   1      39.995  26.062  26.871  1.00  0.00     0.014 A 
ATOM     35  C   UNL A   1      38.968  25.437  28.974  1.00  0.00     0.014 A 
ATOM     36  C   UNL A   1      39.993  27.401  27.262  1.00  0.00     0.010 A 
ATOM     37  C   UNL A   1      39.062  26.746  29.400  1.00  0.00     0.010 A 
ATOM     38  C   UNL A   1      39.623  27.724  28.566  1.00  0.00    -0.014 A 
BRANCH  38  39
ATOM     39  C   UNL A   1      39.876  29.014  29.203  1.00  0.00     0.031 A 
ATOM     40  C   UNL A   1      38.887  30.113  29.082  1.00  0.00     0.074 A 
ATOM     41  C   UNL A   1      40.932  29.150  30.036  1.00  0.00     0.049 A 
ATOM     42  N   UNL A   1      39.081  31.320  29.495  1.00  0.00    -0.248 NA
ATOM     43  C   UNL A   1      37.608  29.955  28.394  1.00  0.00     0.031 C 
ATOM     44  C   UNL A   1      41.101  30.149  31.089  1.00  0.00     0.029 A 
ATOM     45  N   UNL A   1      42.172  28.519  29.964  1.00  0.00    -0.354 N 
ATOM     46  C   UNL A   1      37.888  31.999  29.410  1.00  0.00     0.074 A 
ATOM     47  C   UNL A   1      37.050  31.152  28.602  1.00  0.00     0.031 C 
ATOM     48  C   UNL A   1      42.399  30.231  31.414  1.00  0.00     0.029 A 
ATOM     49  C   UNL A   1      43.135  29.413  30.467  1.00  0.00     0.049 A 
ATOM     50  H   UNL A   1      42.345  27.612  29.623  1.00  0.00     0.167 HD
ATOM     51  C   UNL A   1      37.727  33.133  30.151  1.00  0.00     0.037 A 
ATOM     52  C   UNL A   1      44.143  29.888  29.675  1.00  0.00     0.037 A 
ATOM     53  C   UNL A   1      39.029  33.624  30.616  1.00  0.00     0.049 A 
ATOM     54  C   UNL A   1      44.106  31.382  29.446  1.00  0.00     0.074 A 
ATOM     55  C   UNL A   1      39.676  33.611  31.840  1.00  0.00     0.029 A 
ATOM     56  N   UNL A   1      39.984  34.000  29.672  1.00  0.00    -0.354 N 
ATOM     57  N   UNL A   1      43.082  32.141  29.723  1.00  0.00    -0.248 NA
ATOM     58  C   UNL A   1      45.215  32.140  28.874  1.00  0.00     0.031 C 
ATOM     59  C   UNL A   1      41.053  33.877  31.606  1.00  0.00     0.029 A 
ATOM     60  C   UNL A   1      41.235  34.095  30.250  1.00  0.00     0.049 A 
ATOM     61  H   UNL A   1      39.791  34.176  28.722  1.00  0.00     0.167 HD
ATOM     62  C   UNL A   1      43.341  33.430  29.340  1.00  0.00     0.074 A 
ATOM     63  C   UNL A   1      44.706  33.385  28.848  1.00  0.00     0.031 C 
ATOM     64  C   UNL A   1      42.405  34.421  29.442  1.00  0.00     0.037 A 
BRANCH  51  65
ATOM     65  C   UNL A   1      36.392  33.691  30.645  1.00  0.00     0.058 A 
ATOM     66  C   UNL A   1      35.462  34.236  29.725  1.00  0.00     0.135 A 
ATOM     67  C   UNL A   1      36.013  33.850  31.997  1.00  0.00     0.135 A 
ATOM     68  F   UNL A   1      35.665  34.158  28.402  1.00  0.00    -0.206 F 
ATOM     69  C   UNL A   1      34.299  34.916  30.116  1.00  0.00     0.059 A 
ATOM     70  C   UNL A   1      34.844  34.499  32.409  1.00  0.00     0.059 A 
ATOM     71  F   UNL A   1      36.766  33.430  33.015  1.00  0.00    -0.206 F 
ATOM     72  C   UNL A   1      34.003  35.054  31.464  1.00  0.00     0.060 A 
BRANCH  72  73
ATOM     73  S   UNL A   1      32.541  35.973  31.977  1.00  0.00     0.124 S 
ATOM     74  O   UNL A   1      32.041  36.483  30.705  1.00  0.00    -0.237 OA
ATOM     75  O   UNL A   1      31.730  34.941  32.613  1.00  0.00    -0.237 OA
ATOM     76  O   UNL A   1      33.076  36.987  32.885  1.00  0.00    -0.744 OA
ENDBRANCH  72  73
ENDBRANCH  51  65
BRANCH  52  77
ATOM     77  C   UNL A   1      44.663  28.870  28.724  1.00  0.00     0.058 A 
ATOM     78  C   UNL A   1      44.200  28.947  27.397  1.00  0.00     0.135 A 
ATOM     79  C   UNL A   1      45.889  28.227  28.951  1.00  0.00     0.135 A 
ATOM     80  F   UNL A   1      43.019  29.528  27.132  1.00  0.00    -0.206 F 
ATOM     81  C   UNL A   1      45.006  28.588  26.325  1.00  0.00     0.059 A 
ATOM     82  C   UNL A   1      46.712  27.850  27.888  1.00  0.00     0.059 A 
ATOM     83  F   UNL A   1      46.375  28.118  30.197  1.00  0.00    -0.206 F 
ATOM     84  C   UNL A   1      46.292  28.119  26.584  1.00  0.00     0.060 A 
BRANCH  84  85
ATOM     85  S   UNL A   1      47.467  28.102  25.209  1.00  0.00     0.124 S 
ATOM     86  O   UNL A   1      47.656  26.673  24.984  1.00  0.00    -0.237 OA
ATOM     87  O   UNL A   1      46.706  28.809  24.179  1.00  0.00    -0.237 OA
ATOM     88  O   UNL A   1      48.619  28.816  25.745  1.00  0.00    -0.744 OA
ENDBRANCH  84  85
ENDBRANCH  52  77
BRANCH  64  89
ATOM     89  C   UNL A   1      42.533  35.812  28.859  1.00  0.00     0.058 A 
ATOM     90  C   UNL A   1      41.869  36.247  27.698  1.00  0.00     0.135 A 
ATOM     91  C   UNL A   1      43.254  36.812  29.554  1.00  0.00     0.135 A 
ATOM     92  F   UNL A   1      41.052  35.432  27.015  1.00  0.00    -0.206 F 
ATOM     93  C   UNL A   1      41.980  37.553  27.213  1.00  0.00     0.059 A 
ATOM     94  C   UNL A   1      43.331  38.135  29.120  1.00  0.00     0.059 A 
ATOM     95  F   UNL A   1      43.906  36.538  30.695  1.00  0.00    -0.206 F 
ATOM     96  C   UNL A   1      42.716  38.490  27.930  1.00  0.00     0.060 A 
BRANCH  96  97
ATOM     97  S   UNL A   1      42.827  40.192  27.343  1.00  0.00     0.124 S 
ATOM     98  O   UNL A   1      43.855  40.078  26.314  1.00  0.00    -0.237 OA
ATOM     99  O   UNL A   1      41.477  40.460  26.856  1.00  0.00    -0.237 OA
ATOM    100  O   UNL A   1      43.210  40.930  28.543  1.00  0.00    -0.744 OA
ENDBRANCH  96  97
ENDBRANCH  64  89
ENDBRANCH  38  39
ENDBRANCH  30  33
ENDBRANCH  28  29
ENDBRANCH  27  28
ENDBRANCH   1  27
TORSDOF 19
ENDMDL
MODEL 2
REMARK VINA RESULT:     -13.3      4.874     11.322
REMARK SMILES Cc1ccccc1CCNc1ccc(C(=O)NCCCCNC(=O)c2ccc(-c3c4nc(c(-c5c(F)cc(S(=O)(=O)[O-])cc5F)c5ccc([nH]5)c(-c5c(F)cc(S(=O)(=O)[O-])cc5F)c5nc(c(-c6c(F)cc(S(=O)(=O)[O-])cc6F)c6ccc3[nH]6)C=C5)C=C4)cc2)cc1N
REMARK SMILES IDX 19 1 18 2 17 3 15 4 16 5 14 7 11 8 12 9 92 10 13 11 91 12
REMARK SMILES IDX 10 13 9 15 8 16 7 17 1 18 2 19 3 20 4 21 6 22 5 23 93 24
REMARK SMILES IDX 20 27 21 28 22 29 23 30 24 32 25 33 26 34 90 35 27 36 89 37
REMARK SMILES IDX 28 38 29 39 30 40 83 41 31 42 88 43 82 44 84 45 32 46 87 47
REMARK SMILES IDX 81 48 80 49 33 51 67 52 46 53 66 54 47 55 50 56 65 57 85 58
REMARK SMILES IDX 48 59 49 60 64 62 86 63 51 64 34 65 35 66 44 67 36 68 37 69
REMARK SMILES IDX 43 70 45 71 38 72 39 73 40 74 41 75 42 76 68 77 69 78 78 79
REMARK SMILES IDX 70 80 71 81 77 82 79 83 72 84 73 85 74 86 75 87 76 88 52 89
REMARK SMILES IDX 53 90 62 91 54 92 55 93 61 94 63 95 56 96 57 97 58 98 59 99
REMARK SMILES IDX 60 100
REMARK H PARENT 17 6 10 14 93 25 93 26 22 31 84 50 50 61
REMARK Flexibility Score: inf
ROOT
ATOM      1  C   UNL A   1      32.078  30.377  26.416  1.00  0.00     0.023 C 
ENDROOT
BRANCH   1   2
ATOM      2  C   UNL A   1      32.130  29.551  25.129  1.00  0.00     0.116 C 
BRANCH   2   3
ATOM      3  N   UNL A   1      30.966  29.738  24.267  1.00  0.00    -0.352 N 
ATOM      4  C   UNL A   1      30.330  28.914  23.372  1.00  0.00     0.251 C 
ATOM      5  O   UNL A   1      29.422  29.383  22.682  1.00  0.00    -0.269 OA
ATOM      6  H   UNL A   1      30.558  30.631  24.343  1.00  0.00     0.163 HD
BRANCH   4   7
ATOM      7  C   UNL A   1      30.714  27.494  23.173  1.00  0.00     0.041 A 
ATOM      8  C   UNL A   1      31.275  24.747  22.826  1.00  0.00     0.057 A 
ATOM      9  C   UNL A   1      31.721  25.697  21.906  1.00  0.00     0.029 A 
ATOM     10  C   UNL A   1      30.680  25.215  24.023  1.00  0.00     0.056 A 
ATOM     11  C   UNL A   1      31.489  27.060  22.103  1.00  0.00     0.016 A 
ATOM     12  C   UNL A   1      30.340  26.566  24.153  1.00  0.00     0.041 A 
BRANCH   8  13
ATOM     13  N   UNL A   1      31.468  23.386  22.654  1.00  0.00    -0.383 N 
ATOM     14  H   UNL A   1      30.671  22.809  22.718  1.00  0.00     0.160 HD
BRANCH  13  15
ATOM     15  C   UNL A   1      32.739  22.731  22.388  1.00  0.00     0.117 C 
BRANCH  15  16
ATOM     16  C   UNL A   1      33.850  23.383  23.227  1.00  0.00     0.057 C 
BRANCH  16  17
ATOM     17  C   UNL A   1      33.877  22.855  24.648  1.00  0.00    -0.043 A 
ATOM     18  C   UNL A   1      33.974  25.192  25.717  1.00  0.00     0.044 C 
ATOM     19  C   UNL A   1      33.990  23.688  25.780  1.00  0.00    -0.048 A 
ATOM     20  C   UNL A   1      34.067  23.097  27.054  1.00  0.00     0.004 A 
ATOM     21  C   UNL A   1      34.062  21.712  27.211  1.00  0.00     0.000 A 
ATOM     22  C   UNL A   1      33.845  21.459  24.830  1.00  0.00     0.004 A 
ATOM     23  C   UNL A   1      33.948  20.891  26.097  1.00  0.00     0.000 A 
ENDBRANCH  16  17
ENDBRANCH  15  16
ENDBRANCH  13  15
ENDBRANCH   8  13
BRANCH  10  24
ATOM     24  N   UNL A   1      30.315  24.307  25.033  1.00  0.00    -0.397 N 
ATOM     25  H   UNL A   1      29.380  24.259  25.336  1.00  0.00     0.156 HD
ATOM     26  H   UNL A   1      30.994  23.721  25.436  1.00  0.00     0.156 HD
ENDBRANCH  10  24
ENDBRANCH   4   7
ENDBRANCH   2   3
ENDBRANCH   1   2
BRANCH   1  27
ATOM     27  C   UNL A   1      33.068  29.966  27.502  1.00  0.00     0.023 C 
BRANCH  27  28
ATOM     28  C   UNL A   1      34.528  29.970  27.063  1.00  0.00     0.116 C 
BRANCH  28  29
ATOM     29  N   UNL A   1      35.283  31.152  27.446  1.00  0.00    -0.352 N 
ATOM     30  C   UNL A   1      36.508  31.214  28.100  1.00  0.00     0.251 C 
ATOM     31  H   UNL A   1      34.875  32.017  27.213  1.00  0.00     0.163 HD
ATOM     32  O   UNL A   1      36.928  32.263  28.553  1.00  0.00    -0.269 OA
BRANCH  30  33
ATOM     33  C   UNL A   1      37.328  29.978  28.164  1.00  0.00     0.039 A 
ATOM     34  C   UNL A   1      37.318  29.241  29.354  1.00  0.00     0.014 A 
ATOM     35  C   UNL A   1      38.251  29.690  27.164  1.00  0.00     0.014 A 
ATOM     36  C   UNL A   1      38.368  28.363  29.628  1.00  0.00     0.010 A 
ATOM     37  C   UNL A   1      39.341  28.904  27.477  1.00  0.00     0.010 A 
ATOM     38  C   UNL A   1      39.429  28.280  28.729  1.00  0.00    -0.014 A 
BRANCH  38  39
ATOM     39  C   UNL A   1      40.720  27.665  29.028  1.00  0.00     0.031 A 
ATOM     40  C   UNL A   1      40.968  26.243  28.686  1.00  0.00     0.074 A 
ATOM     41  C   UNL A   1      41.740  28.436  29.467  1.00  0.00     0.049 A 
ATOM     42  N   UNL A   1      42.022  25.581  29.028  1.00  0.00    -0.248 NA
ATOM     43  C   UNL A   1      39.987  25.414  27.989  1.00  0.00     0.031 C 
ATOM     44  C   UNL A   1      43.168  28.140  29.385  1.00  0.00     0.029 A 
ATOM     45  N   UNL A   1      41.675  29.578  30.265  1.00  0.00    -0.354 N 
ATOM     46  C   UNL A   1      42.004  24.376  28.365  1.00  0.00     0.074 A 
ATOM     47  C   UNL A   1      40.666  24.272  27.845  1.00  0.00     0.031 C 
ATOM     48  C   UNL A   1      43.829  28.911  30.261  1.00  0.00     0.029 A 
ATOM     49  C   UNL A   1      42.837  29.610  31.057  1.00  0.00     0.049 A 
ATOM     50  H   UNL A   1      40.948  30.241  30.274  1.00  0.00     0.167 HD
ATOM     51  C   UNL A   1      43.174  23.686  28.233  1.00  0.00     0.037 A 
ATOM     52  C   UNL A   1      42.767  29.536  32.421  1.00  0.00     0.037 A 
ATOM     53  C   UNL A   1      44.174  24.199  29.176  1.00  0.00     0.049 A 
ATOM     54  C   UNL A   1      43.417  28.306  33.013  1.00  0.00     0.074 A 
ATOM     55  C   UNL A   1      45.301  24.992  29.040  1.00  0.00     0.029 A 
ATOM     56  N   UNL A   1      43.916  24.116  30.544  1.00  0.00    -0.354 N 
ATOM     57  N   UNL A   1      43.774  27.260  32.321  1.00  0.00    -0.248 NA
ATOM     58  C   UNL A   1      43.705  28.150  34.437  1.00  0.00     0.031 C 
ATOM     59  C   UNL A   1      45.651  25.474  30.331  1.00  0.00     0.029 A 
ATOM     60  C   UNL A   1      44.767  24.940  31.255  1.00  0.00     0.049 A 
ATOM     61  H   UNL A   1      43.220  23.548  30.948  1.00  0.00     0.167 HD
ATOM     62  C   UNL A   1      44.271  26.296  33.158  1.00  0.00     0.074 A 
ATOM     63  C   UNL A   1      44.242  26.917  34.469  1.00  0.00     0.031 C 
ATOM     64  C   UNL A   1      44.647  25.062  32.704  1.00  0.00     0.037 A 
BRANCH  51  65
ATOM     65  C   UNL A   1      43.501  22.695  27.116  1.00  0.00     0.058 A 
ATOM     66  C   UNL A   1      42.823  21.452  27.044  1.00  0.00     0.135 A 
ATOM     67  C   UNL A   1      44.545  22.827  26.173  1.00  0.00     0.135 A 
ATOM     68  F   UNL A   1      41.798  21.170  27.860  1.00  0.00    -0.206 F 
ATOM     69  C   UNL A   1      43.184  20.427  26.157  1.00  0.00     0.059 A 
ATOM     70  C   UNL A   1      44.903  21.830  25.260  1.00  0.00     0.059 A 
ATOM     71  F   UNL A   1      45.320  23.909  26.098  1.00  0.00    -0.206 F 
ATOM     72  C   UNL A   1      44.236  20.619  25.274  1.00  0.00     0.060 A 
BRANCH  72  73
ATOM     73  S   UNL A   1      44.743  19.290  24.169  1.00  0.00     0.124 S 
ATOM     74  O   UNL A   1      46.159  19.154  24.490  1.00  0.00    -0.237 OA
ATOM     75  O   UNL A   1      43.884  18.189  24.591  1.00  0.00    -0.237 OA
ATOM     76  O   UNL A   1      44.457  19.824  22.839  1.00  0.00    -0.744 OA
ENDBRANCH  72  73
ENDBRANCH  51  65
BRANCH  52  77
ATOM     77  C   UNL A   1      41.599  30.265  32.983  1.00  0.00     0.058 A 
ATOM     78  C   UNL A   1      41.722  31.662  33.102  1.00  0.00     0.135 A 
ATOM     79  C   UNL A   1      40.305  29.728  32.908  1.00  0.00     0.135 A 
ATOM     80  F   UNL A   1      42.938  32.222  33.205  1.00  0.00    -0.206 F 
ATOM     81  C   UNL A   1      40.628  32.503  32.948  1.00  0.00     0.059 A 
ATOM     82  C   UNL A   1      39.190  30.555  32.761  1.00  0.00     0.059 A 
ATOM     83  F   UNL A   1      40.128  28.402  32.801  1.00  0.00    -0.206 F 
ATOM     84  C   UNL A   1      39.381  31.937  32.694  1.00  0.00     0.060 A 
BRANCH  84  85
ATOM     85  S   UNL A   1      38.088  33.022  32.045  1.00  0.00     0.124 S 
ATOM     86  O   UNL A   1      37.879  33.947  33.154  1.00  0.00    -0.237 OA
ATOM     87  O   UNL A   1      38.754  33.582  30.870  1.00  0.00    -0.237 OA
ATOM     88  O   UNL A   1      36.989  32.104  31.771  1.00  0.00    -0.744 OA
ENDBRANCH  84  85
ENDBRANCH  52  77
BRANCH  64  89
ATOM     89  C   UNL A   1      45.009  23.880  33.576  1.00  0.00     0.058 A 
ATOM     90  C   UNL A   1      44.128  22.830  33.890  1.00  0.00     0.135 A 
ATOM     91  C   UNL A   1      46.340  23.708  34.026  1.00  0.00     0.135 A 
ATOM     92  F   UNL A   1      42.872  22.807  33.418  1.00  0.00    -0.206 F 
ATOM     93  C   UNL A   1      44.512  21.732  34.665  1.00  0.00     0.059 A 
ATOM     94  C   UNL A   1      46.759  22.594  34.752  1.00  0.00     0.059 A 
ATOM     95  F   UNL A   1      47.288  24.620  33.765  1.00  0.00    -0.206 F 
ATOM     96  C   UNL A   1      45.829  21.624  35.095  1.00  0.00     0.060 A 
BRANCH  96  97
ATOM     97  S   UNL A   1      46.352  20.189  36.054  1.00  0.00     0.124 S 
ATOM     98  O   UNL A   1      45.835  20.520  37.378  1.00  0.00    -0.237 OA
ATOM     99  O   UNL A   1      45.684  19.081  35.377  1.00  0.00    -0.237 OA
ATOM    100  O   UNL A   1      47.805  20.212  35.916  1.00  0.00    -0.744 OA
ENDBRANCH  96  97
ENDBRANCH  64  89
ENDBRANCH  38  39
ENDBRANCH  30  33
ENDBRANCH  28  29
ENDBRANCH  27  28
ENDBRANCH   1  27
TORSDOF 19
ENDMDL
MODEL 3
REMARK VINA RESULT:     -13.1      1.279      2.236
REMARK SMILES Cc1ccccc1CCNc1ccc(C(=O)NCCCCNC(=O)c2ccc(-c3c4nc(c(-c5c(F)cc(S(=O)(=O)[O-])cc5F)c5ccc([nH]5)c(-c5c(F)cc(S(=O)(=O)[O-])cc5F)c5nc(c(-c6c(F)cc(S(=O)(=O)[O-])cc6F)c6ccc3[nH]6)C=C5)C=C4)cc2)cc1N
REMARK SMILES IDX 19 1 18 2 17 3 15 4 16 5 14 7 11 8 12 9 92 10 13 11 91 12
REMARK SMILES IDX 10 13 9 15 8 16 7 17 1 18 2 19 3 20 4 21 6 22 5 23 93 24
REMARK SMILES IDX 20 27 21 28 22 29 23 30 24 32 25 33 26 34 90 35 27 36 89 37
REMARK SMILES IDX 28 38 29 39 30 40 83 41 31 42 88 43 82 44 84 45 32 46 87 47
REMARK SMILES IDX 81 48 80 49 33 51 67 52 46 53 66 54 47 55 50 56 65 57 85 58
REMARK SMILES IDX 48 59 49 60 64 62 86 63 51 64 34 65 35 66 44 67 36 68 37 69
REMARK SMILES IDX 43 70 45 71 38 72 39 73 40 74 41 75 42 76 68 77 69 78 78 79
REMARK SMILES IDX 70 80 71 81 77 82 79 83 72 84 73 85 74 86 75 87 76 88 52 89
REMARK SMILES IDX 53 90 62 91 54 92 55 93 61 94 63 95 56 96 57 97 58 98 59 99
REMARK SMILES IDX 60 100
REMARK H PARENT 17 6 10 14 93 25 93 26 22 31 84 50 50 61
REMARK Flexibility Score: inf
ROOT
ATOM      1  C   UNL A   1      37.209  21.165  25.156  1.00  0.00     0.023 C 
ENDROOT
BRANCH   1   2
ATOM      2  C   UNL A   1      35.755  21.127  25.632  1.00  0.00     0.116 C 
BRANCH   2   3
ATOM      3  N   UNL A   1      34.964  20.068  25.011  1.00  0.00    -0.352 N 
ATOM      4  C   UNL A   1      33.666  20.014  24.568  1.00  0.00     0.251 C 
ATOM      5  O   UNL A   1      33.218  18.931  24.185  1.00  0.00    -0.269 OA
ATOM      6  H   UNL A   1      35.461  19.226  24.886  1.00  0.00     0.163 HD
BRANCH   4   7
ATOM      7  C   UNL A   1      32.768  21.196  24.567  1.00  0.00     0.041 A 
ATOM      8  C   UNL A   1      31.100  23.471  24.738  1.00  0.00     0.057 A 
ATOM      9  C   UNL A   1      32.021  23.327  23.699  1.00  0.00     0.029 A 
ATOM     10  C   UNL A   1      30.908  22.369  25.608  1.00  0.00     0.056 A 
ATOM     11  C   UNL A   1      32.809  22.180  23.584  1.00  0.00     0.016 A 
ATOM     12  C   UNL A   1      31.786  21.280  25.562  1.00  0.00     0.041 A 
BRANCH   8  13
ATOM     13  N   UNL A   1      30.317  24.601  24.897  1.00  0.00    -0.383 N 
ATOM     14  H   UNL A   1      29.388  24.553  24.571  1.00  0.00     0.160 HD
BRANCH  13  15
ATOM     15  C   UNL A   1      30.740  25.855  25.502  1.00  0.00     0.117 C 
BRANCH  15  16
ATOM     16  C   UNL A   1      31.473  26.718  24.462  1.00  0.00     0.057 C 
BRANCH  16  17
ATOM     17  C   UNL A   1      30.636  27.897  24.008  1.00  0.00    -0.043 A 
ATOM     18  C   UNL A   1      32.137  29.647  25.148  1.00  0.00     0.044 C 
ATOM     19  C   UNL A   1      30.915  29.230  24.373  1.00  0.00    -0.048 A 
ATOM     20  C   UNL A   1      30.043  30.248  23.949  1.00  0.00     0.004 A 
ATOM     21  C   UNL A   1      28.901  29.960  23.203  1.00  0.00     0.000 A 
ATOM     22  C   UNL A   1      29.493  27.630  23.230  1.00  0.00     0.004 A 
ATOM     23  C   UNL A   1      28.627  28.648  22.841  1.00  0.00     0.000 A 
ENDBRANCH  16  17
ENDBRANCH  15  16
ENDBRANCH  13  15
ENDBRANCH   8  13
BRANCH  10  24
ATOM     24  N   UNL A   1      29.914  22.418  26.601  1.00  0.00    -0.397 N 
ATOM     25  H   UNL A   1      30.170  22.431  27.552  1.00  0.00     0.156 HD
ATOM     26  H   UNL A   1      28.965  22.438  26.347  1.00  0.00     0.156 HD
ENDBRANCH  10  24
ENDBRANCH   4   7
ENDBRANCH   2   3
ENDBRANCH   1   2
BRANCH   1  27
ATOM     27  C   UNL A   1      37.780  22.555  24.896  1.00  0.00     0.023 C 
BRANCH  27  28
ATOM     28  C   UNL A   1      37.996  23.397  26.147  1.00  0.00     0.116 C 
BRANCH  28  29
ATOM     29  N   UNL A   1      39.185  23.064  26.916  1.00  0.00    -0.352 N 
ATOM     30  C   UNL A   1      40.085  23.932  27.524  1.00  0.00     0.251 C 
ATOM     31  H   UNL A   1      39.376  22.104  27.018  1.00  0.00     0.163 HD
ATOM     32  O   UNL A   1      41.152  23.533  27.951  1.00  0.00    -0.269 OA
BRANCH  30  33
ATOM     33  C   UNL A   1      39.675  25.347  27.706  1.00  0.00     0.039 A 
ATOM     34  C   UNL A   1      40.193  26.302  26.823  1.00  0.00     0.014 A 
ATOM     35  C   UNL A   1      38.991  25.742  28.851  1.00  0.00     0.014 A 
ATOM     36  C   UNL A   1      40.210  27.646  27.199  1.00  0.00     0.010 A 
ATOM     37  C   UNL A   1      39.101  27.052  29.269  1.00  0.00     0.010 A 
ATOM     38  C   UNL A   1      39.758  27.998  28.468  1.00  0.00    -0.014 A 
BRANCH  38  39
ATOM     39  C   UNL A   1      40.010  29.287  29.109  1.00  0.00     0.031 A 
ATOM     40  C   UNL A   1      38.995  30.367  29.040  1.00  0.00     0.074 A 
ATOM     41  C   UNL A   1      41.096  29.437  29.900  1.00  0.00     0.049 A 
ATOM     42  N   UNL A   1      39.181  31.573  29.458  1.00  0.00    -0.248 NA
ATOM     43  C   UNL A   1      37.692  30.189  28.403  1.00  0.00     0.031 C 
ATOM     44  C   UNL A   1      41.287  30.428  30.956  1.00  0.00     0.029 A 
ATOM     45  N   UNL A   1      42.345  28.832  29.771  1.00  0.00    -0.354 N 
ATOM     46  C   UNL A   1      37.971  32.228  29.430  1.00  0.00     0.074 A 
ATOM     47  C   UNL A   1      37.119  31.371  28.647  1.00  0.00     0.031 C 
ATOM     48  C   UNL A   1      42.595  30.534  31.229  1.00  0.00     0.029 A 
ATOM     49  C   UNL A   1      43.308  29.741  30.245  1.00  0.00     0.049 A 
ATOM     50  H   UNL A   1      42.522  27.933  29.413  1.00  0.00     0.167 HD
ATOM     51  C   UNL A   1      37.817  33.351  30.189  1.00  0.00     0.037 A 
ATOM     52  C   UNL A   1      44.274  30.246  29.417  1.00  0.00     0.037 A 
ATOM     53  C   UNL A   1      39.127  33.863  30.607  1.00  0.00     0.049 A 
ATOM     54  C   UNL A   1      44.196  31.741  29.206  1.00  0.00     0.074 A 
ATOM     55  C   UNL A   1      39.824  33.852  31.803  1.00  0.00     0.029 A 
ATOM     56  N   UNL A   1      40.035  34.270  29.629  1.00  0.00    -0.354 N 
ATOM     57  N   UNL A   1      43.169  32.475  29.534  1.00  0.00    -0.248 NA
ATOM     58  C   UNL A   1      45.266  32.528  28.598  1.00  0.00     0.031 C 
ATOM     59  C   UNL A   1      41.184  34.149  31.516  1.00  0.00     0.029 A 
ATOM     60  C   UNL A   1      41.306  34.384  30.156  1.00  0.00     0.049 A 
ATOM     61  H   UNL A   1      39.800  34.451  28.689  1.00  0.00     0.167 HD
ATOM     62  C   UNL A   1      43.387  33.773  29.154  1.00  0.00     0.074 A 
ATOM     63  C   UNL A   1      44.731  33.762  28.607  1.00  0.00     0.031 C 
ATOM     64  C   UNL A   1      42.436  34.744  29.305  1.00  0.00     0.037 A 
BRANCH  51  65
ATOM     65  C   UNL A   1      36.493  33.875  30.743  1.00  0.00     0.058 A 
ATOM     66  C   UNL A   1      35.471  34.306  29.861  1.00  0.00     0.135 A 
ATOM     67  C   UNL A   1      36.203  34.113  32.106  1.00  0.00     0.135 A 
ATOM     68  F   UNL A   1      35.582  34.143  28.535  1.00  0.00    -0.206 F 
ATOM     69  C   UNL A   1      34.303  34.953  30.291  1.00  0.00     0.059 A 
ATOM     70  C   UNL A   1      35.033  34.730  32.559  1.00  0.00     0.059 A 
ATOM     71  F   UNL A   1      37.049  33.806  33.090  1.00  0.00    -0.206 F 
ATOM     72  C   UNL A   1      34.096  35.173  31.644  1.00  0.00     0.060 A 
BRANCH  72  73
ATOM     73  S   UNL A   1      32.627  36.053  32.203  1.00  0.00     0.124 S 
ATOM     74  O   UNL A   1      33.157  36.868  33.290  1.00  0.00    -0.237 OA
ATOM     75  O   UNL A   1      32.220  36.776  31.003  1.00  0.00    -0.237 OA
ATOM     76  O   UNL A   1      31.723  34.980  32.615  1.00  0.00    -0.744 OA
ENDBRANCH  72  73
ENDBRANCH  51  65
BRANCH  52  77
ATOM     77  C   UNL A   1      44.776  29.248  28.435  1.00  0.00     0.058 A 
ATOM     78  C   UNL A   1      45.692  28.292  28.914  1.00  0.00     0.135 A 
ATOM     79  C   UNL A   1      44.035  28.925  27.288  1.00  0.00     0.135 A 
ATOM     80  F   UNL A   1      46.443  28.565  29.993  1.00  0.00    -0.206 F 
ATOM     81  C   UNL A   1      45.725  27.001  28.406  1.00  0.00     0.059 A 
ATOM     82  C   UNL A   1      44.060  27.635  26.755  1.00  0.00     0.059 A 
ATOM     83  F   UNL A   1      43.154  29.802  26.783  1.00  0.00    -0.206 F 
ATOM     84  C   UNL A   1      44.843  26.663  27.381  1.00  0.00     0.060 A 
BRANCH  84  85
ATOM     85  S   UNL A   1      44.573  24.904  27.058  1.00  0.00     0.124 S 
ATOM     86  O   UNL A   1      44.298  24.385  28.394  1.00  0.00    -0.237 OA
ATOM     87  O   UNL A   1      43.427  24.957  26.151  1.00  0.00    -0.237 OA
ATOM     88  O   UNL A   1      45.833  24.478  26.461  1.00  0.00    -0.744 OA
ENDBRANCH  84  85
ENDBRANCH  52  77
BRANCH  64  89
ATOM     89  C   UNL A   1      42.511  36.142  28.733  1.00  0.00     0.058 A 
ATOM     90  C   UNL A   1      43.016  37.255  29.429  1.00  0.00     0.135 A 
ATOM     91  C   UNL A   1      42.183  36.376  27.376  1.00  0.00     0.135 A 
ATOM     92  F   UNL A   1      43.480  37.143  30.683  1.00  0.00    -0.206 F 
ATOM     93  C   UNL A   1      43.108  38.525  28.852  1.00  0.00     0.059 A 
ATOM     94  C   UNL A   1      42.321  37.621  26.763  1.00  0.00     0.059 A 
ATOM     95  F   UNL A   1      41.722  35.391  26.590  1.00  0.00    -0.206 F 
ATOM     96  C   UNL A   1      42.756  38.699  27.519  1.00  0.00     0.060 A 
BRANCH  96  97
ATOM     97  S   UNL A   1      42.916  40.321  26.746  1.00  0.00     0.124 S 
ATOM     98  O   UNL A   1      43.259  41.156  27.892  1.00  0.00    -0.237 OA
ATOM     99  O   UNL A   1      43.986  40.116  25.774  1.00  0.00    -0.237 OA
ATOM    100  O   UNL A   1      41.593  40.544  26.172  1.00  0.00    -0.744 OA
ENDBRANCH  96  97
ENDBRANCH  64  89
ENDBRANCH  38  39
ENDBRANCH  30  33
ENDBRANCH  28  29
ENDBRANCH  27  28
ENDBRANCH   1  27
TORSDOF 19
ENDMDL
