MODEL 1
REMARK VINA RESULT:     -11.2      0.000      0.000
REMARK SMILES C[C@H](CN(C)C(=O)c1ccc(F)c(F)c1F)C(=O)NCCCCNC(=O)c1ccc(-c2c3nc(c(-c4c(F)cc(S(=O)(=O)[O-])cc4F)c4ccc([nH]4)c(-c4c(F)cc(S(=O)(=O)[O-])cc4F)c4nc(c(-c5c(F)cc(S(=O)(=O)[O-])cc5F)c5ccc2[nH]5)C=C4)C=C3)cc1
REMARK SMILES IDX 21 1 20 2 19 3 17 4 18 5 2 7 1 8 3 9 4 10 5 11 6 12 7 13
REMARK SMILES IDX 8 14 9 15 15 16 10 17 13 18 16 19 11 20 14 21 12 22 22 23
REMARK SMILES IDX 23 24 24 25 25 26 26 28 27 29 28 30 92 31 29 32 91 33 30 34
REMARK SMILES IDX 31 35 32 36 85 37 33 38 90 39 84 40 86 41 34 42 89 43 83 44
REMARK SMILES IDX 82 45 35 47 69 48 48 49 68 50 49 51 52 52 67 53 87 54 50 55
REMARK SMILES IDX 51 56 66 58 88 59 53 60 36 61 37 62 46 63 38 64 39 65 45 66
REMARK SMILES IDX 47 67 40 68 41 69 42 70 43 71 44 72 70 73 71 74 80 75 72 76
REMARK SMILES IDX 73 77 79 78 81 79 74 80 75 81 76 82 77 83 78 84 54 85 55 86
REMARK SMILES IDX 64 87 56 88 57 89 63 90 65 91 58 92 59 93 60 94 61 95 62 96
REMARK H PARENT 19 6 24 27 86 46 52 57
REMARK Flexibility Score: inf
ROOT
ATOM      1  C   UNL A   1      31.690  28.016  27.273  1.00  0.00     0.023 C 
ENDROOT
BRANCH   1   2
ATOM      2  C   UNL A   1      31.093  27.123  26.186  1.00  0.00     0.116 C 
BRANCH   2   3
ATOM      3  N   UNL A   1      30.621  25.871  26.740  1.00  0.00    -0.356 N 
ATOM      4  C   UNL A   1      30.539  24.638  26.173  1.00  0.00     0.224 C 
ATOM      5  O   UNL A   1      30.026  23.733  26.839  1.00  0.00    -0.275 OA
ATOM      6  H   UNL A   1      30.313  25.920  27.675  1.00  0.00     0.163 HD
BRANCH   4   7
ATOM      7  C   UNL A   1      31.084  24.342  24.775  1.00  0.00     0.095 C 
ATOM      8  C   UNL A   1      30.244  25.021  23.692  1.00  0.00     0.020 C 
BRANCH   7   9
ATOM      9  C   UNL A   1      31.493  22.858  24.604  1.00  0.00     0.132 C 
BRANCH   9  10
ATOM     10  N   UNL A   1      32.928  22.578  24.446  1.00  0.00    -0.341 N 
ATOM     11  C   UNL A   1      33.555  22.943  23.183  1.00  0.00     0.147 C 
BRANCH  10  12
ATOM     12  C   UNL A   1      33.716  22.447  25.590  1.00  0.00     0.256 C 
ATOM     13  O   UNL A   1      33.237  22.344  26.717  1.00  0.00    -0.269 OA
BRANCH  12  14
ATOM     14  C   UNL A   1      35.195  22.353  25.464  1.00  0.00     0.079 A 
ATOM     15  C   UNL A   1      35.975  23.434  25.905  1.00  0.00     0.020 A 
ATOM     16  C   UNL A   1      35.832  21.165  25.097  1.00  0.00     0.174 A 
ATOM     17  C   UNL A   1      37.370  23.331  25.930  1.00  0.00     0.043 A 
ATOM     18  C   UNL A   1      37.218  21.067  25.118  1.00  0.00     0.195 A 
ATOM     19  F   UNL A   1      35.129  20.075  24.758  1.00  0.00    -0.203 F 
ATOM     20  C   UNL A   1      37.983  22.149  25.525  1.00  0.00     0.161 A 
ATOM     21  F   UNL A   1      37.807  19.920  24.753  1.00  0.00    -0.200 F 
ATOM     22  F   UNL A   1      39.320  22.064  25.531  1.00  0.00    -0.204 F 
ENDBRANCH  12  14
ENDBRANCH  10  12
ENDBRANCH   9  10
ENDBRANCH   7   9
ENDBRANCH   4   7
ENDBRANCH   2   3
ENDBRANCH   1   2
BRANCH   1  23
ATOM     23  C   UNL A   1      33.203  28.196  27.208  1.00  0.00     0.023 C 
BRANCH  23  24
ATOM     24  C   UNL A   1      33.664  29.534  26.635  1.00  0.00     0.116 C 
BRANCH  24  25
ATOM     25  N   UNL A   1      33.687  30.633  27.595  1.00  0.00    -0.352 N 
ATOM     26  C   UNL A   1      34.684  30.999  28.475  1.00  0.00     0.251 C 
ATOM     27  H   UNL A   1      32.876  31.190  27.619  1.00  0.00     0.163 HD
ATOM     28  O   UNL A   1      34.511  31.937  29.239  1.00  0.00    -0.269 OA
BRANCH  26  29
ATOM     29  C   UNL A   1      35.919  30.185  28.542  1.00  0.00     0.039 A 
ATOM     30  C   UNL A   1      36.798  30.221  27.456  1.00  0.00     0.014 A 
ATOM     31  C   UNL A   1      36.269  29.506  29.709  1.00  0.00     0.014 A 
ATOM     32  C   UNL A   1      38.085  29.698  27.596  1.00  0.00     0.010 A 
ATOM     33  C   UNL A   1      37.579  29.071  29.879  1.00  0.00     0.010 A 
ATOM     34  C   UNL A   1      38.510  29.195  28.837  1.00  0.00    -0.014 A 
BRANCH  34  35
ATOM     35  C   UNL A   1      39.937  28.866  29.090  1.00  0.00     0.031 A 
ATOM     36  C   UNL A   1      40.866  29.900  29.659  1.00  0.00     0.074 A 
ATOM     37  C   UNL A   1      40.413  27.664  28.703  1.00  0.00     0.049 A 
ATOM     38  N   UNL A   1      42.158  29.833  29.849  1.00  0.00    -0.248 NA
ATOM     39  C   UNL A   1      40.272  31.198  30.022  1.00  0.00     0.031 C 
ATOM     40  C   UNL A   1      39.629  26.606  28.060  1.00  0.00     0.029 A 
ATOM     41  N   UNL A   1      41.676  27.132  28.782  1.00  0.00    -0.354 N 
ATOM     42  C   UNL A   1      42.536  31.083  30.323  1.00  0.00     0.074 A 
ATOM     43  C   UNL A   1      41.344  31.903  30.349  1.00  0.00     0.031 C 
ATOM     44  C   UNL A   1      40.416  25.541  27.840  1.00  0.00     0.029 A 
ATOM     45  C   UNL A   1      41.769  25.851  28.289  1.00  0.00     0.049 A 
ATOM     46  H   UNL A   1      42.444  27.621  29.155  1.00  0.00     0.167 HD
ATOM     47  C   UNL A   1      43.761  31.503  30.720  1.00  0.00     0.037 A 
ATOM     48  C   UNL A   1      42.824  25.016  28.212  1.00  0.00     0.037 A 
ATOM     49  C   UNL A   1      44.930  30.666  30.741  1.00  0.00     0.049 A 
ATOM     50  C   UNL A   1      44.158  25.481  28.727  1.00  0.00     0.074 A 
ATOM     51  C   UNL A   1      46.201  30.969  31.197  1.00  0.00     0.029 A 
ATOM     52  N   UNL A   1      44.968  29.352  30.295  1.00  0.00    -0.354 N 
ATOM     53  N   UNL A   1      44.483  26.646  29.232  1.00  0.00    -0.248 NA
ATOM     54  C   UNL A   1      45.266  24.519  28.665  1.00  0.00     0.031 C 
ATOM     55  C   UNL A   1      47.013  29.845  31.009  1.00  0.00     0.029 A 
ATOM     56  C   UNL A   1      46.241  28.832  30.462  1.00  0.00     0.049 A 
ATOM     57  H   UNL A   1      44.203  28.862  29.916  1.00  0.00     0.167 HD
ATOM     58  C   UNL A   1      45.827  26.551  29.569  1.00  0.00     0.074 A 
ATOM     59  C   UNL A   1      46.252  25.211  29.219  1.00  0.00     0.031 C 
ATOM     60  C   UNL A   1      46.637  27.490  30.118  1.00  0.00     0.037 A 
BRANCH  47  61
ATOM     61  C   UNL A   1      43.885  32.928  31.178  1.00  0.00     0.058 A 
ATOM     62  C   UNL A   1      44.125  33.972  30.271  1.00  0.00     0.135 A 
ATOM     63  C   UNL A   1      43.767  33.255  32.538  1.00  0.00     0.135 A 
ATOM     64  F   UNL A   1      44.263  33.710  28.961  1.00  0.00    -0.206 F 
ATOM     65  C   UNL A   1      44.284  35.285  30.698  1.00  0.00     0.059 A 
ATOM     66  C   UNL A   1      43.898  34.567  32.986  1.00  0.00     0.059 A 
ATOM     67  F   UNL A   1      43.537  32.296  33.449  1.00  0.00    -0.206 F 
ATOM     68  C   UNL A   1      44.177  35.572  32.060  1.00  0.00     0.060 A 
BRANCH  68  69
ATOM     69  S   UNL A   1      44.408  37.277  32.606  1.00  0.00     0.124 S 
ATOM     70  O   UNL A   1      45.751  37.218  33.176  1.00  0.00    -0.237 OA
ATOM     71  O   UNL A   1      44.282  38.029  31.362  1.00  0.00    -0.237 OA
ATOM     72  O   UNL A   1      43.326  37.474  33.566  1.00  0.00    -0.744 OA
ENDBRANCH  68  69
ENDBRANCH  47  61
BRANCH  48  73
ATOM     73  C   UNL A   1      42.650  23.642  27.674  1.00  0.00     0.058 A 
ATOM     74  C   UNL A   1      42.735  23.401  26.295  1.00  0.00     0.135 A 
ATOM     75  C   UNL A   1      42.418  22.546  28.518  1.00  0.00     0.135 A 
ATOM     76  F   UNL A   1      42.953  24.419  25.449  1.00  0.00    -0.206 F 
ATOM     77  C   UNL A   1      42.583  22.123  25.767  1.00  0.00     0.059 A 
ATOM     78  C   UNL A   1      42.281  21.254  28.015  1.00  0.00     0.059 A 
ATOM     79  F   UNL A   1      42.348  22.723  29.846  1.00  0.00    -0.206 F 
ATOM     80  C   UNL A   1      42.356  21.055  26.637  1.00  0.00     0.060 A 
BRANCH  80  81
ATOM     81  S   UNL A   1      42.209  19.391  25.948  1.00  0.00     0.124 S 
ATOM     82  O   UNL A   1      40.767  19.274  25.769  1.00  0.00    -0.237 OA
ATOM     83  O   UNL A   1      42.998  19.492  24.724  1.00  0.00    -0.237 OA
ATOM     84  O   UNL A   1      42.790  18.548  26.989  1.00  0.00    -0.744 OA
ENDBRANCH  80  81
ENDBRANCH  48  73
BRANCH  60  85
ATOM     85  C   UNL A   1      48.055  27.090  30.402  1.00  0.00     0.058 A 
ATOM     86  C   UNL A   1      49.042  27.137  29.407  1.00  0.00     0.135 A 
ATOM     87  C   UNL A   1      48.439  26.709  31.697  1.00  0.00     0.135 A 
ATOM     88  F   UNL A   1      48.720  27.488  28.151  1.00  0.00    -0.206 F 
ATOM     89  C   UNL A   1      50.365  26.808  29.683  1.00  0.00     0.059 A 
ATOM     90  C   UNL A   1      49.759  26.394  32.000  1.00  0.00     0.059 A 
ATOM     91  F   UNL A   1      47.531  26.656  32.684  1.00  0.00    -0.206 F 
ATOM     92  C   UNL A   1      50.714  26.438  30.983  1.00  0.00     0.060 A 
BRANCH  92  93
ATOM     93  S   UNL A   1      52.441  26.055  31.344  1.00  0.00     0.124 S 
ATOM     94  O   UNL A   1      53.071  26.298  30.052  1.00  0.00    -0.237 OA
ATOM     95  O   UNL A   1      52.763  27.012  32.398  1.00  0.00    -0.237 OA
ATOM     96  O   UNL A   1      52.395  24.658  31.770  1.00  0.00    -0.744 OA
ENDBRANCH  92  93
ENDBRANCH  60  85
ENDBRANCH  34  35
ENDBRANCH  26  29
ENDBRANCH  24  25
ENDBRANCH  23  24
ENDBRANCH   1  23
TORSDOF 18
ENDMDL
MODEL 2
REMARK VINA RESULT:     -11.1      1.577      2.393
REMARK SMILES C[C@H](CN(C)C(=O)c1ccc(F)c(F)c1F)C(=O)NCCCCNC(=O)c1ccc(-c2c3nc(c(-c4c(F)cc(S(=O)(=O)[O-])cc4F)c4ccc([nH]4)c(-c4c(F)cc(S(=O)(=O)[O-])cc4F)c4nc(c(-c5c(F)cc(S(=O)(=O)[O-])cc5F)c5ccc2[nH]5)C=C4)C=C3)cc1
REMARK SMILES IDX 21 1 20 2 19 3 17 4 18 5 2 7 1 8 3 9 4 10 5 11 6 12 7 13
REMARK SMILES IDX 8 14 9 15 15 16 10 17 13 18 16 19 11 20 14 21 12 22 22 23
REMARK SMILES IDX 23 24 24 25 25 26 26 28 27 29 28 30 92 31 29 32 91 33 30 34
REMARK SMILES IDX 31 35 32 36 85 37 33 38 90 39 84 40 86 41 34 42 89 43 83 44
REMARK SMILES IDX 82 45 35 47 69 48 48 49 68 50 49 51 52 52 67 53 87 54 50 55
REMARK SMILES IDX 51 56 66 58 88 59 53 60 36 61 37 62 46 63 38 64 39 65 45 66
REMARK SMILES IDX 47 67 40 68 41 69 42 70 43 71 44 72 70 73 71 74 80 75 72 76
REMARK SMILES IDX 73 77 79 78 81 79 74 80 75 81 76 82 77 83 78 84 54 85 55 86
REMARK SMILES IDX 64 87 56 88 57 89 63 90 65 91 58 92 59 93 60 94 61 95 62 96
REMARK H PARENT 19 6 24 27 86 46 52 57
REMARK Flexibility Score: inf
ROOT
ATOM      1  C   UNL A   1      31.398  27.708  27.122  1.00  0.00     0.023 C 
ENDROOT
BRANCH   1   2
ATOM      2  C   UNL A   1      31.494  26.501  26.189  1.00  0.00     0.116 C 
BRANCH   2   3
ATOM      3  N   UNL A   1      30.235  26.261  25.516  1.00  0.00    -0.356 N 
ATOM      4  C   UNL A   1      29.829  26.610  24.266  1.00  0.00     0.224 C 
ATOM      5  O   UNL A   1      28.665  26.350  23.947  1.00  0.00    -0.275 OA
ATOM      6  H   UNL A   1      29.568  25.765  26.046  1.00  0.00     0.163 HD
BRANCH   4   7
ATOM      7  C   UNL A   1      30.768  27.273  23.257  1.00  0.00     0.095 C 
ATOM      8  C   UNL A   1      30.156  28.552  22.680  1.00  0.00     0.020 C 
BRANCH   7   9
ATOM      9  C   UNL A   1      31.428  26.247  22.303  1.00  0.00     0.132 C 
BRANCH   9  10
ATOM     10  N   UNL A   1      32.820  25.872  22.591  1.00  0.00    -0.341 N 
ATOM     11  C   UNL A   1      33.677  26.872  23.216  1.00  0.00     0.147 C 
BRANCH  10  12
ATOM     12  C   UNL A   1      33.137  24.521  22.722  1.00  0.00     0.256 C 
ATOM     13  O   UNL A   1      33.622  23.860  21.805  1.00  0.00    -0.269 OA
BRANCH  12  14
ATOM     14  C   UNL A   1      32.961  23.842  24.034  1.00  0.00     0.079 A 
ATOM     15  C   UNL A   1      34.011  23.897  24.963  1.00  0.00     0.020 A 
ATOM     16  C   UNL A   1      31.729  23.318  24.436  1.00  0.00     0.174 A 
ATOM     17  C   UNL A   1      33.836  23.390  26.255  1.00  0.00     0.043 A 
ATOM     18  C   UNL A   1      31.559  22.810  25.718  1.00  0.00     0.195 A 
ATOM     19  F   UNL A   1      30.669  23.328  23.617  1.00  0.00    -0.203 F 
ATOM     20  C   UNL A   1      32.611  22.839  26.621  1.00  0.00     0.161 A 
ATOM     21  F   UNL A   1      30.371  22.304  26.078  1.00  0.00    -0.200 F 
ATOM     22  F   UNL A   1      32.454  22.336  27.852  1.00  0.00    -0.204 F 
ENDBRANCH  12  14
ENDBRANCH  10  12
ENDBRANCH   9  10
ENDBRANCH   7   9
ENDBRANCH   4   7
ENDBRANCH   2   3
ENDBRANCH   1   2
BRANCH   1  23
ATOM     23  C   UNL A   1      32.032  28.990  26.593  1.00  0.00     0.023 C 
BRANCH  23  24
ATOM     24  C   UNL A   1      33.442  29.268  27.110  1.00  0.00     0.116 C 
BRANCH  24  25
ATOM     25  N   UNL A   1      33.591  30.538  27.814  1.00  0.00    -0.352 N 
ATOM     26  C   UNL A   1      34.694  31.044  28.471  1.00  0.00     0.251 C 
ATOM     27  H   UNL A   1      32.793  31.113  27.822  1.00  0.00     0.163 HD
ATOM     28  O   UNL A   1      34.624  32.122  29.041  1.00  0.00    -0.269 OA
BRANCH  26  29
ATOM     29  C   UNL A   1      35.923  30.221  28.552  1.00  0.00     0.039 A 
ATOM     30  C   UNL A   1      36.793  30.218  27.458  1.00  0.00     0.014 A 
ATOM     31  C   UNL A   1      36.277  29.575  29.736  1.00  0.00     0.014 A 
ATOM     32  C   UNL A   1      38.077  29.689  27.604  1.00  0.00     0.010 A 
ATOM     33  C   UNL A   1      37.585  29.135  29.909  1.00  0.00     0.010 A 
ATOM     34  C   UNL A   1      38.508  29.220  28.855  1.00  0.00    -0.014 A 
BRANCH  34  35
ATOM     35  C   UNL A   1      39.934  28.887  29.107  1.00  0.00     0.031 A 
ATOM     36  C   UNL A   1      40.867  29.918  29.675  1.00  0.00     0.074 A 
ATOM     37  C   UNL A   1      40.407  27.684  28.718  1.00  0.00     0.049 A 
ATOM     38  N   UNL A   1      42.159  29.846  29.864  1.00  0.00    -0.248 NA
ATOM     39  C   UNL A   1      40.277  31.216  30.040  1.00  0.00     0.031 C 
ATOM     40  C   UNL A   1      39.619  26.628  28.075  1.00  0.00     0.029 A 
ATOM     41  N   UNL A   1      41.669  27.148  28.795  1.00  0.00    -0.354 N 
ATOM     42  C   UNL A   1      42.541  31.095  30.337  1.00  0.00     0.074 A 
ATOM     43  C   UNL A   1      41.351  31.918  30.366  1.00  0.00     0.031 C 
ATOM     44  C   UNL A   1      40.403  25.561  27.853  1.00  0.00     0.029 A 
ATOM     45  C   UNL A   1      41.756  25.866  28.301  1.00  0.00     0.049 A 
ATOM     46  H   UNL A   1      42.438  27.634  29.168  1.00  0.00     0.167 HD
ATOM     47  C   UNL A   1      43.768  31.511  30.734  1.00  0.00     0.037 A 
ATOM     48  C   UNL A   1      42.809  25.029  28.223  1.00  0.00     0.037 A 
ATOM     49  C   UNL A   1      44.935  30.671  30.752  1.00  0.00     0.049 A 
ATOM     50  C   UNL A   1      44.145  25.489  28.735  1.00  0.00     0.074 A 
ATOM     51  C   UNL A   1      46.207  30.970  31.206  1.00  0.00     0.029 A 
ATOM     52  N   UNL A   1      44.969  29.357  30.306  1.00  0.00    -0.354 N 
ATOM     53  N   UNL A   1      44.474  26.654  29.241  1.00  0.00    -0.248 NA
ATOM     54  C   UNL A   1      45.251  24.525  28.672  1.00  0.00     0.031 C 
ATOM     55  C   UNL A   1      47.016  29.844  31.017  1.00  0.00     0.029 A 
ATOM     56  C   UNL A   1      46.240  28.834  30.471  1.00  0.00     0.049 A 
ATOM     57  H   UNL A   1      44.202  28.869  29.927  1.00  0.00     0.167 HD
ATOM     58  C   UNL A   1      45.819  26.554  29.577  1.00  0.00     0.074 A 
ATOM     59  C   UNL A   1      46.239  25.214  29.225  1.00  0.00     0.031 C 
ATOM     60  C   UNL A   1      46.632  27.491  30.125  1.00  0.00     0.037 A 
BRANCH  47  61
ATOM     61  C   UNL A   1      43.897  32.936  31.192  1.00  0.00     0.058 A 
ATOM     62  C   UNL A   1      43.901  33.271  32.555  1.00  0.00     0.135 A 
ATOM     63  C   UNL A   1      44.013  33.979  30.260  1.00  0.00     0.135 A 
ATOM     64  F   UNL A   1      43.776  32.311  33.486  1.00  0.00    -0.206 F 
ATOM     65  C   UNL A   1      43.976  34.592  32.980  1.00  0.00     0.059 A 
ATOM     66  C   UNL A   1      44.114  35.308  30.663  1.00  0.00     0.059 A 
ATOM     67  F   UNL A   1      44.014  33.716  28.944  1.00  0.00    -0.206 F 
ATOM     68  C   UNL A   1      44.074  35.605  32.025  1.00  0.00     0.060 A 
BRANCH  68  69
ATOM     69  S   UNL A   1      44.147  37.320  32.587  1.00  0.00     0.124 S 
ATOM     70  O   UNL A   1      43.012  37.372  33.504  1.00  0.00    -0.237 OA
ATOM     71  O   UNL A   1      45.466  37.394  33.208  1.00  0.00    -0.237 OA
ATOM     72  O   UNL A   1      43.994  38.086  31.354  1.00  0.00    -0.744 OA
ENDBRANCH  68  69
ENDBRANCH  47  61
BRANCH  48  73
ATOM     73  C   UNL A   1      42.631  23.656  27.684  1.00  0.00     0.058 A 
ATOM     74  C   UNL A   1      42.747  23.409  26.307  1.00  0.00     0.135 A 
ATOM     75  C   UNL A   1      42.364  22.565  28.524  1.00  0.00     0.135 A 
ATOM     76  F   UNL A   1      42.999  24.422  25.465  1.00  0.00    -0.206 F 
ATOM     77  C   UNL A   1      42.591  22.132  25.779  1.00  0.00     0.059 A 
ATOM     78  C   UNL A   1      42.223  21.274  28.022  1.00  0.00     0.059 A 
ATOM     79  F   UNL A   1      42.263  22.747  29.850  1.00  0.00    -0.206 F 
ATOM     80  C   UNL A   1      42.328  21.070  26.646  1.00  0.00     0.060 A 
BRANCH  80  81
ATOM     81  S   UNL A   1      42.178  19.406  25.958  1.00  0.00     0.124 S 
ATOM     82  O   UNL A   1      43.034  19.497  24.781  1.00  0.00    -0.237 OA
ATOM     83  O   UNL A   1      42.677  18.573  27.047  1.00  0.00    -0.237 OA
ATOM     84  O   UNL A   1      40.747  19.284  25.693  1.00  0.00    -0.744 OA
ENDBRANCH  80  81
ENDBRANCH  48  73
BRANCH  60  85
ATOM     85  C   UNL A   1      48.049  27.087  30.407  1.00  0.00     0.058 A 
ATOM     86  C   UNL A   1      49.040  27.153  29.417  1.00  0.00     0.135 A 
ATOM     87  C   UNL A   1      48.429  26.682  31.696  1.00  0.00     0.135 A 
ATOM     88  F   UNL A   1      48.722  27.527  28.167  1.00  0.00    -0.206 F 
ATOM     89  C   UNL A   1      50.362  26.819  29.692  1.00  0.00     0.059 A 
ATOM     90  C   UNL A   1      49.748  26.362  31.998  1.00  0.00     0.059 A 
ATOM     91  F   UNL A   1      47.517  26.610  32.678  1.00  0.00    -0.206 F 
ATOM     92  C   UNL A   1      50.706  26.426  30.986  1.00  0.00     0.060 A 
BRANCH  92  93
ATOM     93  S   UNL A   1      52.432  26.037  31.346  1.00  0.00     0.124 S 
ATOM     94  O   UNL A   1      52.747  27.024  32.372  1.00  0.00    -0.237 OA
ATOM     95  O   UNL A   1      52.355  24.651  31.800  1.00  0.00    -0.237 OA
ATOM     96  O   UNL A   1      53.097  26.231  30.061  1.00  0.00    -0.744 OA
ENDBRANCH  92  93
ENDBRANCH  60  85
ENDBRANCH  34  35
ENDBRANCH  26  29
ENDBRANCH  24  25
ENDBRANCH  23  24
ENDBRANCH   1  23
TORSDOF 18
ENDMDL
MODEL 3
REMARK VINA RESULT:     -11.0      5.000     10.360
REMARK SMILES C[C@H](CN(C)C(=O)c1ccc(F)c(F)c1F)C(=O)NCCCCNC(=O)c1ccc(-c2c3nc(c(-c4c(F)cc(S(=O)(=O)[O-])cc4F)c4ccc([nH]4)c(-c4c(F)cc(S(=O)(=O)[O-])cc4F)c4nc(c(-c5c(F)cc(S(=O)(=O)[O-])cc5F)c5ccc2[nH]5)C=C4)C=C3)cc1
REMARK SMILES IDX 21 1 20 2 19 3 17 4 18 5 2 7 1 8 3 9 4 10 5 11 6 12 7 13
REMARK SMILES IDX 8 14 9 15 15 16 10 17 13 18 16 19 11 20 14 21 12 22 22 23
REMARK SMILES IDX 23 24 24 25 25 26 26 28 27 29 28 30 92 31 29 32 91 33 30 34
REMARK SMILES IDX 31 35 32 36 85 37 33 38 90 39 84 40 86 41 34 42 89 43 83 44
REMARK SMILES IDX 82 45 35 47 69 48 48 49 68 50 49 51 52 52 67 53 87 54 50 55
REMARK SMILES IDX 51 56 66 58 88 59 53 60 36 61 37 62 46 63 38 64 39 65 45 66
REMARK SMILES IDX 47 67 40 68 41 69 42 70 43 71 44 72 70 73 71 74 80 75 72 76
REMARK SMILES IDX 73 77 79 78 81 79 74 80 75 81 76 82 77 83 78 84 54 85 55 86
REMARK SMILES IDX 64 87 56 88 57 89 63 90 65 91 58 92 59 93 60 94 61 95 62 96
REMARK H PARENT 19 6 24 27 86 46 52 57
REMARK Flexibility Score: inf
ROOT
ATOM      1  C   UNL A   1      38.679  23.930  26.477  1.00  0.00     0.023 C 
ENDROOT
BRANCH   1   2
ATOM      2  C   UNL A   1      37.233  23.487  26.258  1.00  0.00     0.116 C 
BRANCH   2   3
ATOM      3  N   UNL A   1      37.163  22.076  25.936  1.00  0.00    -0.356 N 
ATOM      4  C   UNL A   1      36.283  21.400  25.151  1.00  0.00     0.224 C 
ATOM      5  O   UNL A   1      36.393  20.171  25.093  1.00  0.00    -0.275 OA
ATOM      6  H   UNL A   1      37.863  21.521  26.351  1.00  0.00     0.163 HD
BRANCH   4   7
ATOM      7  C   UNL A   1      35.206  22.110  24.329  1.00  0.00     0.095 C 
ATOM      8  C   UNL A   1      35.819  22.925  23.188  1.00  0.00     0.020 C 
BRANCH   7   9
ATOM      9  C   UNL A   1      34.112  22.748  25.219  1.00  0.00     0.132 C 
BRANCH   9  10
ATOM     10  N   UNL A   1      32.727  22.666  24.730  1.00  0.00    -0.341 N 
ATOM     11  C   UNL A   1      32.361  23.492  23.588  1.00  0.00     0.147 C 
BRANCH  10  12
ATOM     12  C   UNL A   1      31.982  21.522  25.016  1.00  0.00     0.256 C 
ATOM     13  O   UNL A   1      30.915  21.559  25.624  1.00  0.00    -0.269 OA
BRANCH  12  14
ATOM     14  C   UNL A   1      32.436  20.198  24.512  1.00  0.00     0.079 A 
ATOM     15  C   UNL A   1      32.893  19.248  25.439  1.00  0.00     0.020 A 
ATOM     16  C   UNL A   1      32.249  19.809  23.182  1.00  0.00     0.174 A 
ATOM     17  C   UNL A   1      33.199  17.948  25.023  1.00  0.00     0.043 A 
ATOM     18  C   UNL A   1      32.559  18.518  22.771  1.00  0.00     0.195 A 
ATOM     19  F   UNL A   1      31.727  20.650  22.279  1.00  0.00    -0.203 F 
ATOM     20  C   UNL A   1      33.040  17.595  23.687  1.00  0.00     0.161 A 
ATOM     21  F   UNL A   1      32.381  18.171  21.488  1.00  0.00    -0.200 F 
ATOM     22  F   UNL A   1      33.355  16.355  23.290  1.00  0.00    -0.204 F 
ENDBRANCH  12  14
ENDBRANCH  10  12
ENDBRANCH   9  10
ENDBRANCH   7   9
ENDBRANCH   4   7
ENDBRANCH   2   3
ENDBRANCH   1   2
BRANCH   1  23
ATOM     23  C   UNL A   1      39.668  22.804  26.761  1.00  0.00     0.023 C 
BRANCH  23  24
ATOM     24  C   UNL A   1      41.138  23.215  26.711  1.00  0.00     0.116 C 
BRANCH  24  25
ATOM     25  N   UNL A   1      41.451  24.238  25.719  1.00  0.00    -0.352 N 
ATOM     26  C   UNL A   1      41.781  25.564  25.912  1.00  0.00     0.251 C 
ATOM     27  H   UNL A   1      41.421  23.941  24.782  1.00  0.00     0.163 HD
ATOM     28  O   UNL A   1      41.978  26.290  24.949  1.00  0.00    -0.269 OA
BRANCH  26  29
ATOM     29  C   UNL A   1      41.800  26.108  27.289  1.00  0.00     0.039 A 
ATOM     30  C   UNL A   1      42.869  26.925  27.665  1.00  0.00     0.014 A 
ATOM     31  C   UNL A   1      40.715  25.927  28.147  1.00  0.00     0.014 A 
ATOM     32  C   UNL A   1      42.781  27.673  28.841  1.00  0.00     0.010 A 
ATOM     33  C   UNL A   1      40.588  26.741  29.267  1.00  0.00     0.010 A 
ATOM     34  C   UNL A   1      41.603  27.648  29.605  1.00  0.00    -0.014 A 
BRANCH  34  35
ATOM     35  C   UNL A   1      41.380  28.612  30.714  1.00  0.00     0.031 A 
ATOM     36  C   UNL A   1      42.214  28.543  31.961  1.00  0.00     0.074 A 
ATOM     37  C   UNL A   1      40.350  29.480  30.633  1.00  0.00     0.049 A 
ATOM     38  N   UNL A   1      42.098  29.226  33.070  1.00  0.00    -0.248 NA
ATOM     39  C   UNL A   1      43.296  27.544  31.981  1.00  0.00     0.031 C 
ATOM     40  C   UNL A   1      39.414  29.587  29.510  1.00  0.00     0.029 A 
ATOM     41  N   UNL A   1      39.907  30.432  31.518  1.00  0.00    -0.354 N 
ATOM     42  C   UNL A   1      43.066  28.720  33.929  1.00  0.00     0.074 A 
ATOM     43  C   UNL A   1      43.732  27.644  33.228  1.00  0.00     0.031 C 
ATOM     44  C   UNL A   1      38.536  30.572  29.755  1.00  0.00     0.029 A 
ATOM     45  C   UNL A   1      38.819  31.144  31.066  1.00  0.00     0.049 A 
ATOM     46  H   UNL A   1      40.327  30.591  32.393  1.00  0.00     0.167 HD
ATOM     47  C   UNL A   1      43.386  29.131  35.179  1.00  0.00     0.037 A 
ATOM     48  C   UNL A   1      38.130  32.148  31.642  1.00  0.00     0.037 A 
ATOM     49  C   UNL A   1      42.755  30.237  35.849  1.00  0.00     0.049 A 
ATOM     50  C   UNL A   1      38.550  32.633  33.001  1.00  0.00     0.074 A 
ATOM     51  C   UNL A   1      43.056  30.783  37.084  1.00  0.00     0.029 A 
ATOM     52  N   UNL A   1      41.700  30.975  35.331  1.00  0.00    -0.354 N 
ATOM     53  N   UNL A   1      39.511  32.185  33.773  1.00  0.00    -0.248 NA
ATOM     54  C   UNL A   1      37.798  33.761  33.567  1.00  0.00     0.031 C 
ATOM     55  C   UNL A   1      42.169  31.839  37.323  1.00  0.00     0.029 A 
ATOM     56  C   UNL A   1      41.336  31.969  36.224  1.00  0.00     0.049 A 
ATOM     57  H   UNL A   1      41.274  30.815  34.459  1.00  0.00     0.167 HD
ATOM     58  C   UNL A   1      39.494  32.989  34.905  1.00  0.00     0.074 A 
ATOM     59  C   UNL A   1      38.434  33.958  34.714  1.00  0.00     0.031 C 
ATOM     60  C   UNL A   1      40.285  32.931  36.005  1.00  0.00     0.037 A 
BRANCH  47  61
ATOM     61  C   UNL A   1      44.478  28.384  35.890  1.00  0.00     0.058 A 
ATOM     62  C   UNL A   1      44.195  27.303  36.740  1.00  0.00     0.135 A 
ATOM     63  C   UNL A   1      45.823  28.753  35.725  1.00  0.00     0.135 A 
ATOM     64  F   UNL A   1      42.925  26.921  36.946  1.00  0.00    -0.206 F 
ATOM     65  C   UNL A   1      45.201  26.640  37.433  1.00  0.00     0.059 A 
ATOM     66  C   UNL A   1      46.849  28.087  36.389  1.00  0.00     0.059 A 
ATOM     67  F   UNL A   1      46.150  29.779  34.924  1.00  0.00    -0.206 F 
ATOM     68  C   UNL A   1      46.525  27.045  37.258  1.00  0.00     0.060 A 
BRANCH  68  69
ATOM     69  S   UNL A   1      47.821  26.191  38.180  1.00  0.00     0.124 S 
ATOM     70  O   UNL A   1      48.543  25.516  37.106  1.00  0.00    -0.237 OA
ATOM     71  O   UNL A   1      48.530  27.293  38.824  1.00  0.00    -0.237 OA
ATOM     72  O   UNL A   1      47.076  25.318  39.081  1.00  0.00    -0.744 OA
ENDBRANCH  68  69
ENDBRANCH  47  61
BRANCH  48  73
ATOM     73  C   UNL A   1      37.005  32.793  30.916  1.00  0.00     0.058 A 
ATOM     74  C   UNL A   1      35.676  32.503  31.256  1.00  0.00     0.135 A 
ATOM     75  C   UNL A   1      37.231  33.721  29.888  1.00  0.00     0.135 A 
ATOM     76  F   UNL A   1      35.412  31.619  32.230  1.00  0.00    -0.206 F 
ATOM     77  C   UNL A   1      34.607  33.098  30.596  1.00  0.00     0.059 A 
ATOM     78  C   UNL A   1      36.177  34.346  29.225  1.00  0.00     0.059 A 
ATOM     79  F   UNL A   1      38.485  34.047  29.539  1.00  0.00    -0.206 F 
ATOM     80  C   UNL A   1      34.868  34.020  29.580  1.00  0.00     0.060 A 
BRANCH  80  81
ATOM     81  S   UNL A   1      33.474  34.827  28.761  1.00  0.00     0.124 S 
ATOM     82  O   UNL A   1      33.108  33.833  27.759  1.00  0.00    -0.237 OA
ATOM     83  O   UNL A   1      32.530  35.004  29.860  1.00  0.00    -0.237 OA
ATOM     84  O   UNL A   1      34.061  36.061  28.246  1.00  0.00    -0.744 OA
ENDBRANCH  80  81
ENDBRANCH  48  73
BRANCH  60  85
ATOM     85  C   UNL A   1      40.052  33.960  37.072  1.00  0.00     0.058 A 
ATOM     86  C   UNL A   1      40.636  35.232  37.001  1.00  0.00     0.135 A 
ATOM     87  C   UNL A   1      39.193  33.685  38.147  1.00  0.00     0.135 A 
ATOM     88  F   UNL A   1      41.472  35.537  35.995  1.00  0.00    -0.206 F 
ATOM     89  C   UNL A   1      40.385  36.199  37.969  1.00  0.00     0.059 A 
ATOM     90  C   UNL A   1      38.912  34.643  39.115  1.00  0.00     0.059 A 
ATOM     91  F   UNL A   1      38.605  32.483  38.254  1.00  0.00    -0.206 F 
ATOM     92  C   UNL A   1      39.521  35.895  39.022  1.00  0.00     0.060 A 
BRANCH  92  93
ATOM     93  S   UNL A   1      39.164  37.170  40.250  1.00  0.00     0.124 S 
ATOM     94  O   UNL A   1      38.365  36.428  41.219  1.00  0.00    -0.237 OA
ATOM     95  O   UNL A   1      40.499  37.560  40.695  1.00  0.00    -0.237 OA
ATOM     96  O   UNL A   1      38.445  38.184  39.485  1.00  0.00    -0.744 OA
ENDBRANCH  92  93
ENDBRANCH  60  85
ENDBRANCH  34  35
ENDBRANCH  26  29
ENDBRANCH  24  25
ENDBRANCH  23  24
ENDBRANCH   1  23
TORSDOF 18
ENDMDL
