MODEL 1
REMARK VINA RESULT:     -10.8      0.000      0.000
REMARK SMILES CCCCCCCNC(=O)Oc1cccc(-c2ccc([C@@H](C)C(=O)NCCCCNC(=O)c3ccc(-c4c5nc(c(-c6c(F)cc(S(=O)(=O)[O-])cc6F)c6ccc([nH]6)c(-c6c(F)cc(S(=O)(=O)[O-])cc6F)c6nc(c(-c7c(F)cc(S(=O)(=O)[O-])cc7F)c7ccc4[nH]7)C=C6)C=C5)cc3)cc2F)c1
REMARK SMILES IDX 21 1 22 2 20 3 17 4 18 5 100 6 19 7 99 8 101 9 16 10 12 11
REMARK SMILES IDX 13 12 102 13 14 14 15 15 11 16 9 17 8 18 10 20 7 21 6 22
REMARK SMILES IDX 5 23 4 24 3 25 2 26 1 27 23 28 24 29 25 30 26 32 27 33 28 34
REMARK SMILES IDX 29 35 30 36 31 37 32 39 33 40 34 41 98 42 35 43 97 44 36 45
REMARK SMILES IDX 37 46 38 47 91 48 39 49 96 50 90 51 92 52 40 53 95 54 89 55
REMARK SMILES IDX 88 56 41 58 75 59 54 60 74 61 55 62 58 63 73 64 93 65 56 66
REMARK SMILES IDX 57 67 72 69 94 70 59 71 42 72 43 73 52 74 44 75 45 76 51 77
REMARK SMILES IDX 53 78 46 79 47 80 48 81 49 82 50 83 76 84 77 85 86 86 78 87
REMARK SMILES IDX 79 88 85 89 87 90 80 91 81 92 82 93 83 94 84 95 60 96 61 97
REMARK SMILES IDX 70 98 62 99 63 100 69 101 71 102 64 103 65 104 66 105 67 106
REMARK SMILES IDX 68 107
REMARK H PARENT 8 19 25 31 30 38 92 57 58 68
REMARK Flexibility Score: inf
ROOT
ATOM      1  C   UNL A   1      33.727  20.252  25.462  1.00  0.00     0.105 C 
ATOM      2  C   UNL A   1      32.417  19.682  24.916  1.00  0.00     0.023 C 
ENDROOT
BRANCH   1   3
ATOM      3  C   UNL A   1      33.817  21.768  25.518  1.00  0.00    -0.033 A 
ATOM      4  C   UNL A   1      33.737  24.632  25.573  1.00  0.00     0.018 A 
ATOM      5  C   UNL A   1      33.908  23.872  26.742  1.00  0.00     0.012 A 
ATOM      6  C   UNL A   1      33.664  23.912  24.370  1.00  0.00     0.131 A 
ATOM      7  C   UNL A   1      33.992  22.475  26.710  1.00  0.00     0.005 A 
ATOM      8  C   UNL A   1      33.677  22.513  24.340  1.00  0.00     0.044 A 
ATOM      9  F   UNL A   1      33.580  24.552  23.193  1.00  0.00    -0.206 F 
BRANCH   4  10
ATOM     10  C   UNL A   1      33.623  26.108  25.642  1.00  0.00    -0.012 A 
ATOM     11  C   UNL A   1      33.499  28.290  24.572  1.00  0.00     0.133 A 
ATOM     12  C   UNL A   1      33.342  28.927  25.797  1.00  0.00     0.047 A 
ATOM     13  C   UNL A   1      33.639  26.903  24.484  1.00  0.00     0.056 A 
ATOM     14  C   UNL A   1      33.317  28.162  26.956  1.00  0.00     0.004 A 
ATOM     15  C   UNL A   1      33.467  26.772  26.877  1.00  0.00     0.009 A 
BRANCH  11  16
ATOM     16  O   UNL A   1      33.655  29.114  23.448  1.00  0.00    -0.410 OA
BRANCH  16  17
ATOM     17  C   UNL A   1      33.378  28.588  22.196  1.00  0.00     0.412 C 
ATOM     18  N   UNL A   1      32.035  28.515  21.945  1.00  0.00    -0.321 N 
ATOM     19  H   UNL A   1      31.766  28.120  21.084  1.00  0.00     0.167 HD
ATOM     20  O   UNL A   1      34.200  28.205  21.375  1.00  0.00    -0.224 OA
BRANCH  18  21
ATOM     21  C   UNL A   1      30.970  28.961  22.819  1.00  0.00     0.119 C 
BRANCH  21  22
ATOM     22  C   UNL A   1      30.230  27.790  23.462  1.00  0.00     0.021 C 
BRANCH  22  23
ATOM     23  C   UNL A   1      30.665  26.407  22.959  1.00  0.00     0.002 C 
BRANCH  23  24
ATOM     24  C   UNL A   1      30.272  25.234  23.862  1.00  0.00     0.000 C 
BRANCH  24  25
ATOM     25  C   UNL A   1      29.827  25.621  25.277  1.00  0.00    -0.000 C 
BRANCH  25  26
ATOM     26  C   UNL A   1      30.379  24.736  26.397  1.00  0.00    -0.003 C 
ATOM     27  C   UNL A   1      30.292  23.250  26.087  1.00  0.00     0.004 C 
ENDBRANCH  25  26
ENDBRANCH  24  25
ENDBRANCH  23  24
ENDBRANCH  22  23
ENDBRANCH  21  22
ENDBRANCH  18  21
ENDBRANCH  16  17
ENDBRANCH  11  16
ENDBRANCH   4  10
ENDBRANCH   1   3
BRANCH   1  28
ATOM     28  C   UNL A   1      34.987  19.580  24.891  1.00  0.00     0.227 C 
ATOM     29  O   UNL A   1      34.880  18.527  24.250  1.00  0.00    -0.274 OA
ATOM     30  N   UNL A   1      36.244  20.084  25.029  1.00  0.00    -0.356 N 
ATOM     31  H   UNL A   1      36.937  19.573  24.551  1.00  0.00     0.163 HD
BRANCH  30  32
ATOM     32  C   UNL A   1      36.747  21.233  25.751  1.00  0.00     0.116 C 
BRANCH  32  33
ATOM     33  C   UNL A   1      37.408  22.252  24.822  1.00  0.00     0.023 C 
BRANCH  33  34
ATOM     34  C   UNL A   1      37.328  23.701  25.296  1.00  0.00     0.023 C 
BRANCH  34  35
ATOM     35  C   UNL A   1      38.233  24.045  26.471  1.00  0.00     0.116 C 
BRANCH  35  36
ATOM     36  N   UNL A   1      39.646  23.779  26.232  1.00  0.00    -0.352 N 
ATOM     37  C   UNL A   1      40.725  24.495  26.703  1.00  0.00     0.251 C 
ATOM     38  H   UNL A   1      39.853  22.997  25.671  1.00  0.00     0.163 HD
ATOM     39  O   UNL A   1      41.867  24.209  26.359  1.00  0.00    -0.269 OA
BRANCH  37  40
ATOM     40  C   UNL A   1      40.467  25.643  27.595  1.00  0.00     0.039 A 
ATOM     41  C   UNL A   1      39.474  25.538  28.571  1.00  0.00     0.014 A 
ATOM     42  C   UNL A   1      41.283  26.774  27.528  1.00  0.00     0.014 A 
ATOM     43  C   UNL A   1      39.351  26.541  29.535  1.00  0.00     0.010 A 
ATOM     44  C   UNL A   1      41.218  27.723  28.538  1.00  0.00     0.010 A 
ATOM     45  C   UNL A   1      40.250  27.620  29.550  1.00  0.00    -0.014 A 
BRANCH  45  46
ATOM     46  C   UNL A   1      40.196  28.675  30.594  1.00  0.00     0.031 A 
ATOM     47  C   UNL A   1      41.077  28.555  31.808  1.00  0.00     0.074 A 
ATOM     48  C   UNL A   1      39.300  29.678  30.499  1.00  0.00     0.049 A 
ATOM     49  N   UNL A   1      41.087  29.276  32.898  1.00  0.00    -0.248 NA
ATOM     50  C   UNL A   1      42.049  27.449  31.809  1.00  0.00     0.031 C 
ATOM     51  C   UNL A   1      38.362  29.878  29.393  1.00  0.00     0.029 A 
ATOM     52  N   UNL A   1      39.018  30.709  31.362  1.00  0.00    -0.354 N 
ATOM     53  C   UNL A   1      42.044  28.696  33.723  1.00  0.00     0.074 A 
ATOM     54  C   UNL A   1      42.550  27.531  33.032  1.00  0.00     0.031 C 
ATOM     55  C   UNL A   1      37.624  30.975  29.633  1.00  0.00     0.029 A 
ATOM     56  C   UNL A   1      38.003  31.530  30.929  1.00  0.00     0.049 A 
ATOM     57  H   UNL A   1      39.498  30.847  32.210  1.00  0.00     0.167 HD
ATOM     58  C   UNL A   1      42.482  29.113  34.935  1.00  0.00     0.037 A 
ATOM     59  C   UNL A   1      37.435  32.601  31.518  1.00  0.00     0.037 A 
ATOM     60  C   UNL A   1      41.998  30.293  35.597  1.00  0.00     0.049 A 
ATOM     61  C   UNL A   1      37.940  33.050  32.864  1.00  0.00     0.074 A 
ATOM     62  C   UNL A   1      42.410  30.834  36.802  1.00  0.00     0.029 A 
ATOM     63  N   UNL A   1      40.996  31.120  35.109  1.00  0.00    -0.354 N 
ATOM     64  N   UNL A   1      38.879  32.519  33.610  1.00  0.00    -0.248 NA
ATOM     65  C   UNL A   1      37.312  34.244  33.446  1.00  0.00     0.031 C 
ATOM     66  C   UNL A   1      41.630  31.966  37.062  1.00  0.00     0.029 A 
ATOM     67  C   UNL A   1      40.768  32.160  35.994  1.00  0.00     0.049 A 
ATOM     68  H   UNL A   1      40.518  30.986  34.258  1.00  0.00     0.167 HD
ATOM     69  C   UNL A   1      38.981  33.336  34.732  1.00  0.00     0.074 A 
ATOM     70  C   UNL A   1      38.009  34.395  34.565  1.00  0.00     0.031 C 
ATOM     71  C   UNL A   1      39.809  33.220  35.799  1.00  0.00     0.037 A 
BRANCH  58  72
ATOM     72  C   UNL A   1      43.539  28.283  35.612  1.00  0.00     0.058 A 
ATOM     73  C   UNL A   1      43.206  27.265  36.522  1.00  0.00     0.135 A 
ATOM     74  C   UNL A   1      44.899  28.500  35.343  1.00  0.00     0.135 A 
ATOM     75  F   UNL A   1      41.922  27.025  36.829  1.00  0.00    -0.206 F 
ATOM     76  C   UNL A   1      44.186  26.522  37.170  1.00  0.00     0.059 A 
ATOM     77  C   UNL A   1      45.896  27.746  35.956  1.00  0.00     0.059 A 
ATOM     78  F   UNL A   1      45.274  29.460  34.483  1.00  0.00    -0.206 F 
ATOM     79  C   UNL A   1      45.528  26.771  36.883  1.00  0.00     0.060 A 
BRANCH  79  80
ATOM     80  S   UNL A   1      46.788  25.805  37.743  1.00  0.00     0.124 S 
ATOM     81  O   UNL A   1      46.233  25.741  39.092  1.00  0.00    -0.237 OA
ATOM     82  O   UNL A   1      46.782  24.551  36.996  1.00  0.00    -0.237 OA
ATOM     83  O   UNL A   1      47.995  26.613  37.597  1.00  0.00    -0.744 OA
ENDBRANCH  79  80
ENDBRANCH  58  72
BRANCH  59  84
ATOM     84  C   UNL A   1      36.348  33.344  30.822  1.00  0.00     0.058 A 
ATOM     85  C   UNL A   1      35.031  33.305  31.302  1.00  0.00     0.135 A 
ATOM     86  C   UNL A   1      36.604  34.117  29.678  1.00  0.00     0.135 A 
ATOM     87  F   UNL A   1      34.734  32.575  32.388  1.00  0.00    -0.206 F 
ATOM     88  C   UNL A   1      34.002  33.993  30.667  1.00  0.00     0.059 A 
ATOM     89  C   UNL A   1      35.597  34.835  29.040  1.00  0.00     0.059 A 
ATOM     90  F   UNL A   1      37.850  34.200  29.188  1.00  0.00    -0.206 F 
ATOM     91  C   UNL A   1      34.296  34.759  29.538  1.00  0.00     0.060 A 
BRANCH  91  92
ATOM     92  S   UNL A   1      32.960  35.689  28.753  1.00  0.00     0.124 S 
ATOM     93  O   UNL A   1      33.700  36.734  28.055  1.00  0.00    -0.237 OA
ATOM     94  O   UNL A   1      32.337  34.674  27.908  1.00  0.00    -0.237 OA
ATOM     95  O   UNL A   1      32.152  36.135  29.884  1.00  0.00    -0.744 OA
ENDBRANCH  91  92
ENDBRANCH  59  84
BRANCH  71  96
ATOM     96  C   UNL A   1      39.749  34.294  36.849  1.00  0.00     0.058 A 
ATOM     97  C   UNL A   1      38.953  34.165  37.997  1.00  0.00     0.135 A 
ATOM     98  C   UNL A   1      40.562  35.435  36.737  1.00  0.00     0.135 A 
ATOM     99  F   UNL A   1      38.154  33.098  38.149  1.00  0.00    -0.206 F 
ATOM    100  C   UNL A   1      38.956  35.137  38.992  1.00  0.00     0.059 A 
ATOM    101  C   UNL A   1      40.601  36.404  37.733  1.00  0.00     0.059 A 
ATOM    102  F   UNL A   1      41.350  35.601  35.662  1.00  0.00    -0.206 F 
ATOM    103  C   UNL A   1      39.788  36.250  38.854  1.00  0.00     0.060 A 
BRANCH 103 104
ATOM    104  S   UNL A   1      39.824  37.475  40.180  1.00  0.00     0.124 S 
ATOM    105  O   UNL A   1      38.749  38.375  39.777  1.00  0.00    -0.237 OA
ATOM    106  O   UNL A   1      39.560  36.663  41.363  1.00  0.00    -0.237 OA
ATOM    107  O   UNL A   1      41.171  38.029  40.095  1.00  0.00    -0.744 OA
ENDBRANCH 103 104
ENDBRANCH  71  96
ENDBRANCH  45  46
ENDBRANCH  37  40
ENDBRANCH  35  36
ENDBRANCH  34  35
ENDBRANCH  33  34
ENDBRANCH  32  33
ENDBRANCH  30  32
ENDBRANCH   1  28
TORSDOF 24
ENDMDL
MODEL 2
REMARK VINA RESULT:     -10.6      6.481     11.882
REMARK SMILES CCCCCCCNC(=O)Oc1cccc(-c2ccc([C@@H](C)C(=O)NCCCCNC(=O)c3ccc(-c4c5nc(c(-c6c(F)cc(S(=O)(=O)[O-])cc6F)c6ccc([nH]6)c(-c6c(F)cc(S(=O)(=O)[O-])cc6F)c6nc(c(-c7c(F)cc(S(=O)(=O)[O-])cc7F)c7ccc4[nH]7)C=C6)C=C5)cc3)cc2F)c1
REMARK SMILES IDX 21 1 22 2 20 3 17 4 18 5 100 6 19 7 99 8 101 9 16 10 12 11
REMARK SMILES IDX 13 12 102 13 14 14 15 15 11 16 9 17 8 18 10 20 7 21 6 22
REMARK SMILES IDX 5 23 4 24 3 25 2 26 1 27 23 28 24 29 25 30 26 32 27 33 28 34
REMARK SMILES IDX 29 35 30 36 31 37 32 39 33 40 34 41 98 42 35 43 97 44 36 45
REMARK SMILES IDX 37 46 38 47 91 48 39 49 96 50 90 51 92 52 40 53 95 54 89 55
REMARK SMILES IDX 88 56 41 58 75 59 54 60 74 61 55 62 58 63 73 64 93 65 56 66
REMARK SMILES IDX 57 67 72 69 94 70 59 71 42 72 43 73 52 74 44 75 45 76 51 77
REMARK SMILES IDX 53 78 46 79 47 80 48 81 49 82 50 83 76 84 77 85 86 86 78 87
REMARK SMILES IDX 79 88 85 89 87 90 80 91 81 92 82 93 83 94 84 95 60 96 61 97
REMARK SMILES IDX 70 98 62 99 63 100 69 101 71 102 64 103 65 104 66 105 67 106
REMARK SMILES IDX 68 107
REMARK H PARENT 8 19 25 31 30 38 92 57 58 68
REMARK Flexibility Score: inf
ROOT
ATOM      1  C   UNL A   1      35.459  33.237  29.509  1.00  0.00     0.105 C 
ATOM      2  C   UNL A   1      36.799  33.876  29.146  1.00  0.00     0.023 C 
ENDROOT
BRANCH   1   3
ATOM      3  C   UNL A   1      34.981  32.129  28.585  1.00  0.00    -0.033 A 
ATOM      4  C   UNL A   1      34.067  29.889  27.049  1.00  0.00     0.018 A 
ATOM      5  C   UNL A   1      33.255  31.012  27.280  1.00  0.00     0.012 A 
ATOM      6  C   UNL A   1      35.370  29.949  27.566  1.00  0.00     0.131 A 
ATOM      7  C   UNL A   1      33.717  32.125  27.992  1.00  0.00     0.005 A 
ATOM      8  C   UNL A   1      35.813  31.029  28.338  1.00  0.00     0.044 A 
ATOM      9  F   UNL A   1      36.246  28.960  27.331  1.00  0.00    -0.206 F 
BRANCH   4  10
ATOM     10  C   UNL A   1      33.539  28.714  26.317  1.00  0.00    -0.012 A 
ATOM     11  C   UNL A   1      32.020  26.823  26.131  1.00  0.00     0.133 A 
ATOM     12  C   UNL A   1      32.504  26.505  24.867  1.00  0.00     0.047 A 
ATOM     13  C   UNL A   1      32.523  27.907  26.854  1.00  0.00     0.056 A 
ATOM     14  C   UNL A   1      33.504  27.292  24.312  1.00  0.00     0.004 A 
ATOM     15  C   UNL A   1      34.021  28.375  25.034  1.00  0.00     0.009 A 
BRANCH  11  16
ATOM     16  O   UNL A   1      31.110  25.921  26.703  1.00  0.00    -0.410 OA
BRANCH  16  17
ATOM     17  C   UNL A   1      30.251  25.227  25.867  1.00  0.00     0.412 C 
ATOM     18  N   UNL A   1      30.382  23.870  25.993  1.00  0.00    -0.321 N 
ATOM     19  H   UNL A   1      29.822  23.314  25.403  1.00  0.00     0.167 HD
ATOM     20  O   UNL A   1      29.456  25.717  25.077  1.00  0.00    -0.224 OA
BRANCH  18  21
ATOM     21  C   UNL A   1      31.259  23.171  26.907  1.00  0.00     0.119 C 
BRANCH  21  22
ATOM     22  C   UNL A   1      32.557  22.733  26.231  1.00  0.00     0.021 C 
BRANCH  22  23
ATOM     23  C   UNL A   1      32.504  22.717  24.698  1.00  0.00     0.002 C 
BRANCH  23  24
ATOM     24  C   UNL A   1      33.755  23.258  23.999  1.00  0.00     0.000 C 
BRANCH  24  25
ATOM     25  C   UNL A   1      34.849  23.782  24.935  1.00  0.00    -0.000 C 
BRANCH  25  26
ATOM     26  C   UNL A   1      36.239  23.180  24.712  1.00  0.00    -0.003 C 
ATOM     27  C   UNL A   1      36.536  22.878  23.251  1.00  0.00     0.004 C 
ENDBRANCH  25  26
ENDBRANCH  24  25
ENDBRANCH  23  24
ENDBRANCH  22  23
ENDBRANCH  21  22
ENDBRANCH  18  21
ENDBRANCH  16  17
ENDBRANCH  11  16
ENDBRANCH   4  10
ENDBRANCH   1   3
BRANCH   1  28
ATOM     28  C   UNL A   1      34.362  34.252  29.873  1.00  0.00     0.227 C 
ATOM     29  O   UNL A   1      33.769  34.859  28.973  1.00  0.00    -0.274 OA
ATOM     30  N   UNL A   1      33.973  34.523  31.149  1.00  0.00    -0.356 N 
ATOM     31  H   UNL A   1      33.214  35.147  31.215  1.00  0.00     0.163 HD
BRANCH  30  32
ATOM     32  C   UNL A   1      34.474  34.063  32.427  1.00  0.00     0.116 C 
BRANCH  32  33
ATOM     33  C   UNL A   1      35.874  34.601  32.725  1.00  0.00     0.023 C 
BRANCH  33  34
ATOM     34  C   UNL A   1      36.789  33.634  33.470  1.00  0.00     0.023 C 
BRANCH  34  35
ATOM     35  C   UNL A   1      37.478  32.596  32.596  1.00  0.00     0.116 C 
BRANCH  35  36
ATOM     36  N   UNL A   1      36.696  31.385  32.380  1.00  0.00    -0.352 N 
ATOM     37  C   UNL A   1      37.079  30.250  31.698  1.00  0.00     0.251 C 
ATOM     38  H   UNL A   1      35.791  31.377  32.765  1.00  0.00     0.163 HD
ATOM     39  O   UNL A   1      36.290  29.328  31.519  1.00  0.00    -0.269 OA
BRANCH  37  40
ATOM     40  C   UNL A   1      38.449  30.192  31.150  1.00  0.00     0.039 A 
ATOM     41  C   UNL A   1      39.482  29.693  31.947  1.00  0.00     0.014 A 
ATOM     42  C   UNL A   1      38.680  30.532  29.816  1.00  0.00     0.014 A 
ATOM     43  C   UNL A   1      40.736  29.462  31.377  1.00  0.00     0.010 A 
ATOM     44  C   UNL A   1      39.899  30.218  29.232  1.00  0.00     0.010 A 
ATOM     45  C   UNL A   1      40.940  29.682  30.006  1.00  0.00    -0.014 A 
BRANCH  45  46
ATOM     46  C   UNL A   1      42.239  29.388  29.347  1.00  0.00     0.031 A 
ATOM     47  C   UNL A   1      42.492  28.009  28.803  1.00  0.00     0.074 A 
ATOM     48  C   UNL A   1      43.213  30.320  29.321  1.00  0.00     0.049 A 
ATOM     49  N   UNL A   1      43.596  27.497  28.324  1.00  0.00    -0.248 NA
ATOM     50  C   UNL A   1      41.360  27.068  28.841  1.00  0.00     0.031 C 
ATOM     51  C   UNL A   1      43.102  31.680  29.854  1.00  0.00     0.029 A 
ATOM     52  N   UNL A   1      44.498  30.256  28.842  1.00  0.00    -0.354 N 
ATOM     53  C   UNL A   1      43.299  26.172  28.030  1.00  0.00     0.074 A 
ATOM     54  C   UNL A   1      41.931  25.943  28.439  1.00  0.00     0.031 C 
ATOM     55  C   UNL A   1      44.263  32.327  29.655  1.00  0.00     0.029 A 
ATOM     56  C   UNL A   1      45.214  31.417  29.022  1.00  0.00     0.049 A 
ATOM     57  H   UNL A   1      44.873  29.455  28.411  1.00  0.00     0.167 HD
ATOM     58  C   UNL A   1      44.086  25.237  27.447  1.00  0.00     0.037 A 
ATOM     59  C   UNL A   1      46.494  31.710  28.720  1.00  0.00     0.037 A 
ATOM     60  C   UNL A   1      45.434  25.485  27.012  1.00  0.00     0.049 A 
ATOM     61  C   UNL A   1      47.352  30.657  28.069  1.00  0.00     0.074 A 
ATOM     62  C   UNL A   1      46.301  24.624  26.362  1.00  0.00     0.029 A 
ATOM     63  N   UNL A   1      46.110  26.686  27.176  1.00  0.00    -0.354 N 
ATOM     64  N   UNL A   1      47.041  29.421  27.753  1.00  0.00    -0.248 NA
ATOM     65  C   UNL A   1      48.729  31.037  27.728  1.00  0.00     0.031 C 
ATOM     66  C   UNL A   1      47.515  25.291  26.170  1.00  0.00     0.029 A 
ATOM     67  C   UNL A   1      47.387  26.585  26.652  1.00  0.00     0.049 A 
ATOM     68  H   UNL A   1      45.735  27.490  27.603  1.00  0.00     0.167 HD
ATOM     69  C   UNL A   1      48.172  28.889  27.142  1.00  0.00     0.074 A 
ATOM     70  C   UNL A   1      49.172  29.936  27.133  1.00  0.00     0.031 C 
ATOM     71  C   UNL A   1      48.362  27.648  26.632  1.00  0.00     0.037 A 
BRANCH  58  72
ATOM     72  C   UNL A   1      43.501  23.865  27.247  1.00  0.00     0.058 A 
ATOM     73  C   UNL A   1      43.077  23.421  25.984  1.00  0.00     0.135 A 
ATOM     74  C   UNL A   1      43.372  22.979  28.329  1.00  0.00     0.135 A 
ATOM     75  F   UNL A   1      43.162  24.231  24.918  1.00  0.00    -0.206 F 
ATOM     76  C   UNL A   1      42.508  22.164  25.809  1.00  0.00     0.059 A 
ATOM     77  C   UNL A   1      42.835  21.705  28.171  1.00  0.00     0.059 A 
ATOM     78  F   UNL A   1      43.760  23.352  29.559  1.00  0.00    -0.206 F 
ATOM     79  C   UNL A   1      42.388  21.314  26.909  1.00  0.00     0.060 A 
BRANCH  79  80
ATOM     80  S   UNL A   1      41.635  19.691  26.666  1.00  0.00     0.124 S 
ATOM     81  O   UNL A   1      42.432  18.865  27.567  1.00  0.00    -0.237 OA
ATOM     82  O   UNL A   1      40.254  19.923  27.074  1.00  0.00    -0.237 OA
ATOM     83  O   UNL A   1      41.831  19.436  25.242  1.00  0.00    -0.744 OA
ENDBRANCH  79  80
ENDBRANCH  58  72
BRANCH  59  84
ATOM     84  C   UNL A   1      47.034  33.068  29.001  1.00  0.00     0.058 A 
ATOM     85  C   UNL A   1      46.898  34.103  28.063  1.00  0.00     0.135 A 
ATOM     86  C   UNL A   1      47.678  33.366  30.212  1.00  0.00     0.135 A 
ATOM     87  F   UNL A   1      46.296  33.867  26.887  1.00  0.00    -0.206 F 
ATOM     88  C   UNL A   1      47.393  35.380  28.308  1.00  0.00     0.059 A 
ATOM     89  C   UNL A   1      48.159  34.642  30.491  1.00  0.00     0.059 A 
ATOM     90  F   UNL A   1      47.820  32.416  31.149  1.00  0.00    -0.206 F 
ATOM     91  C   UNL A   1      48.019  35.640  29.528  1.00  0.00     0.060 A 
BRANCH  91  92
ATOM     92  S   UNL A   1      48.613  37.316  29.854  1.00  0.00     0.124 S 
ATOM     93  O   UNL A   1      50.002  37.069  30.225  1.00  0.00    -0.237 OA
ATOM     94  O   UNL A   1      48.403  37.970  28.566  1.00  0.00    -0.237 OA
ATOM     95  O   UNL A   1      47.743  37.776  30.932  1.00  0.00    -0.744 OA
ENDBRANCH  91  92
ENDBRANCH  59  84
BRANCH  71  96
ATOM     96  C   UNL A   1      49.679  27.361  25.964  1.00  0.00     0.058 A 
ATOM     97  C   UNL A   1      50.803  26.942  26.691  1.00  0.00     0.135 A 
ATOM     98  C   UNL A   1      49.789  27.433  24.566  1.00  0.00     0.135 A 
ATOM     99  F   UNL A   1      50.751  26.863  28.029  1.00  0.00    -0.206 F 
ATOM    100  C   UNL A   1      51.996  26.618  26.054  1.00  0.00     0.059 A 
ATOM    101  C   UNL A   1      50.963  27.086  23.907  1.00  0.00     0.059 A 
ATOM    102  F   UNL A   1      48.738  27.819  23.823  1.00  0.00    -0.206 F 
ATOM    103  C   UNL A   1      52.065  26.687  24.661  1.00  0.00     0.060 A 
BRANCH 103 104
ATOM    104  S   UNL A   1      53.602  26.208  23.844  1.00  0.00     0.124 S 
ATOM    105  O   UNL A   1      53.155  26.016  22.468  1.00  0.00    -0.237 OA
ATOM    106  O   UNL A   1      54.455  27.368  24.078  1.00  0.00    -0.237 OA
ATOM    107  O   UNL A   1      53.999  24.994  24.550  1.00  0.00    -0.744 OA
ENDBRANCH 103 104
ENDBRANCH  71  96
ENDBRANCH  45  46
ENDBRANCH  37  40
ENDBRANCH  35  36
ENDBRANCH  34  35
ENDBRANCH  33  34
ENDBRANCH  32  33
ENDBRANCH  30  32
ENDBRANCH   1  28
TORSDOF 24
ENDMDL
MODEL 3
REMARK VINA RESULT:     -10.6      1.029      2.210
REMARK SMILES CCCCCCCNC(=O)Oc1cccc(-c2ccc([C@@H](C)C(=O)NCCCCNC(=O)c3ccc(-c4c5nc(c(-c6c(F)cc(S(=O)(=O)[O-])cc6F)c6ccc([nH]6)c(-c6c(F)cc(S(=O)(=O)[O-])cc6F)c6nc(c(-c7c(F)cc(S(=O)(=O)[O-])cc7F)c7ccc4[nH]7)C=C6)C=C5)cc3)cc2F)c1
REMARK SMILES IDX 21 1 22 2 20 3 17 4 18 5 100 6 19 7 99 8 101 9 16 10 12 11
REMARK SMILES IDX 13 12 102 13 14 14 15 15 11 16 9 17 8 18 10 20 7 21 6 22
REMARK SMILES IDX 5 23 4 24 3 25 2 26 1 27 23 28 24 29 25 30 26 32 27 33 28 34
REMARK SMILES IDX 29 35 30 36 31 37 32 39 33 40 34 41 98 42 35 43 97 44 36 45
REMARK SMILES IDX 37 46 38 47 91 48 39 49 96 50 90 51 92 52 40 53 95 54 89 55
REMARK SMILES IDX 88 56 41 58 75 59 54 60 74 61 55 62 58 63 73 64 93 65 56 66
REMARK SMILES IDX 57 67 72 69 94 70 59 71 42 72 43 73 52 74 44 75 45 76 51 77
REMARK SMILES IDX 53 78 46 79 47 80 48 81 49 82 50 83 76 84 77 85 86 86 78 87
REMARK SMILES IDX 79 88 85 89 87 90 80 91 81 92 82 93 83 94 84 95 60 96 61 97
REMARK SMILES IDX 70 98 62 99 63 100 69 101 71 102 64 103 65 104 66 105 67 106
REMARK SMILES IDX 68 107
REMARK H PARENT 8 19 25 31 30 38 92 57 58 68
REMARK Flexibility Score: inf
ROOT
ATOM      1  C   UNL A   1      33.636  19.894  25.479  1.00  0.00     0.105 C 
ATOM      2  C   UNL A   1      32.423  19.145  24.927  1.00  0.00     0.023 C 
ENDROOT
BRANCH   1   3
ATOM      3  C   UNL A   1      33.501  21.406  25.560  1.00  0.00    -0.033 A 
ATOM      4  C   UNL A   1      33.009  24.228  25.624  1.00  0.00     0.018 A 
ATOM      5  C   UNL A   1      33.121  23.467  26.800  1.00  0.00     0.012 A 
ATOM      6  C   UNL A   1      33.207  23.539  24.418  1.00  0.00     0.131 A 
ATOM      7  C   UNL A   1      33.406  22.097  26.769  1.00  0.00     0.005 A 
ATOM      8  C   UNL A   1      33.423  22.157  24.380  1.00  0.00     0.044 A 
ATOM      9  F   UNL A   1      33.199  24.193  23.247  1.00  0.00    -0.206 F 
BRANCH   4  10
ATOM     10  C   UNL A   1      32.678  25.671  25.688  1.00  0.00    -0.012 A 
ATOM     11  C   UNL A   1      32.654  27.899  24.710  1.00  0.00     0.133 A 
ATOM     12  C   UNL A   1      31.979  28.419  25.808  1.00  0.00     0.047 A 
ATOM     13  C   UNL A   1      33.004  26.548  24.641  1.00  0.00     0.056 A 
ATOM     14  C   UNL A   1      31.640  27.570  26.854  1.00  0.00     0.004 A 
ATOM     15  C   UNL A   1      31.996  26.217  26.797  1.00  0.00     0.009 A 
BRANCH  11  16
ATOM     16  O   UNL A   1      33.093  28.819  23.746  1.00  0.00    -0.410 OA
BRANCH  16  17
ATOM     17  C   UNL A   1      33.292  28.376  22.449  1.00  0.00     0.412 C 
ATOM     18  N   UNL A   1      32.115  28.115  21.799  1.00  0.00    -0.321 N 
ATOM     19  H   UNL A   1      32.184  27.765  20.882  1.00  0.00     0.167 HD
ATOM     20  O   UNL A   1      34.371  28.207  21.899  1.00  0.00    -0.224 OA
BRANCH  18  21
ATOM     21  C   UNL A   1      30.781  28.302  22.327  1.00  0.00     0.119 C 
BRANCH  21  22
ATOM     22  C   UNL A   1      30.283  29.733  22.129  1.00  0.00     0.021 C 
BRANCH  22  23
ATOM     23  C   UNL A   1      28.761  29.866  21.998  1.00  0.00     0.002 C 
BRANCH  23  24
ATOM     24  C   UNL A   1      28.021  30.182  23.301  1.00  0.00     0.000 C 
BRANCH  24  25
ATOM     25  C   UNL A   1      27.525  31.626  23.435  1.00  0.00    -0.000 C 
BRANCH  25  26
ATOM     26  C   UNL A   1      28.206  32.636  22.508  1.00  0.00    -0.003 C 
ATOM     27  C   UNL A   1      29.248  33.491  23.212  1.00  0.00     0.004 C 
ENDBRANCH  25  26
ENDBRANCH  24  25
ENDBRANCH  23  24
ENDBRANCH  22  23
ENDBRANCH  21  22
ENDBRANCH  18  21
ENDBRANCH  16  17
ENDBRANCH  11  16
ENDBRANCH   4  10
ENDBRANCH   1   3
BRANCH   1  28
ATOM     28  C   UNL A   1      34.979  19.425  24.895  1.00  0.00     0.227 C 
ATOM     29  O   UNL A   1      35.029  18.370  24.252  1.00  0.00    -0.274 OA
ATOM     30  N   UNL A   1      36.145  20.116  25.023  1.00  0.00    -0.356 N 
ATOM     31  H   UNL A   1      36.904  19.719  24.537  1.00  0.00     0.163 HD
BRANCH  30  32
ATOM     32  C   UNL A   1      36.472  21.328  25.744  1.00  0.00     0.116 C 
BRANCH  32  33
ATOM     33  C   UNL A   1      37.337  22.277  24.913  1.00  0.00     0.023 C 
BRANCH  33  34
ATOM     34  C   UNL A   1      37.269  23.743  25.332  1.00  0.00     0.023 C 
BRANCH  34  35
ATOM     35  C   UNL A   1      38.226  24.139  26.447  1.00  0.00     0.116 C 
BRANCH  35  36
ATOM     36  N   UNL A   1      39.632  23.923  26.130  1.00  0.00    -0.352 N 
ATOM     37  C   UNL A   1      40.712  24.662  26.564  1.00  0.00     0.251 C 
ATOM     38  H   UNL A   1      39.833  23.163  25.539  1.00  0.00     0.163 HD
ATOM     39  O   UNL A   1      41.842  24.421  26.156  1.00  0.00    -0.269 OA
BRANCH  37  40
ATOM     40  C   UNL A   1      40.465  25.778  27.499  1.00  0.00     0.039 A 
ATOM     41  C   UNL A   1      39.560  25.603  28.547  1.00  0.00     0.014 A 
ATOM     42  C   UNL A   1      41.213  26.952  27.392  1.00  0.00     0.014 A 
ATOM     43  C   UNL A   1      39.462  26.581  29.539  1.00  0.00     0.010 A 
ATOM     44  C   UNL A   1      41.178  27.879  28.424  1.00  0.00     0.010 A 
ATOM     45  C   UNL A   1      40.301  27.706  29.507  1.00  0.00    -0.014 A 
BRANCH  45  46
ATOM     46  C   UNL A   1      40.275  28.738  30.574  1.00  0.00     0.031 A 
ATOM     47  C   UNL A   1      41.191  28.595  31.759  1.00  0.00     0.074 A 
ATOM     48  C   UNL A   1      39.374  29.740  30.527  1.00  0.00     0.049 A 
ATOM     49  N   UNL A   1      41.230  29.293  32.864  1.00  0.00    -0.248 NA
ATOM     50  C   UNL A   1      42.165  27.492  31.709  1.00  0.00     0.031 C 
ATOM     51  C   UNL A   1      38.404  29.962  29.452  1.00  0.00     0.029 A 
ATOM     52  N   UNL A   1      39.115  30.752  31.419  1.00  0.00    -0.354 N 
ATOM     53  C   UNL A   1      42.212  28.698  33.648  1.00  0.00     0.074 A 
ATOM     54  C   UNL A   1      42.701  27.549  32.918  1.00  0.00     0.031 C 
ATOM     55  C   UNL A   1      37.670  31.051  29.738  1.00  0.00     0.029 A 
ATOM     56  C   UNL A   1      38.085  31.579  31.034  1.00  0.00     0.049 A 
ATOM     57  H   UNL A   1      39.618  30.874  32.256  1.00  0.00     0.167 HD
ATOM     58  C   UNL A   1      42.684  29.090  34.856  1.00  0.00     0.037 A 
ATOM     59  C   UNL A   1      37.533  32.636  31.661  1.00  0.00     0.037 A 
ATOM     60  C   UNL A   1      42.216  30.254  35.557  1.00  0.00     0.049 A 
ATOM     61  C   UNL A   1      38.075  33.057  33.002  1.00  0.00     0.074 A 
ATOM     62  C   UNL A   1      42.662  30.771  36.761  1.00  0.00     0.029 A 
ATOM     63  N   UNL A   1      41.199  31.088  35.116  1.00  0.00    -0.354 N 
ATOM     64  N   UNL A   1      39.036  32.513  33.709  1.00  0.00    -0.248 NA
ATOM     65  C   UNL A   1      37.461  34.237  33.627  1.00  0.00     0.031 C 
ATOM     66  C   UNL A   1      41.887  31.894  37.067  1.00  0.00     0.029 A 
ATOM     67  C   UNL A   1      40.994  32.109  36.029  1.00  0.00     0.049 A 
ATOM     68  H   UNL A   1      40.697  30.971  34.277  1.00  0.00     0.167 HD
ATOM     69  C   UNL A   1      39.169  33.306  34.844  1.00  0.00     0.074 A 
ATOM     70  C   UNL A   1      38.190  34.366  34.729  1.00  0.00     0.031 C 
ATOM     71  C   UNL A   1      40.028  33.170  35.885  1.00  0.00     0.037 A 
BRANCH  58  72
ATOM     72  C   UNL A   1      43.761  28.249  35.485  1.00  0.00     0.058 A 
ATOM     73  C   UNL A   1      45.121  28.455  35.197  1.00  0.00     0.135 A 
ATOM     74  C   UNL A   1      43.433  27.231  36.394  1.00  0.00     0.135 A 
ATOM     75  F   UNL A   1      45.491  29.403  34.322  1.00  0.00    -0.206 F 
ATOM     76  C   UNL A   1      46.112  27.655  35.755  1.00  0.00     0.059 A 
ATOM     77  C   UNL A   1      44.411  26.440  36.991  1.00  0.00     0.059 A 
ATOM     78  F   UNL A   1      42.150  26.989  36.706  1.00  0.00    -0.206 F 
ATOM     79  C   UNL A   1      45.747  26.648  36.649  1.00  0.00     0.060 A 
BRANCH  79  80
ATOM     80  S   UNL A   1      47.045  25.612  37.356  1.00  0.00     0.124 S 
ATOM     81  O   UNL A   1      46.314  24.378  37.628  1.00  0.00    -0.237 OA
ATOM     82  O   UNL A   1      48.018  25.545  36.269  1.00  0.00    -0.237 OA
ATOM     83  O   UNL A   1      47.474  26.360  38.533  1.00  0.00    -0.744 OA
ENDBRANCH  79  80
ENDBRANCH  58  72
BRANCH  59  84
ATOM     84  C   UNL A   1      36.425  33.390  31.013  1.00  0.00     0.058 A 
ATOM     85  C   UNL A   1      35.112  33.298  31.500  1.00  0.00     0.135 A 
ATOM     86  C   UNL A   1      36.654  34.227  29.910  1.00  0.00     0.135 A 
ATOM     87  F   UNL A   1      34.840  32.506  32.549  1.00  0.00    -0.206 F 
ATOM     88  C   UNL A   1      34.063  33.997  30.910  1.00  0.00     0.059 A 
ATOM     89  C   UNL A   1      35.626  34.955  29.317  1.00  0.00     0.059 A 
ATOM     90  F   UNL A   1      37.894  34.362  29.415  1.00  0.00    -0.206 F 
ATOM     91  C   UNL A   1      34.332  34.826  29.820  1.00  0.00     0.060 A 
BRANCH  91  92
ATOM     92  S   UNL A   1      32.970  35.767  29.094  1.00  0.00     0.124 S 
ATOM     93  O   UNL A   1      32.370  34.778  28.207  1.00  0.00    -0.237 OA
ATOM     94  O   UNL A   1      32.187  36.128  30.272  1.00  0.00    -0.237 OA
ATOM     95  O   UNL A   1      33.646  36.880  28.435  1.00  0.00    -0.744 OA
ENDBRANCH  91  92
ENDBRANCH  59  84
BRANCH  71  96
ATOM     96  C   UNL A   1      39.995  34.221  36.959  1.00  0.00     0.058 A 
ATOM     97  C   UNL A   1      40.796  35.371  36.896  1.00  0.00     0.135 A 
ATOM     98  C   UNL A   1      39.089  34.108  38.027  1.00  0.00     0.135 A 
ATOM     99  F   UNL A   1      41.682  35.524  35.900  1.00  0.00    -0.206 F 
ATOM    100  C   UNL A   1      40.709  36.367  37.864  1.00  0.00     0.059 A 
ATOM    101  C   UNL A   1      38.966  35.104  38.989  1.00  0.00     0.059 A 
ATOM    102  F   UNL A   1      38.293  33.031  38.127  1.00  0.00    -0.206 F 
ATOM    103  C   UNL A   1      39.787  36.227  38.903  1.00  0.00     0.060 A 
BRANCH 103 104
ATOM    104  S   UNL A   1      39.645  37.554  40.120  1.00  0.00     0.124 S 
ATOM    105  O   UNL A   1      39.954  36.849  41.359  1.00  0.00    -0.237 OA
ATOM    106  O   UNL A   1      40.652  38.506  39.663  1.00  0.00    -0.237 OA
ATOM    107  O   UNL A   1      38.262  37.999  39.979  1.00  0.00    -0.744 OA
ENDBRANCH 103 104
ENDBRANCH  71  96
ENDBRANCH  45  46
ENDBRANCH  37  40
ENDBRANCH  35  36
ENDBRANCH  34  35
ENDBRANCH  33  34
ENDBRANCH  32  33
ENDBRANCH  30  32
ENDBRANCH   1  28
TORSDOF 24
ENDMDL
