MODEL 1
REMARK VINA RESULT:     -11.5      0.000      0.000
REMARK SMILES O=C(NCCCCNC(=O)c1ccc(-c2ccsc2)cc1O)c1ccc(-c2c3nc(c(-c4c(F)cc(S(=O)(=O)[O-])cc4F)c4ccc([nH]4)c(-c4c(F)cc(S(=O)(=O)[O-])cc4F)c4nc(c(-c5c(F)cc(S(=O)(=O)[O-])cc5F)c5ccc2[nH]5)C=C4)C=C3)cc1
REMARK SMILES IDX 4 1 3 2 1 3 2 4 23 6 24 7 88 8 25 9 87 10 26 11 27 12 28 13
REMARK SMILES IDX 81 14 29 15 86 16 80 17 82 18 30 19 85 20 79 21 78 22 31 24
REMARK SMILES IDX 65 25 44 26 64 27 45 28 48 29 63 30 83 31 46 32 47 33 62 35
REMARK SMILES IDX 84 36 49 37 32 38 33 39 42 40 34 41 35 42 41 43 43 44 36 45
REMARK SMILES IDX 37 46 38 47 39 48 40 49 66 50 67 51 76 52 68 53 69 54 75 55
REMARK SMILES IDX 77 56 70 57 71 58 72 59 73 60 74 61 50 62 51 63 60 64 52 65
REMARK SMILES IDX 53 66 59 67 61 68 54 69 55 70 56 71 57 72 58 73 5 74 6 75
REMARK SMILES IDX 7 76 8 77 9 78 10 80 11 81 12 82 21 83 13 84 20 85 14 86
REMARK SMILES IDX 22 87 15 89 16 90 19 91 17 92 18 93
REMARK H PARENT 3 5 82 23 48 34 8 79 22 88
REMARK Flexibility Score: inf
ROOT
ATOM      1  C   UNL A   1      33.741  28.482  27.132  1.00  0.00     0.116 C 
ENDROOT
BRANCH   1   2
ATOM      2  N   UNL A   1      33.680  29.857  27.608  1.00  0.00    -0.352 N 
ATOM      3  O   UNL A   1      34.376  31.732  28.650  1.00  0.00    -0.269 OA
ATOM      4  C   UNL A   1      34.651  30.615  28.220  1.00  0.00     0.251 C 
ATOM      5  H   UNL A   1      32.817  30.311  27.471  1.00  0.00     0.163 HD
BRANCH   4   6
ATOM      6  C   UNL A   1      36.015  30.067  28.395  1.00  0.00     0.039 A 
ATOM      7  C   UNL A   1      36.404  29.492  29.605  1.00  0.00     0.014 A 
ATOM      8  C   UNL A   1      36.926  30.159  27.339  1.00  0.00     0.014 A 
ATOM      9  C   UNL A   1      37.743  29.180  29.820  1.00  0.00     0.010 A 
ATOM     10  C   UNL A   1      38.255  29.764  27.529  1.00  0.00     0.010 A 
ATOM     11  C   UNL A   1      38.686  29.322  28.788  1.00  0.00    -0.014 A 
BRANCH  11  12
ATOM     12  C   UNL A   1      40.112  29.002  29.064  1.00  0.00     0.031 A 
ATOM     13  C   UNL A   1      40.705  27.680  28.651  1.00  0.00     0.074 A 
ATOM     14  C   UNL A   1      40.893  29.939  29.635  1.00  0.00     0.049 A 
ATOM     15  N   UNL A   1      41.944  27.268  28.748  1.00  0.00    -0.248 NA
ATOM     16  C   UNL A   1      39.792  26.687  28.063  1.00  0.00     0.031 C 
ATOM     17  C   UNL A   1      40.432  31.251  30.096  1.00  0.00     0.029 A 
ATOM     18  N   UNL A   1      42.239  29.951  29.894  1.00  0.00    -0.354 N 
ATOM     19  C   UNL A   1      41.955  25.964  28.264  1.00  0.00     0.074 A 
ATOM     20  C   UNL A   1      40.594  25.645  27.888  1.00  0.00     0.031 C 
ATOM     21  C   UNL A   1      41.487  31.963  30.521  1.00  0.00     0.029 A 
ATOM     22  C   UNL A   1      42.689  31.145  30.405  1.00  0.00     0.049 A 
ATOM     23  H   UNL A   1      42.827  29.178  29.730  1.00  0.00     0.167 HD
ATOM     24  C   UNL A   1      43.002  25.112  28.140  1.00  0.00     0.037 A 
ATOM     25  C   UNL A   1      43.931  31.542  30.737  1.00  0.00     0.037 A 
ATOM     26  C   UNL A   1      44.364  25.444  28.476  1.00  0.00     0.049 A 
ATOM     27  C   UNL A   1      45.081  30.598  30.547  1.00  0.00     0.074 A 
ATOM     28  C   UNL A   1      45.498  24.661  28.348  1.00  0.00     0.029 A 
ATOM     29  N   UNL A   1      44.776  26.661  28.999  1.00  0.00    -0.354 N 
ATOM     30  N   UNL A   1      45.071  29.376  30.070  1.00  0.00    -0.248 NA
ATOM     31  C   UNL A   1      46.410  31.083  30.942  1.00  0.00     0.031 C 
ATOM     32  C   UNL A   1      46.595  25.398  28.814  1.00  0.00     0.029 A 
ATOM     33  C   UNL A   1      46.145  26.648  29.206  1.00  0.00     0.049 A 
ATOM     34  H   UNL A   1      44.182  27.422  29.193  1.00  0.00     0.167 HD
ATOM     35  C   UNL A   1      46.392  28.949  30.098  1.00  0.00     0.074 A 
ATOM     36  C   UNL A   1      47.177  30.050  30.623  1.00  0.00     0.031 C 
ATOM     37  C   UNL A   1      46.909  27.752  29.728  1.00  0.00     0.037 A 
BRANCH  24  38
ATOM     38  C   UNL A   1      42.716  23.729  27.629  1.00  0.00     0.058 A 
ATOM     39  C   UNL A   1      42.685  23.439  26.257  1.00  0.00     0.135 A 
ATOM     40  C   UNL A   1      42.501  22.671  28.528  1.00  0.00     0.135 A 
ATOM     41  F   UNL A   1      42.869  24.416  25.356  1.00  0.00    -0.206 F 
ATOM     42  C   UNL A   1      42.426  22.153  25.791  1.00  0.00     0.059 A 
ATOM     43  C   UNL A   1      42.259  21.373  28.085  1.00  0.00     0.059 A 
ATOM     44  F   UNL A   1      42.520  22.894  29.851  1.00  0.00    -0.206 F 
ATOM     45  C   UNL A   1      42.208  21.127  26.713  1.00  0.00     0.060 A 
BRANCH  45  46
ATOM     46  S   UNL A   1      41.868  19.463  26.100  1.00  0.00     0.124 S 
ATOM     47  O   UNL A   1      42.255  18.648  27.248  1.00  0.00    -0.237 OA
ATOM     48  O   UNL A   1      40.437  19.517  25.816  1.00  0.00    -0.237 OA
ATOM     49  O   UNL A   1      42.731  19.350  24.929  1.00  0.00    -0.744 OA
ENDBRANCH  45  46
ENDBRANCH  24  38
BRANCH  25  50
ATOM     50  C   UNL A   1      44.146  32.916  31.258  1.00  0.00     0.058 A 
ATOM     51  C   UNL A   1      44.442  33.976  30.391  1.00  0.00     0.135 A 
ATOM     52  C   UNL A   1      44.015  33.201  32.625  1.00  0.00     0.135 A 
ATOM     53  F   UNL A   1      44.577  33.748  29.075  1.00  0.00    -0.206 F 
ATOM     54  C   UNL A   1      44.608  35.274  30.859  1.00  0.00     0.059 A 
ATOM     55  C   UNL A   1      44.157  34.494  33.116  1.00  0.00     0.059 A 
ATOM     56  F   UNL A   1      43.715  32.220  33.491  1.00  0.00    -0.206 F 
ATOM     57  C   UNL A   1      44.460  35.524  32.225  1.00  0.00     0.060 A 
BRANCH  57  58
ATOM     58  S   UNL A   1      44.602  37.221  32.824  1.00  0.00     0.124 S 
ATOM     59  O   UNL A   1      46.047  37.412  32.820  1.00  0.00    -0.237 OA
ATOM     60  O   UNL A   1      43.856  37.971  31.819  1.00  0.00    -0.237 OA
ATOM     61  O   UNL A   1      43.974  37.162  34.140  1.00  0.00    -0.744 OA
ENDBRANCH  57  58
ENDBRANCH  25  50
BRANCH  37  62
ATOM     62  C   UNL A   1      48.394  27.583  29.863  1.00  0.00     0.058 A 
ATOM     63  C   UNL A   1      49.264  27.910  28.813  1.00  0.00     0.135 A 
ATOM     64  C   UNL A   1      48.952  27.106  31.058  1.00  0.00     0.135 A 
ATOM     65  F   UNL A   1      48.777  28.363  27.647  1.00  0.00    -0.206 F 
ATOM     66  C   UNL A   1      50.640  27.744  28.933  1.00  0.00     0.059 A 
ATOM     67  C   UNL A   1      50.326  26.949  31.207  1.00  0.00     0.059 A 
ATOM     68  F   UNL A   1      48.161  26.787  32.095  1.00  0.00    -0.206 F 
ATOM     69  C   UNL A   1      51.161  27.256  30.134  1.00  0.00     0.060 A 
BRANCH  69  70
ATOM     70  S   UNL A   1      52.948  27.053  30.290  1.00  0.00     0.124 S 
ATOM     71  O   UNL A   1      53.322  28.281  30.985  1.00  0.00    -0.237 OA
ATOM     72  O   UNL A   1      53.062  25.824  31.070  1.00  0.00    -0.237 OA
ATOM     73  O   UNL A   1      53.396  26.951  28.905  1.00  0.00    -0.744 OA
ENDBRANCH  69  70
ENDBRANCH  37  62
ENDBRANCH  11  12
ENDBRANCH   4   6
ENDBRANCH   1   2
BRANCH   1  74
ATOM     74  C   UNL A   1      32.372  27.823  27.010  1.00  0.00     0.023 C 
BRANCH  74  75
ATOM     75  C   UNL A   1      32.369  26.415  26.422  1.00  0.00     0.023 C 
BRANCH  75  76
ATOM     76  C   UNL A   1      31.003  25.742  26.336  1.00  0.00     0.116 C 
BRANCH  76  77
ATOM     77  N   UNL A   1      30.871  24.869  25.181  1.00  0.00    -0.352 N 
ATOM     78  C   UNL A   1      30.454  25.199  23.915  1.00  0.00     0.255 C 
ATOM     79  H   UNL A   1      31.110  23.925  25.325  1.00  0.00     0.163 HD
ATOM     80  O   UNL A   1      30.368  24.351  23.032  1.00  0.00    -0.269 OA
BRANCH  78  81
ATOM     81  C   UNL A   1      30.010  26.578  23.644  1.00  0.00     0.081 A 
ATOM     82  C   UNL A   1      30.997  27.522  23.348  1.00  0.00     0.018 A 
ATOM     83  C   UNL A   1      28.659  26.940  23.627  1.00  0.00     0.128 A 
ATOM     84  C   UNL A   1      30.628  28.811  22.962  1.00  0.00     0.010 A 
ATOM     85  C   UNL A   1      28.289  28.229  23.241  1.00  0.00     0.055 A 
ATOM     86  C   UNL A   1      29.273  29.163  22.879  1.00  0.00    -0.014 A 
BRANCH  83  87
ATOM     87  O   UNL A   1      27.697  26.023  23.947  1.00  0.00    -0.507 OA
ATOM     88  H   UNL A   1      27.247  25.562  23.268  1.00  0.00     0.293 HD
ENDBRANCH  83  87
BRANCH  86  89
ATOM     89  C   UNL A   1      28.875  30.477  22.390  1.00  0.00    -0.008 A 
ATOM     90  C   UNL A   1      28.893  31.714  23.111  1.00  0.00     0.020 A 
ATOM     91  C   UNL A   1      28.355  30.649  21.122  1.00  0.00     0.073 A 
ATOM     92  C   UNL A   1      28.409  32.765  22.365  1.00  0.00     0.065 A 
ATOM     93  S   UNL A   1      27.922  32.274  20.803  1.00  0.00    -0.152 S 
ENDBRANCH  86  89
ENDBRANCH  78  81
ENDBRANCH  76  77
ENDBRANCH  75  76
ENDBRANCH  74  75
ENDBRANCH   1  74
TORSDOF 16
ENDMDL
MODEL 2
REMARK VINA RESULT:     -11.4      5.134     10.840
REMARK SMILES O=C(NCCCCNC(=O)c1ccc(-c2ccsc2)cc1O)c1ccc(-c2c3nc(c(-c4c(F)cc(S(=O)(=O)[O-])cc4F)c4ccc([nH]4)c(-c4c(F)cc(S(=O)(=O)[O-])cc4F)c4nc(c(-c5c(F)cc(S(=O)(=O)[O-])cc5F)c5ccc2[nH]5)C=C4)C=C3)cc1
REMARK SMILES IDX 4 1 3 2 1 3 2 4 23 6 24 7 88 8 25 9 87 10 26 11 27 12 28 13
REMARK SMILES IDX 81 14 29 15 86 16 80 17 82 18 30 19 85 20 79 21 78 22 31 24
REMARK SMILES IDX 65 25 44 26 64 27 45 28 48 29 63 30 83 31 46 32 47 33 62 35
REMARK SMILES IDX 84 36 49 37 32 38 33 39 42 40 34 41 35 42 41 43 43 44 36 45
REMARK SMILES IDX 37 46 38 47 39 48 40 49 66 50 67 51 76 52 68 53 69 54 75 55
REMARK SMILES IDX 77 56 70 57 71 58 72 59 73 60 74 61 50 62 51 63 60 64 52 65
REMARK SMILES IDX 53 66 59 67 61 68 54 69 55 70 56 71 57 72 58 73 5 74 6 75
REMARK SMILES IDX 7 76 8 77 9 78 10 80 11 81 12 82 21 83 13 84 20 85 14 86
REMARK SMILES IDX 22 87 15 89 16 90 19 91 17 92 18 93
REMARK H PARENT 3 5 82 23 48 34 8 79 22 88
REMARK Flexibility Score: inf
ROOT
ATOM      1  C   UNL A   1      41.676  22.455  26.241  1.00  0.00     0.116 C 
ENDROOT
BRANCH   1   2
ATOM      2  N   UNL A   1      40.287  22.330  25.823  1.00  0.00    -0.352 N 
ATOM      3  O   UNL A   1      38.087  22.821  25.735  1.00  0.00    -0.269 OA
ATOM      4  C   UNL A   1      39.215  23.151  26.091  1.00  0.00     0.251 C 
ATOM      5  H   UNL A   1      40.084  21.543  25.267  1.00  0.00     0.163 HD
BRANCH   4   6
ATOM      6  C   UNL A   1      39.419  24.410  26.842  1.00  0.00     0.039 A 
ATOM      7  C   UNL A   1      40.116  25.476  26.272  1.00  0.00     0.014 A 
ATOM      8  C   UNL A   1      38.932  24.511  28.148  1.00  0.00     0.014 A 
ATOM      9  C   UNL A   1      40.482  26.560  27.063  1.00  0.00     0.010 A 
ATOM     10  C   UNL A   1      39.227  25.642  28.916  1.00  0.00     0.010 A 
ATOM     11  C   UNL A   1      40.052  26.651  28.398  1.00  0.00    -0.014 A 
BRANCH  11  12
ATOM     12  C   UNL A   1      40.484  27.813  29.219  1.00  0.00     0.031 A 
ATOM     13  C   UNL A   1      41.882  27.895  29.776  1.00  0.00     0.074 A 
ATOM     14  C   UNL A   1      39.626  28.834  29.408  1.00  0.00     0.049 A 
ATOM     15  N   UNL A   1      42.444  28.868  30.447  1.00  0.00    -0.248 NA
ATOM     16  C   UNL A   1      42.759  26.732  29.562  1.00  0.00     0.031 C 
ATOM     17  C   UNL A   1      38.239  28.866  28.935  1.00  0.00     0.029 A 
ATOM     18  N   UNL A   1      39.797  30.052  30.014  1.00  0.00    -0.354 N 
ATOM     19  C   UNL A   1      43.726  28.427  30.762  1.00  0.00     0.074 A 
ATOM     20  C   UNL A   1      43.854  27.090  30.222  1.00  0.00     0.031 C 
ATOM     21  C   UNL A   1      37.708  30.067  29.211  1.00  0.00     0.029 A 
ATOM     22  C   UNL A   1      38.698  30.871  29.919  1.00  0.00     0.049 A 
ATOM     23  H   UNL A   1      40.627  30.314  30.474  1.00  0.00     0.167 HD
ATOM     24  C   UNL A   1      44.706  29.077  31.434  1.00  0.00     0.037 A 
ATOM     25  C   UNL A   1      38.507  32.133  30.346  1.00  0.00     0.037 A 
ATOM     26  C   UNL A   1      44.593  30.423  31.936  1.00  0.00     0.049 A 
ATOM     27  C   UNL A   1      39.625  32.849  31.047  1.00  0.00     0.074 A 
ATOM     28  C   UNL A   1      45.547  31.181  32.595  1.00  0.00     0.029 A 
ATOM     29  N   UNL A   1      43.460  31.216  31.826  1.00  0.00    -0.354 N 
ATOM     30  N   UNL A   1      40.834  32.420  31.317  1.00  0.00    -0.248 NA
ATOM     31  C   UNL A   1      39.351  34.218  31.504  1.00  0.00     0.031 C 
ATOM     32  C   UNL A   1      44.982  32.425  32.904  1.00  0.00     0.029 A 
ATOM     33  C   UNL A   1      43.688  32.451  32.412  1.00  0.00     0.049 A 
ATOM     34  H   UNL A   1      42.619  30.942  31.395  1.00  0.00     0.167 HD
ATOM     35  C   UNL A   1      41.470  33.469  31.967  1.00  0.00     0.074 A 
ATOM     36  C   UNL A   1      40.517  34.560  32.034  1.00  0.00     0.031 C 
ATOM     37  C   UNL A   1      42.728  33.524  32.469  1.00  0.00     0.037 A 
BRANCH  24  38
ATOM     38  C   UNL A   1      45.990  28.336  31.680  1.00  0.00     0.058 A 
ATOM     39  C   UNL A   1      46.168  27.519  32.807  1.00  0.00     0.135 A 
ATOM     40  C   UNL A   1      47.046  28.419  30.758  1.00  0.00     0.135 A 
ATOM     41  F   UNL A   1      45.195  27.416  33.727  1.00  0.00    -0.206 F 
ATOM     42  C   UNL A   1      47.357  26.830  33.025  1.00  0.00     0.059 A 
ATOM     43  C   UNL A   1      48.237  27.724  30.946  1.00  0.00     0.059 A 
ATOM     44  F   UNL A   1      46.927  29.187  29.664  1.00  0.00    -0.206 F 
ATOM     45  C   UNL A   1      48.389  26.943  32.092  1.00  0.00     0.060 A 
BRANCH  45  46
ATOM     46  S   UNL A   1      49.932  26.051  32.385  1.00  0.00     0.124 S 
ATOM     47  O   UNL A   1      49.668  25.438  33.683  1.00  0.00    -0.237 OA
ATOM     48  O   UNL A   1      49.987  25.133  31.251  1.00  0.00    -0.237 OA
ATOM     49  O   UNL A   1      50.939  27.107  32.381  1.00  0.00    -0.744 OA
ENDBRANCH  45  46
ENDBRANCH  24  38
BRANCH  25  50
ATOM     50  C   UNL A   1      37.208  32.804  30.093  1.00  0.00     0.058 A 
ATOM     51  C   UNL A   1      36.137  32.658  30.985  1.00  0.00     0.135 A 
ATOM     52  C   UNL A   1      37.026  33.637  28.979  1.00  0.00     0.135 A 
ATOM     53  F   UNL A   1      36.266  31.868  32.063  1.00  0.00    -0.206 F 
ATOM     54  C   UNL A   1      34.926  33.310  30.782  1.00  0.00     0.059 A 
ATOM     55  C   UNL A   1      35.833  34.316  28.764  1.00  0.00     0.059 A 
ATOM     56  F   UNL A   1      38.030  33.821  28.107  1.00  0.00    -0.206 F 
ATOM     57  C   UNL A   1      34.785  34.141  29.668  1.00  0.00     0.060 A 
BRANCH  57  58
ATOM     58  S   UNL A   1      33.239  35.045  29.443  1.00  0.00     0.124 S 
ATOM     59  O   UNL A   1      32.660  34.973  30.779  1.00  0.00    -0.237 OA
ATOM     60  O   UNL A   1      33.706  36.362  29.019  1.00  0.00    -0.237 OA
ATOM     61  O   UNL A   1      32.551  34.275  28.412  1.00  0.00    -0.744 OA
ENDBRANCH  57  58
ENDBRANCH  25  50
BRANCH  37  62
ATOM     62  C   UNL A   1      43.147  34.812  33.115  1.00  0.00     0.058 A 
ATOM     63  C   UNL A   1      43.015  35.012  34.497  1.00  0.00     0.135 A 
ATOM     64  C   UNL A   1      43.700  35.848  32.348  1.00  0.00     0.135 A 
ATOM     65  F   UNL A   1      42.484  34.052  35.271  1.00  0.00    -0.206 F 
ATOM     66  C   UNL A   1      43.393  36.209  35.096  1.00  0.00     0.059 A 
ATOM     67  C   UNL A   1      44.102  37.047  32.928  1.00  0.00     0.059 A 
ATOM     68  F   UNL A   1      43.854  35.701  31.022  1.00  0.00    -0.206 F 
ATOM     69  C   UNL A   1      43.930  37.224  34.300  1.00  0.00     0.060 A 
BRANCH  69  70
ATOM     70  S   UNL A   1      44.430  38.773  35.082  1.00  0.00     0.124 S 
ATOM     71  O   UNL A   1      44.085  38.519  36.478  1.00  0.00    -0.237 OA
ATOM     72  O   UNL A   1      45.858  38.834  34.784  1.00  0.00    -0.237 OA
ATOM     73  O   UNL A   1      43.611  39.771  34.402  1.00  0.00    -0.744 OA
ENDBRANCH  69  70
ENDBRANCH  37  62
ENDBRANCH  11  12
ENDBRANCH   4   6
ENDBRANCH   1   2
BRANCH   1  74
ATOM     74  C   UNL A   1      41.928  21.954  27.658  1.00  0.00     0.023 C 
BRANCH  74  75
ATOM     75  C   UNL A   1      42.251  23.031  28.690  1.00  0.00     0.023 C 
BRANCH  75  76
ATOM     76  C   UNL A   1      43.735  23.252  28.967  1.00  0.00     0.116 C 
BRANCH  76  77
ATOM     77  N   UNL A   1      44.597  22.597  27.997  1.00  0.00    -0.352 N 
ATOM     78  C   UNL A   1      45.412  23.183  27.059  1.00  0.00     0.255 C 
ATOM     79  H   UNL A   1      44.599  21.613  28.016  1.00  0.00     0.163 HD
ATOM     80  O   UNL A   1      46.077  22.505  26.282  1.00  0.00    -0.269 OA
BRANCH  78  81
ATOM     81  C   UNL A   1      45.406  24.650  26.923  1.00  0.00     0.081 A 
ATOM     82  C   UNL A   1      44.318  25.227  26.262  1.00  0.00     0.018 A 
ATOM     83  C   UNL A   1      46.410  25.457  27.468  1.00  0.00     0.128 A 
ATOM     84  C   UNL A   1      44.197  26.616  26.211  1.00  0.00     0.010 A 
ATOM     85  C   UNL A   1      46.289  26.846  27.418  1.00  0.00     0.055 A 
ATOM     86  C   UNL A   1      45.166  27.432  26.813  1.00  0.00    -0.014 A 
BRANCH  83  87
ATOM     87  O   UNL A   1      47.488  24.890  28.088  1.00  0.00    -0.507 OA
ATOM     88  H   UNL A   1      47.952  25.365  28.748  1.00  0.00     0.293 HD
ENDBRANCH  83  87
BRANCH  86  89
ATOM     89  C   UNL A   1      45.002  28.881  26.845  1.00  0.00    -0.008 A 
ATOM     90  C   UNL A   1      43.802  29.613  27.114  1.00  0.00     0.020 A 
ATOM     91  C   UNL A   1      46.047  29.732  26.540  1.00  0.00     0.073 A 
ATOM     92  C   UNL A   1      43.985  30.975  27.021  1.00  0.00     0.065 A 
ATOM     93  S   UNL A   1      45.591  31.381  26.602  1.00  0.00    -0.152 S 
ENDBRANCH  86  89
ENDBRANCH  78  81
ENDBRANCH  76  77
ENDBRANCH  75  76
ENDBRANCH  74  75
ENDBRANCH   1  74
TORSDOF 16
ENDMDL
MODEL 3
REMARK VINA RESULT:     -11.4      5.451     10.367
REMARK SMILES O=C(NCCCCNC(=O)c1ccc(-c2ccsc2)cc1O)c1ccc(-c2c3nc(c(-c4c(F)cc(S(=O)(=O)[O-])cc4F)c4ccc([nH]4)c(-c4c(F)cc(S(=O)(=O)[O-])cc4F)c4nc(c(-c5c(F)cc(S(=O)(=O)[O-])cc5F)c5ccc2[nH]5)C=C4)C=C3)cc1
REMARK SMILES IDX 4 1 3 2 1 3 2 4 23 6 24 7 88 8 25 9 87 10 26 11 27 12 28 13
REMARK SMILES IDX 81 14 29 15 86 16 80 17 82 18 30 19 85 20 79 21 78 22 31 24
REMARK SMILES IDX 65 25 44 26 64 27 45 28 48 29 63 30 83 31 46 32 47 33 62 35
REMARK SMILES IDX 84 36 49 37 32 38 33 39 42 40 34 41 35 42 41 43 43 44 36 45
REMARK SMILES IDX 37 46 38 47 39 48 40 49 66 50 67 51 76 52 68 53 69 54 75 55
REMARK SMILES IDX 77 56 70 57 71 58 72 59 73 60 74 61 50 62 51 63 60 64 52 65
REMARK SMILES IDX 53 66 59 67 61 68 54 69 55 70 56 71 57 72 58 73 5 74 6 75
REMARK SMILES IDX 7 76 8 77 9 78 10 80 11 81 12 82 21 83 13 84 20 85 14 86
REMARK SMILES IDX 22 87 15 89 16 90 19 91 17 92 18 93
REMARK H PARENT 3 5 82 23 48 34 8 79 22 88
REMARK Flexibility Score: inf
ROOT
ATOM      1  C   UNL A   1      41.708  23.071  27.177  1.00  0.00     0.116 C 
ENDROOT
BRANCH   1   2
ATOM      2  N   UNL A   1      41.646  24.016  26.070  1.00  0.00    -0.352 N 
ATOM      3  O   UNL A   1      41.308  25.992  25.036  1.00  0.00    -0.269 OA
ATOM      4  C   UNL A   1      41.432  25.376  26.091  1.00  0.00     0.251 C 
ATOM      5  H   UNL A   1      41.777  23.625  25.176  1.00  0.00     0.163 HD
BRANCH   4   6
ATOM      6  C   UNL A   1      41.313  26.084  27.385  1.00  0.00     0.039 A 
ATOM      7  C   UNL A   1      40.168  25.949  28.171  1.00  0.00     0.014 A 
ATOM      8  C   UNL A   1      42.352  26.923  27.800  1.00  0.00     0.014 A 
ATOM      9  C   UNL A   1      39.985  26.783  29.269  1.00  0.00     0.010 A 
ATOM     10  C   UNL A   1      42.202  27.699  28.954  1.00  0.00     0.010 A 
ATOM     11  C   UNL A   1      40.995  27.676  29.668  1.00  0.00    -0.014 A 
BRANCH  11  12
ATOM     12  C   UNL A   1      40.751  28.568  30.832  1.00  0.00     0.031 A 
ATOM     13  C   UNL A   1      41.648  28.529  32.042  1.00  0.00     0.074 A 
ATOM     14  C   UNL A   1      39.749  29.467  30.768  1.00  0.00     0.049 A 
ATOM     15  N   UNL A   1      41.622  29.287  33.109  1.00  0.00    -0.248 NA
ATOM     16  C   UNL A   1      42.703  27.503  32.065  1.00  0.00     0.031 C 
ATOM     17  C   UNL A   1      38.801  29.590  29.657  1.00  0.00     0.029 A 
ATOM     18  N   UNL A   1      39.380  30.466  31.631  1.00  0.00    -0.354 N 
ATOM     19  C   UNL A   1      42.632  28.813  33.941  1.00  0.00     0.074 A 
ATOM     20  C   UNL A   1      43.243  27.691  33.262  1.00  0.00     0.031 C 
ATOM     21  C   UNL A   1      38.002  30.646  29.878  1.00  0.00     0.029 A 
ATOM     22  C   UNL A   1      38.351  31.245  31.161  1.00  0.00     0.049 A 
ATOM     23  H   UNL A   1      39.812  30.610  32.505  1.00  0.00     0.167 HD
ATOM     24  C   UNL A   1      43.017  29.274  35.156  1.00  0.00     0.037 A 
ATOM     25  C   UNL A   1      37.756  32.326  31.698  1.00  0.00     0.037 A 
ATOM     26  C   UNL A   1      42.437  30.418  35.814  1.00  0.00     0.049 A 
ATOM     27  C   UNL A   1      38.232  32.845  33.023  1.00  0.00     0.074 A 
ATOM     28  C   UNL A   1      42.787  30.984  37.028  1.00  0.00     0.029 A 
ATOM     29  N   UNL A   1      41.390  31.174  35.308  1.00  0.00    -0.354 N 
ATOM     30  N   UNL A   1      39.200  32.393  33.783  1.00  0.00    -0.248 NA
ATOM     31  C   UNL A   1      37.533  34.018  33.565  1.00  0.00     0.031 C 
ATOM     32  C   UNL A   1      41.936  32.071  37.267  1.00  0.00     0.029 A 
ATOM     33  C   UNL A   1      41.076  32.197  36.188  1.00  0.00     0.049 A 
ATOM     34  H   UNL A   1      40.937  31.009  34.450  1.00  0.00     0.167 HD
ATOM     35  C   UNL A   1      39.234  33.233  34.889  1.00  0.00     0.074 A 
ATOM     36  C   UNL A   1      38.200  34.230  34.690  1.00  0.00     0.031 C 
ATOM     37  C   UNL A   1      40.045  33.180  35.974  1.00  0.00     0.037 A 
BRANCH  24  38
ATOM     38  C   UNL A   1      44.115  28.533  35.864  1.00  0.00     0.058 A 
ATOM     39  C   UNL A   1      43.844  27.482  36.753  1.00  0.00     0.135 A 
ATOM     40  C   UNL A   1      45.461  28.859  35.626  1.00  0.00     0.135 A 
ATOM     41  F   UNL A   1      42.575  27.140  37.028  1.00  0.00    -0.206 F 
ATOM     42  C   UNL A   1      44.866  26.795  37.401  1.00  0.00     0.059 A 
ATOM     43  C   UNL A   1      46.500  28.173  36.248  1.00  0.00     0.059 A 
ATOM     44  F   UNL A   1      45.775  29.856  34.785  1.00  0.00    -0.206 F 
ATOM     45  C   UNL A   1      46.192  27.151  37.146  1.00  0.00     0.060 A 
BRANCH  45  46
ATOM     46  S   UNL A   1      47.513  26.259  37.995  1.00  0.00     0.124 S 
ATOM     47  O   UNL A   1      48.517  27.307  38.149  1.00  0.00    -0.237 OA
ATOM     48  O   UNL A   1      46.861  25.821  39.225  1.00  0.00    -0.237 OA
ATOM     49  O   UNL A   1      47.856  25.192  37.059  1.00  0.00    -0.744 OA
ENDBRANCH  45  46
ENDBRANCH  24  38
BRANCH  25  50
ATOM     50  C   UNL A   1      36.660  33.002  30.959  1.00  0.00     0.058 A 
ATOM     51  C   UNL A   1      35.323  32.836  31.346  1.00  0.00     0.135 A 
ATOM     52  C   UNL A   1      36.932  33.859  29.883  1.00  0.00     0.135 A 
ATOM     53  F   UNL A   1      35.017  32.023  32.369  1.00  0.00    -0.206 F 
ATOM     54  C   UNL A   1      34.289  33.492  30.688  1.00  0.00     0.059 A 
ATOM     55  C   UNL A   1      35.918  34.542  29.222  1.00  0.00     0.059 A 
ATOM     56  F   UNL A   1      38.199  34.062  29.489  1.00  0.00    -0.206 F 
ATOM     57  C   UNL A   1      34.597  34.347  29.627  1.00  0.00     0.060 A 
BRANCH  57  58
ATOM     58  S   UNL A   1      33.262  35.255  28.820  1.00  0.00     0.124 S 
ATOM     59  O   UNL A   1      34.005  36.262  28.073  1.00  0.00    -0.237 OA
ATOM     60  O   UNL A   1      32.614  34.217  28.025  1.00  0.00    -0.237 OA
ATOM     61  O   UNL A   1      32.474  35.753  29.943  1.00  0.00    -0.744 OA
ENDBRANCH  57  58
ENDBRANCH  25  50
BRANCH  37  62
ATOM     62  C   UNL A   1      39.854  34.242  37.017  1.00  0.00     0.058 A 
ATOM     63  C   UNL A   1      39.045  34.024  38.142  1.00  0.00     0.135 A 
ATOM     64  C   UNL A   1      40.500  35.482  36.899  1.00  0.00     0.135 A 
ATOM     65  F   UNL A   1      38.401  32.856  38.295  1.00  0.00    -0.206 F 
ATOM     66  C   UNL A   1      38.860  35.011  39.104  1.00  0.00     0.059 A 
ATOM     67  C   UNL A   1      40.343  36.477  37.857  1.00  0.00     0.059 A 
ATOM     68  F   UNL A   1      41.291  35.735  35.844  1.00  0.00    -0.206 F 
ATOM     69  C   UNL A   1      39.509  36.238  38.948  1.00  0.00     0.060 A 
BRANCH  69  70
ATOM     70  S   UNL A   1      39.274  37.514  40.205  1.00  0.00     0.124 S 
ATOM     71  O   UNL A   1      38.822  36.722  41.344  1.00  0.00    -0.237 OA
ATOM     72  O   UNL A   1      40.610  38.091  40.326  1.00  0.00    -0.237 OA
ATOM     73  O   UNL A   1      38.272  38.391  39.609  1.00  0.00    -0.744 OA
ENDBRANCH  69  70
ENDBRANCH  37  62
ENDBRANCH  11  12
ENDBRANCH   4   6
ENDBRANCH   1   2
BRANCH   1  74
ATOM     74  C   UNL A   1      40.418  22.284  27.373  1.00  0.00     0.023 C 
BRANCH  74  75
ATOM     75  C   UNL A   1      39.730  21.818  26.093  1.00  0.00     0.023 C 
BRANCH  75  76
ATOM     76  C   UNL A   1      38.281  22.264  25.926  1.00  0.00     0.116 C 
BRANCH  76  77
ATOM     77  N   UNL A   1      37.388  21.175  25.565  1.00  0.00    -0.352 N 
ATOM     78  C   UNL A   1      36.105  21.259  25.083  1.00  0.00     0.255 C 
ATOM     79  H   UNL A   1      37.748  20.266  25.680  1.00  0.00     0.163 HD
ATOM     80  O   UNL A   1      35.451  20.250  24.837  1.00  0.00    -0.269 OA
BRANCH  78  81
ATOM     81  C   UNL A   1      35.473  22.584  24.955  1.00  0.00     0.081 A 
ATOM     82  C   UNL A   1      35.359  23.117  23.668  1.00  0.00     0.018 A 
ATOM     83  C   UNL A   1      34.954  23.276  26.054  1.00  0.00     0.128 A 
ATOM     84  C   UNL A   1      34.660  24.309  23.473  1.00  0.00     0.010 A 
ATOM     85  C   UNL A   1      34.255  24.467  25.860  1.00  0.00     0.055 A 
ATOM     86  C   UNL A   1      34.080  24.975  24.562  1.00  0.00    -0.014 A 
BRANCH  83  87
ATOM     87  O   UNL A   1      35.093  22.768  27.316  1.00  0.00    -0.507 OA
ATOM     88  H   UNL A   1      34.657  23.177  28.036  1.00  0.00     0.293 HD
ENDBRANCH  83  87
BRANCH  86  89
ATOM     89  C   UNL A   1      33.272  26.170  24.357  1.00  0.00    -0.008 A 
ATOM     90  C   UNL A   1      33.630  27.523  24.658  1.00  0.00     0.020 A 
ATOM     91  C   UNL A   1      31.978  26.094  23.877  1.00  0.00     0.073 A 
ATOM     92  C   UNL A   1      32.615  28.411  24.381  1.00  0.00     0.065 A 
ATOM     93  S   UNL A   1      31.225  27.627  23.769  1.00  0.00    -0.152 S 
ENDBRANCH  86  89
ENDBRANCH  78  81
ENDBRANCH  76  77
ENDBRANCH  75  76
ENDBRANCH  74  75
ENDBRANCH   1  74
TORSDOF 16
ENDMDL
