MODEL 1
REMARK VINA RESULT:     -10.9      0.000      0.000
REMARK SMILES CCCC1(CCC)C[NH+]([C@H]2CCC[C@@H](C(=O)NCCCCNC(=O)c3ccc(-c4c5nc(c(-c6c(F)cc(S(=O)(=O)[O-])cc6F)c6ccc([nH]6)c(-c6c(F)cc(S(=O)(=O)[O-])cc6F)c6nc(c(-c7c(F)cc(S(=O)(=O)[O-])cc7F)c7ccc4[nH]7)C=C6)C=C5)cc3)C2)C1
REMARK SMILES IDX 19 1 18 2 17 3 15 4 16 5 14 7 10 8 11 9 91 10 12 11 13 12
REMARK SMILES IDX 9 13 4 14 8 15 92 16 3 18 2 19 1 20 5 21 6 22 7 23 20 24
REMARK SMILES IDX 21 25 22 26 23 27 24 29 25 30 26 31 90 32 27 33 89 34 28 35
REMARK SMILES IDX 29 36 30 37 83 38 31 39 88 40 82 41 84 42 32 43 87 44 81 45
REMARK SMILES IDX 80 46 33 48 67 49 46 50 66 51 47 52 50 53 65 54 85 55 48 56
REMARK SMILES IDX 49 57 64 59 86 60 51 61 34 62 35 63 44 64 36 65 37 66 43 67
REMARK SMILES IDX 45 68 38 69 39 70 40 71 41 72 42 73 68 74 69 75 78 76 70 77
REMARK SMILES IDX 71 78 77 79 79 80 72 81 73 82 74 83 75 84 76 85 52 86 53 87
REMARK SMILES IDX 62 88 54 89 55 90 61 91 63 92 56 93 57 94 58 95 59 96 60 97
REMARK H PARENT 17 6 9 17 22 28 84 47 50 58
REMARK Flexibility Score: inf
ROOT
ATOM      1  C   UNL A   1      31.738  29.140  25.506  1.00  0.00     0.023 C 
ENDROOT
BRANCH   1   2
ATOM      2  C   UNL A   1      31.122  28.516  24.259  1.00  0.00     0.116 C 
BRANCH   2   3
ATOM      3  N   UNL A   1      32.003  27.620  23.540  1.00  0.00    -0.356 N 
ATOM      4  C   UNL A   1      31.762  26.348  23.100  1.00  0.00     0.223 C 
ATOM      5  O   UNL A   1      32.668  25.776  22.487  1.00  0.00    -0.275 OA
ATOM      6  H   UNL A   1      32.900  27.975  23.342  1.00  0.00     0.163 HD
BRANCH   4   7
ATOM      7  C   UNL A   1      30.453  25.626  23.456  1.00  0.00     0.084 C 
ATOM      8  C   UNL A   1      31.275  23.304  24.215  1.00  0.00     0.184 C 
ATOM      9  C   UNL A   1      30.688  23.559  25.614  1.00  0.00     0.065 C 
ATOM     10  C   UNL A   1      30.416  24.113  23.231  1.00  0.00     0.078 C 
ATOM     11  C   UNL A   1      30.516  25.029  26.003  1.00  0.00     0.007 C 
ATOM     12  C   UNL A   1      29.971  25.936  24.894  1.00  0.00     0.014 C 
BRANCH   8  13
ATOM     13  N   UNL A   1      32.716  23.469  23.920  1.00  0.00    -0.331 N 
ATOM     14  C   UNL A   1      34.524  22.335  24.216  1.00  0.00     0.068 C 
ATOM     15  C   UNL A   1      33.289  22.288  23.249  1.00  0.00     0.275 C 
ATOM     16  C   UNL A   1      33.651  23.313  25.040  1.00  0.00     0.275 C 
ATOM     17  H   UNL A   1      32.669  24.382  23.466  1.00  0.00     0.348 HD
BRANCH  14  18
ATOM     18  C   UNL A   1      34.924  21.048  24.977  1.00  0.00     0.018 C 
BRANCH  18  19
ATOM     19  C   UNL A   1      34.140  19.772  24.682  1.00  0.00    -0.002 C 
ATOM     20  C   UNL A   1      32.953  19.545  25.607  1.00  0.00     0.004 C 
ENDBRANCH  18  19
ENDBRANCH  14  18
BRANCH  14  21
ATOM     21  C   UNL A   1      35.771  23.010  23.575  1.00  0.00     0.018 C 
BRANCH  21  22
ATOM     22  C   UNL A   1      37.103  22.845  24.331  1.00  0.00    -0.002 C 
ATOM     23  C   UNL A   1      37.255  23.623  25.629  1.00  0.00     0.004 C 
ENDBRANCH  21  22
ENDBRANCH  14  21
ENDBRANCH   8  13
ENDBRANCH   4   7
ENDBRANCH   2   3
ENDBRANCH   1   2
BRANCH   1  24
ATOM     24  C   UNL A   1      32.217  28.148  26.567  1.00  0.00     0.023 C 
BRANCH  24  25
ATOM     25  C   UNL A   1      33.493  28.537  27.314  1.00  0.00     0.116 C 
BRANCH  25  26
ATOM     26  N   UNL A   1      33.541  29.951  27.666  1.00  0.00    -0.352 N 
ATOM     27  C   UNL A   1      34.543  30.699  28.244  1.00  0.00     0.251 C 
ATOM     28  H   UNL A   1      32.721  30.454  27.456  1.00  0.00     0.163 HD
ATOM     29  O   UNL A   1      34.308  31.847  28.603  1.00  0.00    -0.269 OA
BRANCH  27  30
ATOM     30  C   UNL A   1      35.888  30.119  28.459  1.00  0.00     0.039 A 
ATOM     31  C   UNL A   1      36.797  30.109  27.397  1.00  0.00     0.014 A 
ATOM     32  C   UNL A   1      36.257  29.579  29.692  1.00  0.00     0.014 A 
ATOM     33  C   UNL A   1      38.103  29.654  27.603  1.00  0.00     0.010 A 
ATOM     34  C   UNL A   1      37.580  29.202  29.918  1.00  0.00     0.010 A 
ATOM     35  C   UNL A   1      38.523  29.249  28.881  1.00  0.00    -0.014 A 
BRANCH  35  36
ATOM     36  C   UNL A   1      39.949  28.925  29.161  1.00  0.00     0.031 A 
ATOM     37  C   UNL A   1      40.876  29.963  29.733  1.00  0.00     0.074 A 
ATOM     38  C   UNL A   1      40.427  27.710  28.822  1.00  0.00     0.049 A 
ATOM     39  N   UNL A   1      42.160  29.883  29.971  1.00  0.00    -0.248 NA
ATOM     40  C   UNL A   1      40.288  31.273  30.059  1.00  0.00     0.031 C 
ATOM     41  C   UNL A   1      39.644  26.633  28.212  1.00  0.00     0.029 A 
ATOM     42  N   UNL A   1      41.689  27.178  28.928  1.00  0.00    -0.354 N 
ATOM     43  C   UNL A   1      42.537  31.127  30.463  1.00  0.00     0.074 A 
ATOM     44  C   UNL A   1      41.354  31.961  30.441  1.00  0.00     0.031 C 
ATOM     45  C   UNL A   1      40.434  25.565  28.021  1.00  0.00     0.029 A 
ATOM     46  C   UNL A   1      41.791  25.893  28.447  1.00  0.00     0.049 A 
ATOM     47  H   UNL A   1      42.450  27.670  29.313  1.00  0.00     0.167 HD
ATOM     48  C   UNL A   1      43.750  31.530  30.911  1.00  0.00     0.037 A 
ATOM     49  C   UNL A   1      42.856  25.074  28.344  1.00  0.00     0.037 A 
ATOM     50  C   UNL A   1      44.920  30.688  30.942  1.00  0.00     0.049 A 
ATOM     51  C   UNL A   1      44.198  25.552  28.825  1.00  0.00     0.074 A 
ATOM     52  C   UNL A   1      46.178  30.984  31.436  1.00  0.00     0.029 A 
ATOM     53  N   UNL A   1      44.980  29.392  30.449  1.00  0.00    -0.354 N 
ATOM     54  N   UNL A   1      44.517  26.706  29.360  1.00  0.00    -0.248 NA
ATOM     55  C   UNL A   1      45.325  24.619  28.692  1.00  0.00     0.031 C 
ATOM     56  C   UNL A   1      47.014  29.890  31.190  1.00  0.00     0.029 A 
ATOM     57  C   UNL A   1      46.263  28.888  30.596  1.00  0.00     0.049 A 
ATOM     58  H   UNL A   1      44.224  28.902  30.054  1.00  0.00     0.167 HD
ATOM     59  C   UNL A   1      45.877  26.631  29.645  1.00  0.00     0.074 A 
ATOM     60  C   UNL A   1      46.314  25.311  29.241  1.00  0.00     0.031 C 
ATOM     61  C   UNL A   1      46.689  27.571  30.187  1.00  0.00     0.037 A 
BRANCH  48  62
ATOM     62  C   UNL A   1      43.880  32.946  31.406  1.00  0.00     0.058 A 
ATOM     63  C   UNL A   1      44.137  34.013  30.531  1.00  0.00     0.135 A 
ATOM     64  C   UNL A   1      43.699  33.247  32.766  1.00  0.00     0.135 A 
ATOM     65  F   UNL A   1      44.330  33.784  29.223  1.00  0.00    -0.206 F 
ATOM     66  C   UNL A   1      44.242  35.323  30.990  1.00  0.00     0.059 A 
ATOM     67  C   UNL A   1      43.769  34.554  33.243  1.00  0.00     0.059 A 
ATOM     68  F   UNL A   1      43.449  32.267  33.648  1.00  0.00    -0.206 F 
ATOM     69  C   UNL A   1      44.055  35.584  32.348  1.00  0.00     0.060 A 
BRANCH  69  70
ATOM     70  S   UNL A   1      44.190  37.289  32.923  1.00  0.00     0.124 S 
ATOM     71  O   UNL A   1      44.317  38.013  31.663  1.00  0.00    -0.237 OA
ATOM     72  O   UNL A   1      42.931  37.477  33.636  1.00  0.00    -0.237 OA
ATOM     73  O   UNL A   1      45.385  37.273  33.761  1.00  0.00    -0.744 OA
ENDBRANCH  69  70
ENDBRANCH  48  62
BRANCH  49  74
ATOM     74  C   UNL A   1      42.693  23.712  27.765  1.00  0.00     0.058 A 
ATOM     75  C   UNL A   1      42.494  22.595  28.589  1.00  0.00     0.135 A 
ATOM     76  C   UNL A   1      42.718  23.501  26.376  1.00  0.00     0.135 A 
ATOM     77  F   UNL A   1      42.470  22.741  29.922  1.00  0.00    -0.206 F 
ATOM     78  C   UNL A   1      42.339  21.316  28.062  1.00  0.00     0.059 A 
ATOM     79  C   UNL A   1      42.537  22.237  25.823  1.00  0.00     0.059 A 
ATOM     80  F   UNL A   1      42.891  24.538  25.542  1.00  0.00    -0.206 F 
ATOM     81  C   UNL A   1      42.358  21.149  26.676  1.00  0.00     0.060 A 
BRANCH  81  82
ATOM     82  S   UNL A   1      42.104  19.492  26.002  1.00  0.00     0.124 S 
ATOM     83  O   UNL A   1      40.660  19.474  25.802  1.00  0.00    -0.237 OA
ATOM     84  O   UNL A   1      42.918  19.529  24.790  1.00  0.00    -0.237 OA
ATOM     85  O   UNL A   1      42.607  18.620  27.058  1.00  0.00    -0.744 OA
ENDBRANCH  81  82
ENDBRANCH  49  74
BRANCH  61  86
ATOM     86  C   UNL A   1      48.134  27.205  30.395  1.00  0.00     0.058 A 
ATOM     87  C   UNL A   1      49.103  27.440  29.408  1.00  0.00     0.135 A 
ATOM     88  C   UNL A   1      48.564  26.664  31.619  1.00  0.00     0.135 A 
ATOM     89  F   UNL A   1      48.745  27.946  28.217  1.00  0.00    -0.206 F 
ATOM     90  C   UNL A   1      50.445  27.135  29.618  1.00  0.00     0.059 A 
ATOM     91  C   UNL A   1      49.904  26.380  31.862  1.00  0.00     0.059 A 
ATOM     92  F   UNL A   1      47.680  26.427  32.602  1.00  0.00    -0.206 F 
ATOM     93  C   UNL A   1      50.836  26.609  30.851  1.00  0.00     0.060 A 
BRANCH  93  94
ATOM     94  S   UNL A   1      52.586  26.259  31.123  1.00  0.00     0.124 S 
ATOM     95  O   UNL A   1      52.975  27.361  31.997  1.00  0.00    -0.237 OA
ATOM     96  O   UNL A   1      52.546  24.940  31.747  1.00  0.00    -0.237 OA
ATOM     97  O   UNL A   1      53.154  26.295  29.779  1.00  0.00    -0.744 OA
ENDBRANCH  93  94
ENDBRANCH  61  86
ENDBRANCH  35  36
ENDBRANCH  27  30
ENDBRANCH  25  26
ENDBRANCH  24  25
ENDBRANCH   1  24
TORSDOF 19
ENDMDL
MODEL 2
REMARK VINA RESULT:     -10.5      0.547      8.275
REMARK SMILES CCCC1(CCC)C[NH+]([C@H]2CCC[C@@H](C(=O)NCCCCNC(=O)c3ccc(-c4c5nc(c(-c6c(F)cc(S(=O)(=O)[O-])cc6F)c6ccc([nH]6)c(-c6c(F)cc(S(=O)(=O)[O-])cc6F)c6nc(c(-c7c(F)cc(S(=O)(=O)[O-])cc7F)c7ccc4[nH]7)C=C6)C=C5)cc3)C2)C1
REMARK SMILES IDX 19 1 18 2 17 3 15 4 16 5 14 7 10 8 11 9 91 10 12 11 13 12
REMARK SMILES IDX 9 13 4 14 8 15 92 16 3 18 2 19 1 20 5 21 6 22 7 23 20 24
REMARK SMILES IDX 21 25 22 26 23 27 24 29 25 30 26 31 90 32 27 33 89 34 28 35
REMARK SMILES IDX 29 36 30 37 83 38 31 39 88 40 82 41 84 42 32 43 87 44 81 45
REMARK SMILES IDX 80 46 33 48 67 49 46 50 66 51 47 52 50 53 65 54 85 55 48 56
REMARK SMILES IDX 49 57 64 59 86 60 51 61 34 62 35 63 44 64 36 65 37 66 43 67
REMARK SMILES IDX 45 68 38 69 39 70 40 71 41 72 42 73 68 74 69 75 78 76 70 77
REMARK SMILES IDX 71 78 77 79 79 80 72 81 73 82 74 83 75 84 76 85 52 86 53 87
REMARK SMILES IDX 62 88 54 89 55 90 61 91 63 92 56 93 57 94 58 95 59 96 60 97
REMARK H PARENT 17 6 9 17 22 28 84 47 50 58
REMARK Flexibility Score: inf
ROOT
ATOM      1  C   UNL A   1      31.794  29.049  25.567  1.00  0.00     0.023 C 
ENDROOT
BRANCH   1   2
ATOM      2  C   UNL A   1      31.173  28.385  24.343  1.00  0.00     0.116 C 
BRANCH   2   3
ATOM      3  N   UNL A   1      32.073  27.518  23.612  1.00  0.00    -0.356 N 
ATOM      4  C   UNL A   1      31.861  26.245  23.159  1.00  0.00     0.223 C 
ATOM      5  O   UNL A   1      32.778  25.702  22.536  1.00  0.00    -0.275 OA
ATOM      6  H   UNL A   1      32.960  27.897  23.413  1.00  0.00     0.163 HD
BRANCH   4   7
ATOM      7  C   UNL A   1      30.571  25.488  23.512  1.00  0.00     0.084 C 
ATOM      8  C   UNL A   1      31.462  23.250  24.429  1.00  0.00     0.184 C 
ATOM      9  C   UNL A   1      30.815  23.556  25.790  1.00  0.00     0.065 C 
ATOM     10  C   UNL A   1      30.605  23.965  23.373  1.00  0.00     0.078 C 
ATOM     11  C   UNL A   1      30.569  25.036  26.089  1.00  0.00     0.007 C 
ATOM     12  C   UNL A   1      30.026  25.856  24.913  1.00  0.00     0.014 C 
BRANCH   8  13
ATOM     13  N   UNL A   1      32.904  23.461  24.172  1.00  0.00    -0.331 N 
ATOM     14  C   UNL A   1      34.750  22.452  24.638  1.00  0.00     0.068 C 
ATOM     15  C   UNL A   1      33.559  22.254  23.636  1.00  0.00     0.275 C 
ATOM     16  C   UNL A   1      33.799  23.455  25.336  1.00  0.00     0.275 C 
ATOM     17  H   UNL A   1      32.832  24.325  23.634  1.00  0.00     0.348 HD
BRANCH  14  18
ATOM     18  C   UNL A   1      35.178  21.261  25.530  1.00  0.00     0.018 C 
BRANCH  18  19
ATOM     19  C   UNL A   1      35.509  19.938  24.845  1.00  0.00    -0.002 C 
ATOM     20  C   UNL A   1      36.985  19.569  24.888  1.00  0.00     0.004 C 
ENDBRANCH  18  19
ENDBRANCH  14  18
BRANCH  14  21
ATOM     21  C   UNL A   1      35.988  23.128  23.983  1.00  0.00     0.018 C 
BRANCH  21  22
ATOM     22  C   UNL A   1      37.287  23.125  24.812  1.00  0.00    -0.002 C 
ATOM     23  C   UNL A   1      37.297  23.976  26.073  1.00  0.00     0.004 C 
ENDBRANCH  21  22
ENDBRANCH  14  21
ENDBRANCH   8  13
ENDBRANCH   4   7
ENDBRANCH   2   3
ENDBRANCH   1   2
BRANCH   1  24
ATOM     24  C   UNL A   1      32.417  28.094  26.586  1.00  0.00     0.023 C 
BRANCH  24  25
ATOM     25  C   UNL A   1      33.747  28.541  27.192  1.00  0.00     0.116 C 
BRANCH  25  26
ATOM     26  N   UNL A   1      33.718  29.913  27.684  1.00  0.00    -0.352 N 
ATOM     27  C   UNL A   1      34.679  30.655  28.335  1.00  0.00     0.251 C 
ATOM     28  H   UNL A   1      32.871  30.389  27.524  1.00  0.00     0.163 HD
ATOM     29  O   UNL A   1      34.383  31.746  28.807  1.00  0.00    -0.269 OA
BRANCH  27  30
ATOM     30  C   UNL A   1      36.056  30.131  28.493  1.00  0.00     0.039 A 
ATOM     31  C   UNL A   1      36.905  30.116  27.382  1.00  0.00     0.014 A 
ATOM     32  C   UNL A   1      36.512  29.648  29.721  1.00  0.00     0.014 A 
ATOM     33  C   UNL A   1      38.236  29.716  27.529  1.00  0.00     0.010 A 
ATOM     34  C   UNL A   1      37.859  29.327  29.884  1.00  0.00     0.010 A 
ATOM     35  C   UNL A   1      38.741  29.372  28.795  1.00  0.00    -0.014 A 
BRANCH  35  36
ATOM     36  C   UNL A   1      40.191  29.109  29.004  1.00  0.00     0.031 A 
ATOM     37  C   UNL A   1      40.786  27.769  28.667  1.00  0.00     0.074 A 
ATOM     38  C   UNL A   1      40.958  30.061  29.575  1.00  0.00     0.049 A 
ATOM     39  N   UNL A   1      42.008  27.338  28.852  1.00  0.00    -0.248 NA
ATOM     40  C   UNL A   1      39.885  26.772  28.067  1.00  0.00     0.031 C 
ATOM     41  C   UNL A   1      40.490  31.384  29.996  1.00  0.00     0.029 A 
ATOM     42  N   UNL A   1      42.289  30.061  29.915  1.00  0.00    -0.354 N 
ATOM     43  C   UNL A   1      42.022  26.023  28.401  1.00  0.00     0.074 A 
ATOM     44  C   UNL A   1      40.672  25.710  27.982  1.00  0.00     0.031 C 
ATOM     45  C   UNL A   1      41.519  32.073  30.513  1.00  0.00     0.029 A 
ATOM     46  C   UNL A   1      42.709  31.229  30.508  1.00  0.00     0.049 A 
ATOM     47  H   UNL A   1      42.887  29.297  29.748  1.00  0.00     0.167 HD
ATOM     48  C   UNL A   1      43.067  25.164  28.324  1.00  0.00     0.037 A 
ATOM     49  C   UNL A   1      43.910  31.579  31.008  1.00  0.00     0.037 A 
ATOM     50  C   UNL A   1      44.411  25.489  28.732  1.00  0.00     0.049 A 
ATOM     51  C   UNL A   1      45.049  30.600  30.933  1.00  0.00     0.074 A 
ATOM     52  C   UNL A   1      45.550  24.708  28.634  1.00  0.00     0.029 A 
ATOM     53  N   UNL A   1      44.796  26.683  29.324  1.00  0.00    -0.354 N 
ATOM     54  N   UNL A   1      45.061  29.388  30.432  1.00  0.00    -0.248 NA
ATOM     55  C   UNL A   1      46.338  31.032  31.490  1.00  0.00     0.031 C 
ATOM     56  C   UNL A   1      46.611  25.407  29.220  1.00  0.00     0.029 A 
ATOM     57  C   UNL A   1      46.148  26.647  29.629  1.00  0.00     0.049 A 
ATOM     58  H   UNL A   1      44.197  27.444  29.502  1.00  0.00     0.167 HD
ATOM     59  C   UNL A   1      46.362  28.921  30.595  1.00  0.00     0.074 A 
ATOM     60  C   UNL A   1      47.112  29.988  31.224  1.00  0.00     0.031 C 
ATOM     61  C   UNL A   1      46.885  27.716  30.258  1.00  0.00     0.037 A 
BRANCH  48  62
ATOM     62  C   UNL A   1      42.802  23.785  27.780  1.00  0.00     0.058 A 
ATOM     63  C   UNL A   1      42.544  22.694  28.625  1.00  0.00     0.135 A 
ATOM     64  C   UNL A   1      42.759  23.561  26.393  1.00  0.00     0.135 A 
ATOM     65  F   UNL A   1      42.583  22.847  29.957  1.00  0.00    -0.206 F 
ATOM     66  C   UNL A   1      42.286  21.424  28.117  1.00  0.00     0.059 A 
ATOM     67  C   UNL A   1      42.472  22.306  25.863  1.00  0.00     0.059 A 
ATOM     68  F   UNL A   1      42.996  24.567  25.538  1.00  0.00    -0.206 F 
ATOM     69  C   UNL A   1      42.250  21.240  26.734  1.00  0.00     0.060 A 
BRANCH  69  70
ATOM     70  S   UNL A   1      41.908  19.587  26.095  1.00  0.00     0.124 S 
ATOM     71  O   UNL A   1      42.274  18.752  27.235  1.00  0.00    -0.237 OA
ATOM     72  O   UNL A   1      40.482  19.659  25.795  1.00  0.00    -0.237 OA
ATOM     73  O   UNL A   1      42.786  19.482  24.933  1.00  0.00    -0.744 OA
ENDBRANCH  69  70
ENDBRANCH  48  62
BRANCH  49  74
ATOM     74  C   UNL A   1      44.099  32.924  31.617  1.00  0.00     0.058 A 
ATOM     75  C   UNL A   1      44.536  34.012  30.847  1.00  0.00     0.135 A 
ATOM     76  C   UNL A   1      43.833  33.153  32.977  1.00  0.00     0.135 A 
ATOM     77  F   UNL A   1      44.812  33.845  29.545  1.00  0.00    -0.206 F 
ATOM     78  C   UNL A   1      44.715  35.275  31.403  1.00  0.00     0.059 A 
ATOM     79  C   UNL A   1      43.977  34.413  33.550  1.00  0.00     0.059 A 
ATOM     80  F   UNL A   1      43.399  32.151  33.756  1.00  0.00    -0.206 F 
ATOM     81  C   UNL A   1      44.428  35.466  32.756  1.00  0.00     0.060 A 
BRANCH  81  82
ATOM     82  S   UNL A   1      44.616  37.122  33.454  1.00  0.00     0.124 S 
ATOM     83  O   UNL A   1      43.271  37.662  33.295  1.00  0.00    -0.237 OA
ATOM     84  O   UNL A   1      45.030  36.830  34.823  1.00  0.00    -0.237 OA
ATOM     85  O   UNL A   1      45.644  37.727  32.613  1.00  0.00    -0.744 OA
ENDBRANCH  81  82
ENDBRANCH  49  74
BRANCH  61  86
ATOM     86  C   UNL A   1      48.344  27.488  30.545  1.00  0.00     0.058 A 
ATOM     87  C   UNL A   1      49.338  27.818  29.611  1.00  0.00     0.135 A 
ATOM     88  C   UNL A   1      48.757  26.986  31.791  1.00  0.00     0.135 A 
ATOM     89  F   UNL A   1      48.999  28.293  28.402  1.00  0.00    -0.206 F 
ATOM     90  C   UNL A   1      50.690  27.641  29.894  1.00  0.00     0.059 A 
ATOM     91  C   UNL A   1      50.103  26.830  32.107  1.00  0.00     0.059 A 
ATOM     92  F   UNL A   1      47.848  26.661  32.725  1.00  0.00    -0.206 F 
ATOM     93  C   UNL A   1      51.062  27.151  31.148  1.00  0.00     0.060 A 
BRANCH  93  94
ATOM     94  S   UNL A   1      52.820  26.968  31.515  1.00  0.00     0.124 S 
ATOM     95  O   UNL A   1      52.902  27.533  32.858  1.00  0.00    -0.237 OA
ATOM     96  O   UNL A   1      53.010  25.524  31.421  1.00  0.00    -0.237 OA
ATOM     97  O   UNL A   1      53.470  27.750  30.466  1.00  0.00    -0.744 OA
ENDBRANCH  93  94
ENDBRANCH  61  86
ENDBRANCH  35  36
ENDBRANCH  27  30
ENDBRANCH  25  26
ENDBRANCH  24  25
ENDBRANCH   1  24
TORSDOF 19
ENDMDL
MODEL 3
REMARK VINA RESULT:     -10.5      2.981      8.866
REMARK SMILES CCCC1(CCC)C[NH+]([C@H]2CCC[C@@H](C(=O)NCCCCNC(=O)c3ccc(-c4c5nc(c(-c6c(F)cc(S(=O)(=O)[O-])cc6F)c6ccc([nH]6)c(-c6c(F)cc(S(=O)(=O)[O-])cc6F)c6nc(c(-c7c(F)cc(S(=O)(=O)[O-])cc7F)c7ccc4[nH]7)C=C6)C=C5)cc3)C2)C1
REMARK SMILES IDX 19 1 18 2 17 3 15 4 16 5 14 7 10 8 11 9 91 10 12 11 13 12
REMARK SMILES IDX 9 13 4 14 8 15 92 16 3 18 2 19 1 20 5 21 6 22 7 23 20 24
REMARK SMILES IDX 21 25 22 26 23 27 24 29 25 30 26 31 90 32 27 33 89 34 28 35
REMARK SMILES IDX 29 36 30 37 83 38 31 39 88 40 82 41 84 42 32 43 87 44 81 45
REMARK SMILES IDX 80 46 33 48 67 49 46 50 66 51 47 52 50 53 65 54 85 55 48 56
REMARK SMILES IDX 49 57 64 59 86 60 51 61 34 62 35 63 44 64 36 65 37 66 43 67
REMARK SMILES IDX 45 68 38 69 39 70 40 71 41 72 42 73 68 74 69 75 78 76 70 77
REMARK SMILES IDX 71 78 77 79 79 80 72 81 73 82 74 83 75 84 76 85 52 86 53 87
REMARK SMILES IDX 62 88 54 89 55 90 61 91 63 92 56 93 57 94 58 95 59 96 60 97
REMARK H PARENT 17 6 9 17 22 28 84 47 50 58
REMARK Flexibility Score: inf
ROOT
ATOM      1  C   UNL A   1      34.289  30.802  27.788  1.00  0.00     0.023 C 
ENDROOT
BRANCH   1   2
ATOM      2  C   UNL A   1      33.057  30.761  26.893  1.00  0.00     0.116 C 
BRANCH   2   3
ATOM      3  N   UNL A   1      32.321  29.515  26.945  1.00  0.00    -0.356 N 
ATOM      4  C   UNL A   1      31.716  28.831  25.927  1.00  0.00     0.223 C 
ATOM      5  O   UNL A   1      31.155  27.768  26.210  1.00  0.00    -0.275 OA
ATOM      6  H   UNL A   1      32.245  29.104  27.837  1.00  0.00     0.163 HD
BRANCH   4   7
ATOM      7  C   UNL A   1      31.646  29.425  24.512  1.00  0.00     0.084 C 
ATOM      8  C   UNL A   1      32.332  27.433  23.027  1.00  0.00     0.184 C 
ATOM      9  C   UNL A   1      30.953  27.473  22.346  1.00  0.00     0.065 C 
ATOM     10  C   UNL A   1      32.631  28.870  23.481  1.00  0.00     0.078 C 
ATOM     11  C   UNL A   1      29.828  28.112  23.163  1.00  0.00     0.007 C 
ATOM     12  C   UNL A   1      30.217  29.388  23.917  1.00  0.00     0.014 C 
BRANCH   8  13
ATOM     13  N   UNL A   1      32.660  26.461  24.094  1.00  0.00    -0.331 N 
ATOM     14  C   UNL A   1      33.721  24.592  24.249  1.00  0.00     0.068 C 
ATOM     15  C   UNL A   1      34.092  26.110  24.109  1.00  0.00     0.275 C 
ATOM     16  C   UNL A   1      32.297  25.059  23.856  1.00  0.00     0.275 C 
ATOM     17  H   UNL A   1      32.210  26.941  24.873  1.00  0.00     0.348 HD
BRANCH  14  18
ATOM     18  C   UNL A   1      34.349  23.578  23.261  1.00  0.00     0.018 C 
BRANCH  18  19
ATOM     19  C   UNL A   1      35.317  22.540  23.823  1.00  0.00    -0.002 C 
ATOM     20  C   UNL A   1      36.758  22.728  23.370  1.00  0.00     0.004 C 
ENDBRANCH  18  19
ENDBRANCH  14  18
BRANCH  14  21
ATOM     21  C   UNL A   1      33.820  24.075  25.713  1.00  0.00     0.018 C 
BRANCH  21  22
ATOM     22  C   UNL A   1      33.084  22.758  26.024  1.00  0.00    -0.002 C 
ATOM     23  C   UNL A   1      32.536  22.595  27.434  1.00  0.00     0.004 C 
ENDBRANCH  21  22
ENDBRANCH  14  21
ENDBRANCH   8  13
ENDBRANCH   4   7
ENDBRANCH   2   3
ENDBRANCH   1   2
BRANCH   1  24
ATOM     24  C   UNL A   1      34.876  32.194  28.031  1.00  0.00     0.023 C 
BRANCH  24  25
ATOM     25  C   UNL A   1      35.984  32.275  29.081  1.00  0.00     0.116 C 
BRANCH  25  26
ATOM     26  N   UNL A   1      35.825  31.303  30.156  1.00  0.00    -0.352 N 
ATOM     27  C   UNL A   1      36.655  30.288  30.579  1.00  0.00     0.251 C 
ATOM     28  H   UNL A   1      34.986  31.386  30.664  1.00  0.00     0.163 HD
ATOM     29  O   UNL A   1      36.248  29.480  31.405  1.00  0.00    -0.269 OA
BRANCH  27  30
ATOM     30  C   UNL A   1      38.021  30.151  30.023  1.00  0.00     0.039 A 
ATOM     31  C   UNL A   1      39.112  30.182  30.897  1.00  0.00     0.014 A 
ATOM     32  C   UNL A   1      38.235  30.001  28.652  1.00  0.00     0.014 A 
ATOM     33  C   UNL A   1      40.403  29.959  30.406  1.00  0.00     0.010 A 
ATOM     34  C   UNL A   1      39.510  29.698  28.176  1.00  0.00     0.010 A 
ATOM     35  C   UNL A   1      40.607  29.658  29.049  1.00  0.00    -0.014 A 
BRANCH  35  36
ATOM     36  C   UNL A   1      41.944  29.250  28.540  1.00  0.00     0.031 A 
ATOM     37  C   UNL A   1      42.212  27.826  28.136  1.00  0.00     0.074 A 
ATOM     38  C   UNL A   1      42.945  30.155  28.517  1.00  0.00     0.049 A 
ATOM     39  N   UNL A   1      43.332  27.276  27.742  1.00  0.00    -0.248 NA
ATOM     40  C   UNL A   1      41.079  26.890  28.207  1.00  0.00     0.031 C 
ATOM     41  C   UNL A   1      42.829  31.555  28.931  1.00  0.00     0.029 A 
ATOM     42  N   UNL A   1      44.261  30.033  28.142  1.00  0.00    -0.354 N 
ATOM     43  C   UNL A   1      43.044  25.933  27.527  1.00  0.00     0.074 A 
ATOM     44  C   UNL A   1      41.655  25.740  27.885  1.00  0.00     0.031 C 
ATOM     45  C   UNL A   1      44.013  32.165  28.767  1.00  0.00     0.029 A 
ATOM     46  C   UNL A   1      44.987  31.193  28.282  1.00  0.00     0.049 A 
ATOM     47  H   UNL A   1      44.649  29.193  27.805  1.00  0.00     0.167 HD
ATOM     48  C   UNL A   1      43.856  24.956  27.056  1.00  0.00     0.037 A 
ATOM     49  C   UNL A   1      46.292  31.446  28.063  1.00  0.00     0.037 A 
ATOM     50  C   UNL A   1      45.235  25.159  26.689  1.00  0.00     0.049 A 
ATOM     51  C   UNL A   1      47.180  30.339  27.563  1.00  0.00     0.074 A 
ATOM     52  C   UNL A   1      46.122  24.247  26.143  1.00  0.00     0.029 A 
ATOM     53  N   UNL A   1      45.932  26.349  26.843  1.00  0.00    -0.354 N 
ATOM     54  N   UNL A   1      46.869  29.094  27.292  1.00  0.00    -0.248 NA
ATOM     55  C   UNL A   1      48.594  30.669  27.337  1.00  0.00     0.031 C 
ATOM     56  C   UNL A   1      47.368  24.869  26.020  1.00  0.00     0.029 A 
ATOM     57  C   UNL A   1      47.246  26.186  26.434  1.00  0.00     0.049 A 
ATOM     58  H   UNL A   1      45.549  27.187  27.190  1.00  0.00     0.167 HD
ATOM     59  C   UNL A   1      48.044  28.497  26.845  1.00  0.00     0.074 A 
ATOM     60  C   UNL A   1      49.066  29.523  26.864  1.00  0.00     0.031 C 
ATOM     61  C   UNL A   1      48.257  27.215  26.459  1.00  0.00     0.037 A 
BRANCH  48  62
ATOM     62  C   UNL A   1      43.277  23.574  26.909  1.00  0.00     0.058 A 
ATOM     63  C   UNL A   1      42.899  23.061  25.657  1.00  0.00     0.135 A 
ATOM     64  C   UNL A   1      43.141  22.733  28.026  1.00  0.00     0.135 A 
ATOM     65  F   UNL A   1      42.996  23.823  24.557  1.00  0.00    -0.206 F 
ATOM     66  C   UNL A   1      42.378  21.778  25.523  1.00  0.00     0.059 A 
ATOM     67  C   UNL A   1      42.651  21.434  27.910  1.00  0.00     0.059 A 
ATOM     68  F   UNL A   1      43.488  23.169  29.247  1.00  0.00    -0.206 F 
ATOM     69  C   UNL A   1      42.259  20.971  26.655  1.00  0.00     0.060 A 
BRANCH  69  70
ATOM     70  S   UNL A   1      41.586  19.308  26.460  1.00  0.00     0.124 S 
ATOM     71  O   UNL A   1      41.529  18.851  27.844  1.00  0.00    -0.237 OA
ATOM     72  O   UNL A   1      40.297  19.567  25.826  1.00  0.00    -0.237 OA
ATOM     73  O   UNL A   1      42.572  18.637  25.618  1.00  0.00    -0.744 OA
ENDBRANCH  69  70
ENDBRANCH  48  62
BRANCH  49  74
ATOM     74  C   UNL A   1      46.837  32.809  28.308  1.00  0.00     0.058 A 
ATOM     75  C   UNL A   1      47.423  33.144  29.538  1.00  0.00     0.135 A 
ATOM     76  C   UNL A   1      46.797  33.801  27.315  1.00  0.00     0.135 A 
ATOM     77  F   UNL A   1      47.479  32.235  30.523  1.00  0.00    -0.206 F 
ATOM     78  C   UNL A   1      47.937  34.414  29.781  1.00  0.00     0.059 A 
ATOM     79  C   UNL A   1      47.330  35.070  27.523  1.00  0.00     0.059 A 
ATOM     80  F   UNL A   1      46.260  33.530  26.115  1.00  0.00    -0.206 F 
ATOM     81  C   UNL A   1      47.889  35.369  28.764  1.00  0.00     0.060 A 
BRANCH  81  82
ATOM     82  S   UNL A   1      48.607  36.998  29.074  1.00  0.00     0.124 S 
ATOM     83  O   UNL A   1      49.247  36.796  30.368  1.00  0.00    -0.237 OA
ATOM     84  O   UNL A   1      49.504  37.157  27.934  1.00  0.00    -0.237 OA
ATOM     85  O   UNL A   1      47.445  37.881  29.075  1.00  0.00    -0.744 OA
ENDBRANCH  81  82
ENDBRANCH  49  74
BRANCH  61  86
ATOM     86  C   UNL A   1      49.644  26.847  26.006  1.00  0.00     0.058 A 
ATOM     87  C   UNL A   1      50.062  27.040  24.681  1.00  0.00     0.135 A 
ATOM     88  C   UNL A   1      50.586  26.349  26.923  1.00  0.00     0.135 A 
ATOM     89  F   UNL A   1      49.200  27.504  23.762  1.00  0.00    -0.206 F 
ATOM     90  C   UNL A   1      51.357  26.734  24.274  1.00  0.00     0.059 A 
ATOM     91  C   UNL A   1      51.895  26.066  26.546  1.00  0.00     0.059 A 
ATOM     92  F   UNL A   1      50.242  26.153  28.207  1.00  0.00    -0.206 F 
ATOM     93  C   UNL A   1      52.268  26.252  25.216  1.00  0.00     0.060 A 
BRANCH  93  94
ATOM     94  S   UNL A   1      53.956  25.901  24.682  1.00  0.00     0.124 S 
ATOM     95  O   UNL A   1      54.732  26.766  25.566  1.00  0.00    -0.237 OA
ATOM     96  O   UNL A   1      54.072  24.468  24.936  1.00  0.00    -0.237 OA
ATOM     97  O   UNL A   1      53.955  26.285  23.273  1.00  0.00    -0.744 OA
ENDBRANCH  93  94
ENDBRANCH  61  86
ENDBRANCH  35  36
ENDBRANCH  27  30
ENDBRANCH  25  26
ENDBRANCH  24  25
ENDBRANCH   1  24
TORSDOF 19
ENDMDL
