MODEL 1
REMARK VINA RESULT:     -12.0      0.000      0.000
REMARK SMILES Cc1ccc(C(=O)N2CCCC[C@@H]2C(=O)NCCCCNC(=O)c2ccc(-c3c4nc(c(-c5c(F)cc(S(=O)(=O)[O-])cc5F)c5ccc([nH]5)c(-c5c(F)cc(S(=O)(=O)[O-])cc5F)c5nc(c(-c6c(F)cc(S(=O)(=O)[O-])cc6F)c6ccc3[nH]6)C=C5)C=C4)cc2)cc1S(=O)(=O)N1CCCCC1
REMARK SMILES IDX 18 1 17 2 16 3 14 4 15 5 13 7 8 8 9 9 10 10 12 11 11 12 6 13
REMARK SMILES IDX 7 14 5 15 1 16 2 17 3 18 91 19 4 20 90 21 92 22 93 23 94 24
REMARK SMILES IDX 95 25 96 26 100 27 97 28 99 29 98 30 19 31 20 32 21 33 22 34
REMARK SMILES IDX 23 36 24 37 25 38 89 39 26 40 88 41 27 42 28 43 29 44 82 45
REMARK SMILES IDX 30 46 87 47 81 48 83 49 31 50 86 51 80 52 79 53 32 55 66 56
REMARK SMILES IDX 45 57 65 58 46 59 49 60 64 61 84 62 47 63 48 64 63 66 85 67
REMARK SMILES IDX 50 68 33 69 34 70 43 71 35 72 36 73 42 74 44 75 37 76 38 77
REMARK SMILES IDX 39 78 40 79 41 80 67 81 68 82 77 83 69 84 70 85 76 86 78 87
REMARK SMILES IDX 71 88 72 89 73 90 74 91 75 92 51 93 52 94 61 95 53 96 54 97
REMARK SMILES IDX 60 98 62 99 55 100 56 101 57 102 58 103 59 104
REMARK H PARENT 16 6 21 35 83 54 49 65
REMARK Flexibility Score: inf
ROOT
ATOM      1  C   UNL A   1      33.414  31.438  27.653  1.00  0.00     0.023 C 
ENDROOT
BRANCH   1   2
ATOM      2  C   UNL A   1      32.664  30.267  27.016  1.00  0.00     0.116 C 
BRANCH   2   3
ATOM      3  N   UNL A   1      33.256  29.921  25.737  1.00  0.00    -0.354 N 
ATOM      4  C   UNL A   1      32.734  29.204  24.710  1.00  0.00     0.242 C 
ATOM      5  O   UNL A   1      33.511  28.795  23.845  1.00  0.00    -0.273 OA
ATOM      6  H   UNL A   1      34.170  30.256  25.594  1.00  0.00     0.163 HD
BRANCH   4   7
ATOM      7  C   UNL A   1      31.245  28.809  24.702  1.00  0.00     0.174 C 
ATOM      8  N   UNL A   1      30.987  27.382  25.036  1.00  0.00    -0.327 N 
ATOM      9  C   UNL A   1      29.671  26.861  24.694  1.00  0.00     0.120 C 
ATOM     10  C   UNL A   1      29.292  27.133  23.253  1.00  0.00     0.022 C 
ATOM     11  C   UNL A   1      30.714  29.193  23.298  1.00  0.00     0.035 C 
ATOM     12  C   UNL A   1      29.342  28.626  22.971  1.00  0.00     0.004 C 
BRANCH   8  13
ATOM     13  C   UNL A   1      31.708  26.587  25.938  1.00  0.00     0.254 C 
ATOM     14  O   UNL A   1      31.623  26.749  27.156  1.00  0.00    -0.269 OA
BRANCH  13  15
ATOM     15  C   UNL A   1      32.655  25.547  25.479  1.00  0.00     0.041 A 
ATOM     16  C   UNL A   1      35.679  22.997  23.770  1.00  0.00     0.046 C 
ATOM     17  C   UNL A   1      34.518  23.756  24.324  1.00  0.00    -0.031 A 
ATOM     18  C   UNL A   1      34.922  24.817  25.173  1.00  0.00     0.005 A 
ATOM     19  C   UNL A   1      33.142  23.584  24.081  1.00  0.00     0.086 A 
ATOM     20  C   UNL A   1      34.011  25.700  25.745  1.00  0.00     0.014 A 
ATOM     21  C   UNL A   1      32.237  24.515  24.640  1.00  0.00     0.035 A 
BRANCH  19  22
ATOM     22  S   UNL A   1      32.254  22.339  23.131  1.00  0.00     0.243 S 
ATOM     23  O   UNL A   1      30.854  22.552  23.407  1.00  0.00    -0.207 OA
ATOM     24  O   UNL A   1      32.755  22.476  21.768  1.00  0.00    -0.207 OA
BRANCH  22  25
ATOM     25  N   UNL A   1      32.623  20.762  23.617  1.00  0.00    -0.198 NA
ATOM     26  C   UNL A   1      32.639  20.515  25.071  1.00  0.00     0.102 C 
ATOM     27  C   UNL A   1      32.345  19.696  22.632  1.00  0.00     0.102 C 
ATOM     28  C   UNL A   1      32.940  19.076  25.455  1.00  0.00     0.017 C 
ATOM     29  C   UNL A   1      32.620  18.287  23.134  1.00  0.00     0.017 C 
ATOM     30  C   UNL A   1      32.219  18.069  24.582  1.00  0.00     0.003 C 
ENDBRANCH  22  25
ENDBRANCH  19  22
ENDBRANCH  13  15
ENDBRANCH   8  13
ENDBRANCH   4   7
ENDBRANCH   2   3
ENDBRANCH   1   2
BRANCH   1  31
ATOM     31  C   UNL A   1      34.924  31.426  27.400  1.00  0.00     0.023 C 
BRANCH  31  32
ATOM     32  C   UNL A   1      35.692  32.417  28.260  1.00  0.00     0.116 C 
BRANCH  32  33
ATOM     33  N   UNL A   1      37.079  32.034  28.325  1.00  0.00    -0.352 N 
ATOM     34  C   UNL A   1      37.605  31.273  29.344  1.00  0.00     0.251 C 
ATOM     35  H   UNL A   1      37.681  32.331  27.603  1.00  0.00     0.163 HD
ATOM     36  O   UNL A   1      38.462  31.815  30.025  1.00  0.00    -0.269 OA
BRANCH  34  37
ATOM     37  C   UNL A   1      37.303  29.779  29.332  1.00  0.00     0.039 A 
ATOM     38  C   UNL A   1      37.752  29.219  30.534  1.00  0.00     0.014 A 
ATOM     39  C   UNL A   1      37.705  29.145  28.160  1.00  0.00     0.014 A 
ATOM     40  C   UNL A   1      39.009  28.643  30.554  1.00  0.00     0.010 A 
ATOM     41  C   UNL A   1      39.005  28.708  28.133  1.00  0.00     0.010 A 
ATOM     42  C   UNL A   1      39.681  28.575  29.346  1.00  0.00    -0.014 A 
BRANCH  42  43
ATOM     43  C   UNL A   1      41.102  28.358  29.225  1.00  0.00     0.031 A 
ATOM     44  C   UNL A   1      41.506  26.973  28.985  1.00  0.00     0.074 A 
ATOM     45  C   UNL A   1      41.874  29.464  29.154  1.00  0.00     0.049 A 
ATOM     46  N   UNL A   1      42.707  26.542  29.006  1.00  0.00    -0.248 NA
ATOM     47  C   UNL A   1      40.521  25.919  28.735  1.00  0.00     0.031 C 
ATOM     48  C   UNL A   1      43.262  29.625  28.734  1.00  0.00     0.029 A 
ATOM     49  N   UNL A   1      41.548  30.706  29.720  1.00  0.00    -0.354 N 
ATOM     50  C   UNL A   1      42.695  25.262  28.488  1.00  0.00     0.074 A 
ATOM     51  C   UNL A   1      41.310  24.885  28.448  1.00  0.00     0.031 C 
ATOM     52  C   UNL A   1      43.760  30.734  29.322  1.00  0.00     0.029 A 
ATOM     53  C   UNL A   1      42.746  31.196  30.268  1.00  0.00     0.049 A 
ATOM     54  H   UNL A   1      40.666  31.143  29.733  1.00  0.00     0.167 HD
ATOM     55  C   UNL A   1      43.875  24.772  28.017  1.00  0.00     0.037 A 
ATOM     56  C   UNL A   1      42.900  31.170  31.627  1.00  0.00     0.037 A 
ATOM     57  C   UNL A   1      44.955  25.660  28.464  1.00  0.00     0.049 A 
ATOM     58  C   UNL A   1      44.020  30.210  32.025  1.00  0.00     0.074 A 
ATOM     59  C   UNL A   1      45.595  26.730  27.860  1.00  0.00     0.029 A 
ATOM     60  N   UNL A   1      45.166  25.800  29.836  1.00  0.00    -0.354 N 
ATOM     61  N   UNL A   1      44.307  29.089  31.407  1.00  0.00    -0.248 NA
ATOM     62  C   UNL A   1      44.977  30.526  33.082  1.00  0.00     0.031 C 
ATOM     63  C   UNL A   1      46.083  27.580  28.893  1.00  0.00     0.029 A 
ATOM     64  C   UNL A   1      45.763  27.016  30.119  1.00  0.00     0.049 A 
ATOM     65  H   UNL A   1      44.924  25.126  30.511  1.00  0.00     0.167 HD
ATOM     66  C   UNL A   1      45.458  28.553  31.944  1.00  0.00     0.074 A 
ATOM     67  C   UNL A   1      45.834  29.497  32.982  1.00  0.00     0.031 C 
ATOM     68  C   UNL A   1      46.048  27.398  31.499  1.00  0.00     0.037 A 
BRANCH  55  69
ATOM     69  C   UNL A   1      44.024  23.703  26.948  1.00  0.00     0.058 A 
ATOM     70  C   UNL A   1      43.560  22.393  27.206  1.00  0.00     0.135 A 
ATOM     71  C   UNL A   1      44.682  23.844  25.706  1.00  0.00     0.135 A 
ATOM     72  F   UNL A   1      42.893  22.097  28.331  1.00  0.00    -0.206 F 
ATOM     73  C   UNL A   1      43.775  21.317  26.339  1.00  0.00     0.059 A 
ATOM     74  C   UNL A   1      44.924  22.781  24.830  1.00  0.00     0.059 A 
ATOM     75  F   UNL A   1      45.120  25.018  25.252  1.00  0.00    -0.206 F 
ATOM     76  C   UNL A   1      44.472  21.516  25.156  1.00  0.00     0.060 A 
BRANCH  76  77
ATOM     77  S   UNL A   1      44.758  20.119  24.056  1.00  0.00     0.124 S 
ATOM     78  O   UNL A   1      43.740  19.172  24.497  1.00  0.00    -0.237 OA
ATOM     79  O   UNL A   1      44.544  20.719  22.743  1.00  0.00    -0.237 OA
ATOM     80  O   UNL A   1      46.135  19.730  24.347  1.00  0.00    -0.744 OA
ENDBRANCH  76  77
ENDBRANCH  55  69
BRANCH  56  81
ATOM     81  C   UNL A   1      41.612  31.400  32.384  1.00  0.00     0.058 A 
ATOM     82  C   UNL A   1      41.019  32.689  32.391  1.00  0.00     0.135 A 
ATOM     83  C   UNL A   1      40.802  30.357  32.847  1.00  0.00     0.135 A 
ATOM     84  F   UNL A   1      41.740  33.752  31.994  1.00  0.00    -0.206 F 
ATOM     85  C   UNL A   1      39.676  32.912  32.739  1.00  0.00     0.059 A 
ATOM     86  C   UNL A   1      39.460  30.561  33.214  1.00  0.00     0.059 A 
ATOM     87  F   UNL A   1      41.273  29.103  32.880  1.00  0.00    -0.206 F 
ATOM     88  C   UNL A   1      38.884  31.831  33.117  1.00  0.00     0.060 A 
BRANCH  88  89
ATOM     89  S   UNL A   1      37.148  32.092  33.630  1.00  0.00     0.124 S 
ATOM     90  O   UNL A   1      37.220  31.951  35.082  1.00  0.00    -0.237 OA
ATOM     91  O   UNL A   1      36.807  33.419  33.142  1.00  0.00    -0.237 OA
ATOM     92  O   UNL A   1      36.449  31.009  32.941  1.00  0.00    -0.744 OA
ENDBRANCH  88  89
ENDBRANCH  56  81
BRANCH  68  93
ATOM     93  C   UNL A   1      47.028  26.543  32.295  1.00  0.00     0.058 A 
ATOM     94  C   UNL A   1      46.649  25.478  33.133  1.00  0.00     0.135 A 
ATOM     95  C   UNL A   1      48.431  26.670  32.097  1.00  0.00     0.135 A 
ATOM     96  F   UNL A   1      45.366  25.141  33.311  1.00  0.00    -0.206 F 
ATOM     97  C   UNL A   1      47.576  24.669  33.792  1.00  0.00     0.059 A 
ATOM     98  C   UNL A   1      49.368  25.818  32.677  1.00  0.00     0.059 A 
ATOM     99  F   UNL A   1      48.955  27.620  31.310  1.00  0.00    -0.206 F 
ATOM    100  C   UNL A   1      48.934  24.844  33.557  1.00  0.00     0.060 A 
BRANCH 100 101
ATOM    101  S   UNL A   1      50.121  23.773  34.380  1.00  0.00     0.124 S 
ATOM    102  O   UNL A   1      50.593  22.957  33.266  1.00  0.00    -0.237 OA
ATOM    103  O   UNL A   1      51.086  24.724  34.921  1.00  0.00    -0.237 OA
ATOM    104  O   UNL A   1      49.314  23.075  35.377  1.00  0.00    -0.744 OA
ENDBRANCH 100 101
ENDBRANCH  68  93
ENDBRANCH  42  43
ENDBRANCH  34  37
ENDBRANCH  32  33
ENDBRANCH  31  32
ENDBRANCH   1  31
TORSDOF 18
ENDMDL
MODEL 2
REMARK VINA RESULT:     -11.3      4.169      7.271
REMARK SMILES Cc1ccc(C(=O)N2CCCC[C@@H]2C(=O)NCCCCNC(=O)c2ccc(-c3c4nc(c(-c5c(F)cc(S(=O)(=O)[O-])cc5F)c5ccc([nH]5)c(-c5c(F)cc(S(=O)(=O)[O-])cc5F)c5nc(c(-c6c(F)cc(S(=O)(=O)[O-])cc6F)c6ccc3[nH]6)C=C5)C=C4)cc2)cc1S(=O)(=O)N1CCCCC1
REMARK SMILES IDX 18 1 17 2 16 3 14 4 15 5 13 7 8 8 9 9 10 10 12 11 11 12 6 13
REMARK SMILES IDX 7 14 5 15 1 16 2 17 3 18 91 19 4 20 90 21 92 22 93 23 94 24
REMARK SMILES IDX 95 25 96 26 100 27 97 28 99 29 98 30 19 31 20 32 21 33 22 34
REMARK SMILES IDX 23 36 24 37 25 38 89 39 26 40 88 41 27 42 28 43 29 44 82 45
REMARK SMILES IDX 30 46 87 47 81 48 83 49 31 50 86 51 80 52 79 53 32 55 66 56
REMARK SMILES IDX 45 57 65 58 46 59 49 60 64 61 84 62 47 63 48 64 63 66 85 67
REMARK SMILES IDX 50 68 33 69 34 70 43 71 35 72 36 73 42 74 44 75 37 76 38 77
REMARK SMILES IDX 39 78 40 79 41 80 67 81 68 82 77 83 69 84 70 85 76 86 78 87
REMARK SMILES IDX 71 88 72 89 73 90 74 91 75 92 51 93 52 94 61 95 53 96 54 97
REMARK SMILES IDX 60 98 62 99 55 100 56 101 57 102 58 103 59 104
REMARK H PARENT 16 6 21 35 83 54 49 65
REMARK Flexibility Score: inf
ROOT
ATOM      1  C   UNL A   1      33.735  30.854  27.364  1.00  0.00     0.023 C 
ENDROOT
BRANCH   1   2
ATOM      2  C   UNL A   1      32.547  30.243  26.621  1.00  0.00     0.116 C 
BRANCH   2   3
ATOM      3  N   UNL A   1      32.861  30.075  25.214  1.00  0.00    -0.354 N 
ATOM      4  C   UNL A   1      32.272  29.278  24.287  1.00  0.00     0.242 C 
ATOM      5  O   UNL A   1      32.878  29.083  23.231  1.00  0.00    -0.273 OA
ATOM      6  H   UNL A   1      33.612  30.619  24.884  1.00  0.00     0.163 HD
BRANCH   4   7
ATOM      7  C   UNL A   1      30.955  28.544  24.602  1.00  0.00     0.174 C 
ATOM      8  N   UNL A   1      31.125  27.113  24.977  1.00  0.00    -0.327 N 
ATOM      9  C   UNL A   1      29.931  26.282  24.928  1.00  0.00     0.120 C 
ATOM     10  C   UNL A   1      29.198  26.388  23.608  1.00  0.00     0.022 C 
ATOM     11  C   UNL A   1      30.060  28.725  23.351  1.00  0.00     0.035 C 
ATOM     12  C   UNL A   1      28.828  27.836  23.329  1.00  0.00     0.004 C 
BRANCH   8  13
ATOM     13  C   UNL A   1      32.191  26.554  25.695  1.00  0.00     0.254 C 
ATOM     14  O   UNL A   1      32.369  26.803  26.889  1.00  0.00    -0.269 OA
BRANCH  13  15
ATOM     15  C   UNL A   1      33.196  25.681  25.049  1.00  0.00     0.041 A 
ATOM     16  C   UNL A   1      35.629  22.954  22.767  1.00  0.00     0.046 C 
ATOM     17  C   UNL A   1      34.852  23.825  23.699  1.00  0.00    -0.031 A 
ATOM     18  C   UNL A   1      34.338  24.981  23.057  1.00  0.00     0.005 A 
ATOM     19  C   UNL A   1      34.542  23.624  25.057  1.00  0.00     0.086 A 
ATOM     20  C   UNL A   1      33.525  25.897  23.717  1.00  0.00     0.014 A 
ATOM     21  C   UNL A   1      33.683  24.547  25.697  1.00  0.00     0.035 A 
BRANCH  19  22
ATOM     22  S   UNL A   1      35.050  22.338  26.210  1.00  0.00     0.243 S 
ATOM     23  O   UNL A   1      36.490  22.280  26.133  1.00  0.00    -0.207 OA
ATOM     24  O   UNL A   1      34.404  22.685  27.471  1.00  0.00    -0.207 OA
BRANCH  22  25
ATOM     25  N   UNL A   1      34.467  20.810  25.781  1.00  0.00    -0.198 NA
ATOM     26  C   UNL A   1      33.001  20.671  25.701  1.00  0.00     0.102 C 
ATOM     27  C   UNL A   1      35.392  19.954  25.007  1.00  0.00     0.102 C 
ATOM     28  C   UNL A   1      32.529  19.290  25.277  1.00  0.00     0.017 C 
ATOM     29  C   UNL A   1      34.803  18.619  24.577  1.00  0.00     0.017 C 
ATOM     30  C   UNL A   1      33.351  18.706  24.145  1.00  0.00     0.003 C 
ENDBRANCH  22  25
ENDBRANCH  19  22
ENDBRANCH  13  15
ENDBRANCH   8  13
ENDBRANCH   4   7
ENDBRANCH   2   3
ENDBRANCH   1   2
BRANCH   1  31
ATOM     31  C   UNL A   1      34.949  29.927  27.473  1.00  0.00     0.023 C 
BRANCH  31  32
ATOM     32  C   UNL A   1      35.902  30.303  28.597  1.00  0.00     0.116 C 
BRANCH  32  33
ATOM     33  N   UNL A   1      37.250  29.952  28.232  1.00  0.00    -0.352 N 
ATOM     34  C   UNL A   1      38.244  29.713  29.155  1.00  0.00     0.251 C 
ATOM     35  H   UNL A   1      37.473  29.879  27.275  1.00  0.00     0.163 HD
ATOM     36  O   UNL A   1      39.195  30.479  29.124  1.00  0.00    -0.269 OA
BRANCH  34  37
ATOM     37  C   UNL A   1      38.209  28.380  29.893  1.00  0.00     0.039 A 
ATOM     38  C   UNL A   1      37.677  28.588  31.172  1.00  0.00     0.014 A 
ATOM     39  C   UNL A   1      39.409  27.680  29.824  1.00  0.00     0.014 A 
ATOM     40  C   UNL A   1      38.558  28.784  32.219  1.00  0.00     0.010 A 
ATOM     41  C   UNL A   1      40.340  27.992  30.782  1.00  0.00     0.010 A 
ATOM     42  C   UNL A   1      39.906  28.655  31.931  1.00  0.00    -0.014 A 
BRANCH  42  43
ATOM     43  C   UNL A   1      40.963  29.168  32.767  1.00  0.00     0.031 A 
ATOM     44  C   UNL A   1      41.315  28.333  33.915  1.00  0.00     0.074 A 
ATOM     45  C   UNL A   1      41.628  30.246  32.299  1.00  0.00     0.049 A 
ATOM     46  N   UNL A   1      42.103  28.674  34.860  1.00  0.00    -0.248 NA
ATOM     47  C   UNL A   1      40.736  27.002  34.102  1.00  0.00     0.031 C 
ATOM     48  C   UNL A   1      42.904  30.823  32.709  1.00  0.00     0.029 A 
ATOM     49  N   UNL A   1      41.085  31.209  31.434  1.00  0.00    -0.354 N 
ATOM     50  C   UNL A   1      42.374  27.541  35.600  1.00  0.00     0.074 A 
ATOM     51  C   UNL A   1      41.415  26.566  35.161  1.00  0.00     0.031 C 
ATOM     52  C   UNL A   1      42.908  32.131  32.373  1.00  0.00     0.029 A 
ATOM     53  C   UNL A   1      41.559  32.446  31.905  1.00  0.00     0.049 A 
ATOM     54  H   UNL A   1      40.496  31.053  30.661  1.00  0.00     0.167 HD
ATOM     55  C   UNL A   1      43.495  27.557  36.372  1.00  0.00     0.037 A 
ATOM     56  C   UNL A   1      40.690  33.267  32.571  1.00  0.00     0.037 A 
ATOM     57  C   UNL A   1      43.987  28.939  36.441  1.00  0.00     0.049 A 
ATOM     58  C   UNL A   1      41.113  33.430  34.029  1.00  0.00     0.074 A 
ATOM     59  C   UNL A   1      44.941  29.627  35.710  1.00  0.00     0.029 A 
ATOM     60  N   UNL A   1      43.161  29.904  37.016  1.00  0.00    -0.354 N 
ATOM     61  N   UNL A   1      41.675  32.498  34.761  1.00  0.00    -0.248 NA
ATOM     62  C   UNL A   1      41.042  34.715  34.720  1.00  0.00     0.031 C 
ATOM     63  C   UNL A   1      44.600  31.010  35.750  1.00  0.00     0.029 A 
ATOM     64  C   UNL A   1      43.460  31.163  36.524  1.00  0.00     0.049 A 
ATOM     65  H   UNL A   1      42.461  29.716  37.682  1.00  0.00     0.167 HD
ATOM     66  C   UNL A   1      42.050  33.032  35.974  1.00  0.00     0.074 A 
ATOM     67  C   UNL A   1      41.635  34.422  35.889  1.00  0.00     0.031 C 
ATOM     68  C   UNL A   1      42.695  32.328  36.959  1.00  0.00     0.037 A 
BRANCH  55  69
ATOM     69  C   UNL A   1      44.287  26.336  36.807  1.00  0.00     0.058 A 
ATOM     70  C   UNL A   1      44.938  25.547  35.832  1.00  0.00     0.135 A 
ATOM     71  C   UNL A   1      44.381  25.820  38.118  1.00  0.00     0.135 A 
ATOM     72  F   UNL A   1      44.964  25.911  34.542  1.00  0.00    -0.206 F 
ATOM     73  C   UNL A   1      45.574  24.336  36.124  1.00  0.00     0.059 A 
ATOM     74  C   UNL A   1      44.996  24.604  38.433  1.00  0.00     0.059 A 
ATOM     75  F   UNL A   1      43.897  26.463  39.182  1.00  0.00    -0.206 F 
ATOM     76  C   UNL A   1      45.588  23.862  37.427  1.00  0.00     0.060 A 
BRANCH  76  77
ATOM     77  S   UNL A   1      46.395  22.293  37.788  1.00  0.00     0.124 S 
ATOM     78  O   UNL A   1      47.772  22.710  38.031  1.00  0.00    -0.237 OA
ATOM     79  O   UNL A   1      45.653  21.832  38.955  1.00  0.00    -0.237 OA
ATOM     80  O   UNL A   1      46.189  21.515  36.569  1.00  0.00    -0.744 OA
ENDBRANCH  76  77
ENDBRANCH  55  69
BRANCH  56  81
ATOM     81  C   UNL A   1      39.272  33.184  32.058  1.00  0.00     0.058 A 
ATOM     82  C   UNL A   1      38.294  32.470  32.798  1.00  0.00     0.135 A 
ATOM     83  C   UNL A   1      38.778  34.007  31.040  1.00  0.00     0.135 A 
ATOM     84  F   UNL A   1      38.685  31.628  33.772  1.00  0.00    -0.206 F 
ATOM     85  C   UNL A   1      36.913  32.641  32.608  1.00  0.00     0.059 A 
ATOM     86  C   UNL A   1      37.400  34.182  30.823  1.00  0.00     0.059 A 
ATOM     87  F   UNL A   1      39.623  34.722  30.283  1.00  0.00    -0.206 F 
ATOM     88  C   UNL A   1      36.466  33.533  31.637  1.00  0.00     0.060 A 
BRANCH  88  89
ATOM     89  S   UNL A   1      34.677  33.739  31.322  1.00  0.00     0.124 S 
ATOM     90  O   UNL A   1      34.585  33.575  29.874  1.00  0.00    -0.237 OA
ATOM     91  O   UNL A   1      34.034  32.702  32.115  1.00  0.00    -0.237 OA
ATOM     92  O   UNL A   1      34.425  35.095  31.804  1.00  0.00    -0.744 OA
ENDBRANCH  88  89
ENDBRANCH  56  81
BRANCH  68  93
ATOM     93  C   UNL A   1      42.744  32.712  38.433  1.00  0.00     0.058 A 
ATOM     94  C   UNL A   1      43.921  33.051  39.124  1.00  0.00     0.135 A 
ATOM     95  C   UNL A   1      41.545  32.918  39.171  1.00  0.00     0.135 A 
ATOM     96  F   UNL A   1      45.119  33.044  38.525  1.00  0.00    -0.206 F 
ATOM     97  C   UNL A   1      43.922  33.467  40.456  1.00  0.00     0.059 A 
ATOM     98  C   UNL A   1      41.520  33.416  40.472  1.00  0.00     0.059 A 
ATOM     99  F   UNL A   1      40.336  32.664  38.650  1.00  0.00    -0.206 F 
ATOM    100  C   UNL A   1      42.717  33.649  41.123  1.00  0.00     0.060 A 
BRANCH 100 101
ATOM    101  S   UNL A   1      42.725  34.222  42.827  1.00  0.00     0.124 S 
ATOM    102  O   UNL A   1      44.080  33.871  43.242  1.00  0.00    -0.237 OA
ATOM    103  O   UNL A   1      42.458  35.649  42.684  1.00  0.00    -0.237 OA
ATOM    104  O   UNL A   1      41.654  33.451  43.450  1.00  0.00    -0.744 OA
ENDBRANCH 100 101
ENDBRANCH  68  93
ENDBRANCH  42  43
ENDBRANCH  34  37
ENDBRANCH  32  33
ENDBRANCH  31  32
ENDBRANCH   1  31
TORSDOF 18
ENDMDL
MODEL 3
REMARK VINA RESULT:     -10.8      8.716     15.263
REMARK SMILES Cc1ccc(C(=O)N2CCCC[C@@H]2C(=O)NCCCCNC(=O)c2ccc(-c3c4nc(c(-c5c(F)cc(S(=O)(=O)[O-])cc5F)c5ccc([nH]5)c(-c5c(F)cc(S(=O)(=O)[O-])cc5F)c5nc(c(-c6c(F)cc(S(=O)(=O)[O-])cc6F)c6ccc3[nH]6)C=C5)C=C4)cc2)cc1S(=O)(=O)N1CCCCC1
REMARK SMILES IDX 18 1 17 2 16 3 14 4 15 5 13 7 8 8 9 9 10 10 12 11 11 12 6 13
REMARK SMILES IDX 7 14 5 15 1 16 2 17 3 18 91 19 4 20 90 21 92 22 93 23 94 24
REMARK SMILES IDX 95 25 96 26 100 27 97 28 99 29 98 30 19 31 20 32 21 33 22 34
REMARK SMILES IDX 23 36 24 37 25 38 89 39 26 40 88 41 27 42 28 43 29 44 82 45
REMARK SMILES IDX 30 46 87 47 81 48 83 49 31 50 86 51 80 52 79 53 32 55 66 56
REMARK SMILES IDX 45 57 65 58 46 59 49 60 64 61 84 62 47 63 48 64 63 66 85 67
REMARK SMILES IDX 50 68 33 69 34 70 43 71 35 72 36 73 42 74 44 75 37 76 38 77
REMARK SMILES IDX 39 78 40 79 41 80 67 81 68 82 77 83 69 84 70 85 76 86 78 87
REMARK SMILES IDX 71 88 72 89 73 90 74 91 75 92 51 93 52 94 61 95 53 96 54 97
REMARK SMILES IDX 60 98 62 99 55 100 56 101 57 102 58 103 59 104
REMARK H PARENT 16 6 21 35 83 54 49 65
REMARK Flexibility Score: inf
ROOT
ATOM      1  C   UNL A   1      43.278  41.177  34.415  1.00  0.00     0.023 C 
ENDROOT
BRANCH   1   2
ATOM      2  C   UNL A   1      42.375  42.188  33.708  1.00  0.00     0.116 C 
BRANCH   2   3
ATOM      3  N   UNL A   1      41.903  41.650  32.446  1.00  0.00    -0.354 N 
ATOM      4  C   UNL A   1      42.613  41.189  31.384  1.00  0.00     0.242 C 
ATOM      5  O   UNL A   1      42.016  41.046  30.316  1.00  0.00    -0.273 OA
ATOM      6  H   UNL A   1      40.925  41.614  32.344  1.00  0.00     0.163 HD
BRANCH   4   7
ATOM      7  C   UNL A   1      44.135  40.979  31.487  1.00  0.00     0.174 C 
ATOM      8  N   UNL A   1      44.930  41.759  30.499  1.00  0.00    -0.327 N 
ATOM      9  C   UNL A   1      46.310  41.338  30.298  1.00  0.00     0.120 C 
ATOM     10  C   UNL A   1      46.433  39.857  30.009  1.00  0.00     0.022 C 
ATOM     11  C   UNL A   1      44.361  39.451  31.354  1.00  0.00     0.035 C 
ATOM     12  C   UNL A   1      45.810  39.050  31.136  1.00  0.00     0.004 C 
BRANCH   8  13
ATOM     13  C   UNL A   1      44.636  43.038  30.007  1.00  0.00     0.254 C 
ATOM     14  O   UNL A   1      44.052  43.877  30.694  1.00  0.00    -0.269 OA
BRANCH  13  15
ATOM     15  C   UNL A   1      44.959  43.434  28.619  1.00  0.00     0.041 A 
ATOM     16  C   UNL A   1      45.465  45.082  24.670  1.00  0.00     0.046 C 
ATOM     17  C   UNL A   1      45.273  44.358  25.962  1.00  0.00    -0.031 A 
ATOM     18  C   UNL A   1      45.697  45.122  27.078  1.00  0.00     0.005 A 
ATOM     19  C   UNL A   1      44.706  43.090  26.197  1.00  0.00     0.086 A 
ATOM     20  C   UNL A   1      45.546  44.672  28.387  1.00  0.00     0.014 A 
ATOM     21  C   UNL A   1      44.527  42.670  27.536  1.00  0.00     0.035 A 
BRANCH  19  22
ATOM     22  S   UNL A   1      44.120  41.825  25.060  1.00  0.00     0.243 S 
ATOM     23  O   UNL A   1      42.938  42.367  24.435  1.00  0.00    -0.207 OA
ATOM     24  O   UNL A   1      45.281  41.484  24.244  1.00  0.00    -0.207 OA
BRANCH  22  25
ATOM     25  N   UNL A   1      43.657  40.403  25.848  1.00  0.00    -0.198 NA
ATOM     26  C   UNL A   1      44.741  39.622  26.473  1.00  0.00     0.102 C 
ATOM     27  C   UNL A   1      42.260  40.349  26.327  1.00  0.00     0.102 C 
ATOM     28  C   UNL A   1      44.270  38.372  27.199  1.00  0.00     0.017 C 
ATOM     29  C   UNL A   1      41.905  39.085  27.096  1.00  0.00     0.017 C 
ATOM     30  C   UNL A   1      43.013  38.601  28.014  1.00  0.00     0.003 C 
ENDBRANCH  22  25
ENDBRANCH  19  22
ENDBRANCH  13  15
ENDBRANCH   8  13
ENDBRANCH   4   7
ENDBRANCH   2   3
ENDBRANCH   1   2
BRANCH   1  31
ATOM     31  C   UNL A   1      44.292  41.806  35.375  1.00  0.00     0.023 C 
BRANCH  31  32
ATOM     32  C   UNL A   1      45.393  40.851  35.807  1.00  0.00     0.116 C 
BRANCH  32  33
ATOM     33  N   UNL A   1      45.129  39.533  35.288  1.00  0.00    -0.352 N 
ATOM     34  C   UNL A   1      45.541  38.379  35.914  1.00  0.00     0.251 C 
ATOM     35  H   UNL A   1      44.627  39.454  34.444  1.00  0.00     0.163 HD
ATOM     36  O   UNL A   1      46.331  37.687  35.291  1.00  0.00    -0.269 OA
BRANCH  34  37
ATOM     37  C   UNL A   1      44.764  37.935  37.148  1.00  0.00     0.039 A 
ATOM     38  C   UNL A   1      45.180  36.646  37.503  1.00  0.00     0.014 A 
ATOM     39  C   UNL A   1      43.392  38.139  37.038  1.00  0.00     0.014 A 
ATOM     40  C   UNL A   1      44.441  35.573  37.040  1.00  0.00     0.010 A 
ATOM     41  C   UNL A   1      42.684  37.128  36.439  1.00  0.00     0.010 A 
ATOM     42  C   UNL A   1      43.281  35.870  36.346  1.00  0.00    -0.014 A 
BRANCH  42  43
ATOM     43  C   UNL A   1      42.591  34.936  35.491  1.00  0.00     0.031 A 
ATOM     44  C   UNL A   1      42.690  35.208  34.057  1.00  0.00     0.074 A 
ATOM     45  C   UNL A   1      42.101  33.827  36.085  1.00  0.00     0.049 A 
ATOM     46  N   UNL A   1      42.029  34.606  33.146  1.00  0.00    -0.248 NA
ATOM     47  C   UNL A   1      43.557  36.265  33.535  1.00  0.00     0.031 C 
ATOM     48  C   UNL A   1      41.637  32.569  35.509  1.00  0.00     0.029 A 
ATOM     49  N   UNL A   1      41.706  33.747  37.430  1.00  0.00    -0.354 N 
ATOM     50  C   UNL A   1      42.581  34.962  31.932  1.00  0.00     0.074 A 
ATOM     51  C   UNL A   1      43.442  36.075  32.221  1.00  0.00     0.031 C 
ATOM     52  C   UNL A   1      40.766  32.001  36.371  1.00  0.00     0.029 A 
ATOM     53  C   UNL A   1      40.528  32.980  37.430  1.00  0.00     0.049 A 
ATOM     54  H   UNL A   1      42.157  34.145  38.209  1.00  0.00     0.167 HD
ATOM     55  C   UNL A   1      42.341  34.138  30.875  1.00  0.00     0.037 A 
ATOM     56  C   UNL A   1      39.334  33.618  37.628  1.00  0.00     0.037 A 
ATOM     57  C   UNL A   1      41.274  33.203  31.253  1.00  0.00     0.049 A 
ATOM     58  C   UNL A   1      38.464  33.533  36.376  1.00  0.00     0.074 A 
ATOM     59  C   UNL A   1      41.298  31.915  31.761  1.00  0.00     0.029 A 
ATOM     60  N   UNL A   1      40.021  33.728  31.571  1.00  0.00    -0.354 N 
ATOM     61  N   UNL A   1      38.912  33.552  35.143  1.00  0.00    -0.248 NA
ATOM     62  C   UNL A   1      37.025  33.290  36.443  1.00  0.00     0.031 C 
ATOM     63  C   UNL A   1      40.095  31.720  32.499  1.00  0.00     0.029 A 
ATOM     64  C   UNL A   1      39.332  32.875  32.415  1.00  0.00     0.049 A 
ATOM     65  H   UNL A   1      39.674  34.587  31.239  1.00  0.00     0.167 HD
ATOM     66  C   UNL A   1      37.870  33.314  34.273  1.00  0.00     0.074 A 
ATOM     67  C   UNL A   1      36.717  33.152  35.143  1.00  0.00     0.031 C 
ATOM     68  C   UNL A   1      38.007  33.236  32.911  1.00  0.00     0.037 A 
BRANCH  55  69
ATOM     69  C   UNL A   1      43.230  33.985  29.653  1.00  0.00     0.058 A 
ATOM     70  C   UNL A   1      42.895  34.663  28.459  1.00  0.00     0.135 A 
ATOM     71  C   UNL A   1      44.353  33.135  29.534  1.00  0.00     0.135 A 
ATOM     72  F   UNL A   1      41.870  35.526  28.411  1.00  0.00    -0.206 F 
ATOM     73  C   UNL A   1      43.576  34.476  27.252  1.00  0.00     0.059 A 
ATOM     74  C   UNL A   1      45.039  32.919  28.335  1.00  0.00     0.059 A 
ATOM     75  F   UNL A   1      44.868  32.472  30.570  1.00  0.00    -0.206 F 
ATOM     76  C   UNL A   1      44.641  33.589  27.194  1.00  0.00     0.060 A 
BRANCH  76  77
ATOM     77  S   UNL A   1      45.499  33.343  25.630  1.00  0.00     0.124 S 
ATOM     78  O   UNL A   1      45.271  31.924  25.379  1.00  0.00    -0.237 OA
ATOM     79  O   UNL A   1      44.795  34.268  24.749  1.00  0.00    -0.237 OA
ATOM     80  O   UNL A   1      46.880  33.704  25.937  1.00  0.00    -0.744 OA
ENDBRANCH  76  77
ENDBRANCH  55  69
BRANCH  56  81
ATOM     81  C   UNL A   1      39.430  34.796  38.569  1.00  0.00     0.058 A 
ATOM     82  C   UNL A   1      39.561  34.575  39.965  1.00  0.00     0.135 A 
ATOM     83  C   UNL A   1      39.687  36.101  38.136  1.00  0.00     0.135 A 
ATOM     84  F   UNL A   1      39.297  33.357  40.471  1.00  0.00    -0.206 F 
ATOM     85  C   UNL A   1      40.017  35.560  40.857  1.00  0.00     0.059 A 
ATOM     86  C   UNL A   1      40.132  37.106  39.014  1.00  0.00     0.059 A 
ATOM     87  F   UNL A   1      39.589  36.410  36.835  1.00  0.00    -0.206 F 
ATOM     88  C   UNL A   1      40.340  36.823  40.367  1.00  0.00     0.060 A 
BRANCH  88  89
ATOM     89  S   UNL A   1      40.883  38.146  41.507  1.00  0.00     0.124 S 
ATOM     90  O   UNL A   1      41.905  37.479  42.308  1.00  0.00    -0.237 OA
ATOM     91  O   UNL A   1      41.359  39.215  40.642  1.00  0.00    -0.237 OA
ATOM     92  O   UNL A   1      39.652  38.469  42.226  1.00  0.00    -0.744 OA
ENDBRANCH  88  89
ENDBRANCH  56  81
BRANCH  68  93
ATOM     93  C   UNL A   1      36.881  33.409  31.898  1.00  0.00     0.058 A 
ATOM     94  C   UNL A   1      35.925  34.440  31.947  1.00  0.00     0.135 A 
ATOM     95  C   UNL A   1      36.836  32.617  30.718  1.00  0.00     0.135 A 
ATOM     96  F   UNL A   1      35.923  35.356  32.924  1.00  0.00    -0.206 F 
ATOM     97  C   UNL A   1      34.950  34.613  30.964  1.00  0.00     0.059 A 
ATOM     98  C   UNL A   1      35.927  32.829  29.684  1.00  0.00     0.059 A 
ATOM     99  F   UNL A   1      37.693  31.607  30.506  1.00  0.00    -0.206 F 
ATOM    100  C   UNL A   1      34.959  33.805  29.834  1.00  0.00     0.060 A 
BRANCH 100 101
ATOM    101  S   UNL A   1      33.723  34.059  28.553  1.00  0.00     0.124 S 
ATOM    102  O   UNL A   1      33.564  32.704  28.034  1.00  0.00    -0.237 OA
ATOM    103  O   UNL A   1      32.588  34.585  29.305  1.00  0.00    -0.237 OA
ATOM    104  O   UNL A   1      34.361  35.011  27.649  1.00  0.00    -0.744 OA
ENDBRANCH 100 101
ENDBRANCH  68  93
ENDBRANCH  42  43
ENDBRANCH  34  37
ENDBRANCH  32  33
ENDBRANCH  31  32
ENDBRANCH   1  31
TORSDOF 18
ENDMDL
