MODEL 1
REMARK VINA RESULT:     -10.7      0.000      0.000
REMARK SMILES Cc1cc(C)c(C(=O)NC[C@H]2CC[C@@H](C(=O)NCCCCNC(=O)c3ccc(-c4c5nc(c(-c6c(F)cc(S(=O)(=O)[O-])cc6F)c6ccc([nH]6)c(-c6c(F)cc(S(=O)(=O)[O-])cc6F)c6nc(c(-c7c(F)cc(S(=O)(=O)[O-])cc7F)c7ccc4[nH]7)C=C6)C=C5)cc3)O2)c(C)c1
REMARK SMILES IDX 19 1 18 2 17 3 15 4 16 5 14 7 11 8 12 9 91 10 13 11 10 12
REMARK SMILES IDX 9 13 7 14 8 15 6 17 1 18 2 19 3 20 94 21 4 22 92 23 5 24
REMARK SMILES IDX 93 25 20 26 21 27 22 28 23 29 24 31 25 32 26 33 90 34 27 35
REMARK SMILES IDX 89 36 28 37 29 38 30 39 83 40 31 41 88 42 82 43 84 44 32 45
REMARK SMILES IDX 87 46 81 47 80 48 33 50 67 51 46 52 66 53 47 54 50 55 65 56
REMARK SMILES IDX 85 57 48 58 49 59 64 61 86 62 51 63 34 64 35 65 44 66 36 67
REMARK SMILES IDX 37 68 43 69 45 70 38 71 39 72 40 73 41 74 42 75 68 76 69 77
REMARK SMILES IDX 78 78 70 79 71 80 77 81 79 82 72 83 73 84 74 85 75 86 76 87
REMARK SMILES IDX 52 88 53 89 62 90 54 91 55 92 61 93 63 94 56 95 57 96 58 97
REMARK SMILES IDX 59 98 60 99
REMARK H PARENT 17 6 9 16 22 30 84 49 50 60
REMARK Flexibility Score: inf
ROOT
ATOM      1  C   UNL A   1      41.865  20.743  27.490  1.00  0.00     0.023 C 
ENDROOT
BRANCH   1   2
ATOM      2  C   UNL A   1      42.392  20.701  26.057  1.00  0.00     0.116 C 
BRANCH   2   3
ATOM      3  N   UNL A   1      43.823  20.465  26.002  1.00  0.00    -0.354 N 
ATOM      4  C   UNL A   1      44.822  21.355  25.715  1.00  0.00     0.249 C 
ATOM      5  O   UNL A   1      45.989  20.962  25.747  1.00  0.00    -0.272 OA
ATOM      6  H   UNL A   1      44.114  19.545  26.196  1.00  0.00     0.163 HD
BRANCH   4   7
ATOM      7  C   UNL A   1      44.443  22.793  25.326  1.00  0.00     0.207 C 
ATOM      8  C   UNL A   1      44.990  24.748  26.501  1.00  0.00     0.138 C 
ATOM      9  C   UNL A   1      45.406  24.944  25.056  1.00  0.00     0.037 C 
ATOM     10  O   UNL A   1      44.165  23.578  26.501  1.00  0.00    -0.363 OA
ATOM     11  C   UNL A   1      45.538  23.525  24.560  1.00  0.00     0.045 C 
BRANCH   8  12
ATOM     12  C   UNL A   1      46.164  24.548  27.487  1.00  0.00     0.148 C 
BRANCH  12  13
ATOM     13  N   UNL A   1      46.341  25.713  28.331  1.00  0.00    -0.349 N 
ATOM     14  C   UNL A   1      45.892  26.130  29.556  1.00  0.00     0.251 C 
ATOM     15  O   UNL A   1      45.736  27.359  29.584  1.00  0.00    -0.269 OA
ATOM     16  H   UNL A   1      46.940  26.375  27.917  1.00  0.00     0.163 HD
BRANCH  14  17
ATOM     17  C   UNL A   1      45.628  25.344  30.830  1.00  0.00     0.045 A 
ATOM     18  C   UNL A   1      44.863  23.818  34.867  1.00  0.00     0.044 C 
ATOM     19  C   UNL A   1      45.162  24.303  33.482  1.00  0.00    -0.051 A 
ATOM     20  C   UNL A   1      46.175  25.217  33.253  1.00  0.00     0.007 A 
ATOM     21  C   UNL A   1      44.422  23.872  32.391  1.00  0.00     0.007 A 
ATOM     22  C   UNL A   1      46.447  25.710  31.956  1.00  0.00    -0.038 A 
ATOM     23  C   UNL A   1      44.619  24.376  31.078  1.00  0.00    -0.038 A 
ATOM     24  C   UNL A   1      47.620  26.668  31.901  1.00  0.00     0.045 C 
ATOM     25  C   UNL A   1      43.675  23.773  30.087  1.00  0.00     0.045 C 
ENDBRANCH  14  17
ENDBRANCH  12  13
ENDBRANCH   8  12
ENDBRANCH   4   7
ENDBRANCH   2   3
ENDBRANCH   1   2
BRANCH   1  26
ATOM     26  C   UNL A   1      41.547  22.139  28.025  1.00  0.00     0.023 C 
BRANCH  26  27
ATOM     27  C   UNL A   1      40.448  22.890  27.279  1.00  0.00     0.116 C 
BRANCH  27  28
ATOM     28  N   UNL A   1      40.956  23.687  26.174  1.00  0.00    -0.352 N 
ATOM     29  C   UNL A   1      41.248  25.033  26.125  1.00  0.00     0.251 C 
ATOM     30  H   UNL A   1      41.115  23.193  25.338  1.00  0.00     0.163 HD
ATOM     31  O   UNL A   1      41.529  25.555  25.054  1.00  0.00    -0.269 OA
BRANCH  29  32
ATOM     32  C   UNL A   1      41.188  25.848  27.360  1.00  0.00     0.039 A 
ATOM     33  C   UNL A   1      42.311  26.593  27.732  1.00  0.00     0.014 A 
ATOM     34  C   UNL A   1      40.030  25.890  28.141  1.00  0.00     0.014 A 
ATOM     35  C   UNL A   1      42.242  27.443  28.840  1.00  0.00     0.010 A 
ATOM     36  C   UNL A   1      39.940  26.794  29.198  1.00  0.00     0.010 A 
ATOM     37  C   UNL A   1      41.042  27.587  29.554  1.00  0.00    -0.014 A 
BRANCH  37  38
ATOM     38  C   UNL A   1      40.909  28.571  30.661  1.00  0.00     0.031 A 
ATOM     39  C   UNL A   1      41.777  28.458  31.886  1.00  0.00     0.074 A 
ATOM     40  C   UNL A   1      39.960  29.527  30.595  1.00  0.00     0.049 A 
ATOM     41  N   UNL A   1      41.743  29.157  32.991  1.00  0.00    -0.248 NA
ATOM     42  C   UNL A   1      42.803  27.401  31.876  1.00  0.00     0.031 C 
ATOM     43  C   UNL A   1      39.031  29.722  29.478  1.00  0.00     0.029 A 
ATOM     44  N   UNL A   1      39.606  30.506  31.490  1.00  0.00    -0.354 N 
ATOM     45  C   UNL A   1      42.735  28.626  33.808  1.00  0.00     0.074 A 
ATOM     46  C   UNL A   1      43.315  27.509  33.095  1.00  0.00     0.031 C 
ATOM     47  C   UNL A   1      38.232  30.767  29.746  1.00  0.00     0.029 A 
ATOM     48  C   UNL A   1      38.553  31.287  31.071  1.00  0.00     0.049 A 
ATOM     49  H   UNL A   1      40.063  30.638  32.352  1.00  0.00     0.167 HD
ATOM     50  C   UNL A   1      43.143  29.047  35.030  1.00  0.00     0.037 A 
ATOM     51  C   UNL A   1      37.908  32.296  31.689  1.00  0.00     0.037 A 
ATOM     52  C   UNL A   1      42.570  30.169  35.730  1.00  0.00     0.049 A 
ATOM     53  C   UNL A   1      38.353  32.716  33.065  1.00  0.00     0.074 A 
ATOM     54  C   UNL A   1      42.940  30.696  36.955  1.00  0.00     0.029 A 
ATOM     55  N   UNL A   1      41.507  30.933  35.272  1.00  0.00    -0.354 N 
ATOM     56  N   UNL A   1      39.328  32.236  33.800  1.00  0.00    -0.248 NA
ATOM     57  C   UNL A   1      37.610  33.817  33.696  1.00  0.00     0.031 C 
ATOM     58  C   UNL A   1      42.068  31.747  37.260  1.00  0.00     0.029 A 
ATOM     59  C   UNL A   1      41.192  31.913  36.200  1.00  0.00     0.049 A 
ATOM     60  H   UNL A   1      41.045  30.800  34.413  1.00  0.00     0.167 HD
ATOM     61  C   UNL A   1      39.335  32.995  34.966  1.00  0.00     0.074 A 
ATOM     62  C   UNL A   1      38.278  33.976  34.831  1.00  0.00     0.031 C 
ATOM     63  C   UNL A   1      40.142  32.890  36.050  1.00  0.00     0.037 A 
BRANCH  50  64
ATOM     64  C   UNL A   1      44.268  28.296  35.689  1.00  0.00     0.058 A 
ATOM     65  C   UNL A   1      44.024  27.280  36.627  1.00  0.00     0.135 A 
ATOM     66  C   UNL A   1      45.603  28.557  35.341  1.00  0.00     0.135 A 
ATOM     67  F   UNL A   1      42.768  26.998  37.008  1.00  0.00    -0.206 F 
ATOM     68  C   UNL A   1      45.064  26.568  37.216  1.00  0.00     0.059 A 
ATOM     69  C   UNL A   1      46.658  27.836  35.896  1.00  0.00     0.059 A 
ATOM     70  F   UNL A   1      45.896  29.517  34.451  1.00  0.00    -0.206 F 
ATOM     71  C   UNL A   1      46.378  26.851  36.842  1.00  0.00     0.060 A 
BRANCH  71  72
ATOM     72  S   UNL A   1      47.712  25.905  37.606  1.00  0.00     0.124 S 
ATOM     73  O   UNL A   1      48.655  25.786  36.498  1.00  0.00    -0.237 OA
ATOM     74  O   UNL A   1      48.126  26.779  38.698  1.00  0.00    -0.237 OA
ATOM     75  O   UNL A   1      47.061  24.663  38.011  1.00  0.00    -0.744 OA
ENDBRANCH  71  72
ENDBRANCH  50  64
BRANCH  51  76
ATOM     76  C   UNL A   1      36.775  32.988  31.014  1.00  0.00     0.058 A 
ATOM     77  C   UNL A   1      35.450  32.765  31.417  1.00  0.00     0.135 A 
ATOM     78  C   UNL A   1      36.992  33.875  29.947  1.00  0.00     0.135 A 
ATOM     79  F   UNL A   1      35.190  31.920  32.427  1.00  0.00    -0.206 F 
ATOM     80  C   UNL A   1      34.379  33.372  30.772  1.00  0.00     0.059 A 
ATOM     81  C   UNL A   1      35.938  34.518  29.305  1.00  0.00     0.059 A 
ATOM     82  F   UNL A   1      38.241  34.137  29.531  1.00  0.00    -0.206 F 
ATOM     83  C   UNL A   1      34.633  34.249  29.715  1.00  0.00     0.060 A 
BRANCH  83  84
ATOM     84  S   UNL A   1      33.236  35.054  28.903  1.00  0.00     0.124 S 
ATOM     85  O   UNL A   1      33.869  36.238  28.336  1.00  0.00    -0.237 OA
ATOM     86  O   UNL A   1      32.810  34.037  27.947  1.00  0.00    -0.237 OA
ATOM     87  O   UNL A   1      32.306  35.300  30.002  1.00  0.00    -0.744 OA
ENDBRANCH  83  84
ENDBRANCH  51  76
BRANCH  63  88
ATOM     88  C   UNL A   1      39.942  33.882  37.164  1.00  0.00     0.058 A 
ATOM     89  C   UNL A   1      40.573  35.135  37.162  1.00  0.00     0.135 A 
ATOM     90  C   UNL A   1      39.069  33.592  38.225  1.00  0.00     0.135 A 
ATOM     91  F   UNL A   1      41.425  35.462  36.176  1.00  0.00    -0.206 F 
ATOM     92  C   UNL A   1      40.365  36.057  38.183  1.00  0.00     0.059 A 
ATOM     93  C   UNL A   1      38.820  34.510  39.240  1.00  0.00     0.059 A 
ATOM     94  F   UNL A   1      38.431  32.411  38.273  1.00  0.00    -0.206 F 
ATOM     95  C   UNL A   1      39.482  35.736  39.216  1.00  0.00     0.060 A 
BRANCH  95  96
ATOM     96  S   UNL A   1      39.194  36.956  40.515  1.00  0.00     0.124 S 
ATOM     97  O   UNL A   1      38.538  38.027  39.774  1.00  0.00    -0.237 OA
ATOM     98  O   UNL A   1      38.347  36.221  41.449  1.00  0.00    -0.237 OA
ATOM     99  O   UNL A   1      40.537  37.260  41.002  1.00  0.00    -0.744 OA
ENDBRANCH  95  96
ENDBRANCH  63  88
ENDBRANCH  37  38
ENDBRANCH  29  32
ENDBRANCH  27  28
ENDBRANCH  26  27
ENDBRANCH   1  26
TORSDOF 17
ENDMDL
MODEL 2
REMARK VINA RESULT:     -10.5      3.803     10.487
REMARK SMILES Cc1cc(C)c(C(=O)NC[C@H]2CC[C@@H](C(=O)NCCCCNC(=O)c3ccc(-c4c5nc(c(-c6c(F)cc(S(=O)(=O)[O-])cc6F)c6ccc([nH]6)c(-c6c(F)cc(S(=O)(=O)[O-])cc6F)c6nc(c(-c7c(F)cc(S(=O)(=O)[O-])cc7F)c7ccc4[nH]7)C=C6)C=C5)cc3)O2)c(C)c1
REMARK SMILES IDX 19 1 18 2 17 3 15 4 16 5 14 7 11 8 12 9 91 10 13 11 10 12
REMARK SMILES IDX 9 13 7 14 8 15 6 17 1 18 2 19 3 20 94 21 4 22 92 23 5 24
REMARK SMILES IDX 93 25 20 26 21 27 22 28 23 29 24 31 25 32 26 33 90 34 27 35
REMARK SMILES IDX 89 36 28 37 29 38 30 39 83 40 31 41 88 42 82 43 84 44 32 45
REMARK SMILES IDX 87 46 81 47 80 48 33 50 67 51 46 52 66 53 47 54 50 55 65 56
REMARK SMILES IDX 85 57 48 58 49 59 64 61 86 62 51 63 34 64 35 65 44 66 36 67
REMARK SMILES IDX 37 68 43 69 45 70 38 71 39 72 40 73 41 74 42 75 68 76 69 77
REMARK SMILES IDX 78 78 70 79 71 80 77 81 79 82 72 83 73 84 74 85 75 86 76 87
REMARK SMILES IDX 52 88 53 89 62 90 54 91 55 92 61 93 63 94 56 95 57 96 58 97
REMARK SMILES IDX 59 98 60 99
REMARK H PARENT 17 6 9 16 22 30 84 49 50 60
REMARK Flexibility Score: inf
ROOT
ATOM      1  C   UNL A   1      40.834  21.135  27.022  1.00  0.00     0.023 C 
ENDROOT
BRANCH   1   2
ATOM      2  C   UNL A   1      39.622  21.341  26.118  1.00  0.00     0.116 C 
BRANCH   2   3
ATOM      3  N   UNL A   1      39.079  22.684  26.220  1.00  0.00    -0.354 N 
ATOM      4  C   UNL A   1      37.811  23.114  25.934  1.00  0.00     0.249 C 
ATOM      5  O   UNL A   1      37.538  24.302  26.115  1.00  0.00    -0.272 OA
ATOM      6  H   UNL A   1      39.704  23.376  26.534  1.00  0.00     0.163 HD
BRANCH   4   7
ATOM      7  C   UNL A   1      36.800  22.107  25.364  1.00  0.00     0.207 C 
ATOM      8  C   UNL A   1      34.480  22.109  25.713  1.00  0.00     0.138 C 
ATOM      9  C   UNL A   1      34.724  22.030  24.218  1.00  0.00     0.037 C 
ATOM     10  O   UNL A   1      35.752  21.849  26.317  1.00  0.00    -0.363 OA
ATOM     11  C   UNL A   1      36.121  22.586  24.087  1.00  0.00     0.045 C 
BRANCH   8  12
ATOM     12  C   UNL A   1      33.948  23.474  26.207  1.00  0.00     0.148 C 
BRANCH  12  13
ATOM     13  N   UNL A   1      32.509  23.439  26.386  1.00  0.00    -0.349 N 
ATOM     14  C   UNL A   1      31.481  24.343  26.344  1.00  0.00     0.251 C 
ATOM     15  O   UNL A   1      30.597  24.059  27.164  1.00  0.00    -0.269 OA
ATOM     16  H   UNL A   1      32.189  22.532  26.590  1.00  0.00     0.163 HD
BRANCH  14  17
ATOM     17  C   UNL A   1      31.262  25.546  25.440  1.00  0.00     0.045 A 
ATOM     18  C   UNL A   1      29.909  28.648  22.654  1.00  0.00     0.044 C 
ATOM     19  C   UNL A   1      30.418  27.588  23.582  1.00  0.00    -0.051 A 
ATOM     20  C   UNL A   1      30.367  26.251  23.228  1.00  0.00     0.007 A 
ATOM     21  C   UNL A   1      30.934  27.908  24.829  1.00  0.00     0.007 A 
ATOM     22  C   UNL A   1      30.812  25.237  24.108  1.00  0.00    -0.038 A 
ATOM     23  C   UNL A   1      31.343  26.925  25.769  1.00  0.00    -0.038 A 
ATOM     24  C   UNL A   1      30.716  23.841  23.526  1.00  0.00     0.045 C 
ATOM     25  C   UNL A   1      31.833  27.527  27.048  1.00  0.00     0.045 C 
ENDBRANCH  14  17
ENDBRANCH  12  13
ENDBRANCH   8  12
ENDBRANCH   4   7
ENDBRANCH   2   3
ENDBRANCH   1   2
BRANCH   1  26
ATOM     26  C   UNL A   1      41.233  22.347  27.863  1.00  0.00     0.023 C 
BRANCH  26  27
ATOM     27  C   UNL A   1      42.441  23.127  27.353  1.00  0.00     0.116 C 
BRANCH  27  28
ATOM     28  N   UNL A   1      42.120  24.004  26.238  1.00  0.00    -0.352 N 
ATOM     29  C   UNL A   1      41.639  25.295  26.249  1.00  0.00     0.251 C 
ATOM     30  H   UNL A   1      42.268  23.619  25.345  1.00  0.00     0.163 HD
ATOM     31  O   UNL A   1      41.288  25.821  25.201  1.00  0.00    -0.269 OA
BRANCH  29  32
ATOM     32  C   UNL A   1      41.516  26.029  27.530  1.00  0.00     0.039 A 
ATOM     33  C   UNL A   1      42.545  26.893  27.914  1.00  0.00     0.014 A 
ATOM     34  C   UNL A   1      40.389  25.877  28.342  1.00  0.00     0.014 A 
ATOM     35  C   UNL A   1      42.405  27.666  29.070  1.00  0.00     0.010 A 
ATOM     36  C   UNL A   1      40.219  26.704  29.450  1.00  0.00     0.010 A 
ATOM     37  C   UNL A   1      41.220  27.614  29.823  1.00  0.00    -0.014 A 
BRANCH  37  38
ATOM     38  C   UNL A   1      40.999  28.512  30.987  1.00  0.00     0.031 A 
ATOM     39  C   UNL A   1      39.950  29.589  30.927  1.00  0.00     0.074 A 
ATOM     40  C   UNL A   1      41.790  28.402  32.074  1.00  0.00     0.049 A 
ATOM     41  N   UNL A   1      39.677  30.526  31.798  1.00  0.00    -0.248 NA
ATOM     42  C   UNL A   1      39.113  29.634  29.716  1.00  0.00     0.031 C 
ATOM     43  C   UNL A   1      42.867  27.422  32.243  1.00  0.00     0.029 A 
ATOM     44  N   UNL A   1      41.824  29.129  33.238  1.00  0.00    -0.354 N 
ATOM     45  C   UNL A   1      38.644  31.273  31.242  1.00  0.00     0.074 A 
ATOM     46  C   UNL A   1      38.378  30.715  29.934  1.00  0.00     0.031 C 
ATOM     47  C   UNL A   1      43.438  27.595  33.445  1.00  0.00     0.029 A 
ATOM     48  C   UNL A   1      42.806  28.728  34.115  1.00  0.00     0.049 A 
ATOM     49  H   UNL A   1      41.203  29.869  33.429  1.00  0.00     0.167 HD
ATOM     50  C   UNL A   1      37.962  32.312  31.783  1.00  0.00     0.037 A 
ATOM     51  C   UNL A   1      43.169  29.225  35.314  1.00  0.00     0.037 A 
ATOM     52  C   UNL A   1      38.222  32.855  33.091  1.00  0.00     0.049 A 
ATOM     53  C   UNL A   1      42.423  30.408  35.873  1.00  0.00     0.074 A 
ATOM     54  C   UNL A   1      37.561  33.882  33.743  1.00  0.00     0.029 A 
ATOM     55  N   UNL A   1      39.224  32.420  33.947  1.00  0.00    -0.354 N 
ATOM     56  N   UNL A   1      41.414  31.067  35.356  1.00  0.00    -0.248 NA
ATOM     57  C   UNL A   1      42.864  30.913  37.181  1.00  0.00     0.031 C 
ATOM     58  C   UNL A   1      38.194  34.101  34.971  1.00  0.00     0.029 A 
ATOM     59  C   UNL A   1      39.214  33.174  35.111  1.00  0.00     0.049 A 
ATOM     60  H   UNL A   1      39.850  31.685  33.757  1.00  0.00     0.167 HD
ATOM     61  C   UNL A   1      41.081  32.045  36.287  1.00  0.00     0.074 A 
ATOM     62  C   UNL A   1      41.985  31.880  37.407  1.00  0.00     0.031 C 
ATOM     63  C   UNL A   1      40.114  32.993  36.223  1.00  0.00     0.037 A 
BRANCH  50  64
ATOM     64  C   UNL A   1      36.861  32.928  30.963  1.00  0.00     0.058 A 
ATOM     65  C   UNL A   1      37.135  33.847  29.937  1.00  0.00     0.135 A 
ATOM     66  C   UNL A   1      35.522  32.558  31.166  1.00  0.00     0.135 A 
ATOM     67  F   UNL A   1      38.395  34.249  29.707  1.00  0.00    -0.206 F 
ATOM     68  C   UNL A   1      36.119  34.397  29.161  1.00  0.00     0.059 A 
ATOM     69  C   UNL A   1      34.492  33.072  30.382  1.00  0.00     0.059 A 
ATOM     70  F   UNL A   1      35.201  31.683  32.132  1.00  0.00    -0.206 F 
ATOM     71  C   UNL A   1      34.801  34.001  29.389  1.00  0.00     0.060 A 
BRANCH  71  72
ATOM     72  S   UNL A   1      33.500  34.714  28.362  1.00  0.00     0.124 S 
ATOM     73  O   UNL A   1      32.963  33.524  27.706  1.00  0.00    -0.237 OA
ATOM     74  O   UNL A   1      32.629  35.337  29.352  1.00  0.00    -0.237 OA
ATOM     75  O   UNL A   1      34.220  35.638  27.491  1.00  0.00    -0.744 OA
ENDBRANCH  71  72
ENDBRANCH  50  64
BRANCH  51  76
ATOM     76  C   UNL A   1      44.289  28.605  36.076  1.00  0.00     0.058 A 
ATOM     77  C   UNL A   1      45.599  29.092  35.956  1.00  0.00     0.135 A 
ATOM     78  C   UNL A   1      44.076  27.509  36.928  1.00  0.00     0.135 A 
ATOM     79  F   UNL A   1      45.856  30.133  35.149  1.00  0.00    -0.206 F 
ATOM     80  C   UNL A   1      46.662  28.500  36.630  1.00  0.00     0.059 A 
ATOM     81  C   UNL A   1      45.118  26.919  37.635  1.00  0.00     0.059 A 
ATOM     82  F   UNL A   1      42.839  27.013  37.091  1.00  0.00    -0.206 F 
ATOM     83  C   UNL A   1      46.411  27.412  37.468  1.00  0.00     0.060 A 
BRANCH  83  84
ATOM     84  S   UNL A   1      47.794  26.670  38.360  1.00  0.00     0.124 S 
ATOM     85  O   UNL A   1      47.151  26.244  39.597  1.00  0.00    -0.237 OA
ATOM     86  O   UNL A   1      48.205  25.603  37.453  1.00  0.00    -0.237 OA
ATOM     87  O   UNL A   1      48.742  27.773  38.488  1.00  0.00    -0.744 OA
ENDBRANCH  83  84
ENDBRANCH  51  76
BRANCH  63  88
ATOM     88  C   UNL A   1      39.956  33.907  37.408  1.00  0.00     0.058 A 
ATOM     89  C   UNL A   1      40.627  35.138  37.488  1.00  0.00     0.135 A 
ATOM     90  C   UNL A   1      39.084  33.569  38.455  1.00  0.00     0.135 A 
ATOM     91  F   UNL A   1      41.480  35.508  36.519  1.00  0.00    -0.206 F 
ATOM     92  C   UNL A   1      40.457  35.990  38.575  1.00  0.00     0.059 A 
ATOM     93  C   UNL A   1      38.874  34.419  39.536  1.00  0.00     0.059 A 
ATOM     94  F   UNL A   1      38.409  32.408  38.426  1.00  0.00    -0.206 F 
ATOM     95  C   UNL A   1      39.574  35.623  39.593  1.00  0.00     0.060 A 
BRANCH  95  96
ATOM     96  S   UNL A   1      39.337  36.754  40.980  1.00  0.00     0.124 S 
ATOM     97  O   UNL A   1      38.606  37.846  40.347  1.00  0.00    -0.237 OA
ATOM     98  O   UNL A   1      38.572  35.938  41.918  1.00  0.00    -0.237 OA
ATOM     99  O   UNL A   1      40.699  37.070  41.399  1.00  0.00    -0.744 OA
ENDBRANCH  95  96
ENDBRANCH  63  88
ENDBRANCH  37  38
ENDBRANCH  29  32
ENDBRANCH  27  28
ENDBRANCH  26  27
ENDBRANCH   1  26
TORSDOF 17
ENDMDL
MODEL 3
REMARK VINA RESULT:     -10.3      5.740     11.821
REMARK SMILES Cc1cc(C)c(C(=O)NC[C@H]2CC[C@@H](C(=O)NCCCCNC(=O)c3ccc(-c4c5nc(c(-c6c(F)cc(S(=O)(=O)[O-])cc6F)c6ccc([nH]6)c(-c6c(F)cc(S(=O)(=O)[O-])cc6F)c6nc(c(-c7c(F)cc(S(=O)(=O)[O-])cc7F)c7ccc4[nH]7)C=C6)C=C5)cc3)O2)c(C)c1
REMARK SMILES IDX 19 1 18 2 17 3 15 4 16 5 14 7 11 8 12 9 91 10 13 11 10 12
REMARK SMILES IDX 9 13 7 14 8 15 6 17 1 18 2 19 3 20 94 21 4 22 92 23 5 24
REMARK SMILES IDX 93 25 20 26 21 27 22 28 23 29 24 31 25 32 26 33 90 34 27 35
REMARK SMILES IDX 89 36 28 37 29 38 30 39 83 40 31 41 88 42 82 43 84 44 32 45
REMARK SMILES IDX 87 46 81 47 80 48 33 50 67 51 46 52 66 53 47 54 50 55 65 56
REMARK SMILES IDX 85 57 48 58 49 59 64 61 86 62 51 63 34 64 35 65 44 66 36 67
REMARK SMILES IDX 37 68 43 69 45 70 38 71 39 72 40 73 41 74 42 75 68 76 69 77
REMARK SMILES IDX 78 78 70 79 71 80 77 81 79 82 72 83 73 84 74 85 75 86 76 87
REMARK SMILES IDX 52 88 53 89 62 90 54 91 55 92 61 93 63 94 56 95 57 96 58 97
REMARK SMILES IDX 59 98 60 99
REMARK H PARENT 17 6 9 16 22 30 84 49 50 60
REMARK Flexibility Score: inf
ROOT
ATOM      1  C   UNL A   1      31.864  27.664  26.841  1.00  0.00     0.023 C 
ENDROOT
BRANCH   1   2
ATOM      2  C   UNL A   1      31.183  27.931  25.501  1.00  0.00     0.116 C 
BRANCH   2   3
ATOM      3  N   UNL A   1      30.410  26.793  25.037  1.00  0.00    -0.354 N 
ATOM      4  C   UNL A   1      30.648  25.984  23.959  1.00  0.00     0.249 C 
ATOM      5  O   UNL A   1      29.881  25.043  23.748  1.00  0.00    -0.272 OA
ATOM      6  H   UNL A   1      29.610  26.575  25.567  1.00  0.00     0.163 HD
BRANCH   4   7
ATOM      7  C   UNL A   1      31.836  26.309  23.038  1.00  0.00     0.207 C 
ATOM      8  C   UNL A   1      33.363  24.774  22.136  1.00  0.00     0.138 C 
ATOM      9  C   UNL A   1      32.826  25.619  20.997  1.00  0.00     0.037 C 
ATOM     10  O   UNL A   1      32.952  25.448  23.331  1.00  0.00    -0.363 OA
ATOM     11  C   UNL A   1      31.523  26.131  21.558  1.00  0.00     0.045 C 
BRANCH   8  12
ATOM     12  C   UNL A   1      32.840  23.320  22.161  1.00  0.00     0.148 C 
BRANCH  12  13
ATOM     13  N   UNL A   1      32.433  22.936  23.499  1.00  0.00    -0.349 N 
ATOM     14  C   UNL A   1      32.999  22.280  24.559  1.00  0.00     0.251 C 
ATOM     15  O   UNL A   1      32.157  21.617  25.181  1.00  0.00    -0.269 OA
ATOM     16  H   UNL A   1      31.512  23.221  23.696  1.00  0.00     0.163 HD
BRANCH  14  17
ATOM     17  C   UNL A   1      34.427  22.299  25.083  1.00  0.00     0.045 A 
ATOM     18  C   UNL A   1      38.720  21.949  25.895  1.00  0.00     0.044 C 
ATOM     19  C   UNL A   1      37.243  22.052  25.666  1.00  0.00    -0.051 A 
ATOM     20  C   UNL A   1      36.507  20.948  25.274  1.00  0.00     0.007 A 
ATOM     21  C   UNL A   1      36.572  23.256  25.817  1.00  0.00     0.007 A 
ATOM     22  C   UNL A   1      35.119  21.037  25.022  1.00  0.00    -0.038 A 
ATOM     23  C   UNL A   1      35.191  23.411  25.524  1.00  0.00    -0.038 A 
ATOM     24  C   UNL A   1      34.480  19.715  24.646  1.00  0.00     0.045 C 
ATOM     25  C   UNL A   1      34.715  24.813  25.740  1.00  0.00     0.045 C 
ENDBRANCH  14  17
ENDBRANCH  12  13
ENDBRANCH   8  12
ENDBRANCH   4   7
ENDBRANCH   2   3
ENDBRANCH   1   2
BRANCH   1  26
ATOM     26  C   UNL A   1      33.388  27.768  26.829  1.00  0.00     0.023 C 
BRANCH  26  27
ATOM     27  C   UNL A   1      33.954  29.011  26.149  1.00  0.00     0.116 C 
BRANCH  27  28
ATOM     28  N   UNL A   1      33.765  30.221  26.933  1.00  0.00    -0.352 N 
ATOM     29  C   UNL A   1      34.570  30.769  27.908  1.00  0.00     0.251 C 
ATOM     30  H   UNL A   1      32.940  30.722  26.740  1.00  0.00     0.163 HD
ATOM     31  O   UNL A   1      34.167  31.721  28.564  1.00  0.00    -0.269 OA
BRANCH  29  32
ATOM     32  C   UNL A   1      35.903  30.184  28.183  1.00  0.00     0.039 A 
ATOM     33  C   UNL A   1      36.879  30.233  27.184  1.00  0.00     0.014 A 
ATOM     34  C   UNL A   1      36.194  29.602  29.418  1.00  0.00     0.014 A 
ATOM     35  C   UNL A   1      38.172  29.773  27.456  1.00  0.00     0.010 A 
ATOM     36  C   UNL A   1      37.500  29.216  29.711  1.00  0.00     0.010 A 
ATOM     37  C   UNL A   1      38.506  29.305  28.737  1.00  0.00    -0.014 A 
BRANCH  37  38
ATOM     38  C   UNL A   1      39.900  28.922  29.084  1.00  0.00     0.031 A 
ATOM     39  C   UNL A   1      40.824  29.922  29.727  1.00  0.00     0.074 A 
ATOM     40  C   UNL A   1      40.357  27.696  28.758  1.00  0.00     0.049 A 
ATOM     41  N   UNL A   1      42.096  29.807  30.014  1.00  0.00    -0.248 NA
ATOM     42  C   UNL A   1      40.248  31.233  30.070  1.00  0.00     0.031 C 
ATOM     43  C   UNL A   1      39.572  26.647  28.101  1.00  0.00     0.029 A 
ATOM     44  N   UNL A   1      41.595  27.125  28.921  1.00  0.00    -0.354 N 
ATOM     45  C   UNL A   1      42.473  31.026  30.565  1.00  0.00     0.074 A 
ATOM     46  C   UNL A   1      41.311  31.886  30.520  1.00  0.00     0.031 C 
ATOM     47  C   UNL A   1      40.340  25.557  27.937  1.00  0.00     0.029 A 
ATOM     48  C   UNL A   1      41.684  25.842  28.430  1.00  0.00     0.049 A 
ATOM     49  H   UNL A   1      42.350  27.590  29.349  1.00  0.00     0.167 HD
ATOM     50  C   UNL A   1      43.671  31.387  31.085  1.00  0.00     0.037 A 
ATOM     51  C   UNL A   1      42.731  24.997  28.367  1.00  0.00     0.037 A 
ATOM     52  C   UNL A   1      44.822  30.522  31.140  1.00  0.00     0.049 A 
ATOM     53  C   UNL A   1      44.063  25.439  28.913  1.00  0.00     0.074 A 
ATOM     54  C   UNL A   1      46.068  30.784  31.681  1.00  0.00     0.029 A 
ATOM     55  N   UNL A   1      44.870  29.232  30.633  1.00  0.00    -0.354 N 
ATOM     56  N   UNL A   1      44.387  26.577  29.479  1.00  0.00    -0.248 NA
ATOM     57  C   UNL A   1      45.173  24.480  28.813  1.00  0.00     0.031 C 
ATOM     58  C   UNL A   1      46.885  29.670  31.457  1.00  0.00     0.029 A 
ATOM     59  C   UNL A   1      46.132  28.693  30.828  1.00  0.00     0.049 A 
ATOM     60  H   UNL A   1      44.119  28.767  30.199  1.00  0.00     0.167 HD
ATOM     61  C   UNL A   1      45.728  26.460  29.829  1.00  0.00     0.074 A 
ATOM     62  C   UNL A   1      46.150  25.134  29.427  1.00  0.00     0.031 C 
ATOM     63  C   UNL A   1      46.537  27.367  30.430  1.00  0.00     0.037 A 
BRANCH  50  64
ATOM     64  C   UNL A   1      43.799  32.778  31.645  1.00  0.00     0.058 A 
ATOM     65  C   UNL A   1      43.547  33.052  32.999  1.00  0.00     0.135 A 
ATOM     66  C   UNL A   1      44.230  33.841  30.834  1.00  0.00     0.135 A 
ATOM     67  F   UNL A   1      43.120  32.078  33.819  1.00  0.00    -0.206 F 
ATOM     68  C   UNL A   1      43.692  34.333  33.523  1.00  0.00     0.059 A 
ATOM     69  C   UNL A   1      44.410  35.125  31.343  1.00  0.00     0.059 A 
ATOM     70  F   UNL A   1      44.485  33.638  29.532  1.00  0.00    -0.206 F 
ATOM     71  C   UNL A   1      44.126  35.362  32.687  1.00  0.00     0.060 A 
BRANCH  71  72
ATOM     72  S   UNL A   1      44.322  37.014  33.389  1.00  0.00     0.124 S 
ATOM     73  O   UNL A   1      45.711  36.977  33.835  1.00  0.00    -0.237 OA
ATOM     74  O   UNL A   1      44.048  37.873  32.242  1.00  0.00    -0.237 OA
ATOM     75  O   UNL A   1      43.323  37.053  34.452  1.00  0.00    -0.744 OA
ENDBRANCH  71  72
ENDBRANCH  50  64
BRANCH  51  76
ATOM     76  C   UNL A   1      42.568  23.641  27.772  1.00  0.00     0.058 A 
ATOM     77  C   UNL A   1      42.407  22.510  28.586  1.00  0.00     0.135 A 
ATOM     78  C   UNL A   1      42.583  23.447  26.381  1.00  0.00     0.135 A 
ATOM     79  F   UNL A   1      42.394  22.642  29.921  1.00  0.00    -0.206 F 
ATOM     80  C   UNL A   1      42.294  21.233  28.048  1.00  0.00     0.059 A 
ATOM     81  C   UNL A   1      42.442  22.182  25.818  1.00  0.00     0.059 A 
ATOM     82  F   UNL A   1      42.719  24.496  25.555  1.00  0.00    -0.206 F 
ATOM     83  C   UNL A   1      42.312  21.079  26.660  1.00  0.00     0.060 A 
BRANCH  83  84
ATOM     84  S   UNL A   1      42.135  19.420  25.971  1.00  0.00     0.124 S 
ATOM     85  O   UNL A   1      42.989  19.500  24.791  1.00  0.00    -0.237 OA
ATOM     86  O   UNL A   1      42.627  18.582  27.060  1.00  0.00    -0.237 OA
ATOM     87  O   UNL A   1      40.703  19.316  25.708  1.00  0.00    -0.744 OA
ENDBRANCH  83  84
ENDBRANCH  51  76
BRANCH  63  88
ATOM     88  C   UNL A   1      47.953  26.949  30.723  1.00  0.00     0.058 A 
ATOM     89  C   UNL A   1      48.981  27.103  29.779  1.00  0.00     0.135 A 
ATOM     90  C   UNL A   1      48.296  26.433  31.983  1.00  0.00     0.135 A 
ATOM     91  F   UNL A   1      48.708  27.585  28.555  1.00  0.00    -0.206 F 
ATOM     92  C   UNL A   1      50.292  26.739  30.065  1.00  0.00     0.059 A 
ATOM     93  C   UNL A   1      49.606  26.091  32.303  1.00  0.00     0.059 A 
ATOM     94  F   UNL A   1      47.354  26.274  32.928  1.00  0.00    -0.206 F 
ATOM     95  C   UNL A   1      50.596  26.237  31.333  1.00  0.00     0.060 A 
BRANCH  95  96
ATOM     96  S   UNL A   1      52.308  25.801  31.702  1.00  0.00     0.124 S 
ATOM     97  O   UNL A   1      52.963  26.070  30.427  1.00  0.00    -0.237 OA
ATOM     98  O   UNL A   1      52.635  26.719  32.789  1.00  0.00    -0.237 OA
ATOM     99  O   UNL A   1      52.228  24.393  32.082  1.00  0.00    -0.744 OA
ENDBRANCH  95  96
ENDBRANCH  63  88
ENDBRANCH  37  38
ENDBRANCH  29  32
ENDBRANCH  27  28
ENDBRANCH  26  27
ENDBRANCH   1  26
TORSDOF 17
ENDMDL
