MODEL 1
REMARK VINA RESULT:     -11.4      0.000      0.000
REMARK SMILES CC(C)[C@@H](C)[N@@H+]1[C@@H](C(=O)NCCCCNC(=O)c2ccc(-c3c4nc(c(-c5c(F)cc(S(=O)(=O)[O-])cc5F)c5ccc([nH]5)c(-c5c(F)cc(S(=O)(=O)[O-])cc5F)c5nc(c(-c6c(F)cc(S(=O)(=O)[O-])cc6F)c6ccc3[nH]6)C=C5)C=C4)cc2)C[C@H]2CCCC[C@H]21
REMARK SMILES IDX 13 1 12 2 11 3 10 4 8 5 9 6 7 8 6 9 90 10 84 12 85 13 89 14
REMARK SMILES IDX 86 15 88 16 87 17 4 18 5 19 2 20 1 21 3 22 14 23 15 24 16 25
REMARK SMILES IDX 17 27 18 28 19 29 83 30 20 31 82 32 21 33 22 34 23 35 76 36
REMARK SMILES IDX 24 37 81 38 75 39 77 40 25 41 80 42 74 43 73 44 26 46 60 47
REMARK SMILES IDX 39 48 59 49 40 50 43 51 58 52 78 53 41 54 42 55 57 57 79 58
REMARK SMILES IDX 44 59 27 60 28 61 37 62 29 63 30 64 36 65 38 66 31 67 32 68
REMARK SMILES IDX 33 69 34 70 35 71 61 72 62 73 71 74 63 75 64 76 70 77 72 78
REMARK SMILES IDX 65 79 66 80 67 81 68 82 69 83 45 84 46 85 55 86 47 87 48 88
REMARK SMILES IDX 54 89 56 90 49 91 50 92 51 93 52 94 53 95
REMARK H PARENT 10 7 6 11 15 26 77 45 43 56
REMARK Flexibility Score: inf
ROOT
ATOM      1  C   UNL A   1      32.375  28.229  26.280  1.00  0.00     0.023 C 
ENDROOT
BRANCH   1   2
ATOM      2  C   UNL A   1      31.296  27.448  27.026  1.00  0.00     0.023 C 
BRANCH   2   3
ATOM      3  C   UNL A   1      30.682  26.280  26.262  1.00  0.00     0.116 C 
BRANCH   3   4
ATOM      4  N   UNL A   1      31.061  24.986  26.790  1.00  0.00    -0.351 N 
ATOM      5  C   UNL A   1      32.120  24.189  26.434  1.00  0.00     0.278 C 
ATOM      6  O   UNL A   1      32.281  23.145  27.069  1.00  0.00    -0.268 OA
ATOM      7  H   UNL A   1      30.481  24.630  27.503  1.00  0.00     0.163 HD
BRANCH   5   8
ATOM      8  C   UNL A   1      33.003  24.626  25.240  1.00  0.00     0.275 C 
ATOM      9  N   UNL A   1      32.781  23.746  24.032  1.00  0.00    -0.320 N 
ATOM     10  C   UNL A   1      33.998  22.936  23.900  1.00  0.00     0.188 C 
ATOM     11  H   UNL A   1      32.014  23.078  24.107  1.00  0.00     0.349 HD
ATOM     12  C   UNL A   1      34.504  24.553  25.554  1.00  0.00     0.085 C 
ATOM     13  C   UNL A   1      35.111  23.882  24.332  1.00  0.00     0.054 C 
ATOM     14  C   UNL A   1      33.935  21.668  24.778  1.00  0.00     0.065 C 
ATOM     15  C   UNL A   1      36.457  23.212  24.582  1.00  0.00     0.010 C 
ATOM     16  C   UNL A   1      35.301  20.986  24.854  1.00  0.00     0.006 C 
ATOM     17  C   UNL A   1      36.361  21.933  25.407  1.00  0.00     0.001 C 
BRANCH   9  18
ATOM     18  C   UNL A   1      32.316  24.564  22.876  1.00  0.00     0.184 C 
ATOM     19  C   UNL A   1      33.101  24.024  21.655  1.00  0.00     0.075 C 
BRANCH  18  20
ATOM     20  C   UNL A   1      32.432  26.138  22.942  1.00  0.00     0.041 C 
ATOM     21  C   UNL A   1      33.502  26.680  21.970  1.00  0.00     0.013 C 
ATOM     22  C   UNL A   1      31.124  26.872  22.584  1.00  0.00     0.013 C 
ENDBRANCH  18  20
ENDBRANCH   9  18
ENDBRANCH   5   8
ENDBRANCH   3   4
ENDBRANCH   2   3
ENDBRANCH   1   2
BRANCH   1  23
ATOM     23  C   UNL A   1      33.609  28.592  27.096  1.00  0.00     0.116 C 
BRANCH  23  24
ATOM     24  N   UNL A   1      33.567  29.948  27.627  1.00  0.00    -0.352 N 
ATOM     25  C   UNL A   1      34.544  30.657  28.288  1.00  0.00     0.251 C 
ATOM     26  H   UNL A   1      32.717  30.428  27.493  1.00  0.00     0.163 HD
ATOM     27  O   UNL A   1      34.285  31.753  28.775  1.00  0.00    -0.269 OA
BRANCH  25  28
ATOM     28  C   UNL A   1      35.894  30.072  28.443  1.00  0.00     0.039 A 
ATOM     29  C   UNL A   1      36.771  30.092  27.356  1.00  0.00     0.014 A 
ATOM     30  C   UNL A   1      36.304  29.547  29.671  1.00  0.00     0.014 A 
ATOM     31  C   UNL A   1      38.093  29.670  27.528  1.00  0.00     0.010 A 
ATOM     32  C   UNL A   1      37.637  29.198  29.859  1.00  0.00     0.010 A 
ATOM     33  C   UNL A   1      38.548  29.266  28.792  1.00  0.00    -0.014 A 
BRANCH  33  34
ATOM     34  C   UNL A   1      39.974  28.924  29.039  1.00  0.00     0.031 A 
ATOM     35  C   UNL A   1      40.918  29.977  29.548  1.00  0.00     0.074 A 
ATOM     36  C   UNL A   1      40.436  27.700  28.714  1.00  0.00     0.049 A 
ATOM     37  N   UNL A   1      42.217  29.923  29.689  1.00  0.00    -0.248 NA
ATOM     38  C   UNL A   1      40.326  31.273  29.918  1.00  0.00     0.031 C 
ATOM     39  C   UNL A   1      39.629  26.603  28.172  1.00  0.00     0.029 A 
ATOM     40  N   UNL A   1      41.704  27.177  28.772  1.00  0.00    -0.354 N 
ATOM     41  C   UNL A   1      42.600  31.181  30.141  1.00  0.00     0.074 A 
ATOM     42  C   UNL A   1      41.402  31.989  30.209  1.00  0.00     0.031 C 
ATOM     43  C   UNL A   1      40.418  25.537  27.960  1.00  0.00     0.029 A 
ATOM     44  C   UNL A   1      41.792  25.885  28.308  1.00  0.00     0.049 A 
ATOM     45  H   UNL A   1      42.479  27.680  29.113  1.00  0.00     0.167 HD
ATOM     46  C   UNL A   1      43.835  31.616  30.488  1.00  0.00     0.037 A 
ATOM     47  C   UNL A   1      42.860  25.076  28.164  1.00  0.00     0.037 A 
ATOM     48  C   UNL A   1      45.018  30.797  30.451  1.00  0.00     0.049 A 
ATOM     49  C   UNL A   1      44.223  25.581  28.556  1.00  0.00     0.074 A 
ATOM     50  C   UNL A   1      46.307  31.129  30.833  1.00  0.00     0.029 A 
ATOM     51  N   UNL A   1      45.058  29.483  30.008  1.00  0.00    -0.354 N 
ATOM     52  N   UNL A   1      44.560  26.758  29.027  1.00  0.00    -0.248 NA
ATOM     53  C   UNL A   1      45.350  24.651  28.400  1.00  0.00     0.031 C 
ATOM     54  C   UNL A   1      47.132  30.026  30.592  1.00  0.00     0.029 A 
ATOM     55  C   UNL A   1      46.351  28.993  30.097  1.00  0.00     0.049 A 
ATOM     56  H   UNL A   1      44.282  28.973  29.680  1.00  0.00     0.167 HD
ATOM     57  C   UNL A   1      45.931  26.700  29.250  1.00  0.00     0.074 A 
ATOM     58  C   UNL A   1      46.361  25.370  28.867  1.00  0.00     0.031 C 
ATOM     59  C   UNL A   1      46.759  27.661  29.729  1.00  0.00     0.037 A 
BRANCH  46  60
ATOM     60  C   UNL A   1      43.966  33.041  30.945  1.00  0.00     0.058 A 
ATOM     61  C   UNL A   1      44.138  34.093  30.030  1.00  0.00     0.135 A 
ATOM     62  C   UNL A   1      43.892  33.366  32.309  1.00  0.00     0.135 A 
ATOM     63  F   UNL A   1      44.230  33.836  28.715  1.00  0.00    -0.206 F 
ATOM     64  C   UNL A   1      44.266  35.411  30.453  1.00  0.00     0.059 A 
ATOM     65  C   UNL A   1      43.990  34.682  32.753  1.00  0.00     0.059 A 
ATOM     66  F   UNL A   1      43.727  32.399  33.226  1.00  0.00    -0.206 F 
ATOM     67  C   UNL A   1      44.193  35.695  31.817  1.00  0.00     0.060 A 
BRANCH  67  68
ATOM     68  S   UNL A   1      44.365  37.412  32.351  1.00  0.00     0.124 S 
ATOM     69  O   UNL A   1      43.329  37.501  33.376  1.00  0.00    -0.237 OA
ATOM     70  O   UNL A   1      45.740  37.454  32.836  1.00  0.00    -0.237 OA
ATOM     71  O   UNL A   1      44.109  38.173  31.132  1.00  0.00    -0.744 OA
ENDBRANCH  67  68
ENDBRANCH  46  60
BRANCH  47  72
ATOM     72  C   UNL A   1      42.684  23.696  27.640  1.00  0.00     0.058 A 
ATOM     73  C   UNL A   1      42.746  23.438  26.262  1.00  0.00     0.135 A 
ATOM     74  C   UNL A   1      42.463  22.609  28.500  1.00  0.00     0.135 A 
ATOM     75  F   UNL A   1      42.948  24.445  25.400  1.00  0.00    -0.206 F 
ATOM     76  C   UNL A   1      42.579  22.154  25.754  1.00  0.00     0.059 A 
ATOM     77  C   UNL A   1      42.317  21.313  28.016  1.00  0.00     0.059 A 
ATOM     78  F   UNL A   1      42.413  22.801  29.827  1.00  0.00    -0.206 F 
ATOM     79  C   UNL A   1      42.367  21.097  26.640  1.00  0.00     0.060 A 
BRANCH  79  80
ATOM     80  S   UNL A   1      42.200  19.426  25.971  1.00  0.00     0.124 S 
ATOM     81  O   UNL A   1      40.764  19.350  25.726  1.00  0.00    -0.237 OA
ATOM     82  O   UNL A   1      43.049  19.483  24.785  1.00  0.00    -0.237 OA
ATOM     83  O   UNL A   1      42.703  18.583  27.052  1.00  0.00    -0.744 OA
ENDBRANCH  79  80
ENDBRANCH  47  72
BRANCH  59  84
ATOM     84  C   UNL A   1      48.206  27.305  29.911  1.00  0.00     0.058 A 
ATOM     85  C   UNL A   1      49.170  27.621  28.942  1.00  0.00     0.135 A 
ATOM     86  C   UNL A   1      48.644  26.711  31.106  1.00  0.00     0.135 A 
ATOM     87  F   UNL A   1      48.801  28.183  27.780  1.00  0.00    -0.206 F 
ATOM     88  C   UNL A   1      50.520  27.352  29.147  1.00  0.00     0.059 A 
ATOM     89  C   UNL A   1      49.991  26.454  31.342  1.00  0.00     0.059 A 
ATOM     90  F   UNL A   1      47.762  26.397  32.068  1.00  0.00    -0.206 F 
ATOM     91  C   UNL A   1      50.921  26.773  30.353  1.00  0.00     0.060 A 
BRANCH  91  92
ATOM     92  S   UNL A   1      52.681  26.484  30.633  1.00  0.00     0.124 S 
ATOM     93  O   UNL A   1      53.130  27.802  31.071  1.00  0.00    -0.237 OA
ATOM     94  O   UNL A   1      52.669  25.445  31.658  1.00  0.00    -0.237 OA
ATOM     95  O   UNL A   1      53.168  26.058  29.323  1.00  0.00    -0.744 OA
ENDBRANCH  91  92
ENDBRANCH  59  84
ENDBRANCH  33  34
ENDBRANCH  25  28
ENDBRANCH  23  24
ENDBRANCH   1  23
TORSDOF 16
ENDMDL
MODEL 2
REMARK VINA RESULT:     -10.9      5.065     10.605
REMARK SMILES CC(C)[C@@H](C)[N@@H+]1[C@@H](C(=O)NCCCCNC(=O)c2ccc(-c3c4nc(c(-c5c(F)cc(S(=O)(=O)[O-])cc5F)c5ccc([nH]5)c(-c5c(F)cc(S(=O)(=O)[O-])cc5F)c5nc(c(-c6c(F)cc(S(=O)(=O)[O-])cc6F)c6ccc3[nH]6)C=C5)C=C4)cc2)C[C@H]2CCCC[C@H]21
REMARK SMILES IDX 13 1 12 2 11 3 10 4 8 5 9 6 7 8 6 9 90 10 84 12 85 13 89 14
REMARK SMILES IDX 86 15 88 16 87 17 4 18 5 19 2 20 1 21 3 22 14 23 15 24 16 25
REMARK SMILES IDX 17 27 18 28 19 29 83 30 20 31 82 32 21 33 22 34 23 35 76 36
REMARK SMILES IDX 24 37 81 38 75 39 77 40 25 41 80 42 74 43 73 44 26 46 60 47
REMARK SMILES IDX 39 48 59 49 40 50 43 51 58 52 78 53 41 54 42 55 57 57 79 58
REMARK SMILES IDX 44 59 27 60 28 61 37 62 29 63 30 64 36 65 38 66 31 67 32 68
REMARK SMILES IDX 33 69 34 70 35 71 61 72 62 73 71 74 63 75 64 76 70 77 72 78
REMARK SMILES IDX 65 79 66 80 67 81 68 82 69 83 45 84 46 85 55 86 47 87 48 88
REMARK SMILES IDX 54 89 56 90 49 91 50 92 51 93 52 94 53 95
REMARK H PARENT 10 7 6 11 15 26 77 45 43 56
REMARK Flexibility Score: inf
ROOT
ATOM      1  C   UNL A   1      39.978  22.117  26.865  1.00  0.00     0.023 C 
ENDROOT
BRANCH   1   2
ATOM      2  C   UNL A   1      38.714  22.708  26.247  1.00  0.00     0.023 C 
BRANCH   2   3
ATOM      3  C   UNL A   1      37.823  21.720  25.501  1.00  0.00     0.116 C 
BRANCH   3   4
ATOM      4  N   UNL A   1      37.416  22.191  24.193  1.00  0.00    -0.351 N 
ATOM      5  C   UNL A   1      36.261  22.837  23.833  1.00  0.00     0.278 C 
ATOM      6  O   UNL A   1      36.157  23.199  22.660  1.00  0.00    -0.268 OA
ATOM      7  H   UNL A   1      38.056  22.024  23.462  1.00  0.00     0.163 HD
BRANCH   5   8
ATOM      8  C   UNL A   1      35.157  23.024  24.903  1.00  0.00     0.275 C 
ATOM      9  N   UNL A   1      33.776  22.881  24.307  1.00  0.00    -0.320 N 
ATOM     10  C   UNL A   1      33.203  24.233  24.301  1.00  0.00     0.188 C 
ATOM     11  H   UNL A   1      33.742  22.566  23.338  1.00  0.00     0.349 HD
ATOM     12  C   UNL A   1      35.198  24.410  25.562  1.00  0.00     0.085 C 
ATOM     13  C   UNL A   1      33.747  24.862  25.576  1.00  0.00     0.054 C 
ATOM     14  C   UNL A   1      33.615  25.019  23.038  1.00  0.00     0.065 C 
ATOM     15  C   UNL A   1      33.556  26.372  25.675  1.00  0.00     0.010 C 
ATOM     16  C   UNL A   1      33.255  26.498  23.173  1.00  0.00     0.006 C 
ATOM     17  C   UNL A   1      33.921  27.120  24.396  1.00  0.00     0.001 C 
BRANCH   9  18
ATOM     18  C   UNL A   1      33.036  21.775  24.978  1.00  0.00     0.184 C 
ATOM     19  C   UNL A   1      34.083  21.076  25.881  1.00  0.00     0.075 C 
BRANCH  18  20
ATOM     20  C   UNL A   1      32.277  20.704  24.100  1.00  0.00     0.041 C 
ATOM     21  C   UNL A   1      32.139  21.155  22.630  1.00  0.00     0.013 C 
ATOM     22  C   UNL A   1      32.974  19.329  24.058  1.00  0.00     0.013 C 
ENDBRANCH  18  20
ENDBRANCH   9  18
ENDBRANCH   5   8
ENDBRANCH   3   4
ENDBRANCH   2   3
ENDBRANCH   1   2
BRANCH   1  23
ATOM     23  C   UNL A   1      41.070  23.120  27.215  1.00  0.00     0.116 C 
BRANCH  23  24
ATOM     24  N   UNL A   1      41.455  23.964  26.092  1.00  0.00    -0.352 N 
ATOM     25  C   UNL A   1      41.658  25.325  26.052  1.00  0.00     0.251 C 
ATOM     26  H   UNL A   1      41.591  23.494  25.238  1.00  0.00     0.163 HD
ATOM     27  O   UNL A   1      41.861  25.885  24.979  1.00  0.00    -0.269 OA
BRANCH  25  28
ATOM     28  C   UNL A   1      41.591  26.112  27.303  1.00  0.00     0.039 A 
ATOM     29  C   UNL A   1      42.647  26.968  27.624  1.00  0.00     0.014 A 
ATOM     30  C   UNL A   1      40.468  26.034  28.132  1.00  0.00     0.014 A 
ATOM     31  C   UNL A   1      42.535  27.819  28.728  1.00  0.00     0.010 A 
ATOM     32  C   UNL A   1      40.328  26.932  29.184  1.00  0.00     0.010 A 
ATOM     33  C   UNL A   1      41.355  27.841  29.488  1.00  0.00    -0.014 A 
BRANCH  33  34
ATOM     34  C   UNL A   1      41.154  28.813  30.594  1.00  0.00     0.031 A 
ATOM     35  C   UNL A   1      41.988  28.710  31.841  1.00  0.00     0.074 A 
ATOM     36  C   UNL A   1      40.161  29.721  30.517  1.00  0.00     0.049 A 
ATOM     37  N   UNL A   1      41.872  29.362  32.969  1.00  0.00    -0.248 NA
ATOM     38  C   UNL A   1      43.077  27.720  31.827  1.00  0.00     0.031 C 
ATOM     39  C   UNL A   1      39.255  29.896  29.378  1.00  0.00     0.029 A 
ATOM     40  N   UNL A   1      39.731  30.658  31.424  1.00  0.00    -0.354 N 
ATOM     41  C   UNL A   1      42.855  28.847  33.805  1.00  0.00     0.074 A 
ATOM     42  C   UNL A   1      43.530  27.799  33.070  1.00  0.00     0.031 C 
ATOM     43  C   UNL A   1      38.388  30.884  29.650  1.00  0.00     0.029 A 
ATOM     44  C   UNL A   1      38.646  31.386  30.997  1.00  0.00     0.049 A 
ATOM     45  H   UNL A   1      40.160  30.796  32.300  1.00  0.00     0.167 HD
ATOM     46  C   UNL A   1      43.180  29.227  35.064  1.00  0.00     0.037 A 
ATOM     47  C   UNL A   1      37.928  32.340  31.623  1.00  0.00     0.037 A 
ATOM     48  C   UNL A   1      42.528  30.293  35.778  1.00  0.00     0.049 A 
ATOM     49  C   UNL A   1      38.307  32.746  33.021  1.00  0.00     0.074 A 
ATOM     50  C   UNL A   1      42.820  30.790  37.037  1.00  0.00     0.029 A 
ATOM     51  N   UNL A   1      41.456  31.029  35.295  1.00  0.00    -0.354 N 
ATOM     52  N   UNL A   1      39.271  32.281  33.780  1.00  0.00    -0.248 NA
ATOM     53  C   UNL A   1      37.506  33.806  33.649  1.00  0.00     0.031 C 
ATOM     54  C   UNL A   1      41.903  31.805  37.328  1.00  0.00     0.029 A 
ATOM     55  C   UNL A   1      41.066  31.968  36.235  1.00  0.00     0.049 A 
ATOM     56  H   UNL A   1      41.034  30.903  34.414  1.00  0.00     0.167 HD
ATOM     57  C   UNL A   1      39.209  33.010  34.963  1.00  0.00     0.074 A 
ATOM     58  C   UNL A   1      38.117  33.951  34.817  1.00  0.00     0.031 C 
ATOM     59  C   UNL A   1      39.988  32.910  36.068  1.00  0.00     0.037 A 
BRANCH  46  60
ATOM     60  C   UNL A   1      44.297  28.488  35.746  1.00  0.00     0.058 A 
ATOM     61  C   UNL A   1      44.048  27.370  36.560  1.00  0.00     0.135 A 
ATOM     62  C   UNL A   1      45.632  28.881  35.564  1.00  0.00     0.135 A 
ATOM     63  F   UNL A   1      42.788  26.962  36.779  1.00  0.00    -0.206 F 
ATOM     64  C   UNL A   1      45.080  26.691  37.196  1.00  0.00     0.059 A 
ATOM     65  C   UNL A   1      46.684  28.198  36.170  1.00  0.00     0.059 A 
ATOM     66  F   UNL A   1      45.926  29.942  34.795  1.00  0.00    -0.206 F 
ATOM     67  C   UNL A   1      46.395  27.114  36.997  1.00  0.00     0.060 A 
BRANCH  67  68
ATOM     68  S   UNL A   1      47.724  26.223  37.834  1.00  0.00     0.124 S 
ATOM     69  O   UNL A   1      47.369  24.836  37.545  1.00  0.00    -0.237 OA
ATOM     70  O   UNL A   1      48.914  26.725  37.155  1.00  0.00    -0.237 OA
ATOM     71  O   UNL A   1      47.581  26.631  39.228  1.00  0.00    -0.744 OA
ENDBRANCH  67  68
ENDBRANCH  46  60
BRANCH  47  72
ATOM     72  C   UNL A   1      36.786  32.991  30.926  1.00  0.00     0.058 A 
ATOM     73  C   UNL A   1      35.463  32.661  31.254  1.00  0.00     0.135 A 
ATOM     74  C   UNL A   1      36.993  33.960  29.932  1.00  0.00     0.135 A 
ATOM     75  F   UNL A   1      35.216  31.736  32.194  1.00  0.00    -0.206 F 
ATOM     76  C   UNL A   1      34.383  33.257  30.611  1.00  0.00     0.059 A 
ATOM     77  C   UNL A   1      35.928  34.586  29.290  1.00  0.00     0.059 A 
ATOM     78  F   UNL A   1      38.240  34.322  29.594  1.00  0.00    -0.206 F 
ATOM     79  C   UNL A   1      34.626  34.220  29.631  1.00  0.00     0.060 A 
BRANCH  79  80
ATOM     80  S   UNL A   1      33.216  35.021  28.835  1.00  0.00     0.124 S 
ATOM     81  O   UNL A   1      32.776  33.987  27.906  1.00  0.00    -0.237 OA
ATOM     82  O   UNL A   1      32.332  35.283  29.967  1.00  0.00    -0.237 OA
ATOM     83  O   UNL A   1      33.807  36.209  28.227  1.00  0.00    -0.744 OA
ENDBRANCH  79  80
ENDBRANCH  47  72
BRANCH  59  84
ATOM     84  C   UNL A   1      39.722  33.867  37.195  1.00  0.00     0.058 A 
ATOM     85  C   UNL A   1      38.967  33.492  38.316  1.00  0.00     0.135 A 
ATOM     86  C   UNL A   1      40.298  35.147  37.187  1.00  0.00     0.135 A 
ATOM     87  F   UNL A   1      38.390  32.281  38.368  1.00  0.00    -0.206 F 
ATOM     88  C   UNL A   1      38.784  34.359  39.389  1.00  0.00     0.059 A 
ATOM     89  C   UNL A   1      40.146  36.021  38.258  1.00  0.00     0.059 A 
ATOM     90  F   UNL A   1      41.036  35.551  36.140  1.00  0.00    -0.206 F 
ATOM     91  C   UNL A   1      39.382  35.620  39.353  1.00  0.00     0.060 A 
BRANCH  91  92
ATOM     92  S   UNL A   1      39.187  36.713  40.777  1.00  0.00     0.124 S 
ATOM     93  O   UNL A   1      38.303  35.928  41.632  1.00  0.00    -0.237 OA
ATOM     94  O   UNL A   1      40.560  36.860  41.250  1.00  0.00    -0.237 OA
ATOM     95  O   UNL A   1      38.598  37.919  40.201  1.00  0.00    -0.744 OA
ENDBRANCH  91  92
ENDBRANCH  59  84
ENDBRANCH  33  34
ENDBRANCH  25  28
ENDBRANCH  23  24
ENDBRANCH   1  23
TORSDOF 16
ENDMDL
MODEL 3
REMARK VINA RESULT:     -10.9      5.191      9.999
REMARK SMILES CC(C)[C@@H](C)[N@@H+]1[C@@H](C(=O)NCCCCNC(=O)c2ccc(-c3c4nc(c(-c5c(F)cc(S(=O)(=O)[O-])cc5F)c5ccc([nH]5)c(-c5c(F)cc(S(=O)(=O)[O-])cc5F)c5nc(c(-c6c(F)cc(S(=O)(=O)[O-])cc6F)c6ccc3[nH]6)C=C5)C=C4)cc2)C[C@H]2CCCC[C@H]21
REMARK SMILES IDX 13 1 12 2 11 3 10 4 8 5 9 6 7 8 6 9 90 10 84 12 85 13 89 14
REMARK SMILES IDX 86 15 88 16 87 17 4 18 5 19 2 20 1 21 3 22 14 23 15 24 16 25
REMARK SMILES IDX 17 27 18 28 19 29 83 30 20 31 82 32 21 33 22 34 23 35 76 36
REMARK SMILES IDX 24 37 81 38 75 39 77 40 25 41 80 42 74 43 73 44 26 46 60 47
REMARK SMILES IDX 39 48 59 49 40 50 43 51 58 52 78 53 41 54 42 55 57 57 79 58
REMARK SMILES IDX 44 59 27 60 28 61 37 62 29 63 30 64 36 65 38 66 31 67 32 68
REMARK SMILES IDX 33 69 34 70 35 71 61 72 62 73 71 74 63 75 64 76 70 77 72 78
REMARK SMILES IDX 65 79 66 80 67 81 68 82 69 83 45 84 46 85 55 86 47 87 48 88
REMARK SMILES IDX 54 89 56 90 49 91 50 92 51 93 52 94 53 95
REMARK H PARENT 10 7 6 11 15 26 77 45 43 56
REMARK Flexibility Score: inf
ROOT
ATOM      1  C   UNL A   1      40.120  22.239  26.858  1.00  0.00     0.023 C 
ENDROOT
BRANCH   1   2
ATOM      2  C   UNL A   1      38.879  22.877  26.239  1.00  0.00     0.023 C 
BRANCH   2   3
ATOM      3  C   UNL A   1      37.874  21.905  25.631  1.00  0.00     0.116 C 
BRANCH   3   4
ATOM      4  N   UNL A   1      37.463  22.269  24.291  1.00  0.00    -0.351 N 
ATOM      5  C   UNL A   1      36.285  22.837  23.877  1.00  0.00     0.278 C 
ATOM      6  O   UNL A   1      36.180  23.116  22.681  1.00  0.00    -0.268 OA
ATOM      7  H   UNL A   1      38.119  22.084  23.579  1.00  0.00     0.163 HD
BRANCH   5   8
ATOM      8  C   UNL A   1      35.160  23.045  24.921  1.00  0.00     0.275 C 
ATOM      9  N   UNL A   1      33.792  22.843  24.311  1.00  0.00    -0.320 N 
ATOM     10  C   UNL A   1      33.189  24.179  24.237  1.00  0.00     0.188 C 
ATOM     11  H   UNL A   1      33.782  22.485  23.356  1.00  0.00     0.349 HD
ATOM     12  C   UNL A   1      35.159  24.458  25.519  1.00  0.00     0.085 C 
ATOM     13  C   UNL A   1      33.698  24.876  25.492  1.00  0.00     0.054 C 
ATOM     14  C   UNL A   1      33.603  24.920  22.947  1.00  0.00     0.065 C 
ATOM     15  C   UNL A   1      33.471  26.384  25.521  1.00  0.00     0.010 C 
ATOM     16  C   UNL A   1      33.207  26.395  23.012  1.00  0.00     0.006 C 
ATOM     17  C   UNL A   1      33.839  27.084  24.217  1.00  0.00     0.001 C 
BRANCH   9  18
ATOM     18  C   UNL A   1      33.068  21.750  25.019  1.00  0.00     0.184 C 
ATOM     19  C   UNL A   1      34.156  20.997  25.824  1.00  0.00     0.075 C 
BRANCH  18  20
ATOM     20  C   UNL A   1      32.204  20.724  24.185  1.00  0.00     0.041 C 
ATOM     21  C   UNL A   1      32.160  21.090  22.686  1.00  0.00     0.013 C 
ATOM     22  C   UNL A   1      32.727  19.274  24.251  1.00  0.00     0.013 C 
ENDBRANCH  18  20
ENDBRANCH   9  18
ENDBRANCH   5   8
ENDBRANCH   3   4
ENDBRANCH   2   3
ENDBRANCH   1   2
BRANCH   1  23
ATOM     23  C   UNL A   1      41.311  23.169  27.051  1.00  0.00     0.116 C 
BRANCH  23  24
ATOM     24  N   UNL A   1      41.444  24.159  25.991  1.00  0.00    -0.352 N 
ATOM     25  C   UNL A   1      41.417  25.533  26.071  1.00  0.00     0.251 C 
ATOM     26  H   UNL A   1      41.572  23.794  25.085  1.00  0.00     0.163 HD
ATOM     27  O   UNL A   1      41.421  26.209  25.046  1.00  0.00    -0.269 OA
BRANCH  25  28
ATOM     28  C   UNL A   1      41.342  26.187  27.396  1.00  0.00     0.039 A 
ATOM     29  C   UNL A   1      42.385  27.024  27.799  1.00  0.00     0.014 A 
ATOM     30  C   UNL A   1      40.225  26.007  28.215  1.00  0.00     0.014 A 
ATOM     31  C   UNL A   1      42.265  27.755  28.985  1.00  0.00     0.010 A 
ATOM     32  C   UNL A   1      40.074  26.791  29.354  1.00  0.00     0.010 A 
ATOM     33  C   UNL A   1      41.088  27.681  29.746  1.00  0.00    -0.014 A 
BRANCH  33  34
ATOM     34  C   UNL A   1      40.876  28.532  30.946  1.00  0.00     0.031 A 
ATOM     35  C   UNL A   1      39.818  29.600  30.928  1.00  0.00     0.074 A 
ATOM     36  C   UNL A   1      41.695  28.408  32.009  1.00  0.00     0.049 A 
ATOM     37  N   UNL A   1      39.573  30.535  31.809  1.00  0.00    -0.248 NA
ATOM     38  C   UNL A   1      38.939  29.641  29.748  1.00  0.00     0.031 C 
ATOM     39  C   UNL A   1      42.786  27.437  32.132  1.00  0.00     0.029 A 
ATOM     40  N   UNL A   1      41.752  29.117  33.183  1.00  0.00    -0.354 N 
ATOM     41  C   UNL A   1      38.531  31.288  31.281  1.00  0.00     0.074 A 
ATOM     42  C   UNL A   1      38.219  30.728  29.984  1.00  0.00     0.031 C 
ATOM     43  C   UNL A   1      43.394  27.605  33.318  1.00  0.00     0.029 A 
ATOM     44  C   UNL A   1      42.767  28.720  34.021  1.00  0.00     0.049 A 
ATOM     45  H   UNL A   1      41.125  29.843  33.404  1.00  0.00     0.167 HD
ATOM     46  C   UNL A   1      37.879  32.338  31.835  1.00  0.00     0.037 A 
ATOM     47  C   UNL A   1      43.161  29.207  35.215  1.00  0.00     0.037 A 
ATOM     48  C   UNL A   1      38.171  32.870  33.140  1.00  0.00     0.049 A 
ATOM     49  C   UNL A   1      42.422  30.374  35.812  1.00  0.00     0.074 A 
ATOM     50  C   UNL A   1      37.532  33.897  33.813  1.00  0.00     0.029 A 
ATOM     51  N   UNL A   1      39.185  32.416  33.972  1.00  0.00    -0.354 N 
ATOM     52  N   UNL A   1      41.407  31.044  35.319  1.00  0.00    -0.248 NA
ATOM     53  C   UNL A   1      42.877  30.852  37.125  1.00  0.00     0.031 C 
ATOM     54  C   UNL A   1      38.179  34.085  35.039  1.00  0.00     0.029 A 
ATOM     55  C   UNL A   1      39.197  33.149  35.147  1.00  0.00     0.049 A 
ATOM     56  H   UNL A   1      39.804  31.681  33.759  1.00  0.00     0.167 HD
ATOM     57  C   UNL A   1      41.085  32.003  36.274  1.00  0.00     0.074 A 
ATOM     58  C   UNL A   1      42.010  31.823  37.375  1.00  0.00     0.031 C 
ATOM     59  C   UNL A   1      40.112  32.945  36.241  1.00  0.00     0.037 A 
BRANCH  46  60
ATOM     60  C   UNL A   1      36.781  32.975  31.032  1.00  0.00     0.058 A 
ATOM     61  C   UNL A   1      37.060  33.825  29.950  1.00  0.00     0.135 A 
ATOM     62  C   UNL A   1      35.433  32.715  31.329  1.00  0.00     0.135 A 
ATOM     63  F   UNL A   1      38.331  34.120  29.633  1.00  0.00    -0.206 F 
ATOM     64  C   UNL A   1      36.044  34.421  29.211  1.00  0.00     0.059 A 
ATOM     65  C   UNL A   1      34.400  33.278  30.586  1.00  0.00     0.059 A 
ATOM     66  F   UNL A   1      35.110  31.909  32.353  1.00  0.00    -0.206 F 
ATOM     67  C   UNL A   1      34.716  34.143  29.539  1.00  0.00     0.060 A 
BRANCH  67  68
ATOM     68  S   UNL A   1      33.408  34.927  28.573  1.00  0.00     0.124 S 
ATOM     69  O   UNL A   1      34.176  35.842  27.734  1.00  0.00    -0.237 OA
ATOM     70  O   UNL A   1      32.805  33.791  27.882  1.00  0.00    -0.237 OA
ATOM     71  O   UNL A   1      32.569  35.558  29.586  1.00  0.00    -0.744 OA
ENDBRANCH  67  68
ENDBRANCH  46  60
BRANCH  47  72
ATOM     72  C   UNL A   1      44.302  28.582  35.935  1.00  0.00     0.058 A 
ATOM     73  C   UNL A   1      45.610  29.055  35.756  1.00  0.00     0.135 A 
ATOM     74  C   UNL A   1      44.108  27.513  36.824  1.00  0.00     0.135 A 
ATOM     75  F   UNL A   1      45.846  30.070  34.912  1.00  0.00    -0.206 F 
ATOM     76  C   UNL A   1      46.690  28.480  36.418  1.00  0.00     0.059 A 
ATOM     77  C   UNL A   1      45.169  26.936  37.515  1.00  0.00     0.059 A 
ATOM     78  F   UNL A   1      42.873  27.035  37.043  1.00  0.00    -0.206 F 
ATOM     79  C   UNL A   1      46.459  27.421  37.298  1.00  0.00     0.060 A 
BRANCH  79  80
ATOM     80  S   UNL A   1      47.862  26.714  38.189  1.00  0.00     0.124 S 
ATOM     81  O   UNL A   1      47.690  25.290  37.925  1.00  0.00    -0.237 OA
ATOM     82  O   UNL A   1      48.998  27.353  37.532  1.00  0.00    -0.237 OA
ATOM     83  O   UNL A   1      47.628  27.135  39.568  1.00  0.00    -0.744 OA
ENDBRANCH  79  80
ENDBRANCH  47  72
BRANCH  59  84
ATOM     84  C   UNL A   1      39.960  33.831  37.445  1.00  0.00     0.058 A 
ATOM     85  C   UNL A   1      40.586  35.084  37.522  1.00  0.00     0.135 A 
ATOM     86  C   UNL A   1      39.113  33.453  38.499  1.00  0.00     0.135 A 
ATOM     87  F   UNL A   1      41.412  35.487  36.542  1.00  0.00    -0.206 F 
ATOM     88  C   UNL A   1      40.386  35.930  38.608  1.00  0.00     0.059 A 
ATOM     89  C   UNL A   1      38.880  34.293  39.584  1.00  0.00     0.059 A 
ATOM     90  F   UNL A   1      38.484  32.268  38.470  1.00  0.00    -0.206 F 
ATOM     91  C   UNL A   1      39.526  35.527  39.631  1.00  0.00     0.060 A 
BRANCH  91  92
ATOM     92  S   UNL A   1      39.226  36.659  41.006  1.00  0.00     0.124 S 
ATOM     93  O   UNL A   1      38.646  37.808  40.321  1.00  0.00    -0.237 OA
ATOM     94  O   UNL A   1      38.311  35.894  41.848  1.00  0.00    -0.237 OA
ATOM     95  O   UNL A   1      40.557  36.868  41.570  1.00  0.00    -0.744 OA
ENDBRANCH  91  92
ENDBRANCH  59  84
ENDBRANCH  33  34
ENDBRANCH  25  28
ENDBRANCH  23  24
ENDBRANCH   1  23
TORSDOF 16
ENDMDL
