MODEL 1
REMARK VINA RESULT:     -12.5      0.000      0.000
REMARK SMILES CC(=O)Nc1c(C)nn([C@H](C)C(=O)NCCCCNC(=O)c2ccc(-c3c4nc(c(-c5c(F)cc(S(=O)(=O)[O-])cc5F)c5ccc([nH]5)c(-c5c(F)cc(S(=O)(=O)[O-])cc5F)c5nc(c(-c6c(F)cc(S(=O)(=O)[O-])cc6F)c6ccc3[nH]6)C=C5)C=C4)cc2)c1C
REMARK SMILES IDX 17 1 16 2 15 3 14 4 12 5 13 6 10 8 11 9 9 10 5 11 6 12 88 13
REMARK SMILES IDX 7 14 8 15 89 16 4 17 1 18 2 19 3 20 18 22 19 23 20 24 21 26
REMARK SMILES IDX 22 27 23 28 87 29 24 30 86 31 25 32 26 33 27 34 80 35 28 36
REMARK SMILES IDX 85 37 79 38 81 39 29 40 84 41 78 42 77 43 30 45 64 46 43 47
REMARK SMILES IDX 63 48 44 49 47 50 62 51 82 52 45 53 46 54 61 56 83 57 48 58
REMARK SMILES IDX 31 59 32 60 41 61 33 62 34 63 40 64 42 65 35 66 36 67 37 68
REMARK SMILES IDX 38 69 39 70 65 71 66 72 75 73 67 74 68 75 74 76 76 77 69 78
REMARK SMILES IDX 70 79 71 80 72 81 73 82 49 83 50 84 59 85 51 86 52 87 58 88
REMARK SMILES IDX 60 89 53 90 54 91 55 92 56 93 57 94
REMARK H PARENT 14 7 4 21 19 25 81 44 47 55
REMARK Flexibility Score: inf
ROOT
ATOM      1  C   UNL A   1      36.864  22.418  24.455  1.00  0.00     0.023 C 
ENDROOT
BRANCH   1   2
ATOM      2  C   UNL A   1      36.419  20.998  24.816  1.00  0.00     0.023 C 
BRANCH   2   3
ATOM      3  C   UNL A   1      35.246  20.860  25.784  1.00  0.00     0.116 C 
BRANCH   3   4
ATOM      4  N   UNL A   1      34.162  20.008  25.371  1.00  0.00    -0.354 N 
ATOM      5  C   UNL A   1      33.174  20.279  24.455  1.00  0.00     0.244 C 
ATOM      6  O   UNL A   1      32.465  19.318  24.131  1.00  0.00    -0.273 OA
ATOM      7  H   UNL A   1      34.125  19.120  25.796  1.00  0.00     0.163 HD
BRANCH   5   8
ATOM      8  C   UNL A   1      32.822  21.698  23.971  1.00  0.00     0.193 C 
ATOM      9  C   UNL A   1      32.229  21.680  22.567  1.00  0.00     0.044 C 
BRANCH   8  10
ATOM     10  N   UNL A   1      32.180  22.573  24.965  1.00  0.00    -0.255 N 
ATOM     11  C   UNL A   1      31.441  24.193  26.260  1.00  0.00     0.085 A 
ATOM     12  C   UNL A   1      30.644  23.040  26.385  1.00  0.00     0.083 A 
ATOM     13  C   UNL A   1      32.556  23.773  25.553  1.00  0.00     0.060 A 
ATOM     14  C   UNL A   1      29.452  22.826  27.238  1.00  0.00     0.071 C 
ATOM     15  N   UNL A   1      31.087  22.061  25.589  1.00  0.00    -0.175 NA
ATOM     16  C   UNL A   1      33.914  24.393  25.569  1.00  0.00     0.069 C 
BRANCH  11  17
ATOM     17  N   UNL A   1      31.281  25.404  26.899  1.00  0.00    -0.323 N 
ATOM     18  C   UNL A   1      30.576  26.655  24.894  1.00  0.00     0.114 C 
ATOM     19  C   UNL A   1      31.095  26.621  26.305  1.00  0.00     0.221 C 
ATOM     20  O   UNL A   1      31.263  27.659  26.946  1.00  0.00    -0.275 OA
ATOM     21  H   UNL A   1      31.304  25.391  27.883  1.00  0.00     0.170 HD
ENDBRANCH  11  17
ENDBRANCH   8  10
ENDBRANCH   5   8
ENDBRANCH   3   4
ENDBRANCH   2   3
ENDBRANCH   1   2
BRANCH   1  22
ATOM     22  C   UNL A   1      37.786  23.099  25.461  1.00  0.00     0.116 C 
BRANCH  22  23
ATOM     23  N   UNL A   1      38.585  22.179  26.268  1.00  0.00    -0.352 N 
ATOM     24  C   UNL A   1      39.781  22.471  26.913  1.00  0.00     0.251 C 
ATOM     25  H   UNL A   1      38.242  21.261  26.364  1.00  0.00     0.163 HD
ATOM     26  O   UNL A   1      40.574  21.589  27.192  1.00  0.00    -0.269 OA
BRANCH  24  27
ATOM     27  C   UNL A   1      40.059  23.880  27.267  1.00  0.00     0.039 A 
ATOM     28  C   UNL A   1      39.118  24.893  27.083  1.00  0.00     0.014 A 
ATOM     29  C   UNL A   1      41.298  24.166  27.831  1.00  0.00     0.014 A 
ATOM     30  C   UNL A   1      39.407  26.171  27.565  1.00  0.00     0.010 A 
ATOM     31  C   UNL A   1      41.561  25.403  28.368  1.00  0.00     0.010 A 
ATOM     32  C   UNL A   1      40.623  26.416  28.230  1.00  0.00    -0.014 A 
BRANCH  32  33
ATOM     33  C   UNL A   1      40.829  27.655  28.980  1.00  0.00     0.031 A 
ATOM     34  C   UNL A   1      41.942  28.497  28.457  1.00  0.00     0.074 A 
ATOM     35  C   UNL A   1      39.955  28.159  29.877  1.00  0.00     0.049 A 
ATOM     36  N   UNL A   1      43.065  28.768  29.033  1.00  0.00    -0.248 NA
ATOM     37  C   UNL A   1      41.856  28.983  27.068  1.00  0.00     0.031 C 
ATOM     38  C   UNL A   1      38.641  27.630  30.256  1.00  0.00     0.029 A 
ATOM     39  N   UNL A   1      40.014  29.334  30.567  1.00  0.00    -0.354 N 
ATOM     40  C   UNL A   1      43.721  29.657  28.188  1.00  0.00     0.074 A 
ATOM     41  C   UNL A   1      43.033  29.594  26.924  1.00  0.00     0.031 C 
ATOM     42  C   UNL A   1      37.946  28.578  30.924  1.00  0.00     0.029 A 
ATOM     43  C   UNL A   1      38.818  29.713  31.167  1.00  0.00     0.049 A 
ATOM     44  H   UNL A   1      40.837  29.870  30.635  1.00  0.00     0.167 HD
ATOM     45  C   UNL A   1      44.614  30.565  28.673  1.00  0.00     0.037 A 
ATOM     46  C   UNL A   1      38.554  30.880  31.808  1.00  0.00     0.037 A 
ATOM     47  C   UNL A   1      45.035  30.223  30.009  1.00  0.00     0.049 A 
ATOM     48  C   UNL A   1      39.859  31.458  32.212  1.00  0.00     0.074 A 
ATOM     49  C   UNL A   1      45.622  29.114  30.589  1.00  0.00     0.029 A 
ATOM     50  N   UNL A   1      44.495  30.942  31.048  1.00  0.00    -0.354 N 
ATOM     51  N   UNL A   1      40.653  30.919  33.095  1.00  0.00    -0.248 NA
ATOM     52  C   UNL A   1      40.486  32.421  31.321  1.00  0.00     0.031 C 
ATOM     53  C   UNL A   1      44.981  28.977  31.857  1.00  0.00     0.029 A 
ATOM     54  C   UNL A   1      44.097  30.047  32.011  1.00  0.00     0.049 A 
ATOM     55  H   UNL A   1      44.409  31.922  31.094  1.00  0.00     0.167 HD
ATOM     56  C   UNL A   1      41.929  31.117  32.590  1.00  0.00     0.074 A 
ATOM     57  C   UNL A   1      41.770  32.146  31.565  1.00  0.00     0.031 C 
ATOM     58  C   UNL A   1      42.936  30.232  32.855  1.00  0.00     0.037 A 
BRANCH  45  59
ATOM     59  C   UNL A   1      44.811  31.946  28.091  1.00  0.00     0.058 A 
ATOM     60  C   UNL A   1      46.075  32.318  27.590  1.00  0.00     0.135 A 
ATOM     61  C   UNL A   1      43.887  33.002  28.254  1.00  0.00     0.135 A 
ATOM     62  F   UNL A   1      47.040  31.400  27.424  1.00  0.00    -0.206 F 
ATOM     63  C   UNL A   1      46.409  33.646  27.318  1.00  0.00     0.059 A 
ATOM     64  C   UNL A   1      44.179  34.323  27.934  1.00  0.00     0.059 A 
ATOM     65  F   UNL A   1      42.687  32.821  28.823  1.00  0.00    -0.206 F 
ATOM     66  C   UNL A   1      45.455  34.643  27.502  1.00  0.00     0.060 A 
BRANCH  66  67
ATOM     67  S   UNL A   1      45.902  36.366  27.226  1.00  0.00     0.124 S 
ATOM     68  O   UNL A   1      46.974  36.545  28.197  1.00  0.00    -0.237 OA
ATOM     69  O   UNL A   1      46.304  36.352  25.824  1.00  0.00    -0.237 OA
ATOM     70  O   UNL A   1      44.662  37.083  27.509  1.00  0.00    -0.744 OA
ENDBRANCH  66  67
ENDBRANCH  45  59
BRANCH  46  71
ATOM     71  C   UNL A   1      37.290  31.662  31.851  1.00  0.00     0.058 A 
ATOM     72  C   UNL A   1      36.711  32.042  33.075  1.00  0.00     0.135 A 
ATOM     73  C   UNL A   1      36.789  32.307  30.702  1.00  0.00     0.135 A 
ATOM     74  F   UNL A   1      37.135  31.490  34.223  1.00  0.00    -0.206 F 
ATOM     75  C   UNL A   1      35.742  33.048  33.165  1.00  0.00     0.059 A 
ATOM     76  C   UNL A   1      35.818  33.306  30.765  1.00  0.00     0.059 A 
ATOM     77  F   UNL A   1      37.302  32.053  29.489  1.00  0.00    -0.206 F 
ATOM     78  C   UNL A   1      35.320  33.694  32.003  1.00  0.00     0.060 A 
BRANCH  78  79
ATOM     79  S   UNL A   1      34.224  35.127  32.133  1.00  0.00     0.124 S 
ATOM     80  O   UNL A   1      34.081  35.525  30.736  1.00  0.00    -0.237 OA
ATOM     81  O   UNL A   1      33.037  34.553  32.757  1.00  0.00    -0.237 OA
ATOM     82  O   UNL A   1      34.978  36.054  32.973  1.00  0.00    -0.744 OA
ENDBRANCH  78  79
ENDBRANCH  46  71
BRANCH  58  83
ATOM     83  C   UNL A   1      42.731  29.242  33.979  1.00  0.00     0.058 A 
ATOM     84  C   UNL A   1      42.970  29.502  35.341  1.00  0.00     0.135 A 
ATOM     85  C   UNL A   1      42.172  27.995  33.662  1.00  0.00     0.135 A 
ATOM     86  F   UNL A   1      43.396  30.704  35.753  1.00  0.00    -0.206 F 
ATOM     87  C   UNL A   1      42.731  28.544  36.330  1.00  0.00     0.059 A 
ATOM     88  C   UNL A   1      41.889  27.038  34.635  1.00  0.00     0.059 A 
ATOM     89  F   UNL A   1      41.856  27.702  32.390  1.00  0.00    -0.206 F 
ATOM     90  C   UNL A   1      42.196  27.310  35.965  1.00  0.00     0.060 A 
BRANCH  90  91
ATOM     91  S   UNL A   1      41.858  26.081  37.244  1.00  0.00     0.124 S 
ATOM     92  O   UNL A   1      40.521  26.460  37.688  1.00  0.00    -0.237 OA
ATOM     93  O   UNL A   1      41.948  24.823  36.510  1.00  0.00    -0.237 OA
ATOM     94  O   UNL A   1      42.924  26.300  38.219  1.00  0.00    -0.744 OA
ENDBRANCH  90  91
ENDBRANCH  58  83
ENDBRANCH  32  33
ENDBRANCH  24  27
ENDBRANCH  22  23
ENDBRANCH   1  22
TORSDOF 16
ENDMDL
MODEL 2
REMARK VINA RESULT:     -12.4      1.383      2.971
REMARK SMILES CC(=O)Nc1c(C)nn([C@H](C)C(=O)NCCCCNC(=O)c2ccc(-c3c4nc(c(-c5c(F)cc(S(=O)(=O)[O-])cc5F)c5ccc([nH]5)c(-c5c(F)cc(S(=O)(=O)[O-])cc5F)c5nc(c(-c6c(F)cc(S(=O)(=O)[O-])cc6F)c6ccc3[nH]6)C=C5)C=C4)cc2)c1C
REMARK SMILES IDX 17 1 16 2 15 3 14 4 12 5 13 6 10 8 11 9 9 10 5 11 6 12 88 13
REMARK SMILES IDX 7 14 8 15 89 16 4 17 1 18 2 19 3 20 18 22 19 23 20 24 21 26
REMARK SMILES IDX 22 27 23 28 87 29 24 30 86 31 25 32 26 33 27 34 80 35 28 36
REMARK SMILES IDX 85 37 79 38 81 39 29 40 84 41 78 42 77 43 30 45 64 46 43 47
REMARK SMILES IDX 63 48 44 49 47 50 62 51 82 52 45 53 46 54 61 56 83 57 48 58
REMARK SMILES IDX 31 59 32 60 41 61 33 62 34 63 40 64 42 65 35 66 36 67 37 68
REMARK SMILES IDX 38 69 39 70 65 71 66 72 75 73 67 74 68 75 74 76 76 77 69 78
REMARK SMILES IDX 70 79 71 80 72 81 73 82 49 83 50 84 59 85 51 86 52 87 58 88
REMARK SMILES IDX 60 89 53 90 54 91 55 92 56 93 57 94
REMARK H PARENT 14 7 4 21 19 25 81 44 47 55
REMARK Flexibility Score: inf
ROOT
ATOM      1  C   UNL A   1      36.300  23.681  26.157  1.00  0.00     0.023 C 
ENDROOT
BRANCH   1   2
ATOM      2  C   UNL A   1      35.203  24.189  25.219  1.00  0.00     0.023 C 
BRANCH   2   3
ATOM      3  C   UNL A   1      35.155  23.594  23.813  1.00  0.00     0.116 C 
BRANCH   3   4
ATOM      4  N   UNL A   1      33.863  23.523  23.184  1.00  0.00    -0.354 N 
ATOM      5  C   UNL A   1      32.724  22.913  23.654  1.00  0.00     0.244 C 
ATOM      6  O   UNL A   1      31.688  23.149  23.020  1.00  0.00    -0.273 OA
ATOM      7  H   UNL A   1      33.784  23.967  22.309  1.00  0.00     0.163 HD
BRANCH   5   8
ATOM      8  C   UNL A   1      32.719  21.863  24.780  1.00  0.00     0.193 C 
ATOM      9  C   UNL A   1      31.498  22.012  25.681  1.00  0.00     0.044 C 
BRANCH   8  10
ATOM     10  N   UNL A   1      33.105  20.499  24.385  1.00  0.00    -0.255 N 
ATOM     11  C   UNL A   1      33.917  18.465  24.151  1.00  0.00     0.085 A 
ATOM     12  C   UNL A   1      32.807  18.669  23.310  1.00  0.00     0.083 A 
ATOM     13  C   UNL A   1      34.236  19.729  24.621  1.00  0.00     0.060 A 
ATOM     14  C   UNL A   1      32.184  17.722  22.355  1.00  0.00     0.071 C 
ATOM     15  N   UNL A   1      32.308  19.899  23.461  1.00  0.00    -0.175 NA
ATOM     16  C   UNL A   1      35.568  20.193  25.112  1.00  0.00     0.069 C 
BRANCH  11  17
ATOM     17  N   UNL A   1      34.673  17.321  24.291  1.00  0.00    -0.323 N 
ATOM     18  C   UNL A   1      32.996  16.069  25.597  1.00  0.00     0.114 C 
ATOM     19  C   UNL A   1      34.407  16.264  25.117  1.00  0.00     0.221 C 
ATOM     20  O   UNL A   1      35.288  15.445  25.383  1.00  0.00    -0.275 OA
ATOM     21  H   UNL A   1      35.487  17.259  23.741  1.00  0.00     0.170 HD
ENDBRANCH  11  17
ENDBRANCH   8  10
ENDBRANCH   5   8
ENDBRANCH   3   4
ENDBRANCH   2   3
ENDBRANCH   1   2
BRANCH   1  22
ATOM     22  C   UNL A   1      37.664  23.448  25.517  1.00  0.00     0.116 C 
BRANCH  22  23
ATOM     23  N   UNL A   1      38.464  22.408  26.160  1.00  0.00    -0.352 N 
ATOM     24  C   UNL A   1      39.745  22.553  26.680  1.00  0.00     0.251 C 
ATOM     25  H   UNL A   1      38.055  21.515  26.233  1.00  0.00     0.163 HD
ATOM     26  O   UNL A   1      40.484  21.592  26.803  1.00  0.00    -0.269 OA
BRANCH  24  27
ATOM     27  C   UNL A   1      40.182  23.904  27.094  1.00  0.00     0.039 A 
ATOM     28  C   UNL A   1      39.653  25.064  26.529  1.00  0.00     0.014 A 
ATOM     29  C   UNL A   1      41.132  23.987  28.108  1.00  0.00     0.014 A 
ATOM     30  C   UNL A   1      40.020  26.299  27.066  1.00  0.00     0.010 A 
ATOM     31  C   UNL A   1      41.445  25.193  28.686  1.00  0.00     0.010 A 
ATOM     32  C   UNL A   1      40.899  26.357  28.164  1.00  0.00    -0.014 A 
BRANCH  32  33
ATOM     33  C   UNL A   1      41.079  27.600  28.913  1.00  0.00     0.031 A 
ATOM     34  C   UNL A   1      42.184  28.459  28.400  1.00  0.00     0.074 A 
ATOM     35  C   UNL A   1      40.189  28.092  29.802  1.00  0.00     0.049 A 
ATOM     36  N   UNL A   1      43.297  28.749  28.985  1.00  0.00    -0.248 NA
ATOM     37  C   UNL A   1      42.103  28.942  27.009  1.00  0.00     0.031 C 
ATOM     38  C   UNL A   1      38.880  27.543  30.169  1.00  0.00     0.029 A 
ATOM     39  N   UNL A   1      40.223  29.268  30.490  1.00  0.00    -0.354 N 
ATOM     40  C   UNL A   1      43.947  29.647  28.145  1.00  0.00     0.074 A 
ATOM     41  C   UNL A   1      43.272  29.571  26.875  1.00  0.00     0.031 C 
ATOM     42  C   UNL A   1      38.164  28.481  30.829  1.00  0.00     0.029 A 
ATOM     43  C   UNL A   1      39.015  29.630  31.079  1.00  0.00     0.049 A 
ATOM     44  H   UNL A   1      41.037  29.818  30.565  1.00  0.00     0.167 HD
ATOM     45  C   UNL A   1      44.820  30.569  28.637  1.00  0.00     0.037 A 
ATOM     46  C   UNL A   1      38.727  30.793  31.715  1.00  0.00     0.037 A 
ATOM     47  C   UNL A   1      45.234  30.236  29.977  1.00  0.00     0.049 A 
ATOM     48  C   UNL A   1      40.020  31.392  32.130  1.00  0.00     0.074 A 
ATOM     49  C   UNL A   1      45.833  29.137  30.565  1.00  0.00     0.029 A 
ATOM     50  N   UNL A   1      44.673  30.948  31.010  1.00  0.00    -0.354 N 
ATOM     51  N   UNL A   1      40.814  30.867  33.021  1.00  0.00    -0.248 NA
ATOM     52  C   UNL A   1      40.640  32.364  31.243  1.00  0.00     0.031 C 
ATOM     53  C   UNL A   1      45.182  28.992  31.827  1.00  0.00     0.029 A 
ATOM     54  C   UNL A   1      44.281  30.048  31.971  1.00  0.00     0.049 A 
ATOM     55  H   UNL A   1      44.572  31.926  31.055  1.00  0.00     0.167 HD
ATOM     56  C   UNL A   1      42.090  31.085  32.528  1.00  0.00     0.074 A 
ATOM     57  C   UNL A   1      41.925  32.109  31.500  1.00  0.00     0.031 C 
ATOM     58  C   UNL A   1      43.109  30.216  32.804  1.00  0.00     0.037 A 
BRANCH  45  59
ATOM     59  C   UNL A   1      45.001  31.953  28.055  1.00  0.00     0.058 A 
ATOM     60  C   UNL A   1      46.269  32.351  27.584  1.00  0.00     0.135 A 
ATOM     61  C   UNL A   1      44.050  32.988  28.191  1.00  0.00     0.135 A 
ATOM     62  F   UNL A   1      47.258  31.455  27.446  1.00  0.00    -0.206 F 
ATOM     63  C   UNL A   1      46.580  33.686  27.316  1.00  0.00     0.059 A 
ATOM     64  C   UNL A   1      44.320  34.315  27.873  1.00  0.00     0.059 A 
ATOM     65  F   UNL A   1      42.841  32.782  28.730  1.00  0.00    -0.206 F 
ATOM     66  C   UNL A   1      45.599  34.661  27.472  1.00  0.00     0.060 A 
BRANCH  66  67
ATOM     67  S   UNL A   1      46.015  36.393  27.200  1.00  0.00     0.124 S 
ATOM     68  O   UNL A   1      47.029  36.611  28.224  1.00  0.00    -0.237 OA
ATOM     69  O   UNL A   1      46.490  36.376  25.821  1.00  0.00    -0.237 OA
ATOM     70  O   UNL A   1      44.743  37.079  27.410  1.00  0.00    -0.744 OA
ENDBRANCH  66  67
ENDBRANCH  45  59
BRANCH  46  71
ATOM     71  C   UNL A   1      37.451  31.555  31.745  1.00  0.00     0.058 A 
ATOM     72  C   UNL A   1      36.808  31.850  32.961  1.00  0.00     0.135 A 
ATOM     73  C   UNL A   1      36.995  32.265  30.616  1.00  0.00     0.135 A 
ATOM     74  F   UNL A   1      37.185  31.232  34.091  1.00  0.00    -0.206 F 
ATOM     75  C   UNL A   1      35.820  32.836  33.065  1.00  0.00     0.059 A 
ATOM     76  C   UNL A   1      36.007  33.245  30.693  1.00  0.00     0.059 A 
ATOM     77  F   UNL A   1      37.570  32.094  29.415  1.00  0.00    -0.206 F 
ATOM     78  C   UNL A   1      35.444  33.548  31.928  1.00  0.00     0.060 A 
BRANCH  78  79
ATOM     79  S   UNL A   1      34.322  34.957  32.093  1.00  0.00     0.124 S 
ATOM     80  O   UNL A   1      34.063  35.301  30.699  1.00  0.00    -0.237 OA
ATOM     81  O   UNL A   1      33.201  34.375  32.824  1.00  0.00    -0.237 OA
ATOM     82  O   UNL A   1      35.110  35.932  32.841  1.00  0.00    -0.744 OA
ENDBRANCH  78  79
ENDBRANCH  46  71
BRANCH  58  83
ATOM     83  C   UNL A   1      42.909  29.225  33.927  1.00  0.00     0.058 A 
ATOM     84  C   UNL A   1      43.201  29.466  35.283  1.00  0.00     0.135 A 
ATOM     85  C   UNL A   1      42.300  27.998  33.621  1.00  0.00     0.135 A 
ATOM     86  F   UNL A   1      43.679  30.650  35.688  1.00  0.00    -0.206 F 
ATOM     87  C   UNL A   1      42.964  28.508  36.272  1.00  0.00     0.059 A 
ATOM     88  C   UNL A   1      42.019  27.043  34.596  1.00  0.00     0.059 A 
ATOM     89  F   UNL A   1      41.933  27.726  32.358  1.00  0.00    -0.206 F 
ATOM     90  C   UNL A   1      42.377  27.295  35.918  1.00  0.00     0.060 A 
BRANCH  90  91
ATOM     91  S   UNL A   1      42.042  26.068  37.199  1.00  0.00     0.124 S 
ATOM     92  O   UNL A   1      42.379  24.820  36.524  1.00  0.00    -0.237 OA
ATOM     93  O   UNL A   1      42.945  26.472  38.272  1.00  0.00    -0.237 OA
ATOM     94  O   UNL A   1      40.622  26.256  37.489  1.00  0.00    -0.744 OA
ENDBRANCH  90  91
ENDBRANCH  58  83
ENDBRANCH  32  33
ENDBRANCH  24  27
ENDBRANCH  22  23
ENDBRANCH   1  22
TORSDOF 16
ENDMDL
MODEL 3
REMARK VINA RESULT:     -12.3      1.390      1.974
REMARK SMILES CC(=O)Nc1c(C)nn([C@H](C)C(=O)NCCCCNC(=O)c2ccc(-c3c4nc(c(-c5c(F)cc(S(=O)(=O)[O-])cc5F)c5ccc([nH]5)c(-c5c(F)cc(S(=O)(=O)[O-])cc5F)c5nc(c(-c6c(F)cc(S(=O)(=O)[O-])cc6F)c6ccc3[nH]6)C=C5)C=C4)cc2)c1C
REMARK SMILES IDX 17 1 16 2 15 3 14 4 12 5 13 6 10 8 11 9 9 10 5 11 6 12 88 13
REMARK SMILES IDX 7 14 8 15 89 16 4 17 1 18 2 19 3 20 18 22 19 23 20 24 21 26
REMARK SMILES IDX 22 27 23 28 87 29 24 30 86 31 25 32 26 33 27 34 80 35 28 36
REMARK SMILES IDX 85 37 79 38 81 39 29 40 84 41 78 42 77 43 30 45 64 46 43 47
REMARK SMILES IDX 63 48 44 49 47 50 62 51 82 52 45 53 46 54 61 56 83 57 48 58
REMARK SMILES IDX 31 59 32 60 41 61 33 62 34 63 40 64 42 65 35 66 36 67 37 68
REMARK SMILES IDX 38 69 39 70 65 71 66 72 75 73 67 74 68 75 74 76 76 77 69 78
REMARK SMILES IDX 70 79 71 80 72 81 73 82 49 83 50 84 59 85 51 86 52 87 58 88
REMARK SMILES IDX 60 89 53 90 54 91 55 92 56 93 57 94
REMARK H PARENT 14 7 4 21 19 25 81 44 47 55
REMARK Flexibility Score: inf
ROOT
ATOM      1  C   UNL A   1      36.138  22.954  25.335  1.00  0.00     0.023 C 
ENDROOT
BRANCH   1   2
ATOM      2  C   UNL A   1      35.979  21.433  25.286  1.00  0.00     0.023 C 
BRANCH   2   3
ATOM      3  C   UNL A   1      34.741  20.839  25.954  1.00  0.00     0.116 C 
BRANCH   3   4
ATOM      4  N   UNL A   1      34.222  21.542  27.098  1.00  0.00    -0.354 N 
ATOM      5  C   UNL A   1      32.999  22.153  27.232  1.00  0.00     0.244 C 
ATOM      6  O   UNL A   1      32.710  22.529  28.375  1.00  0.00    -0.273 OA
ATOM      7  H   UNL A   1      34.817  21.590  27.881  1.00  0.00     0.163 HD
BRANCH   5   8
ATOM      8  C   UNL A   1      32.093  22.524  26.044  1.00  0.00     0.193 C 
ATOM      9  C   UNL A   1      30.635  22.656  26.470  1.00  0.00     0.044 C 
BRANCH   8  10
ATOM     10  N   UNL A   1      32.624  23.546  25.128  1.00  0.00    -0.255 N 
ATOM     11  C   UNL A   1      33.238  24.838  23.453  1.00  0.00     0.085 A 
ATOM     12  C   UNL A   1      33.375  25.505  24.685  1.00  0.00     0.083 A 
ATOM     13  C   UNL A   1      33.012  23.514  23.795  1.00  0.00     0.060 A 
ATOM     14  C   UNL A   1      33.857  26.882  24.944  1.00  0.00     0.071 C 
ATOM     15  N   UNL A   1      32.991  24.724  25.700  1.00  0.00    -0.175 NA
ATOM     16  C   UNL A   1      33.293  22.311  22.958  1.00  0.00     0.069 C 
BRANCH  11  17
ATOM     17  N   UNL A   1      33.509  25.326  22.193  1.00  0.00    -0.323 N 
ATOM     18  C   UNL A   1      31.296  26.356  21.841  1.00  0.00     0.114 C 
ATOM     19  C   UNL A   1      32.606  25.845  21.308  1.00  0.00     0.221 C 
ATOM     20  O   UNL A   1      32.901  25.971  20.120  1.00  0.00    -0.275 OA
ATOM     21  H   UNL A   1      34.449  25.298  21.901  1.00  0.00     0.170 HD
ENDBRANCH  11  17
ENDBRANCH   8  10
ENDBRANCH   5   8
ENDBRANCH   3   4
ENDBRANCH   2   3
ENDBRANCH   1   2
BRANCH   1  22
ATOM     22  C   UNL A   1      37.359  23.469  26.090  1.00  0.00     0.116 C 
BRANCH  22  23
ATOM     23  N   UNL A   1      38.340  22.440  26.425  1.00  0.00    -0.352 N 
ATOM     24  C   UNL A   1      39.700  22.633  26.639  1.00  0.00     0.251 C 
ATOM     25  H   UNL A   1      38.006  21.517  26.506  1.00  0.00     0.163 HD
ATOM     26  O   UNL A   1      40.494  21.720  26.493  1.00  0.00    -0.269 OA
BRANCH  24  27
ATOM     27  C   UNL A   1      40.157  23.973  27.066  1.00  0.00     0.039 A 
ATOM     28  C   UNL A   1      39.701  25.143  26.460  1.00  0.00     0.014 A 
ATOM     29  C   UNL A   1      41.049  24.036  28.133  1.00  0.00     0.014 A 
ATOM     30  C   UNL A   1      40.077  26.372  27.007  1.00  0.00     0.010 A 
ATOM     31  C   UNL A   1      41.367  25.238  28.717  1.00  0.00     0.010 A 
ATOM     32  C   UNL A   1      40.892  26.413  28.153  1.00  0.00    -0.014 A 
BRANCH  32  33
ATOM     33  C   UNL A   1      41.069  27.658  28.900  1.00  0.00     0.031 A 
ATOM     34  C   UNL A   1      42.183  28.510  28.397  1.00  0.00     0.074 A 
ATOM     35  C   UNL A   1      40.171  28.157  29.777  1.00  0.00     0.049 A 
ATOM     36  N   UNL A   1      43.291  28.796  28.994  1.00  0.00    -0.248 NA
ATOM     37  C   UNL A   1      42.121  28.988  27.004  1.00  0.00     0.031 C 
ATOM     38  C   UNL A   1      38.855  27.616  30.131  1.00  0.00     0.029 A 
ATOM     39  N   UNL A   1      40.203  29.336  30.461  1.00  0.00    -0.354 N 
ATOM     40  C   UNL A   1      43.955  29.689  28.159  1.00  0.00     0.074 A 
ATOM     41  C   UNL A   1      43.295  29.612  26.881  1.00  0.00     0.031 C 
ATOM     42  C   UNL A   1      38.136  28.559  30.779  1.00  0.00     0.029 A 
ATOM     43  C   UNL A   1      38.990  29.705  31.035  1.00  0.00     0.049 A 
ATOM     44  H   UNL A   1      41.018  29.882  30.544  1.00  0.00     0.167 HD
ATOM     45  C   UNL A   1      44.827  30.609  28.657  1.00  0.00     0.037 A 
ATOM     46  C   UNL A   1      38.700  30.872  31.664  1.00  0.00     0.037 A 
ATOM     47  C   UNL A   1      45.224  30.278  30.004  1.00  0.00     0.049 A 
ATOM     48  C   UNL A   1      39.990  31.467  32.091  1.00  0.00     0.074 A 
ATOM     49  C   UNL A   1      45.810  29.179  30.602  1.00  0.00     0.029 A 
ATOM     50  N   UNL A   1      44.654  30.996  31.028  1.00  0.00    -0.354 N 
ATOM     51  N   UNL A   1      40.771  30.940  32.994  1.00  0.00    -0.248 NA
ATOM     52  C   UNL A   1      40.625  32.432  31.209  1.00  0.00     0.031 C 
ATOM     53  C   UNL A   1      45.145  29.041  31.857  1.00  0.00     0.029 A 
ATOM     54  C   UNL A   1      44.246  30.102  31.986  1.00  0.00     0.049 A 
ATOM     55  H   UNL A   1      44.557  31.975  31.067  1.00  0.00     0.167 HD
ATOM     56  C   UNL A   1      42.054  31.151  32.515  1.00  0.00     0.074 A 
ATOM     57  C   UNL A   1      41.906  32.172  31.481  1.00  0.00     0.031 C 
ATOM     58  C   UNL A   1      43.066  30.278  32.805  1.00  0.00     0.037 A 
BRANCH  45  59
ATOM     59  C   UNL A   1      45.022  31.989  28.073  1.00  0.00     0.058 A 
ATOM     60  C   UNL A   1      46.304  32.394  27.651  1.00  0.00     0.135 A 
ATOM     61  C   UNL A   1      44.057  33.018  28.162  1.00  0.00     0.135 A 
ATOM     62  F   UNL A   1      47.305  31.504  27.560  1.00  0.00    -0.206 F 
ATOM     63  C   UNL A   1      46.616  33.729  27.386  1.00  0.00     0.059 A 
ATOM     64  C   UNL A   1      44.331  34.344  27.845  1.00  0.00     0.059 A 
ATOM     65  F   UNL A   1      42.829  32.806  28.653  1.00  0.00    -0.206 F 
ATOM     66  C   UNL A   1      45.623  34.698  27.494  1.00  0.00     0.060 A 
BRANCH  66  67
ATOM     67  S   UNL A   1      46.036  36.430  27.226  1.00  0.00     0.124 S 
ATOM     68  O   UNL A   1      44.738  37.069  27.411  1.00  0.00    -0.237 OA
ATOM     69  O   UNL A   1      47.023  36.670  28.273  1.00  0.00    -0.237 OA
ATOM     70  O   UNL A   1      46.561  36.443  25.864  1.00  0.00    -0.744 OA
ENDBRANCH  66  67
ENDBRANCH  45  59
BRANCH  46  71
ATOM     71  C   UNL A   1      37.426  31.640  31.676  1.00  0.00     0.058 A 
ATOM     72  C   UNL A   1      36.737  31.886  32.877  1.00  0.00     0.135 A 
ATOM     73  C   UNL A   1      37.020  32.401  30.561  1.00  0.00     0.135 A 
ATOM     74  F   UNL A   1      37.066  31.218  33.994  1.00  0.00    -0.206 F 
ATOM     75  C   UNL A   1      35.751  32.874  32.985  1.00  0.00     0.059 A 
ATOM     76  C   UNL A   1      36.034  33.383  30.642  1.00  0.00     0.059 A 
ATOM     77  F   UNL A   1      37.641  32.278  29.378  1.00  0.00    -0.206 F 
ATOM     78  C   UNL A   1      35.424  33.637  31.865  1.00  0.00     0.060 A 
BRANCH  78  79
ATOM     79  S   UNL A   1      34.302  35.044  32.047  1.00  0.00     0.124 S 
ATOM     80  O   UNL A   1      33.143  34.425  32.683  1.00  0.00    -0.237 OA
ATOM     81  O   UNL A   1      35.079  35.952  32.883  1.00  0.00    -0.237 OA
ATOM     82  O   UNL A   1      34.095  35.491  30.672  1.00  0.00    -0.744 OA
ENDBRANCH  78  79
ENDBRANCH  46  71
BRANCH  58  83
ATOM     83  C   UNL A   1      42.848  29.292  33.930  1.00  0.00     0.058 A 
ATOM     84  C   UNL A   1      43.035  29.567  35.298  1.00  0.00     0.135 A 
ATOM     85  C   UNL A   1      42.331  28.028  33.605  1.00  0.00     0.135 A 
ATOM     86  F   UNL A   1      43.416  30.782  35.713  1.00  0.00    -0.206 F 
ATOM     87  C   UNL A   1      42.787  28.611  36.285  1.00  0.00     0.059 A 
ATOM     88  C   UNL A   1      42.041  27.071  34.575  1.00  0.00     0.059 A 
ATOM     89  F   UNL A   1      42.067  27.718  32.325  1.00  0.00    -0.206 F 
ATOM     90  C   UNL A   1      42.295  27.361  35.913  1.00  0.00     0.060 A 
BRANCH  90  91
ATOM     91  S   UNL A   1      41.945  26.133  37.190  1.00  0.00     0.124 S 
ATOM     92  O   UNL A   1      43.043  26.344  38.127  1.00  0.00    -0.237 OA
ATOM     93  O   UNL A   1      40.623  26.532  37.663  1.00  0.00    -0.237 OA
ATOM     94  O   UNL A   1      41.981  24.866  36.464  1.00  0.00    -0.744 OA
ENDBRANCH  90  91
ENDBRANCH  58  83
ENDBRANCH  32  33
ENDBRANCH  24  27
ENDBRANCH  22  23
ENDBRANCH   1  22
TORSDOF 16
ENDMDL
