MODEL 1
REMARK VINA RESULT:     -10.5      0.000      0.000
REMARK SMILES C#CC[NH2+]CC(=O)N1CC[C@](CCC)(C(=O)NCCCCNC(=O)c2ccc(-c3c4nc(c(-c5c(F)cc(S(=O)(=O)[O-])cc5F)c5ccc([nH]5)c(-c5c(F)cc(S(=O)(=O)[O-])cc5F)c5nc(c(-c6c(F)cc(S(=O)(=O)[O-])cc6F)c6ccc3[nH]6)C=C5)C=C4)cc2)C1
REMARK SMILES IDX 18 1 17 2 15 3 16 4 11 6 8 7 9 8 91 9 10 10 6 11 7 12 5 13
REMARK SMILES IDX 4 14 3 17 2 18 1 19 12 20 13 21 14 22 19 23 20 24 21 25
REMARK SMILES IDX 22 26 23 27 24 29 25 30 26 31 90 32 27 33 89 34 28 35 29 36
REMARK SMILES IDX 30 37 83 38 31 39 88 40 82 41 84 42 32 43 87 44 81 45 80 46
REMARK SMILES IDX 33 48 67 49 46 50 66 51 47 52 50 53 65 54 85 55 48 56 49 57
REMARK SMILES IDX 64 59 86 60 51 61 34 62 35 63 44 64 36 65 37 66 43 67 45 68
REMARK SMILES IDX 38 69 39 70 40 71 41 72 42 73 68 74 69 75 78 76 70 77 71 78
REMARK SMILES IDX 77 79 79 80 72 81 73 82 74 83 75 84 76 85 52 86 53 87 62 88
REMARK SMILES IDX 54 89 55 90 61 91 63 92 56 93 57 94 58 95 59 96 60 97
REMARK H PARENT 17 5 4 15 4 16 22 28 84 47 50 58
REMARK Flexibility Score: inf
ROOT
ATOM      1  C   UNL A   1      37.607  22.268  25.692  1.00  0.00     0.116 C 
ENDROOT
BRANCH   1   2
ATOM      2  N   UNL A   1      37.349  22.433  24.287  1.00  0.00    -0.356 N 
ATOM      3  C   UNL A   1      36.173  22.674  23.669  1.00  0.00     0.228 C 
ATOM      4  O   UNL A   1      36.235  22.908  22.460  1.00  0.00    -0.274 OA
ATOM      5  H   UNL A   1      38.134  22.360  23.698  1.00  0.00     0.163 HD
BRANCH   3   6
ATOM      6  C   UNL A   1      34.843  22.538  24.406  1.00  0.00     0.068 C 
ATOM      7  N   UNL A   1      33.500  20.525  24.351  1.00  0.00    -0.337 N 
ATOM      8  C   UNL A   1      32.735  21.663  23.882  1.00  0.00     0.121 C 
ATOM      9  C   UNL A   1      34.750  21.047  24.890  1.00  0.00     0.136 C 
ATOM     10  C   UNL A   1      33.726  22.632  23.369  1.00  0.00     0.040 C 
BRANCH   7  11
ATOM     11  C   UNL A   1      33.165  19.181  24.525  1.00  0.00     0.277 C 
ATOM     12  O   UNL A   1      32.189  18.879  25.224  1.00  0.00    -0.268 OA
BRANCH  11  13
ATOM     13  C   UNL A   1      34.088  18.027  24.007  1.00  0.00     0.362 C 
BRANCH  13  14
ATOM     14  N   UNL A   1      35.075  17.453  24.967  1.00  0.00    -0.328 N 
ATOM     15  H   UNL A   1      36.029  17.611  24.643  1.00  0.00     0.347 HD
ATOM     16  H   UNL A   1      35.012  17.883  25.892  1.00  0.00     0.347 HD
BRANCH  14  17
ATOM     17  C   UNL A   1      34.773  16.052  24.995  1.00  0.00     0.352 C 
BRANCH  17  18
ATOM     18  C   UNL A   1      33.401  15.524  25.382  1.00  0.00    -0.047 C 
ATOM     19  C   UNL A   1      32.224  15.071  25.714  1.00  0.00     0.010 C 
ENDBRANCH  17  18
ENDBRANCH  14  17
ENDBRANCH  13  14
ENDBRANCH  11  13
ENDBRANCH   7  11
BRANCH   6  20
ATOM     20  C   UNL A   1      34.500  23.523  25.550  1.00  0.00     0.018 C 
BRANCH  20  21
ATOM     21  C   UNL A   1      34.643  25.046  25.338  1.00  0.00    -0.002 C 
ATOM     22  C   UNL A   1      33.422  25.960  25.314  1.00  0.00     0.004 C 
ENDBRANCH  20  21
ENDBRANCH   6  20
ENDBRANCH   3   6
ENDBRANCH   1   2
BRANCH   1  23
ATOM     23  C   UNL A   1      39.062  22.480  26.056  1.00  0.00     0.023 C 
BRANCH  23  24
ATOM     24  C   UNL A   1      39.738  21.259  26.681  1.00  0.00     0.023 C 
BRANCH  24  25
ATOM     25  C   UNL A   1      39.789  20.009  25.807  1.00  0.00     0.116 C 
BRANCH  25  26
ATOM     26  N   UNL A   1      40.912  19.141  26.122  1.00  0.00    -0.352 N 
ATOM     27  C   UNL A   1      42.213  19.464  26.434  1.00  0.00     0.251 C 
ATOM     28  H   UNL A   1      40.712  18.177  26.109  1.00  0.00     0.163 HD
ATOM     29  O   UNL A   1      43.060  18.584  26.496  1.00  0.00    -0.269 OA
BRANCH  27  30
ATOM     30  C   UNL A   1      42.581  20.878  26.665  1.00  0.00     0.039 A 
ATOM     31  C   UNL A   1      42.692  21.342  27.976  1.00  0.00     0.014 A 
ATOM     32  C   UNL A   1      42.824  21.739  25.593  1.00  0.00     0.014 A 
ATOM     33  C   UNL A   1      43.107  22.654  28.209  1.00  0.00     0.010 A 
ATOM     34  C   UNL A   1      43.336  23.010  25.828  1.00  0.00     0.010 A 
ATOM     35  C   UNL A   1      43.465  23.492  27.138  1.00  0.00    -0.014 A 
BRANCH  35  36
ATOM     36  C   UNL A   1      43.941  24.880  27.377  1.00  0.00     0.031 A 
ATOM     37  C   UNL A   1      45.387  25.233  27.142  1.00  0.00     0.074 A 
ATOM     38  C   UNL A   1      43.084  25.813  27.838  1.00  0.00     0.049 A 
ATOM     39  N   UNL A   1      45.993  26.383  27.297  1.00  0.00    -0.248 NA
ATOM     40  C   UNL A   1      46.278  24.145  26.706  1.00  0.00     0.031 C 
ATOM     41  C   UNL A   1      41.676  25.582  28.169  1.00  0.00     0.029 A 
ATOM     42  N   UNL A   1      43.271  27.146  28.108  1.00  0.00    -0.354 N 
ATOM     43  C   UNL A   1      47.330  26.152  26.990  1.00  0.00     0.074 A 
ATOM     44  C   UNL A   1      47.461  24.740  26.710  1.00  0.00     0.031 C 
ATOM     45  C   UNL A   1      41.119  26.740  28.560  1.00  0.00     0.029 A 
ATOM     46  C   UNL A   1      42.134  27.789  28.538  1.00  0.00     0.049 A 
ATOM     47  H   UNL A   1      44.138  27.600  28.003  1.00  0.00     0.167 HD
ATOM     48  C   UNL A   1      48.351  27.039  26.913  1.00  0.00     0.037 A 
ATOM     49  C   UNL A   1      41.930  29.079  28.870  1.00  0.00     0.037 A 
ATOM     50  C   UNL A   1      48.209  28.450  27.166  1.00  0.00     0.049 A 
ATOM     51  C   UNL A   1      43.073  30.052  28.753  1.00  0.00     0.074 A 
ATOM     52  C   UNL A   1      49.166  29.444  27.064  1.00  0.00     0.029 A 
ATOM     53  N   UNL A   1      47.034  29.067  27.570  1.00  0.00    -0.354 N 
ATOM     54  N   UNL A   1      44.315  29.828  28.392  1.00  0.00    -0.248 NA
ATOM     55  C   UNL A   1      42.781  31.456  29.069  1.00  0.00     0.031 C 
ATOM     56  C   UNL A   1      48.581  30.655  27.450  1.00  0.00     0.029 A 
ATOM     57  C   UNL A   1      47.245  30.427  27.736  1.00  0.00     0.049 A 
ATOM     58  H   UNL A   1      46.176  28.607  27.718  1.00  0.00     0.167 HD
ATOM     59  C   UNL A   1      44.945  31.069  28.405  1.00  0.00     0.074 A 
ATOM     60  C   UNL A   1      43.940  32.038  28.793  1.00  0.00     0.031 C 
ATOM     61  C   UNL A   1      46.234  31.380  28.120  1.00  0.00     0.037 A 
BRANCH  48  62
ATOM     62  C   UNL A   1      49.706  26.508  26.530  1.00  0.00     0.058 A 
ATOM     63  C   UNL A   1      50.127  26.453  25.189  1.00  0.00     0.135 A 
ATOM     64  C   UNL A   1      50.607  26.067  27.512  1.00  0.00     0.135 A 
ATOM     65  F   UNL A   1      49.303  26.845  24.205  1.00  0.00    -0.206 F 
ATOM     66  C   UNL A   1      51.373  25.946  24.836  1.00  0.00     0.059 A 
ATOM     67  C   UNL A   1      51.872  25.587  27.184  1.00  0.00     0.059 A 
ATOM     68  F   UNL A   1      50.260  26.096  28.809  1.00  0.00    -0.206 F 
ATOM     69  C   UNL A   1      52.239  25.514  25.841  1.00  0.00     0.060 A 
BRANCH  69  70
ATOM     70  S   UNL A   1      53.853  24.861  25.365  1.00  0.00     0.124 S 
ATOM     71  O   UNL A   1      54.604  25.008  26.609  1.00  0.00    -0.237 OA
ATOM     72  O   UNL A   1      53.534  23.492  24.977  1.00  0.00    -0.237 OA
ATOM     73  O   UNL A   1      54.268  25.740  24.276  1.00  0.00    -0.744 OA
ENDBRANCH  69  70
ENDBRANCH  48  62
BRANCH  49  74
ATOM     74  C   UNL A   1      40.580  29.534  29.301  1.00  0.00     0.058 A 
ATOM     75  C   UNL A   1      39.532  29.668  28.379  1.00  0.00     0.135 A 
ATOM     76  C   UNL A   1      40.309  29.841  30.644  1.00  0.00     0.135 A 
ATOM     77  F   UNL A   1      39.741  29.390  27.082  1.00  0.00    -0.206 F 
ATOM     78  C   UNL A   1      38.270  30.110  28.764  1.00  0.00     0.059 A 
ATOM     79  C   UNL A   1      39.048  30.258  31.059  1.00  0.00     0.059 A 
ATOM     80  F   UNL A   1      41.270  29.713  31.571  1.00  0.00    -0.206 F 
ATOM     81  C   UNL A   1      38.037  30.401  30.109  1.00  0.00     0.060 A 
BRANCH  81  82
ATOM     82  S   UNL A   1      36.383  30.930  30.606  1.00  0.00     0.124 S 
ATOM     83  O   UNL A   1      35.790  31.283  29.322  1.00  0.00    -0.237 OA
ATOM     84  O   UNL A   1      35.858  29.728  31.246  1.00  0.00    -0.237 OA
ATOM     85  O   UNL A   1      36.646  32.047  31.509  1.00  0.00    -0.744 OA
ENDBRANCH  81  82
ENDBRANCH  49  74
BRANCH  61  86
ATOM     86  C   UNL A   1      46.618  32.834  28.169  1.00  0.00     0.058 A 
ATOM     87  C   UNL A   1      46.456  33.685  27.065  1.00  0.00     0.135 A 
ATOM     88  C   UNL A   1      47.148  33.385  29.347  1.00  0.00     0.135 A 
ATOM     89  F   UNL A   1      45.953  33.211  25.914  1.00  0.00    -0.206 F 
ATOM     90  C   UNL A   1      46.854  35.017  27.109  1.00  0.00     0.059 A 
ATOM     91  C   UNL A   1      47.522  34.723  29.426  1.00  0.00     0.059 A 
ATOM     92  F   UNL A   1      47.309  32.622  30.441  1.00  0.00    -0.206 F 
ATOM     93  C   UNL A   1      47.393  35.525  28.292  1.00  0.00     0.060 A 
BRANCH  93  94
ATOM     94  S   UNL A   1      47.922  37.250  28.335  1.00  0.00     0.124 S 
ATOM     95  O   UNL A   1      48.135  37.455  29.765  1.00  0.00    -0.237 OA
ATOM     96  O   UNL A   1      49.126  37.230  27.511  1.00  0.00    -0.237 OA
ATOM     97  O   UNL A   1      46.788  37.968  27.760  1.00  0.00    -0.744 OA
ENDBRANCH  93  94
ENDBRANCH  61  86
ENDBRANCH  35  36
ENDBRANCH  27  30
ENDBRANCH  25  26
ENDBRANCH  24  25
ENDBRANCH  23  24
ENDBRANCH   1  23
TORSDOF 21
ENDMDL
MODEL 2
REMARK VINA RESULT:     -10.4      6.279      8.944
REMARK SMILES C#CC[NH2+]CC(=O)N1CC[C@](CCC)(C(=O)NCCCCNC(=O)c2ccc(-c3c4nc(c(-c5c(F)cc(S(=O)(=O)[O-])cc5F)c5ccc([nH]5)c(-c5c(F)cc(S(=O)(=O)[O-])cc5F)c5nc(c(-c6c(F)cc(S(=O)(=O)[O-])cc6F)c6ccc3[nH]6)C=C5)C=C4)cc2)C1
REMARK SMILES IDX 18 1 17 2 15 3 16 4 11 6 8 7 9 8 91 9 10 10 6 11 7 12 5 13
REMARK SMILES IDX 4 14 3 17 2 18 1 19 12 20 13 21 14 22 19 23 20 24 21 25
REMARK SMILES IDX 22 26 23 27 24 29 25 30 26 31 90 32 27 33 89 34 28 35 29 36
REMARK SMILES IDX 30 37 83 38 31 39 88 40 82 41 84 42 32 43 87 44 81 45 80 46
REMARK SMILES IDX 33 48 67 49 46 50 66 51 47 52 50 53 65 54 85 55 48 56 49 57
REMARK SMILES IDX 64 59 86 60 51 61 34 62 35 63 44 64 36 65 37 66 43 67 45 68
REMARK SMILES IDX 38 69 39 70 40 71 41 72 42 73 68 74 69 75 78 76 70 77 71 78
REMARK SMILES IDX 77 79 79 80 72 81 73 82 74 83 75 84 76 85 52 86 53 87 62 88
REMARK SMILES IDX 54 89 55 90 61 91 63 92 56 93 57 94 58 95 59 96 60 97
REMARK H PARENT 17 5 4 15 4 16 22 28 84 47 50 58
REMARK Flexibility Score: inf
ROOT
ATOM      1  C   UNL A   1      38.007  22.091  25.801  1.00  0.00     0.116 C 
ENDROOT
BRANCH   1   2
ATOM      2  N   UNL A   1      37.711  22.443  24.438  1.00  0.00    -0.356 N 
ATOM      3  C   UNL A   1      36.507  22.658  23.866  1.00  0.00     0.228 C 
ATOM      4  O   UNL A   1      36.525  23.080  22.708  1.00  0.00    -0.274 OA
ATOM      5  H   UNL A   1      38.489  22.542  23.844  1.00  0.00     0.163 HD
BRANCH   3   6
ATOM      6  C   UNL A   1      35.210  22.276  24.574  1.00  0.00     0.068 C 
ATOM      7  N   UNL A   1      33.131  23.481  24.269  1.00  0.00    -0.337 N 
ATOM      8  C   UNL A   1      33.505  23.453  25.668  1.00  0.00     0.121 C 
ATOM      9  C   UNL A   1      34.043  22.583  23.569  1.00  0.00     0.136 C 
ATOM     10  C   UNL A   1      34.975  23.292  25.691  1.00  0.00     0.040 C 
BRANCH   7  11
ATOM     11  C   UNL A   1      32.028  24.020  23.606  1.00  0.00     0.277 C 
ATOM     12  O   UNL A   1      31.171  23.265  23.129  1.00  0.00    -0.268 OA
BRANCH  11  13
ATOM     13  C   UNL A   1      31.923  25.550  23.290  1.00  0.00     0.362 C 
BRANCH  13  14
ATOM     14  N   UNL A   1      31.872  26.489  24.449  1.00  0.00    -0.328 N 
ATOM     15  H   UNL A   1      31.152  27.198  24.309  1.00  0.00     0.347 HD
ATOM     16  H   UNL A   1      31.641  26.015  25.324  1.00  0.00     0.347 HD
BRANCH  14  17
ATOM     17  C   UNL A   1      33.174  27.088  24.481  1.00  0.00     0.352 C 
BRANCH  17  18
ATOM     18  C   UNL A   1      33.689  27.847  25.693  1.00  0.00    -0.047 C 
ATOM     19  C   UNL A   1      34.131  28.498  26.733  1.00  0.00     0.010 C 
ENDBRANCH  17  18
ENDBRANCH  14  17
ENDBRANCH  13  14
ENDBRANCH  11  13
ENDBRANCH   7  11
BRANCH   6  20
ATOM     20  C   UNL A   1      35.063  20.864  25.191  1.00  0.00     0.018 C 
BRANCH  20  21
ATOM     21  C   UNL A   1      33.994  19.886  24.657  1.00  0.00    -0.002 C 
ATOM     22  C   UNL A   1      32.857  19.394  25.545  1.00  0.00     0.004 C 
ENDBRANCH  20  21
ENDBRANCH   6  20
ENDBRANCH   3   6
ENDBRANCH   1   2
BRANCH   1  23
ATOM     23  C   UNL A   1      39.282  21.285  25.940  1.00  0.00     0.023 C 
BRANCH  23  24
ATOM     24  C   UNL A   1      40.305  21.890  26.903  1.00  0.00     0.023 C 
BRANCH  24  25
ATOM     25  C   UNL A   1      40.254  23.406  27.059  1.00  0.00     0.116 C 
BRANCH  25  26
ATOM     26  N   UNL A   1      41.055  24.107  26.068  1.00  0.00    -0.352 N 
ATOM     27  C   UNL A   1      41.507  25.406  26.062  1.00  0.00     0.251 C 
ATOM     28  H   UNL A   1      41.312  23.570  25.283  1.00  0.00     0.163 HD
ATOM     29  O   UNL A   1      42.022  25.866  25.052  1.00  0.00    -0.269 OA
BRANCH  27  30
ATOM     30  C   UNL A   1      41.342  26.245  27.268  1.00  0.00     0.039 A 
ATOM     31  C   UNL A   1      42.158  27.366  27.429  1.00  0.00     0.014 A 
ATOM     32  C   UNL A   1      40.381  25.932  28.233  1.00  0.00     0.014 A 
ATOM     33  C   UNL A   1      41.966  28.206  28.527  1.00  0.00     0.010 A 
ATOM     34  C   UNL A   1      40.123  26.825  29.268  1.00  0.00     0.010 A 
ATOM     35  C   UNL A   1      40.924  27.962  29.441  1.00  0.00    -0.014 A 
BRANCH  35  36
ATOM     36  C   UNL A   1      40.689  28.869  30.595  1.00  0.00     0.031 A 
ATOM     37  C   UNL A   1      41.525  28.735  31.842  1.00  0.00     0.074 A 
ATOM     38  C   UNL A   1      39.703  29.786  30.538  1.00  0.00     0.049 A 
ATOM     39  N   UNL A   1      41.469  29.427  32.952  1.00  0.00    -0.248 NA
ATOM     40  C   UNL A   1      42.536  27.664  31.858  1.00  0.00     0.031 C 
ATOM     41  C   UNL A   1      38.781  29.971  29.414  1.00  0.00     0.029 A 
ATOM     42  N   UNL A   1      39.312  30.739  31.445  1.00  0.00    -0.354 N 
ATOM     43  C   UNL A   1      42.423  28.868  33.796  1.00  0.00     0.074 A 
ATOM     44  C   UNL A   1      42.993  27.737  33.098  1.00  0.00     0.031 C 
ATOM     45  C   UNL A   1      37.958  30.998  29.684  1.00  0.00     0.029 A 
ATOM     46  C   UNL A   1      38.271  31.525  31.008  1.00  0.00     0.049 A 
ATOM     47  H   UNL A   1      39.737  30.850  32.326  1.00  0.00     0.167 HD
ATOM     48  C   UNL A   1      42.817  29.278  35.025  1.00  0.00     0.037 A 
ATOM     49  C   UNL A   1      37.645  32.558  31.605  1.00  0.00     0.037 A 
ATOM     50  C   UNL A   1      42.266  30.422  35.704  1.00  0.00     0.049 A 
ATOM     51  C   UNL A   1      38.116  33.013  32.960  1.00  0.00     0.074 A 
ATOM     52  C   UNL A   1      42.629  30.956  36.929  1.00  0.00     0.029 A 
ATOM     53  N   UNL A   1      41.234  31.210  35.217  1.00  0.00    -0.354 N 
ATOM     54  N   UNL A   1      39.068  32.516  33.714  1.00  0.00    -0.248 NA
ATOM     55  C   UNL A   1      37.439  34.181  33.538  1.00  0.00     0.031 C 
ATOM     56  C   UNL A   1      41.786  32.039  37.201  1.00  0.00     0.029 A 
ATOM     57  C   UNL A   1      40.938  32.218  36.121  1.00  0.00     0.049 A 
ATOM     58  H   UNL A   1      40.778  31.075  34.354  1.00  0.00     0.167 HD
ATOM     59  C   UNL A   1      39.128  33.331  34.840  1.00  0.00     0.074 A 
ATOM     60  C   UNL A   1      38.126  34.362  34.658  1.00  0.00     0.031 C 
ATOM     61  C   UNL A   1      39.938  33.239  35.924  1.00  0.00     0.037 A 
BRANCH  48  62
ATOM     62  C   UNL A   1      43.903  28.489  35.708  1.00  0.00     0.058 A 
ATOM     63  C   UNL A   1      45.264  28.770  35.499  1.00  0.00     0.135 A 
ATOM     64  C   UNL A   1      43.582  27.451  36.597  1.00  0.00     0.135 A 
ATOM     65  F   UNL A   1      45.631  29.740  34.646  1.00  0.00    -0.206 F 
ATOM     66  C   UNL A   1      46.265  28.029  36.116  1.00  0.00     0.059 A 
ATOM     67  C   UNL A   1      44.568  26.717  37.253  1.00  0.00     0.059 A 
ATOM     68  F   UNL A   1      42.299  27.137  36.836  1.00  0.00    -0.206 F 
ATOM     69  C   UNL A   1      45.907  27.003  36.992  1.00  0.00     0.060 A 
BRANCH  69  70
ATOM     70  S   UNL A   1      47.219  26.052  37.787  1.00  0.00     0.124 S 
ATOM     71  O   UNL A   1      46.743  24.685  37.597  1.00  0.00    -0.237 OA
ATOM     72  O   UNL A   1      48.394  26.428  37.008  1.00  0.00    -0.237 OA
ATOM     73  O   UNL A   1      47.203  26.535  39.165  1.00  0.00    -0.744 OA
ENDBRANCH  69  70
ENDBRANCH  48  62
BRANCH  49  74
ATOM     74  C   UNL A   1      36.536  33.263  30.906  1.00  0.00     0.058 A 
ATOM     75  C   UNL A   1      35.201  33.085  31.299  1.00  0.00     0.135 A 
ATOM     76  C   UNL A   1      36.787  34.133  29.832  1.00  0.00     0.135 A 
ATOM     77  F   UNL A   1      34.908  32.261  32.317  1.00  0.00    -0.206 F 
ATOM     78  C   UNL A   1      34.153  33.723  30.643  1.00  0.00     0.059 A 
ATOM     79  C   UNL A   1      35.759  34.804  29.178  1.00  0.00     0.059 A 
ATOM     80  F   UNL A   1      38.047  34.354  29.427  1.00  0.00    -0.206 F 
ATOM     81  C   UNL A   1      34.443  34.584  29.583  1.00  0.00     0.060 A 
BRANCH  81  82
ATOM     82  S   UNL A   1      33.079  35.443  28.769  1.00  0.00     0.124 S 
ATOM     83  O   UNL A   1      32.436  34.353  28.045  1.00  0.00    -0.237 OA
ATOM     84  O   UNL A   1      32.338  35.984  29.903  1.00  0.00    -0.237 OA
ATOM     85  O   UNL A   1      33.757  36.438  27.942  1.00  0.00    -0.744 OA
ENDBRANCH  81  82
ENDBRANCH  49  74
BRANCH  61  86
ATOM     86  C   UNL A   1      39.808  34.309  36.974  1.00  0.00     0.058 A 
ATOM     87  C   UNL A   1      40.494  35.531  36.882  1.00  0.00     0.135 A 
ATOM     88  C   UNL A   1      38.973  34.110  38.085  1.00  0.00     0.135 A 
ATOM     89  F   UNL A   1      41.305  35.773  35.840  1.00  0.00    -0.206 F 
ATOM     90  C   UNL A   1      40.398  36.494  37.879  1.00  0.00     0.059 A 
ATOM     91  C   UNL A   1      38.835  35.075  39.078  1.00  0.00     0.059 A 
ATOM     92  F   UNL A   1      38.278  32.968  38.216  1.00  0.00    -0.206 F 
ATOM     93  C   UNL A   1      39.571  36.254  38.979  1.00  0.00     0.060 A 
BRANCH  93  94
ATOM     94  S   UNL A   1      39.466  37.504  40.276  1.00  0.00     0.124 S 
ATOM     95  O   UNL A   1      40.864  37.899  40.415  1.00  0.00    -0.237 OA
ATOM     96  O   UNL A   1      38.582  38.501  39.680  1.00  0.00    -0.237 OA
ATOM     97  O   UNL A   1      38.904  36.774  41.408  1.00  0.00    -0.744 OA
ENDBRANCH  93  94
ENDBRANCH  61  86
ENDBRANCH  35  36
ENDBRANCH  27  30
ENDBRANCH  25  26
ENDBRANCH  24  25
ENDBRANCH  23  24
ENDBRANCH   1  23
TORSDOF 21
ENDMDL
MODEL 3
REMARK VINA RESULT:     -10.2      0.704      8.383
REMARK SMILES C#CC[NH2+]CC(=O)N1CC[C@](CCC)(C(=O)NCCCCNC(=O)c2ccc(-c3c4nc(c(-c5c(F)cc(S(=O)(=O)[O-])cc5F)c5ccc([nH]5)c(-c5c(F)cc(S(=O)(=O)[O-])cc5F)c5nc(c(-c6c(F)cc(S(=O)(=O)[O-])cc6F)c6ccc3[nH]6)C=C5)C=C4)cc2)C1
REMARK SMILES IDX 18 1 17 2 15 3 16 4 11 6 8 7 9 8 91 9 10 10 6 11 7 12 5 13
REMARK SMILES IDX 4 14 3 17 2 18 1 19 12 20 13 21 14 22 19 23 20 24 21 25
REMARK SMILES IDX 22 26 23 27 24 29 25 30 26 31 90 32 27 33 89 34 28 35 29 36
REMARK SMILES IDX 30 37 83 38 31 39 88 40 82 41 84 42 32 43 87 44 81 45 80 46
REMARK SMILES IDX 33 48 67 49 46 50 66 51 47 52 50 53 65 54 85 55 48 56 49 57
REMARK SMILES IDX 64 59 86 60 51 61 34 62 35 63 44 64 36 65 37 66 43 67 45 68
REMARK SMILES IDX 38 69 39 70 40 71 41 72 42 73 68 74 69 75 78 76 70 77 71 78
REMARK SMILES IDX 77 79 79 80 72 81 73 82 74 83 75 84 76 85 52 86 53 87 62 88
REMARK SMILES IDX 54 89 55 90 61 91 63 92 56 93 57 94 58 95 59 96 60 97
REMARK H PARENT 17 5 4 15 4 16 22 28 84 47 50 58
REMARK Flexibility Score: inf
ROOT
ATOM      1  C   UNL A   1      37.811  22.205  25.929  1.00  0.00     0.116 C 
ENDROOT
BRANCH   1   2
ATOM      2  N   UNL A   1      37.552  22.411  24.530  1.00  0.00    -0.356 N 
ATOM      3  C   UNL A   1      36.378  22.686  23.922  1.00  0.00     0.228 C 
ATOM      4  O   UNL A   1      36.440  22.952  22.719  1.00  0.00    -0.274 OA
ATOM      5  H   UNL A   1      38.334  22.344  23.936  1.00  0.00     0.163 HD
BRANCH   3   6
ATOM      6  C   UNL A   1      35.048  22.548  24.659  1.00  0.00     0.068 C 
ATOM      7  N   UNL A   1      33.698  20.540  24.587  1.00  0.00    -0.337 N 
ATOM      8  C   UNL A   1      32.936  21.685  24.129  1.00  0.00     0.121 C 
ATOM      9  C   UNL A   1      34.950  21.054  25.130  1.00  0.00     0.136 C 
ATOM     10  C   UNL A   1      33.931  22.655  23.623  1.00  0.00     0.040 C 
BRANCH   7  11
ATOM     11  C   UNL A   1      33.358  19.196  24.750  1.00  0.00     0.277 C 
ATOM     12  O   UNL A   1      32.445  18.885  25.527  1.00  0.00    -0.268 OA
BRANCH  11  13
ATOM     13  C   UNL A   1      34.211  18.047  24.115  1.00  0.00     0.362 C 
BRANCH  13  14
ATOM     14  N   UNL A   1      35.181  17.341  25.002  1.00  0.00    -0.328 N 
ATOM     15  H   UNL A   1      36.136  17.461  24.663  1.00  0.00     0.347 HD
ATOM     16  H   UNL A   1      35.170  17.703  25.957  1.00  0.00     0.347 HD
BRANCH  14  17
ATOM     17  C   UNL A   1      34.789  15.964  24.937  1.00  0.00     0.352 C 
BRANCH  17  18
ATOM     18  C   UNL A   1      33.412  15.490  25.374  1.00  0.00    -0.047 C 
ATOM     19  C   UNL A   1      32.231  15.083  25.749  1.00  0.00     0.010 C 
ENDBRANCH  17  18
ENDBRANCH  14  17
ENDBRANCH  13  14
ENDBRANCH  11  13
ENDBRANCH   7  11
BRANCH   6  20
ATOM     20  C   UNL A   1      34.709  23.525  25.811  1.00  0.00     0.018 C 
BRANCH  20  21
ATOM     21  C   UNL A   1      33.643  24.625  25.615  1.00  0.00    -0.002 C 
ATOM     22  C   UNL A   1      34.037  26.086  25.432  1.00  0.00     0.004 C 
ENDBRANCH  20  21
ENDBRANCH   6  20
ENDBRANCH   3   6
ENDBRANCH   1   2
BRANCH   1  23
ATOM     23  C   UNL A   1      39.270  22.388  26.294  1.00  0.00     0.023 C 
BRANCH  23  24
ATOM     24  C   UNL A   1      39.947  21.124  26.827  1.00  0.00     0.023 C 
BRANCH  24  25
ATOM     25  C   UNL A   1      39.904  19.909  25.905  1.00  0.00     0.116 C 
BRANCH  25  26
ATOM     26  N   UNL A   1      41.074  19.056  26.034  1.00  0.00    -0.352 N 
ATOM     27  C   UNL A   1      42.403  19.396  26.141  1.00  0.00     0.251 C 
ATOM     28  H   UNL A   1      40.888  18.089  26.045  1.00  0.00     0.163 HD
ATOM     29  O   UNL A   1      43.261  18.529  26.063  1.00  0.00    -0.269 OA
BRANCH  27  30
ATOM     30  C   UNL A   1      42.784  20.814  26.321  1.00  0.00     0.039 A 
ATOM     31  C   UNL A   1      42.951  21.309  27.616  1.00  0.00     0.014 A 
ATOM     32  C   UNL A   1      42.982  21.649  25.220  1.00  0.00     0.014 A 
ATOM     33  C   UNL A   1      43.378  22.626  27.799  1.00  0.00     0.010 A 
ATOM     34  C   UNL A   1      43.506  22.924  25.402  1.00  0.00     0.010 A 
ATOM     35  C   UNL A   1      43.692  23.437  26.694  1.00  0.00    -0.014 A 
BRANCH  35  36
ATOM     36  C   UNL A   1      44.180  24.829  26.879  1.00  0.00     0.031 A 
ATOM     37  C   UNL A   1      43.232  25.906  27.341  1.00  0.00     0.074 A 
ATOM     38  C   UNL A   1      45.462  25.134  26.597  1.00  0.00     0.049 A 
ATOM     39  N   UNL A   1      43.465  27.175  27.556  1.00  0.00    -0.248 NA
ATOM     40  C   UNL A   1      41.830  25.512  27.562  1.00  0.00     0.031 C 
ATOM     41  C   UNL A   1      46.462  24.196  26.078  1.00  0.00     0.029 A 
ATOM     42  N   UNL A   1      46.148  26.318  26.709  1.00  0.00    -0.354 N 
ATOM     43  C   UNL A   1      42.243  27.729  27.923  1.00  0.00     0.074 A 
ATOM     44  C   UNL A   1      41.258  26.675  27.832  1.00  0.00     0.031 C 
ATOM     45  C   UNL A   1      47.639  24.832  25.953  1.00  0.00     0.029 A 
ATOM     46  C   UNL A   1      47.473  26.226  26.352  1.00  0.00     0.049 A 
ATOM     47  H   UNL A   1      45.729  27.154  27.016  1.00  0.00     0.167 HD
ATOM     48  C   UNL A   1      41.969  28.991  28.333  1.00  0.00     0.037 A 
ATOM     49  C   UNL A   1      48.445  27.159  26.353  1.00  0.00     0.037 A 
ATOM     50  C   UNL A   1      42.960  30.030  28.448  1.00  0.00     0.049 A 
ATOM     51  C   UNL A   1      48.124  28.548  26.837  1.00  0.00     0.074 A 
ATOM     52  C   UNL A   1      42.799  31.327  28.904  1.00  0.00     0.029 A 
ATOM     53  N   UNL A   1      44.297  29.890  28.106  1.00  0.00    -0.354 N 
ATOM     54  N   UNL A   1      46.977  29.035  27.247  1.00  0.00    -0.248 NA
ATOM     55  C   UNL A   1      49.235  29.508  26.875  1.00  0.00     0.031 C 
ATOM     56  C   UNL A   1      44.030  31.984  28.794  1.00  0.00     0.029 A 
ATOM     57  C   UNL A   1      44.970  31.081  28.327  1.00  0.00     0.049 A 
ATOM     58  H   UNL A   1      44.708  29.066  27.758  1.00  0.00     0.167 HD
ATOM     59  C   UNL A   1      47.234  30.350  27.625  1.00  0.00     0.074 A 
ATOM     60  C   UNL A   1      48.650  30.572  27.408  1.00  0.00     0.031 C 
ATOM     61  C   UNL A   1      46.381  31.286  28.109  1.00  0.00     0.037 A 
BRANCH  48  62
ATOM     62  C   UNL A   1      40.544  29.311  28.696  1.00  0.00     0.058 A 
ATOM     63  C   UNL A   1      40.140  29.478  30.032  1.00  0.00     0.135 A 
ATOM     64  C   UNL A   1      39.570  29.474  27.698  1.00  0.00     0.135 A 
ATOM     65  F   UNL A   1      41.024  29.317  31.030  1.00  0.00    -0.206 F 
ATOM     66  C   UNL A   1      38.819  29.755  30.366  1.00  0.00     0.059 A 
ATOM     67  C   UNL A   1      38.248  29.785  28.007  1.00  0.00     0.059 A 
ATOM     68  F   UNL A   1      39.897  29.326  26.404  1.00  0.00    -0.206 F 
ATOM     69  C   UNL A   1      37.879  29.907  29.346  1.00  0.00     0.060 A 
BRANCH  69  70
ATOM     70  S   UNL A   1      36.170  30.270  29.797  1.00  0.00     0.124 S 
ATOM     71  O   UNL A   1      35.981  29.396  30.951  1.00  0.00    -0.237 OA
ATOM     72  O   UNL A   1      36.220  31.699  30.087  1.00  0.00    -0.237 OA
ATOM     73  O   UNL A   1      35.416  29.902  28.602  1.00  0.00    -0.744 OA
ENDBRANCH  69  70
ENDBRANCH  48  62
BRANCH  49  74
ATOM     74  C   UNL A   1      49.825  26.799  25.926  1.00  0.00     0.058 A 
ATOM     75  C   UNL A   1      50.698  26.121  26.790  1.00  0.00     0.135 A 
ATOM     76  C   UNL A   1      50.297  27.120  24.643  1.00  0.00     0.135 A 
ATOM     77  F   UNL A   1      50.295  25.795  28.028  1.00  0.00    -0.206 F 
ATOM     78  C   UNL A   1      51.996  25.795  26.410  1.00  0.00     0.059 A 
ATOM     79  C   UNL A   1      51.581  26.779  24.230  1.00  0.00     0.059 A 
ATOM     80  F   UNL A   1      49.498  27.750  23.770  1.00  0.00    -0.206 F 
ATOM     81  C   UNL A   1      52.428  26.126  25.125  1.00  0.00     0.060 A 
BRANCH  81  82
ATOM     82  S   UNL A   1      54.099  25.657  24.626  1.00  0.00     0.124 S 
ATOM     83  O   UNL A   1      54.128  24.244  24.987  1.00  0.00    -0.237 OA
ATOM     84  O   UNL A   1      54.087  25.953  23.197  1.00  0.00    -0.237 OA
ATOM     85  O   UNL A   1      54.947  26.531  25.432  1.00  0.00    -0.744 OA
ENDBRANCH  81  82
ENDBRANCH  49  74
BRANCH  61  86
ATOM     86  C   UNL A   1      46.966  32.621  28.484  1.00  0.00     0.058 A 
ATOM     87  C   UNL A   1      47.453  32.886  29.774  1.00  0.00     0.135 A 
ATOM     88  C   UNL A   1      47.047  33.649  27.530  1.00  0.00     0.135 A 
ATOM     89  F   UNL A   1      47.400  31.939  30.723  1.00  0.00    -0.206 F 
ATOM     90  C   UNL A   1      47.952  34.137  30.119  1.00  0.00     0.059 A 
ATOM     91  C   UNL A   1      47.573  34.898  27.844  1.00  0.00     0.059 A 
ATOM     92  F   UNL A   1      46.612  33.447  26.276  1.00  0.00    -0.206 F 
ATOM     93  C   UNL A   1      48.001  35.140  29.149  1.00  0.00     0.060 A 
BRANCH  93  94
ATOM     94  S   UNL A   1      48.634  36.765  29.612  1.00  0.00     0.124 S 
ATOM     95  O   UNL A   1      49.724  36.936  28.655  1.00  0.00    -0.237 OA
ATOM     96  O   UNL A   1      47.472  37.624  29.409  1.00  0.00    -0.237 OA
ATOM     97  O   UNL A   1      49.041  36.589  31.003  1.00  0.00    -0.744 OA
ENDBRANCH  93  94
ENDBRANCH  61  86
ENDBRANCH  35  36
ENDBRANCH  27  30
ENDBRANCH  25  26
ENDBRANCH  24  25
ENDBRANCH  23  24
ENDBRANCH   1  23
TORSDOF 21
ENDMDL
