MODEL 1
REMARK VINA RESULT:     -10.5      0.000      0.000
REMARK SMILES CC[NH2+][C@]1(C(=O)NCCCCNC(=O)c2ccc(-c3c4nc(c(-c5c(F)cc(S(=O)(=O)[O-])cc5F)c5ccc([nH]5)c(-c5c(F)cc(S(=O)(=O)[O-])cc5F)c5nc(c(-c6c(F)cc(S(=O)(=O)[O-])cc6F)c6ccc3[nH]6)C=C5)C=C4)cc2)CC[C@H](SC2COC2)C1
REMARK SMILES IDX 10 1 9 2 8 3 7 4 5 5 6 6 4 8 81 9 89 10 82 11 83 12 3 13
REMARK SMILES IDX 2 16 1 17 84 18 85 19 86 20 88 21 87 22 11 23 12 24 13 25
REMARK SMILES IDX 14 27 15 28 16 29 80 30 17 31 79 32 18 33 19 34 20 35 73 36
REMARK SMILES IDX 21 37 78 38 72 39 74 40 22 41 77 42 71 43 70 44 23 46 57 47
REMARK SMILES IDX 36 48 56 49 37 50 40 51 55 52 75 53 38 54 39 55 54 57 76 58
REMARK SMILES IDX 41 59 24 60 25 61 34 62 26 63 27 64 33 65 35 66 28 67 29 68
REMARK SMILES IDX 30 69 31 70 32 71 58 72 59 73 68 74 60 75 61 76 67 77 69 78
REMARK SMILES IDX 62 79 63 80 64 81 65 82 66 83 42 84 43 85 52 86 44 87 45 88
REMARK SMILES IDX 51 89 53 90 46 91 47 92 48 93 49 94 50 95
REMARK H PARENT 7 7 3 14 3 15 12 26 74 45 40 56
REMARK Flexibility Score: inf
ROOT
ATOM      1  C   UNL A   1      33.030  27.570  26.722  1.00  0.00     0.023 C 
ENDROOT
BRANCH   1   2
ATOM      2  C   UNL A   1      31.530  27.758  26.532  1.00  0.00     0.023 C 
BRANCH   2   3
ATOM      3  C   UNL A   1      30.827  26.631  25.775  1.00  0.00     0.116 C 
BRANCH   3   4
ATOM      4  N   UNL A   1      30.459  25.539  26.661  1.00  0.00    -0.351 N 
ATOM      5  C   UNL A   1      30.685  24.194  26.534  1.00  0.00     0.281 C 
ATOM      6  O   UNL A   1      30.154  23.452  27.367  1.00  0.00    -0.268 OA
ATOM      7  H   UNL A   1      29.974  25.806  27.475  1.00  0.00     0.163 HD
BRANCH   5   8
ATOM      8  C   UNL A   1      31.635  23.633  25.439  1.00  0.00     0.176 C 
ATOM      9  C   UNL A   1      31.799  22.116  25.657  1.00  0.00     0.080 C 
ATOM     10  C   UNL A   1      30.989  23.604  24.031  1.00  0.00     0.093 C 
ATOM     11  C   UNL A   1      32.234  21.545  24.308  1.00  0.00     0.022 C 
ATOM     12  C   UNL A   1      31.769  22.538  23.231  1.00  0.00     0.054 C 
BRANCH   8  13
ATOM     13  N   UNL A   1      32.965  24.292  25.446  1.00  0.00    -0.334 N 
ATOM     14  H   UNL A   1      33.388  24.166  24.526  1.00  0.00     0.347 HD
ATOM     15  H   UNL A   1      32.802  25.272  25.679  1.00  0.00     0.347 HD
BRANCH  13  16
ATOM     16  C   UNL A   1      33.897  23.774  26.451  1.00  0.00     0.257 C 
ATOM     17  C   UNL A   1      35.281  23.686  25.816  1.00  0.00     0.071 C 
ENDBRANCH  13  16
ENDBRANCH   8  13
BRANCH  12  18
ATOM     18  S   UNL A   1      33.166  23.338  22.361  1.00  0.00    -0.150 SA
BRANCH  18  19
ATOM     19  C   UNL A   1      32.752  25.089  22.244  1.00  0.00     0.098 C 
ATOM     20  C   UNL A   1      33.847  26.126  22.466  1.00  0.00     0.177 C 
ATOM     21  C   UNL A   1      32.645  25.702  20.853  1.00  0.00     0.177 C 
ATOM     22  O   UNL A   1      33.399  26.869  21.294  1.00  0.00    -0.379 OA
ENDBRANCH  18  19
ENDBRANCH  12  18
ENDBRANCH   5   8
ENDBRANCH   3   4
ENDBRANCH   2   3
ENDBRANCH   1   2
BRANCH   1  23
ATOM     23  C   UNL A   1      33.891  28.609  26.026  1.00  0.00     0.116 C 
BRANCH  23  24
ATOM     24  N   UNL A   1      33.639  29.968  26.489  1.00  0.00    -0.352 N 
ATOM     25  C   UNL A   1      34.351  30.713  27.397  1.00  0.00     0.251 C 
ATOM     26  H   UNL A   1      32.851  30.411  26.097  1.00  0.00     0.163 HD
ATOM     27  O   UNL A   1      33.934  31.807  27.765  1.00  0.00    -0.269 OA
BRANCH  25  28
ATOM     28  C   UNL A   1      35.602  30.161  27.954  1.00  0.00     0.039 A 
ATOM     29  C   UNL A   1      36.804  30.385  27.278  1.00  0.00     0.014 A 
ATOM     30  C   UNL A   1      35.592  29.477  29.172  1.00  0.00     0.014 A 
ATOM     31  C   UNL A   1      38.006  29.989  27.865  1.00  0.00     0.010 A 
ATOM     32  C   UNL A   1      36.794  29.165  29.794  1.00  0.00     0.010 A 
ATOM     33  C   UNL A   1      38.013  29.414  29.146  1.00  0.00    -0.014 A 
BRANCH  33  34
ATOM     34  C   UNL A   1      39.279  29.052  29.829  1.00  0.00     0.031 A 
ATOM     35  C   UNL A   1      39.736  29.850  31.020  1.00  0.00     0.074 A 
ATOM     36  C   UNL A   1      40.055  28.072  29.328  1.00  0.00     0.049 A 
ATOM     37  N   UNL A   1      40.856  29.767  31.689  1.00  0.00    -0.248 NA
ATOM     38  C   UNL A   1      38.829  30.907  31.497  1.00  0.00     0.031 C 
ATOM     39  C   UNL A   1      39.750  27.272  28.137  1.00  0.00     0.029 A 
ATOM     40  N   UNL A   1      41.268  27.588  29.748  1.00  0.00    -0.354 N 
ATOM     41  C   UNL A   1      40.801  30.777  32.643  1.00  0.00     0.074 A 
ATOM     42  C   UNL A   1      39.562  31.492  32.432  1.00  0.00     0.031 C 
ATOM     43  C   UNL A   1      40.739  26.387  27.937  1.00  0.00     0.029 A 
ATOM     44  C   UNL A   1      41.761  26.572  28.962  1.00  0.00     0.049 A 
ATOM     45  H   UNL A   1      41.741  27.935  30.538  1.00  0.00     0.167 HD
ATOM     46  C   UNL A   1      41.689  31.065  33.623  1.00  0.00     0.037 A 
ATOM     47  C   UNL A   1      42.908  25.874  29.057  1.00  0.00     0.037 A 
ATOM     48  C   UNL A   1      42.896  30.318  33.857  1.00  0.00     0.049 A 
ATOM     49  C   UNL A   1      43.857  26.178  30.184  1.00  0.00     0.074 A 
ATOM     50  C   UNL A   1      43.829  30.480  34.866  1.00  0.00     0.029 A 
ATOM     51  N   UNL A   1      43.333  29.258  33.074  1.00  0.00    -0.354 N 
ATOM     52  N   UNL A   1      43.759  27.097  31.117  1.00  0.00    -0.248 NA
ATOM     53  C   UNL A   1      45.065  25.348  30.280  1.00  0.00     0.031 C 
ATOM     54  C   UNL A   1      44.842  29.534  34.678  1.00  0.00     0.029 A 
ATOM     55  C   UNL A   1      44.524  28.761  33.572  1.00  0.00     0.049 A 
ATOM     56  H   UNL A   1      42.863  28.911  32.281  1.00  0.00     0.167 HD
ATOM     57  C   UNL A   1      44.882  26.941  31.922  1.00  0.00     0.074 A 
ATOM     58  C   UNL A   1      45.638  25.832  31.374  1.00  0.00     0.031 C 
ATOM     59  C   UNL A   1      45.254  27.651  33.016  1.00  0.00     0.037 A 
BRANCH  46  60
ATOM     60  C   UNL A   1      41.374  32.229  34.520  1.00  0.00     0.058 A 
ATOM     61  C   UNL A   1      40.601  32.073  35.683  1.00  0.00     0.135 A 
ATOM     62  C   UNL A   1      41.852  33.514  34.221  1.00  0.00     0.135 A 
ATOM     63  F   UNL A   1      40.105  30.867  36.007  1.00  0.00    -0.206 F 
ATOM     64  C   UNL A   1      40.281  33.154  36.494  1.00  0.00     0.059 A 
ATOM     65  C   UNL A   1      41.566  34.607  35.034  1.00  0.00     0.059 A 
ATOM     66  F   UNL A   1      42.594  33.721  33.121  1.00  0.00    -0.206 F 
ATOM     67  C   UNL A   1      40.764  34.420  36.159  1.00  0.00     0.060 A 
BRANCH  67  68
ATOM     68  S   UNL A   1      40.329  35.818  37.215  1.00  0.00     0.124 S 
ATOM     69  O   UNL A   1      39.842  36.782  36.232  1.00  0.00    -0.237 OA
ATOM     70  O   UNL A   1      39.316  35.245  38.094  1.00  0.00    -0.237 OA
ATOM     71  O   UNL A   1      41.593  36.161  37.859  1.00  0.00    -0.744 OA
ENDBRANCH  67  68
ENDBRANCH  46  60
BRANCH  47  72
ATOM     72  C   UNL A   1      43.205  24.797  28.078  1.00  0.00     0.058 A 
ATOM     73  C   UNL A   1      43.900  25.077  26.892  1.00  0.00     0.135 A 
ATOM     74  C   UNL A   1      42.824  23.468  28.315  1.00  0.00     0.135 A 
ATOM     75  F   UNL A   1      44.282  26.333  26.620  1.00  0.00    -0.206 F 
ATOM     76  C   UNL A   1      44.195  24.080  25.968  1.00  0.00     0.059 A 
ATOM     77  C   UNL A   1      43.125  22.450  27.415  1.00  0.00     0.059 A 
ATOM     78  F   UNL A   1      42.173  23.147  29.444  1.00  0.00    -0.206 F 
ATOM     79  C   UNL A   1      43.805  22.768  26.239  1.00  0.00     0.060 A 
BRANCH  79  80
ATOM     80  S   UNL A   1      44.240  21.471  25.060  1.00  0.00     0.124 S 
ATOM     81  O   UNL A   1      44.145  22.184  23.792  1.00  0.00    -0.237 OA
ATOM     82  O   UNL A   1      45.587  21.105  25.488  1.00  0.00    -0.237 OA
ATOM     83  O   UNL A   1      43.220  20.453  25.292  1.00  0.00    -0.744 OA
ENDBRANCH  79  80
ENDBRANCH  47  72
BRANCH  59  84
ATOM     84  C   UNL A   1      46.518  27.232  33.708  1.00  0.00     0.058 A 
ATOM     85  C   UNL A   1      46.513  26.263  34.722  1.00  0.00     0.135 A 
ATOM     86  C   UNL A   1      47.756  27.768  33.314  1.00  0.00     0.135 A 
ATOM     87  F   UNL A   1      45.355  25.727  35.137  1.00  0.00    -0.206 F 
ATOM     88  C   UNL A   1      47.691  25.852  35.338  1.00  0.00     0.059 A 
ATOM     89  C   UNL A   1      48.946  27.355  33.900  1.00  0.00     0.059 A 
ATOM     90  F   UNL A   1      47.813  28.690  32.341  1.00  0.00    -0.206 F 
ATOM     91  C   UNL A   1      48.903  26.403  34.919  1.00  0.00     0.060 A 
BRANCH  91  92
ATOM     92  S   UNL A   1      50.430  25.837  35.698  1.00  0.00     0.124 S 
ATOM     93  O   UNL A   1      51.253  27.039  35.639  1.00  0.00    -0.237 OA
ATOM     94  O   UNL A   1      49.977  25.442  37.029  1.00  0.00    -0.237 OA
ATOM     95  O   UNL A   1      50.860  24.737  34.840  1.00  0.00    -0.744 OA
ENDBRANCH  91  92
ENDBRANCH  59  84
ENDBRANCH  33  34
ENDBRANCH  25  28
ENDBRANCH  23  24
ENDBRANCH   1  23
TORSDOF 18
ENDMDL
MODEL 2
REMARK VINA RESULT:     -10.4      2.357      2.859
REMARK SMILES CC[NH2+][C@]1(C(=O)NCCCCNC(=O)c2ccc(-c3c4nc(c(-c5c(F)cc(S(=O)(=O)[O-])cc5F)c5ccc([nH]5)c(-c5c(F)cc(S(=O)(=O)[O-])cc5F)c5nc(c(-c6c(F)cc(S(=O)(=O)[O-])cc6F)c6ccc3[nH]6)C=C5)C=C4)cc2)CC[C@H](SC2COC2)C1
REMARK SMILES IDX 10 1 9 2 8 3 7 4 5 5 6 6 4 8 81 9 89 10 82 11 83 12 3 13
REMARK SMILES IDX 2 16 1 17 84 18 85 19 86 20 88 21 87 22 11 23 12 24 13 25
REMARK SMILES IDX 14 27 15 28 16 29 80 30 17 31 79 32 18 33 19 34 20 35 73 36
REMARK SMILES IDX 21 37 78 38 72 39 74 40 22 41 77 42 71 43 70 44 23 46 57 47
REMARK SMILES IDX 36 48 56 49 37 50 40 51 55 52 75 53 38 54 39 55 54 57 76 58
REMARK SMILES IDX 41 59 24 60 25 61 34 62 26 63 27 64 33 65 35 66 28 67 29 68
REMARK SMILES IDX 30 69 31 70 32 71 58 72 59 73 68 74 60 75 61 76 67 77 69 78
REMARK SMILES IDX 62 79 63 80 64 81 65 82 66 83 42 84 43 85 52 86 44 87 45 88
REMARK SMILES IDX 51 89 53 90 46 91 47 92 48 93 49 94 50 95
REMARK H PARENT 7 7 3 14 3 15 12 26 74 45 40 56
REMARK Flexibility Score: inf
ROOT
ATOM      1  C   UNL A   1      33.308  27.539  26.574  1.00  0.00     0.023 C 
ENDROOT
BRANCH   1   2
ATOM      2  C   UNL A   1      31.791  27.670  26.514  1.00  0.00     0.023 C 
BRANCH   2   3
ATOM      3  C   UNL A   1      31.071  26.528  25.796  1.00  0.00     0.116 C 
BRANCH   3   4
ATOM      4  N   UNL A   1      30.756  25.439  26.705  1.00  0.00    -0.351 N 
ATOM      5  C   UNL A   1      30.963  24.091  26.562  1.00  0.00     0.281 C 
ATOM      6  O   UNL A   1      30.484  23.353  27.428  1.00  0.00    -0.268 OA
ATOM      7  H   UNL A   1      30.329  25.708  27.550  1.00  0.00     0.163 HD
BRANCH   5   8
ATOM      8  C   UNL A   1      31.832  23.525  25.404  1.00  0.00     0.176 C 
ATOM      9  C   UNL A   1      31.997  22.006  25.609  1.00  0.00     0.080 C 
ATOM     10  C   UNL A   1      31.093  23.505  24.043  1.00  0.00     0.093 C 
ATOM     11  C   UNL A   1      32.335  21.434  24.232  1.00  0.00     0.022 C 
ATOM     12  C   UNL A   1      31.808  22.434  23.191  1.00  0.00     0.054 C 
BRANCH   8  13
ATOM     13  N   UNL A   1      33.166  24.172  25.323  1.00  0.00    -0.334 N 
ATOM     14  H   UNL A   1      33.601  23.897  24.442  1.00  0.00     0.347 HD
ATOM     15  H   UNL A   1      33.004  25.178  25.391  1.00  0.00     0.347 HD
BRANCH  13  16
ATOM     16  C   UNL A   1      34.081  23.823  26.413  1.00  0.00     0.257 C 
ATOM     17  C   UNL A   1      35.404  23.380  25.798  1.00  0.00     0.071 C 
ENDBRANCH  13  16
ENDBRANCH   8  13
BRANCH  12  18
ATOM     18  S   UNL A   1      33.150  23.223  22.230  1.00  0.00    -0.150 SA
BRANCH  18  19
ATOM     19  C   UNL A   1      32.637  24.930  21.954  1.00  0.00     0.098 C 
ATOM     20  C   UNL A   1      33.593  26.060  22.318  1.00  0.00     0.177 C 
ATOM     21  C   UNL A   1      32.743  25.483  20.537  1.00  0.00     0.177 C 
ATOM     22  O   UNL A   1      33.316  26.722  21.049  1.00  0.00    -0.379 OA
ENDBRANCH  18  19
ENDBRANCH  12  18
ENDBRANCH   5   8
ENDBRANCH   3   4
ENDBRANCH   2   3
ENDBRANCH   1   2
BRANCH   1  23
ATOM     23  C   UNL A   1      34.067  28.769  26.109  1.00  0.00     0.116 C 
BRANCH  23  24
ATOM     24  N   UNL A   1      33.809  29.948  26.928  1.00  0.00    -0.352 N 
ATOM     25  C   UNL A   1      34.604  30.516  27.893  1.00  0.00     0.251 C 
ATOM     26  H   UNL A   1      32.946  30.396  26.767  1.00  0.00     0.163 HD
ATOM     27  O   UNL A   1      34.184  31.445  28.575  1.00  0.00    -0.269 OA
BRANCH  25  28
ATOM     28  C   UNL A   1      35.955  29.966  28.124  1.00  0.00     0.039 A 
ATOM     29  C   UNL A   1      36.927  30.111  27.131  1.00  0.00     0.014 A 
ATOM     30  C   UNL A   1      36.273  29.363  29.343  1.00  0.00     0.014 A 
ATOM     31  C   UNL A   1      38.241  29.720  27.393  1.00  0.00     0.010 A 
ATOM     32  C   UNL A   1      37.597  29.058  29.633  1.00  0.00     0.010 A 
ATOM     33  C   UNL A   1      38.593  29.229  28.661  1.00  0.00    -0.014 A 
BRANCH  33  34
ATOM     34  C   UNL A   1      39.995  28.877  28.996  1.00  0.00     0.031 A 
ATOM     35  C   UNL A   1      40.888  29.905  29.638  1.00  0.00     0.074 A 
ATOM     36  C   UNL A   1      40.486  27.673  28.645  1.00  0.00     0.049 A 
ATOM     37  N   UNL A   1      42.164  29.835  29.910  1.00  0.00    -0.248 NA
ATOM     38  C   UNL A   1      40.270  31.196  29.982  1.00  0.00     0.031 C 
ATOM     39  C   UNL A   1      39.736  26.618  27.957  1.00  0.00     0.029 A 
ATOM     40  N   UNL A   1      41.738  27.137  28.805  1.00  0.00    -0.354 N 
ATOM     41  C   UNL A   1      42.507  31.078  30.428  1.00  0.00     0.074 A 
ATOM     42  C   UNL A   1      41.318  31.899  30.383  1.00  0.00     0.031 C 
ATOM     43  C   UNL A   1      40.537  25.556  27.774  1.00  0.00     0.029 A 
ATOM     44  C   UNL A   1      41.863  25.862  28.301  1.00  0.00     0.049 A 
ATOM     45  H   UNL A   1      42.478  27.618  29.240  1.00  0.00     0.167 HD
ATOM     46  C   UNL A   1      43.698  31.490  30.922  1.00  0.00     0.037 A 
ATOM     47  C   UNL A   1      42.927  25.038  28.267  1.00  0.00     0.037 A 
ATOM     48  C   UNL A   1      44.864  30.651  31.009  1.00  0.00     0.049 A 
ATOM     49  C   UNL A   1      44.227  25.498  28.867  1.00  0.00     0.074 A 
ATOM     50  C   UNL A   1      46.099  30.946  31.558  1.00  0.00     0.029 A 
ATOM     51  N   UNL A   1      44.934  29.347  30.541  1.00  0.00    -0.354 N 
ATOM     52  N   UNL A   1      44.518  26.657  29.411  1.00  0.00    -0.248 NA
ATOM     53  C   UNL A   1      45.340  24.540  28.859  1.00  0.00     0.031 C 
ATOM     54  C   UNL A   1      46.925  29.827  31.399  1.00  0.00     0.029 A 
ATOM     55  C   UNL A   1      46.193  28.825  30.782  1.00  0.00     0.049 A 
ATOM     56  H   UNL A   1      44.196  28.864  30.103  1.00  0.00     0.167 HD
ATOM     57  C   UNL A   1      45.840  26.559  29.828  1.00  0.00     0.074 A 
ATOM     58  C   UNL A   1      46.288  25.224  29.486  1.00  0.00     0.031 C 
ATOM     59  C   UNL A   1      46.614  27.490  30.439  1.00  0.00     0.037 A 
BRANCH  46  60
ATOM     60  C   UNL A   1      43.788  32.906  31.419  1.00  0.00     0.058 A 
ATOM     61  C   UNL A   1      43.450  33.245  32.739  1.00  0.00     0.135 A 
ATOM     62  C   UNL A   1      44.222  33.937  30.570  1.00  0.00     0.135 A 
ATOM     63  F   UNL A   1      43.012  32.300  33.588  1.00  0.00    -0.206 F 
ATOM     64  C   UNL A   1      43.499  34.558  33.189  1.00  0.00     0.059 A 
ATOM     65  C   UNL A   1      44.305  35.255  31.007  1.00  0.00     0.059 A 
ATOM     66  F   UNL A   1      44.556  33.669  29.298  1.00  0.00    -0.206 F 
ATOM     67  C   UNL A   1      43.924  35.559  32.314  1.00  0.00     0.060 A 
BRANCH  67  68
ATOM     68  S   UNL A   1      43.971  37.264  32.906  1.00  0.00     0.124 S 
ATOM     69  O   UNL A   1      45.278  37.308  33.555  1.00  0.00    -0.237 OA
ATOM     70  O   UNL A   1      43.852  38.029  31.670  1.00  0.00    -0.237 OA
ATOM     71  O   UNL A   1      42.821  37.342  33.802  1.00  0.00    -0.744 OA
ENDBRANCH  67  68
ENDBRANCH  46  60
BRANCH  47  72
ATOM     72  C   UNL A   1      42.796  23.682  27.674  1.00  0.00     0.058 A 
ATOM     73  C   UNL A   1      42.998  23.477  26.301  1.00  0.00     0.135 A 
ATOM     74  C   UNL A   1      42.492  22.564  28.465  1.00  0.00     0.135 A 
ATOM     75  F   UNL A   1      43.288  24.516  25.504  1.00  0.00    -0.206 F 
ATOM     76  C   UNL A   1      42.890  22.213  25.729  1.00  0.00     0.059 A 
ATOM     77  C   UNL A   1      42.398  21.287  27.920  1.00  0.00     0.059 A 
ATOM     78  F   UNL A   1      42.308  22.706  29.787  1.00  0.00    -0.206 F 
ATOM     79  C   UNL A   1      42.591  21.123  26.548  1.00  0.00     0.060 A 
BRANCH  79  80
ATOM     80  S   UNL A   1      42.506  19.478  25.806  1.00  0.00     0.124 S 
ATOM     81  O   UNL A   1      42.911  18.633  26.922  1.00  0.00    -0.237 OA
ATOM     82  O   UNL A   1      41.103  19.390  25.413  1.00  0.00    -0.237 OA
ATOM     83  O   UNL A   1      43.453  19.563  24.699  1.00  0.00    -0.744 OA
ENDBRANCH  79  80
ENDBRANCH  47  72
BRANCH  59  84
ATOM     84  C   UNL A   1      48.013  27.087  30.803  1.00  0.00     0.058 A 
ATOM     85  C   UNL A   1      48.304  26.464  32.025  1.00  0.00     0.135 A 
ATOM     86  C   UNL A   1      49.067  27.278  29.893  1.00  0.00     0.135 A 
ATOM     87  F   UNL A   1      47.332  26.265  32.929  1.00  0.00    -0.206 F 
ATOM     88  C   UNL A   1      49.596  26.060  32.345  1.00  0.00     0.059 A 
ATOM     89  C   UNL A   1      50.361  26.862  30.183  1.00  0.00     0.059 A 
ATOM     90  F   UNL A   1      48.837  27.861  28.706  1.00  0.00    -0.206 F 
ATOM     91  C   UNL A   1      50.619  26.264  31.416  1.00  0.00     0.060 A 
BRANCH  91  92
ATOM     92  S   UNL A   1      52.285  25.703  31.823  1.00  0.00     0.124 S 
ATOM     93  O   UNL A   1      53.008  26.016  30.595  1.00  0.00    -0.237 OA
ATOM     94  O   UNL A   1      52.620  26.525  32.983  1.00  0.00    -0.237 OA
ATOM     95  O   UNL A   1      52.106  24.282  32.103  1.00  0.00    -0.744 OA
ENDBRANCH  91  92
ENDBRANCH  59  84
ENDBRANCH  33  34
ENDBRANCH  25  28
ENDBRANCH  23  24
ENDBRANCH   1  23
TORSDOF 18
ENDMDL
MODEL 3
REMARK VINA RESULT:     -10.2      2.862      3.796
REMARK SMILES CC[NH2+][C@]1(C(=O)NCCCCNC(=O)c2ccc(-c3c4nc(c(-c5c(F)cc(S(=O)(=O)[O-])cc5F)c5ccc([nH]5)c(-c5c(F)cc(S(=O)(=O)[O-])cc5F)c5nc(c(-c6c(F)cc(S(=O)(=O)[O-])cc6F)c6ccc3[nH]6)C=C5)C=C4)cc2)CC[C@H](SC2COC2)C1
REMARK SMILES IDX 10 1 9 2 8 3 7 4 5 5 6 6 4 8 81 9 89 10 82 11 83 12 3 13
REMARK SMILES IDX 2 16 1 17 84 18 85 19 86 20 88 21 87 22 11 23 12 24 13 25
REMARK SMILES IDX 14 27 15 28 16 29 80 30 17 31 79 32 18 33 19 34 20 35 73 36
REMARK SMILES IDX 21 37 78 38 72 39 74 40 22 41 77 42 71 43 70 44 23 46 57 47
REMARK SMILES IDX 36 48 56 49 37 50 40 51 55 52 75 53 38 54 39 55 54 57 76 58
REMARK SMILES IDX 41 59 24 60 25 61 34 62 26 63 27 64 33 65 35 66 28 67 29 68
REMARK SMILES IDX 30 69 31 70 32 71 58 72 59 73 68 74 60 75 61 76 67 77 69 78
REMARK SMILES IDX 62 79 63 80 64 81 65 82 66 83 42 84 43 85 52 86 44 87 45 88
REMARK SMILES IDX 51 89 53 90 46 91 47 92 48 93 49 94 50 95
REMARK H PARENT 7 7 3 14 3 15 12 26 74 45 40 56
REMARK Flexibility Score: inf
ROOT
ATOM      1  C   UNL A   1      33.522  28.318  25.604  1.00  0.00     0.023 C 
ENDROOT
BRANCH   1   2
ATOM      2  C   UNL A   1      32.270  27.593  25.126  1.00  0.00     0.023 C 
BRANCH   2   3
ATOM      3  C   UNL A   1      32.421  26.080  24.965  1.00  0.00     0.116 C 
BRANCH   3   4
ATOM      4  N   UNL A   1      32.695  25.712  23.586  1.00  0.00    -0.351 N 
ATOM      5  C   UNL A   1      33.111  24.515  23.065  1.00  0.00     0.281 C 
ATOM      6  O   UNL A   1      33.401  24.494  21.864  1.00  0.00    -0.268 OA
ATOM      7  H   UNL A   1      32.564  26.432  22.927  1.00  0.00     0.163 HD
BRANCH   5   8
ATOM      8  C   UNL A   1      33.136  23.222  23.928  1.00  0.00     0.176 C 
ATOM      9  C   UNL A   1      31.853  23.172  24.780  1.00  0.00     0.080 C 
ATOM     10  C   UNL A   1      32.923  21.933  23.096  1.00  0.00     0.093 C 
ATOM     11  C   UNL A   1      31.652  21.701  25.145  1.00  0.00     0.022 C 
ATOM     12  C   UNL A   1      32.401  20.872  24.090  1.00  0.00     0.054 C 
BRANCH   8  13
ATOM     13  N   UNL A   1      34.330  23.147  24.807  1.00  0.00    -0.334 N 
ATOM     14  H   UNL A   1      34.296  23.930  25.460  1.00  0.00     0.347 HD
ATOM     15  H   UNL A   1      34.292  22.238  25.270  1.00  0.00     0.347 HD
BRANCH  13  16
ATOM     16  C   UNL A   1      35.613  23.199  24.099  1.00  0.00     0.257 C 
ATOM     17  C   UNL A   1      36.703  23.523  25.115  1.00  0.00     0.071 C 
ENDBRANCH  13  16
ENDBRANCH   8  13
BRANCH  12  18
ATOM     18  S   UNL A   1      33.818  19.953  24.792  1.00  0.00    -0.150 SA
BRANCH  18  19
ATOM     19  C   UNL A   1      33.500  18.207  24.468  1.00  0.00     0.098 C 
ATOM     20  C   UNL A   1      32.853  17.804  23.148  1.00  0.00     0.177 C 
ATOM     21  C   UNL A   1      34.668  17.348  23.999  1.00  0.00     0.177 C 
ATOM     22  O   UNL A   1      33.822  16.728  22.986  1.00  0.00    -0.379 OA
ENDBRANCH  18  19
ENDBRANCH  12  18
ENDBRANCH   5   8
ENDBRANCH   3   4
ENDBRANCH   2   3
ENDBRANCH   1   2
BRANCH   1  23
ATOM     23  C   UNL A   1      33.633  28.459  27.112  1.00  0.00     0.116 C 
BRANCH  23  24
ATOM     24  N   UNL A   1      33.526  29.839  27.570  1.00  0.00    -0.352 N 
ATOM     25  C   UNL A   1      34.471  30.612  28.199  1.00  0.00     0.251 C 
ATOM     26  H   UNL A   1      32.658  30.275  27.406  1.00  0.00     0.163 HD
ATOM     27  O   UNL A   1      34.178  31.725  28.626  1.00  0.00    -0.269 OA
BRANCH  25  28
ATOM     28  C   UNL A   1      35.831  30.069  28.392  1.00  0.00     0.039 A 
ATOM     29  C   UNL A   1      36.737  30.116  27.330  1.00  0.00     0.014 A 
ATOM     30  C   UNL A   1      36.223  29.571  29.636  1.00  0.00     0.014 A 
ATOM     31  C   UNL A   1      38.062  29.734  27.540  1.00  0.00     0.010 A 
ATOM     32  C   UNL A   1      37.561  29.277  29.867  1.00  0.00     0.010 A 
ATOM     33  C   UNL A   1      38.493  29.352  28.822  1.00  0.00    -0.014 A 
BRANCH  33  34
ATOM     34  C   UNL A   1      39.912  29.014  29.096  1.00  0.00     0.031 A 
ATOM     35  C   UNL A   1      40.825  30.056  29.684  1.00  0.00     0.074 A 
ATOM     36  C   UNL A   1      40.395  27.809  28.736  1.00  0.00     0.049 A 
ATOM     37  N   UNL A   1      42.113  29.999  29.899  1.00  0.00    -0.248 NA
ATOM     38  C   UNL A   1      40.213  31.346  30.042  1.00  0.00     0.031 C 
ATOM     39  C   UNL A   1      39.623  26.741  28.095  1.00  0.00     0.029 A 
ATOM     40  N   UNL A   1      41.658  27.284  28.845  1.00  0.00    -0.354 N 
ATOM     41  C   UNL A   1      42.469  31.250  30.387  1.00  0.00     0.074 A 
ATOM     42  C   UNL A   1      41.273  32.062  30.387  1.00  0.00     0.031 C 
ATOM     43  C   UNL A   1      40.424  25.683  27.888  1.00  0.00     0.029 A 
ATOM     44  C   UNL A   1      41.770  26.005  28.350  1.00  0.00     0.049 A 
ATOM     45  H   UNL A   1      42.413  27.776  29.240  1.00  0.00     0.167 HD
ATOM     46  C   UNL A   1      43.678  31.677  30.821  1.00  0.00     0.037 A 
ATOM     47  C   UNL A   1      42.838  25.189  28.276  1.00  0.00     0.037 A 
ATOM     48  C   UNL A   1      44.854  30.847  30.863  1.00  0.00     0.049 A 
ATOM     49  C   UNL A   1      44.160  25.665  28.811  1.00  0.00     0.074 A 
ATOM     50  C   UNL A   1      46.110  31.158  31.352  1.00  0.00     0.029 A 
ATOM     51  N   UNL A   1      44.912  29.538  30.407  1.00  0.00    -0.354 N 
ATOM     52  N   UNL A   1      44.466  26.833  29.328  1.00  0.00    -0.248 NA
ATOM     53  C   UNL A   1      45.279  24.716  28.763  1.00  0.00     0.031 C 
ATOM     54  C   UNL A   1      46.936  30.043  31.168  1.00  0.00     0.029 A 
ATOM     55  C   UNL A   1      46.185  29.028  30.596  1.00  0.00     0.049 A 
ATOM     56  H   UNL A   1      44.159  29.045  30.009  1.00  0.00     0.167 HD
ATOM     57  C   UNL A   1      45.807  26.749  29.685  1.00  0.00     0.074 A 
ATOM     58  C   UNL A   1      46.249  25.414  29.338  1.00  0.00     0.031 C 
ATOM     59  C   UNL A   1      46.601  27.693  30.250  1.00  0.00     0.037 A 
BRANCH  46  60
ATOM     60  C   UNL A   1      43.779  33.099  31.297  1.00  0.00     0.058 A 
ATOM     61  C   UNL A   1      44.114  34.144  30.421  1.00  0.00     0.135 A 
ATOM     62  C   UNL A   1      43.535  33.423  32.641  1.00  0.00     0.135 A 
ATOM     63  F   UNL A   1      44.375  33.887  29.129  1.00  0.00    -0.206 F 
ATOM     64  C   UNL A   1      44.242  35.454  30.868  1.00  0.00     0.059 A 
ATOM     65  C   UNL A   1      43.631  34.732  33.104  1.00  0.00     0.059 A 
ATOM     66  F   UNL A   1      43.213  32.462  33.521  1.00  0.00    -0.206 F 
ATOM     67  C   UNL A   1      44.003  35.738  32.213  1.00  0.00     0.060 A 
BRANCH  67  68
ATOM     68  S   UNL A   1      44.185  37.442  32.783  1.00  0.00     0.124 S 
ATOM     69  O   UNL A   1      43.998  38.184  31.540  1.00  0.00    -0.237 OA
ATOM     70  O   UNL A   1      43.109  37.563  33.760  1.00  0.00    -0.237 OA
ATOM     71  O   UNL A   1      45.536  37.470  33.335  1.00  0.00    -0.744 OA
ENDBRANCH  67  68
ENDBRANCH  46  60
BRANCH  47  72
ATOM     72  C   UNL A   1      42.690  23.825  27.705  1.00  0.00     0.058 A 
ATOM     73  C   UNL A   1      42.786  23.612  26.322  1.00  0.00     0.135 A 
ATOM     74  C   UNL A   1      42.477  22.708  28.526  1.00  0.00     0.135 A 
ATOM     75  F   UNL A   1      42.987  24.650  25.497  1.00  0.00    -0.206 F 
ATOM     76  C   UNL A   1      42.662  22.341  25.770  1.00  0.00     0.059 A 
ATOM     77  C   UNL A   1      42.369  21.424  27.999  1.00  0.00     0.059 A 
ATOM     78  F   UNL A   1      42.396  22.857  29.857  1.00  0.00    -0.206 F 
ATOM     79  C   UNL A   1      42.454  21.252  26.617  1.00  0.00     0.060 A 
BRANCH  79  80
ATOM     80  S   UNL A   1      42.348  19.599  25.896  1.00  0.00     0.124 S 
ATOM     81  O   UNL A   1      40.947  19.543  25.498  1.00  0.00    -0.237 OA
ATOM     82  O   UNL A   1      43.320  19.674  24.810  1.00  0.00    -0.237 OA
ATOM     83  O   UNL A   1      42.726  18.728  27.004  1.00  0.00    -0.744 OA
ENDBRANCH  79  80
ENDBRANCH  47  72
BRANCH  59  84
ATOM     84  C   UNL A   1      48.018  27.305  30.554  1.00  0.00     0.058 A 
ATOM     85  C   UNL A   1      48.361  26.649  31.745  1.00  0.00     0.135 A 
ATOM     86  C   UNL A   1      49.037  27.543  29.616  1.00  0.00     0.135 A 
ATOM     87  F   UNL A   1      47.423  26.404  32.674  1.00  0.00    -0.206 F 
ATOM     88  C   UNL A   1      49.670  26.259  32.008  1.00  0.00     0.059 A 
ATOM     89  C   UNL A   1      50.347  27.143  29.848  1.00  0.00     0.059 A 
ATOM     90  F   UNL A   1      48.757  28.158  28.456  1.00  0.00    -0.206 F 
ATOM     91  C   UNL A   1      50.657  26.510  31.052  1.00  0.00     0.060 A 
BRANCH  91  92
ATOM     92  S   UNL A   1      52.346  25.968  31.386  1.00  0.00     0.124 S 
ATOM     93  O   UNL A   1      52.124  24.633  31.929  1.00  0.00    -0.237 OA
ATOM     94  O   UNL A   1      52.960  26.020  30.062  1.00  0.00    -0.237 OA
ATOM     95  O   UNL A   1      52.839  26.961  32.335  1.00  0.00    -0.744 OA
ENDBRANCH  91  92
ENDBRANCH  59  84
ENDBRANCH  33  34
ENDBRANCH  25  28
ENDBRANCH  23  24
ENDBRANCH   1  23
TORSDOF 18
ENDMDL
