MODEL 1
REMARK VINA RESULT:     -11.4      0.000      0.000
REMARK SMILES O=C(NCCCCNC(=O)[C@@H]1CC[C@H](CNC(=O)C2CCOCC2)O1)c1ccc(-c2c3nc(c(-c4c(F)cc(S(=O)(=O)[O-])cc4F)c4ccc([nH]4)c(-c4c(F)cc(S(=O)(=O)[O-])cc4F)c4nc(c(-c5c(F)cc(S(=O)(=O)[O-])cc5F)c5ccc2[nH]5)C=C4)C=C3)cc1
REMARK SMILES IDX 5 1 4 2 3 3 1 4 2 5 26 7 27 8 91 9 28 10 90 11 29 12 30 13
REMARK SMILES IDX 31 14 84 15 32 16 89 17 83 18 85 19 33 20 88 21 82 22 81 23
REMARK SMILES IDX 34 25 68 26 47 27 67 28 48 29 51 30 66 31 86 32 49 33 50 34
REMARK SMILES IDX 65 36 87 37 52 38 35 39 36 40 45 41 37 42 38 43 44 44 46 45
REMARK SMILES IDX 39 46 40 47 41 48 42 49 43 50 69 51 70 52 79 53 71 54 72 55
REMARK SMILES IDX 78 56 80 57 73 58 74 59 75 60 76 61 77 62 53 63 54 64 63 65
REMARK SMILES IDX 55 66 56 67 62 68 64 69 57 70 58 71 59 72 60 73 61 74 6 75
REMARK SMILES IDX 7 76 8 77 9 78 10 80 11 81 12 82 25 83 13 84 14 85 15 86
REMARK SMILES IDX 16 87 17 88 18 90 19 91 20 92 24 93 21 94 23 95 22 96
REMARK H PARENT 3 6 85 24 51 35 8 79 16 89
REMARK Flexibility Score: inf
ROOT
ATOM      1  C   UNL A   1      33.946  28.784  27.076  1.00  0.00     0.023 C 
ENDROOT
BRANCH   1   2
ATOM      2  C   UNL A   1      35.294  29.356  27.496  1.00  0.00     0.116 C 
BRANCH   2   3
ATOM      3  N   UNL A   1      35.222  30.124  28.730  1.00  0.00    -0.352 N 
ATOM      4  O   UNL A   1      35.928  30.933  30.709  1.00  0.00    -0.269 OA
ATOM      5  C   UNL A   1      36.210  30.388  29.650  1.00  0.00     0.251 C 
ATOM      6  H   UNL A   1      34.340  30.508  28.936  1.00  0.00     0.163 HD
BRANCH   5   7
ATOM      7  C   UNL A   1      37.604  29.988  29.358  1.00  0.00     0.039 A 
ATOM      8  C   UNL A   1      38.454  29.578  30.388  1.00  0.00     0.014 A 
ATOM      9  C   UNL A   1      38.063  30.027  28.039  1.00  0.00     0.014 A 
ATOM     10  C   UNL A   1      39.798  29.345  30.121  1.00  0.00     0.010 A 
ATOM     11  C   UNL A   1      39.394  29.706  27.761  1.00  0.00     0.010 A 
ATOM     12  C   UNL A   1      40.278  29.386  28.803  1.00  0.00    -0.014 A 
BRANCH  12  13
ATOM     13  C   UNL A   1      41.684  28.999  28.529  1.00  0.00     0.031 A 
ATOM     14  C   UNL A   1      42.797  30.006  28.586  1.00  0.00     0.074 A 
ATOM     15  C   UNL A   1      41.941  27.711  28.225  1.00  0.00     0.049 A 
ATOM     16  N   UNL A   1      44.071  29.832  28.345  1.00  0.00    -0.248 NA
ATOM     17  C   UNL A   1      42.440  31.386  28.949  1.00  0.00     0.031 C 
ATOM     18  C   UNL A   1      40.930  26.654  28.123  1.00  0.00     0.029 A 
ATOM     19  N   UNL A   1      43.119  27.068  27.948  1.00  0.00    -0.354 N 
ATOM     20  C   UNL A   1      44.665  31.079  28.500  1.00  0.00     0.074 A 
ATOM     21  C   UNL A   1      43.610  32.007  28.847  1.00  0.00     0.031 C 
ATOM     22  C   UNL A   1      41.533  25.492  27.832  1.00  0.00     0.029 A 
ATOM     23  C   UNL A   1      42.961  25.733  27.664  1.00  0.00     0.049 A 
ATOM     24  H   UNL A   1      43.994  27.520  27.954  1.00  0.00     0.167 HD
ATOM     25  C   UNL A   1      45.971  31.412  28.364  1.00  0.00     0.037 A 
ATOM     26  C   UNL A   1      43.857  24.808  27.275  1.00  0.00     0.037 A 
ATOM     27  C   UNL A   1      47.015  30.471  28.048  1.00  0.00     0.049 A 
ATOM     28  C   UNL A   1      45.294  25.210  27.118  1.00  0.00     0.074 A 
ATOM     29  C   UNL A   1      48.378  30.695  27.970  1.00  0.00     0.029 A 
ATOM     30  N   UNL A   1      46.813  29.131  27.748  1.00  0.00    -0.354 N 
ATOM     31  N   UNL A   1      45.844  26.382  27.327  1.00  0.00    -0.248 NA
ATOM     32  C   UNL A   1      46.228  24.174  26.662  1.00  0.00     0.031 C 
ATOM     33  C   UNL A   1      48.996  29.502  27.575  1.00  0.00     0.029 A 
ATOM     34  C   UNL A   1      48.022  28.525  27.448  1.00  0.00     0.049 A 
ATOM     35  H   UNL A   1      45.939  28.678  27.747  1.00  0.00     0.167 HD
ATOM     36  C   UNL A   1      47.191  26.223  27.031  1.00  0.00     0.074 A 
ATOM     37  C   UNL A   1      47.376  24.838  26.650  1.00  0.00     0.031 C 
ATOM     38  C   UNL A   1      48.184  27.146  27.064  1.00  0.00     0.037 A 
BRANCH  25  39
ATOM     39  C   UNL A   1      46.358  32.854  28.538  1.00  0.00     0.058 A 
ATOM     40  C   UNL A   1      46.765  33.369  29.778  1.00  0.00     0.135 A 
ATOM     41  C   UNL A   1      46.401  33.713  27.427  1.00  0.00     0.135 A 
ATOM     42  F   UNL A   1      46.732  32.594  30.874  1.00  0.00    -0.206 F 
ATOM     43  C   UNL A   1      47.189  34.687  29.914  1.00  0.00     0.059 A 
ATOM     44  C   UNL A   1      46.840  35.030  27.536  1.00  0.00     0.059 A 
ATOM     45  F   UNL A   1      46.022  33.272  26.217  1.00  0.00    -0.206 F 
ATOM     46  C   UNL A   1      47.225  35.511  28.786  1.00  0.00     0.060 A 
BRANCH  46  47
ATOM     47  S   UNL A   1      47.803  37.211  28.974  1.00  0.00     0.124 S 
ATOM     48  O   UNL A   1      48.733  37.327  27.854  1.00  0.00    -0.237 OA
ATOM     49  O   UNL A   1      46.567  37.978  28.851  1.00  0.00    -0.237 OA
ATOM     50  O   UNL A   1      48.413  37.219  30.300  1.00  0.00    -0.744 OA
ENDBRANCH  46  47
ENDBRANCH  25  39
BRANCH  26  51
ATOM     51  C   UNL A   1      43.403  23.427  26.970  1.00  0.00     0.058 A 
ATOM     52  C   UNL A   1      43.258  22.985  25.649  1.00  0.00     0.135 A 
ATOM     53  C   UNL A   1      43.138  22.511  28.002  1.00  0.00     0.135 A 
ATOM     54  F   UNL A   1      43.499  23.824  24.631  1.00  0.00    -0.206 F 
ATOM     55  C   UNL A   1      42.855  21.686  25.358  1.00  0.00     0.059 A 
ATOM     56  C   UNL A   1      42.758  21.201  27.736  1.00  0.00     0.059 A 
ATOM     57  F   UNL A   1      43.282  22.882  29.284  1.00  0.00    -0.206 F 
ATOM     58  C   UNL A   1      42.609  20.800  26.410  1.00  0.00     0.060 A 
BRANCH  58  59
ATOM     59  S   UNL A   1      42.135  19.102  26.027  1.00  0.00     0.124 S 
ATOM     60  O   UNL A   1      42.516  18.409  27.252  1.00  0.00    -0.237 OA
ATOM     61  O   UNL A   1      40.701  19.227  25.783  1.00  0.00    -0.237 OA
ATOM     62  O   UNL A   1      42.937  18.790  24.847  1.00  0.00    -0.744 OA
ENDBRANCH  58  59
ENDBRANCH  26  51
BRANCH  38  63
ATOM     63  C   UNL A   1      49.559  26.683  26.679  1.00  0.00     0.058 A 
ATOM     64  C   UNL A   1      50.427  26.118  27.624  1.00  0.00     0.135 A 
ATOM     65  C   UNL A   1      49.991  26.755  25.345  1.00  0.00     0.135 A 
ATOM     66  F   UNL A   1      50.063  26.038  28.914  1.00  0.00    -0.206 F 
ATOM     67  C   UNL A   1      51.686  25.649  27.263  1.00  0.00     0.059 A 
ATOM     68  C   UNL A   1      51.236  26.273  24.958  1.00  0.00     0.059 A 
ATOM     69  F   UNL A   1      49.192  27.284  24.404  1.00  0.00    -0.206 F 
ATOM     70  C   UNL A   1      52.080  25.729  25.925  1.00  0.00     0.060 A 
BRANCH  70  71
ATOM     71  S   UNL A   1      53.696  25.074  25.458  1.00  0.00     0.124 S 
ATOM     72  O   UNL A   1      53.388  23.665  25.237  1.00  0.00    -0.237 OA
ATOM     73  O   UNL A   1      54.015  25.849  24.264  1.00  0.00    -0.237 OA
ATOM     74  O   UNL A   1      54.527  25.360  26.624  1.00  0.00    -0.744 OA
ENDBRANCH  70  71
ENDBRANCH  38  63
ENDBRANCH  12  13
ENDBRANCH   5   7
ENDBRANCH   2   3
ENDBRANCH   1   2
BRANCH   1  75
ATOM     75  C   UNL A   1      32.759  29.729  27.238  1.00  0.00     0.023 C 
BRANCH  75  76
ATOM     76  C   UNL A   1      32.185  30.290  25.939  1.00  0.00     0.116 C 
BRANCH  76  77
ATOM     77  N   UNL A   1      32.576  29.543  24.764  1.00  0.00    -0.354 N 
ATOM     78  C   UNL A   1      31.964  28.517  24.108  1.00  0.00     0.249 C 
ATOM     79  H   UNL A   1      33.433  29.824  24.369  1.00  0.00     0.163 HD
ATOM     80  O   UNL A   1      32.440  28.195  23.014  1.00  0.00    -0.272 OA
BRANCH  78  81
ATOM     81  C   UNL A   1      30.771  27.734  24.693  1.00  0.00     0.207 C 
ATOM     82  C   UNL A   1      31.010  26.949  25.967  1.00  0.00     0.045 C 
ATOM     83  O   UNL A   1      30.206  26.863  23.716  1.00  0.00    -0.363 OA
ATOM     84  C   UNL A   1      30.576  25.530  25.664  1.00  0.00     0.037 C 
ATOM     85  C   UNL A   1      30.038  25.544  24.242  1.00  0.00     0.138 C 
BRANCH  85  86
ATOM     86  C   UNL A   1      30.726  24.594  23.257  1.00  0.00     0.147 C 
BRANCH  86  87
ATOM     87  N   UNL A   1      31.688  25.206  22.368  1.00  0.00    -0.353 N 
ATOM     88  C   UNL A   1      33.049  25.078  22.379  1.00  0.00     0.223 C 
ATOM     89  H   UNL A   1      31.317  25.789  21.667  1.00  0.00     0.163 HD
ATOM     90  O   UNL A   1      33.684  25.577  21.452  1.00  0.00    -0.275 OA
BRANCH  88  91
ATOM     91  C   UNL A   1      33.714  24.354  23.543  1.00  0.00     0.083 C 
ATOM     92  C   UNL A   1      34.164  25.343  24.624  1.00  0.00     0.042 C 
ATOM     93  C   UNL A   1      34.926  23.525  23.097  1.00  0.00     0.042 C 
ATOM     94  C   UNL A   1      34.852  24.600  25.759  1.00  0.00     0.161 C 
ATOM     95  C   UNL A   1      35.574  22.865  24.308  1.00  0.00     0.161 C 
ATOM     96  O   UNL A   1      35.958  23.844  25.272  1.00  0.00    -0.381 OA
ENDBRANCH  88  91
ENDBRANCH  86  87
ENDBRANCH  85  86
ENDBRANCH  78  81
ENDBRANCH  76  77
ENDBRANCH  75  76
ENDBRANCH   1  75
TORSDOF 17
ENDMDL
MODEL 2
REMARK VINA RESULT:     -11.2      3.119      8.921
REMARK SMILES O=C(NCCCCNC(=O)[C@@H]1CC[C@H](CNC(=O)C2CCOCC2)O1)c1ccc(-c2c3nc(c(-c4c(F)cc(S(=O)(=O)[O-])cc4F)c4ccc([nH]4)c(-c4c(F)cc(S(=O)(=O)[O-])cc4F)c4nc(c(-c5c(F)cc(S(=O)(=O)[O-])cc5F)c5ccc2[nH]5)C=C4)C=C3)cc1
REMARK SMILES IDX 5 1 4 2 3 3 1 4 2 5 26 7 27 8 91 9 28 10 90 11 29 12 30 13
REMARK SMILES IDX 31 14 84 15 32 16 89 17 83 18 85 19 33 20 88 21 82 22 81 23
REMARK SMILES IDX 34 25 68 26 47 27 67 28 48 29 51 30 66 31 86 32 49 33 50 34
REMARK SMILES IDX 65 36 87 37 52 38 35 39 36 40 45 41 37 42 38 43 44 44 46 45
REMARK SMILES IDX 39 46 40 47 41 48 42 49 43 50 69 51 70 52 79 53 71 54 72 55
REMARK SMILES IDX 78 56 80 57 73 58 74 59 75 60 76 61 77 62 53 63 54 64 63 65
REMARK SMILES IDX 55 66 56 67 62 68 64 69 57 70 58 71 59 72 60 73 61 74 6 75
REMARK SMILES IDX 7 76 8 77 9 78 10 80 11 81 12 82 25 83 13 84 14 85 15 86
REMARK SMILES IDX 16 87 17 88 18 90 19 91 20 92 24 93 21 94 23 95 22 96
REMARK H PARENT 3 6 85 24 51 35 8 79 16 89
REMARK Flexibility Score: inf
ROOT
ATOM      1  C   UNL A   1      38.294  19.721  25.132  1.00  0.00     0.023 C 
ENDROOT
BRANCH   1   2
ATOM      2  C   UNL A   1      39.406  20.135  26.086  1.00  0.00     0.116 C 
BRANCH   2   3
ATOM      3  N   UNL A   1      40.505  19.183  26.121  1.00  0.00    -0.352 N 
ATOM      4  O   UNL A   1      42.647  18.491  26.064  1.00  0.00    -0.269 OA
ATOM      5  C   UNL A   1      41.859  19.418  26.193  1.00  0.00     0.251 C 
ATOM      6  H   UNL A   1      40.243  18.235  26.087  1.00  0.00     0.163 HD
BRANCH   5   7
ATOM      7  C   UNL A   1      42.350  20.798  26.404  1.00  0.00     0.039 A 
ATOM      8  C   UNL A   1      42.584  21.641  25.315  1.00  0.00     0.014 A 
ATOM      9  C   UNL A   1      42.579  21.248  27.706  1.00  0.00     0.014 A 
ATOM     10  C   UNL A   1      43.181  22.879  25.518  1.00  0.00     0.010 A 
ATOM     11  C   UNL A   1      43.096  22.530  27.913  1.00  0.00     0.010 A 
ATOM     12  C   UNL A   1      43.423  23.346  26.820  1.00  0.00    -0.014 A 
BRANCH  12  13
ATOM     13  C   UNL A   1      43.933  24.726  27.014  1.00  0.00     0.031 A 
ATOM     14  C   UNL A   1      45.372  25.072  26.754  1.00  0.00     0.074 A 
ATOM     15  C   UNL A   1      43.067  25.670  27.432  1.00  0.00     0.049 A 
ATOM     16  N   UNL A   1      45.977  26.222  26.903  1.00  0.00    -0.248 NA
ATOM     17  C   UNL A   1      46.249  23.992  26.275  1.00  0.00     0.031 C 
ATOM     18  C   UNL A   1      41.651  25.437  27.733  1.00  0.00     0.029 A 
ATOM     19  N   UNL A   1      43.239  27.007  27.676  1.00  0.00    -0.354 N 
ATOM     20  C   UNL A   1      47.307  26.004  26.565  1.00  0.00     0.074 A 
ATOM     21  C   UNL A   1      47.425  24.606  26.210  1.00  0.00     0.031 C 
ATOM     22  C   UNL A   1      41.079  26.595  28.096  1.00  0.00     0.029 A 
ATOM     23  C   UNL A   1      42.099  27.636  28.115  1.00  0.00     0.049 A 
ATOM     24  H   UNL A   1      44.098  27.473  27.547  1.00  0.00     0.167 HD
ATOM     25  C   UNL A   1      48.329  26.893  26.552  1.00  0.00     0.037 A 
ATOM     26  C   UNL A   1      41.899  28.902  28.524  1.00  0.00     0.037 A 
ATOM     27  C   UNL A   1      48.188  28.288  26.879  1.00  0.00     0.049 A 
ATOM     28  C   UNL A   1      43.054  29.860  28.515  1.00  0.00     0.074 A 
ATOM     29  C   UNL A   1      49.146  29.286  26.817  1.00  0.00     0.029 A 
ATOM     30  N   UNL A   1      47.022  28.884  27.338  1.00  0.00    -0.354 N 
ATOM     31  N   UNL A   1      44.291  29.647  28.135  1.00  0.00    -0.248 NA
ATOM     32  C   UNL A   1      42.794  31.221  28.999  1.00  0.00     0.031 C 
ATOM     33  C   UNL A   1      48.572  30.474  27.284  1.00  0.00     0.029 A 
ATOM     34  C   UNL A   1      47.246  30.226  27.598  1.00  0.00     0.049 A 
ATOM     35  H   UNL A   1      46.162  28.420  27.462  1.00  0.00     0.167 HD
ATOM     36  C   UNL A   1      44.957  30.850  28.331  1.00  0.00     0.074 A 
ATOM     37  C   UNL A   1      43.981  31.790  28.841  1.00  0.00     0.031 C 
ATOM     38  C   UNL A   1      46.262  31.144  28.114  1.00  0.00     0.037 A 
BRANCH  25  39
ATOM     39  C   UNL A   1      49.700  26.393  26.192  1.00  0.00     0.058 A 
ATOM     40  C   UNL A   1      50.223  26.530  24.897  1.00  0.00     0.135 A 
ATOM     41  C   UNL A   1      50.534  25.841  27.180  1.00  0.00     0.135 A 
ATOM     42  F   UNL A   1      49.465  27.040  23.914  1.00  0.00    -0.206 F 
ATOM     43  C   UNL A   1      51.520  26.129  24.591  1.00  0.00     0.059 A 
ATOM     44  C   UNL A   1      51.840  25.451  26.899  1.00  0.00     0.059 A 
ATOM     45  F   UNL A   1      50.083  25.686  28.435  1.00  0.00    -0.206 F 
ATOM     46  C   UNL A   1      52.323  25.591  25.600  1.00  0.00     0.060 A 
BRANCH  46  47
ATOM     47  S   UNL A   1      54.011  25.100  25.192  1.00  0.00     0.124 S 
ATOM     48  O   UNL A   1      53.859  23.659  25.013  1.00  0.00    -0.237 OA
ATOM     49  O   UNL A   1      54.276  25.864  23.976  1.00  0.00    -0.237 OA
ATOM     50  O   UNL A   1      54.778  25.508  26.365  1.00  0.00    -0.744 OA
ENDBRANCH  46  47
ENDBRANCH  25  39
BRANCH  26  51
ATOM     51  C   UNL A   1      40.559  29.313  29.014  1.00  0.00     0.058 A 
ATOM     52  C   UNL A   1      40.310  29.503  30.379  1.00  0.00     0.135 A 
ATOM     53  C   UNL A   1      39.507  29.558  28.116  1.00  0.00     0.135 A 
ATOM     54  F   UNL A   1      41.284  29.280  31.275  1.00  0.00    -0.206 F 
ATOM     55  C   UNL A   1      39.063  29.909  30.842  1.00  0.00     0.059 A 
ATOM     56  C   UNL A   1      38.260  29.989  28.551  1.00  0.00     0.059 A 
ATOM     57  F   UNL A   1      39.702  29.410  26.795  1.00  0.00    -0.206 F 
ATOM     58  C   UNL A   1      38.044  30.152  29.918  1.00  0.00     0.060 A 
BRANCH  58  59
ATOM     59  S   UNL A   1      36.442  30.728  30.518  1.00  0.00     0.124 S 
ATOM     60  O   UNL A   1      36.801  32.003  31.128  1.00  0.00    -0.237 OA
ATOM     61  O   UNL A   1      35.659  30.806  29.288  1.00  0.00    -0.237 OA
ATOM     62  O   UNL A   1      36.035  29.675  31.444  1.00  0.00    -0.744 OA
ENDBRANCH  58  59
ENDBRANCH  26  51
BRANCH  38  63
ATOM     63  C   UNL A   1      46.707  32.543  28.428  1.00  0.00     0.058 A 
ATOM     64  C   UNL A   1      47.242  32.872  29.683  1.00  0.00     0.135 A 
ATOM     65  C   UNL A   1      46.650  33.548  27.451  1.00  0.00     0.135 A 
ATOM     66  F   UNL A   1      47.307  31.947  30.654  1.00  0.00    -0.206 F 
ATOM     67  C   UNL A   1      47.694  34.157  29.963  1.00  0.00     0.059 A 
ATOM     68  C   UNL A   1      47.117  34.834  27.702  1.00  0.00     0.059 A 
ATOM     69  F   UNL A   1      46.151  33.279  26.233  1.00  0.00    -0.206 F 
ATOM     70  C   UNL A   1      47.630  35.130  28.964  1.00  0.00     0.060 A 
BRANCH  70  71
ATOM     71  S   UNL A   1      48.265  36.782  29.323  1.00  0.00     0.124 S 
ATOM     72  O   UNL A   1      47.037  37.505  29.638  1.00  0.00    -0.237 OA
ATOM     73  O   UNL A   1      49.162  36.536  30.447  1.00  0.00    -0.237 OA
ATOM     74  O   UNL A   1      48.921  37.170  28.079  1.00  0.00    -0.744 OA
ENDBRANCH  70  71
ENDBRANCH  38  63
ENDBRANCH  12  13
ENDBRANCH   5   7
ENDBRANCH   2   3
ENDBRANCH   1   2
BRANCH   1  75
ATOM     75  C   UNL A   1      37.408  20.858  24.632  1.00  0.00     0.023 C 
BRANCH  75  76
ATOM     76  C   UNL A   1      37.513  22.165  25.415  1.00  0.00     0.116 C 
BRANCH  76  77
ATOM     77  N   UNL A   1      36.457  22.341  26.389  1.00  0.00    -0.354 N 
ATOM     78  C   UNL A   1      35.137  22.643  26.236  1.00  0.00     0.249 C 
ATOM     79  H   UNL A   1      36.741  22.221  27.323  1.00  0.00     0.163 HD
ATOM     80  O   UNL A   1      34.425  22.545  27.240  1.00  0.00    -0.272 OA
BRANCH  78  81
ATOM     81  C   UNL A   1      34.535  23.142  24.906  1.00  0.00     0.207 C 
ATOM     82  C   UNL A   1      33.314  24.037  24.987  1.00  0.00     0.045 C 
ATOM     83  O   UNL A   1      34.248  22.050  24.036  1.00  0.00    -0.363 OA
ATOM     84  C   UNL A   1      32.261  23.374  24.123  1.00  0.00     0.037 C 
ATOM     85  C   UNL A   1      32.920  22.146  23.515  1.00  0.00     0.138 C 
BRANCH  85  86
ATOM     86  C   UNL A   1      32.240  20.806  23.811  1.00  0.00     0.147 C 
BRANCH  86  87
ATOM     87  N   UNL A   1      32.136  19.898  22.689  1.00  0.00    -0.353 N 
ATOM     88  C   UNL A   1      32.440  18.566  22.650  1.00  0.00     0.223 C 
ATOM     89  H   UNL A   1      31.805  20.289  21.848  1.00  0.00     0.163 HD
ATOM     90  O   UNL A   1      32.155  17.938  21.632  1.00  0.00    -0.275 OA
BRANCH  88  91
ATOM     91  C   UNL A   1      33.137  17.930  23.847  1.00  0.00     0.083 C 
ATOM     92  C   UNL A   1      34.149  16.871  23.397  1.00  0.00     0.042 C 
ATOM     93  C   UNL A   1      32.146  17.284  24.822  1.00  0.00     0.042 C 
ATOM     94  C   UNL A   1      34.808  16.230  24.609  1.00  0.00     0.161 C 
ATOM     95  C   UNL A   1      32.904  16.626  25.970  1.00  0.00     0.161 C 
ATOM     96  O   UNL A   1      33.830  15.661  25.476  1.00  0.00    -0.381 OA
ENDBRANCH  88  91
ENDBRANCH  86  87
ENDBRANCH  85  86
ENDBRANCH  78  81
ENDBRANCH  76  77
ENDBRANCH  75  76
ENDBRANCH   1  75
TORSDOF 17
ENDMDL
MODEL 3
REMARK VINA RESULT:     -11.1      1.752      3.274
REMARK SMILES O=C(NCCCCNC(=O)[C@@H]1CC[C@H](CNC(=O)C2CCOCC2)O1)c1ccc(-c2c3nc(c(-c4c(F)cc(S(=O)(=O)[O-])cc4F)c4ccc([nH]4)c(-c4c(F)cc(S(=O)(=O)[O-])cc4F)c4nc(c(-c5c(F)cc(S(=O)(=O)[O-])cc5F)c5ccc2[nH]5)C=C4)C=C3)cc1
REMARK SMILES IDX 5 1 4 2 3 3 1 4 2 5 26 7 27 8 91 9 28 10 90 11 29 12 30 13
REMARK SMILES IDX 31 14 84 15 32 16 89 17 83 18 85 19 33 20 88 21 82 22 81 23
REMARK SMILES IDX 34 25 68 26 47 27 67 28 48 29 51 30 66 31 86 32 49 33 50 34
REMARK SMILES IDX 65 36 87 37 52 38 35 39 36 40 45 41 37 42 38 43 44 44 46 45
REMARK SMILES IDX 39 46 40 47 41 48 42 49 43 50 69 51 70 52 79 53 71 54 72 55
REMARK SMILES IDX 78 56 80 57 73 58 74 59 75 60 76 61 77 62 53 63 54 64 63 65
REMARK SMILES IDX 55 66 56 67 62 68 64 69 57 70 58 71 59 72 60 73 61 74 6 75
REMARK SMILES IDX 7 76 8 77 9 78 10 80 11 81 12 82 25 83 13 84 14 85 15 86
REMARK SMILES IDX 16 87 17 88 18 90 19 91 20 92 24 93 21 94 23 95 22 96
REMARK H PARENT 3 6 85 24 51 35 8 79 16 89
REMARK Flexibility Score: inf
ROOT
ATOM      1  C   UNL A   1      34.846  31.614  27.479  1.00  0.00     0.023 C 
ENDROOT
BRANCH   1   2
ATOM      2  C   UNL A   1      35.980  31.861  28.465  1.00  0.00     0.116 C 
BRANCH   2   3
ATOM      3  N   UNL A   1      35.705  31.324  29.789  1.00  0.00    -0.352 N 
ATOM      4  O   UNL A   1      36.021  30.030  31.604  1.00  0.00    -0.269 OA
ATOM      5  C   UNL A   1      36.481  30.502  30.574  1.00  0.00     0.251 C 
ATOM      6  H   UNL A   1      34.841  31.586  30.179  1.00  0.00     0.163 HD
BRANCH   5   7
ATOM      7  C   UNL A   1      37.860  30.175  30.148  1.00  0.00     0.039 A 
ATOM      8  C   UNL A   1      38.173  30.052  28.792  1.00  0.00     0.014 A 
ATOM      9  C   UNL A   1      38.847  29.990  31.119  1.00  0.00     0.014 A 
ATOM     10  C   UNL A   1      39.433  29.604  28.414  1.00  0.00     0.010 A 
ATOM     11  C   UNL A   1      40.139  29.626  30.730  1.00  0.00     0.010 A 
ATOM     12  C   UNL A   1      40.435  29.407  29.377  1.00  0.00    -0.014 A 
BRANCH  12  13
ATOM     13  C   UNL A   1      41.809  29.062  28.935  1.00  0.00     0.031 A 
ATOM     14  C   UNL A   1      42.901  30.094  28.900  1.00  0.00     0.074 A 
ATOM     15  C   UNL A   1      42.057  27.791  28.562  1.00  0.00     0.049 A 
ATOM     16  N   UNL A   1      44.143  29.958  28.513  1.00  0.00    -0.248 NA
ATOM     17  C   UNL A   1      42.558  31.453  29.346  1.00  0.00     0.031 C 
ATOM     18  C   UNL A   1      41.063  26.713  28.539  1.00  0.00     0.029 A 
ATOM     19  N   UNL A   1      43.209  27.185  28.135  1.00  0.00    -0.354 N 
ATOM     20  C   UNL A   1      44.725  31.213  28.641  1.00  0.00     0.074 A 
ATOM     21  C   UNL A   1      43.697  32.104  29.135  1.00  0.00     0.031 C 
ATOM     22  C   UNL A   1      41.652  25.576  28.144  1.00  0.00     0.029 A 
ATOM     23  C   UNL A   1      43.047  25.856  27.825  1.00  0.00     0.049 A 
ATOM     24  H   UNL A   1      44.070  27.657  28.057  1.00  0.00     0.167 HD
ATOM     25  C   UNL A   1      46.001  31.581  28.372  1.00  0.00     0.037 A 
ATOM     26  C   UNL A   1      43.912  24.965  27.309  1.00  0.00     0.037 A 
ATOM     27  C   UNL A   1      47.021  30.675  27.910  1.00  0.00     0.049 A 
ATOM     28  C   UNL A   1      45.314  25.405  27.005  1.00  0.00     0.074 A 
ATOM     29  C   UNL A   1      48.362  30.934  27.687  1.00  0.00     0.029 A 
ATOM     30  N   UNL A   1      46.814  29.341  27.590  1.00  0.00    -0.354 N 
ATOM     31  N   UNL A   1      45.860  26.584  27.190  1.00  0.00    -0.248 NA
ATOM     32  C   UNL A   1      46.212  24.406  26.414  1.00  0.00     0.031 C 
ATOM     33  C   UNL A   1      48.956  29.769  27.187  1.00  0.00     0.029 A 
ATOM     34  C   UNL A   1      47.994  28.774  27.137  1.00  0.00     0.049 A 
ATOM     35  H   UNL A   1      45.955  28.868  27.672  1.00  0.00     0.167 HD
ATOM     36  C   UNL A   1      47.169  26.467  26.740  1.00  0.00     0.074 A 
ATOM     37  C   UNL A   1      47.337  25.098  26.296  1.00  0.00     0.031 C 
ATOM     38  C   UNL A   1      48.140  27.411  26.692  1.00  0.00     0.037 A 
BRANCH  25  39
ATOM     39  C   UNL A   1      46.375  33.026  28.548  1.00  0.00     0.058 A 
ATOM     40  C   UNL A   1      46.250  33.958  27.506  1.00  0.00     0.135 A 
ATOM     41  C   UNL A   1      46.788  33.502  29.805  1.00  0.00     0.135 A 
ATOM     42  F   UNL A   1      45.870  33.555  26.283  1.00  0.00    -0.206 F 
ATOM     43  C   UNL A   1      46.531  35.307  27.700  1.00  0.00     0.059 A 
ATOM     44  C   UNL A   1      47.056  34.849  30.025  1.00  0.00     0.059 A 
ATOM     45  F   UNL A   1      46.925  32.652  30.836  1.00  0.00    -0.206 F 
ATOM     46  C   UNL A   1      46.932  35.744  28.965  1.00  0.00     0.060 A 
BRANCH  46  47
ATOM     47  S   UNL A   1      47.269  37.502  29.206  1.00  0.00     0.124 S 
ATOM     48  O   UNL A   1      45.998  38.098  28.803  1.00  0.00    -0.237 OA
ATOM     49  O   UNL A   1      47.575  37.570  30.632  1.00  0.00    -0.237 OA
ATOM     50  O   UNL A   1      48.394  37.759  28.313  1.00  0.00    -0.744 OA
ENDBRANCH  46  47
ENDBRANCH  25  39
BRANCH  26  51
ATOM     51  C   UNL A   1      43.456  23.583  27.011  1.00  0.00     0.058 A 
ATOM     52  C   UNL A   1      43.191  23.172  25.699  1.00  0.00     0.135 A 
ATOM     53  C   UNL A   1      43.308  22.636  28.038  1.00  0.00     0.135 A 
ATOM     54  F   UNL A   1      43.318  24.042  24.685  1.00  0.00    -0.206 F 
ATOM     55  C   UNL A   1      42.784  21.873  25.412  1.00  0.00     0.059 A 
ATOM     56  C   UNL A   1      42.927  21.326  27.774  1.00  0.00     0.059 A 
ATOM     57  F   UNL A   1      43.568  22.977  29.310  1.00  0.00    -0.206 F 
ATOM     58  C   UNL A   1      42.657  20.956  26.458  1.00  0.00     0.060 A 
BRANCH  58  59
ATOM     59  S   UNL A   1      42.178  19.259  26.076  1.00  0.00     0.124 S 
ATOM     60  O   UNL A   1      42.584  18.561  27.290  1.00  0.00    -0.237 OA
ATOM     61  O   UNL A   1      40.739  19.384  25.861  1.00  0.00    -0.237 OA
ATOM     62  O   UNL A   1      42.957  18.954  24.879  1.00  0.00    -0.744 OA
ENDBRANCH  58  59
ENDBRANCH  26  51
BRANCH  38  63
ATOM     63  C   UNL A   1      49.472  26.993  26.141  1.00  0.00     0.058 A 
ATOM     64  C   UNL A   1      50.427  26.359  26.949  1.00  0.00     0.135 A 
ATOM     65  C   UNL A   1      49.774  27.179  24.783  1.00  0.00     0.135 A 
ATOM     66  F   UNL A   1      50.188  26.170  28.257  1.00  0.00    -0.206 F 
ATOM     67  C   UNL A   1      51.646  25.933  26.432  1.00  0.00     0.059 A 
ATOM     68  C   UNL A   1      50.977  26.741  24.240  1.00  0.00     0.059 A 
ATOM     69  F   UNL A   1      48.888  27.776  23.969  1.00  0.00    -0.206 F 
ATOM     70  C   UNL A   1      51.910  26.126  25.074  1.00  0.00     0.060 A 
BRANCH  70  71
ATOM     71  S   UNL A   1      53.474  25.526  24.403  1.00  0.00     0.124 S 
ATOM     72  O   UNL A   1      53.458  24.129  24.825  1.00  0.00    -0.237 OA
ATOM     73  O   UNL A   1      53.311  25.757  22.971  1.00  0.00    -0.237 OA
ATOM     74  O   UNL A   1      54.469  26.369  25.058  1.00  0.00    -0.744 OA
ENDBRANCH  70  71
ENDBRANCH  38  63
ENDBRANCH  12  13
ENDBRANCH   5   7
ENDBRANCH   2   3
ENDBRANCH   1   2
BRANCH   1  75
ATOM     75  C   UNL A   1      33.635  30.883  28.051  1.00  0.00     0.023 C 
BRANCH  75  76
ATOM     76  C   UNL A   1      32.758  30.165  27.028  1.00  0.00     0.116 C 
BRANCH  76  77
ATOM     77  N   UNL A   1      33.380  30.027  25.729  1.00  0.00    -0.354 N 
ATOM     78  C   UNL A   1      33.252  29.066  24.771  1.00  0.00     0.249 C 
ATOM     79  H   UNL A   1      34.003  30.752  25.497  1.00  0.00     0.163 HD
ATOM     80  O   UNL A   1      33.767  29.304  23.673  1.00  0.00    -0.272 OA
BRANCH  78  81
ATOM     81  C   UNL A   1      32.558  27.711  25.022  1.00  0.00     0.207 C 
ATOM     82  C   UNL A   1      33.012  26.531  24.186  1.00  0.00     0.045 C 
ATOM     83  O   UNL A   1      31.143  27.836  24.911  1.00  0.00    -0.363 OA
ATOM     84  C   UNL A   1      31.758  25.981  23.538  1.00  0.00     0.037 C 
ATOM     85  C   UNL A   1      30.604  26.819  24.064  1.00  0.00     0.138 C 
BRANCH  85  86
ATOM     86  C   UNL A   1      29.760  27.537  23.006  1.00  0.00     0.147 C 
BRANCH  86  87
ATOM     87  N   UNL A   1      28.357  27.687  23.324  1.00  0.00    -0.353 N 
ATOM     88  C   UNL A   1      27.562  28.783  23.137  1.00  0.00     0.223 C 
ATOM     89  H   UNL A   1      27.920  26.902  23.726  1.00  0.00     0.163 HD
ATOM     90  O   UNL A   1      26.357  28.666  23.352  1.00  0.00    -0.275 OA
BRANCH  88  91
ATOM     91  C   UNL A   1      28.201  30.096  22.703  1.00  0.00     0.083 C 
ATOM     92  C   UNL A   1      27.766  31.249  23.614  1.00  0.00     0.042 C 
ATOM     93  C   UNL A   1      27.861  30.458  21.252  1.00  0.00     0.042 C 
ATOM     94  C   UNL A   1      28.393  32.553  23.143  1.00  0.00     0.161 C 
ATOM     95  C   UNL A   1      28.488  31.800  20.893  1.00  0.00     0.161 C 
ATOM     96  O   UNL A   1      28.045  32.820  21.786  1.00  0.00    -0.381 OA
ENDBRANCH  88  91
ENDBRANCH  86  87
ENDBRANCH  85  86
ENDBRANCH  78  81
ENDBRANCH  76  77
ENDBRANCH  75  76
ENDBRANCH   1  75
TORSDOF 17
ENDMDL
