MODEL 1
REMARK VINA RESULT:     -12.4      0.000      0.000
REMARK SMILES CC(C)(C)OC(=O)N[C@@H](Cc1c[nH]c2cccc(Cl)c12)C(=O)NCCCCNC(=O)c1ccc(-c2c3nc(c(-c4c(F)cc(S(=O)(=O)[O-])cc4F)c4ccc([nH]4)c(-c4c(F)cc(S(=O)(=O)[O-])cc4F)c4nc(c(-c5c(F)cc(S(=O)(=O)[O-])cc5F)c5ccc2[nH]5)C=C4)C=C3)cc1
REMARK SMILES IDX 25 1 24 2 23 3 21 4 22 5 9 7 8 8 6 9 7 10 5 12 2 13 1 14
REMARK SMILES IDX 3 15 4 16 10 17 11 18 12 19 20 20 13 21 14 22 18 23 15 25
REMARK SMILES IDX 17 26 19 27 16 28 26 29 27 30 28 31 29 32 30 34 31 35 32 36
REMARK SMILES IDX 96 37 33 38 95 39 34 40 35 41 36 42 89 43 37 44 94 45 88 46
REMARK SMILES IDX 90 47 38 48 93 49 87 50 86 51 39 53 73 54 52 55 72 56 53 57
REMARK SMILES IDX 56 58 71 59 91 60 54 61 55 62 70 64 92 65 57 66 40 67 41 68
REMARK SMILES IDX 50 69 42 70 43 71 49 72 51 73 44 74 45 75 46 76 47 77 48 78
REMARK SMILES IDX 74 79 75 80 84 81 76 82 77 83 83 84 85 85 78 86 79 87 80 88
REMARK SMILES IDX 81 89 82 90 58 91 59 92 68 93 60 94 61 95 67 96 69 97 62 98
REMARK SMILES IDX 63 99 64 100 65 101 66 102
REMARK H PARENT 23 6 8 11 13 24 28 33 90 52 56 63
REMARK Flexibility Score: inf
ROOT
ATOM      1  C   UNL A   1      38.364  23.572  26.413  1.00  0.00     0.023 C 
ENDROOT
BRANCH   1   2
ATOM      2  C   UNL A   1      36.937  23.881  25.952  1.00  0.00     0.116 C 
BRANCH   2   3
ATOM      3  N   UNL A   1      36.508  23.178  24.758  1.00  0.00    -0.354 N 
ATOM      4  C   UNL A   1      35.465  23.424  23.906  1.00  0.00     0.243 C 
ATOM      5  O   UNL A   1      35.507  22.854  22.809  1.00  0.00    -0.273 OA
ATOM      6  H   UNL A   1      37.058  22.396  24.521  1.00  0.00     0.163 HD
BRANCH   4   7
ATOM      7  C   UNL A   1      34.290  24.383  24.232  1.00  0.00     0.179 C 
BRANCH   7   8
ATOM      8  N   UNL A   1      33.863  25.112  23.040  1.00  0.00    -0.309 N 
ATOM      9  C   UNL A   1      33.790  26.461  22.890  1.00  0.00     0.408 C 
ATOM     10  O   UNL A   1      33.648  26.952  21.789  1.00  0.00    -0.225 OA
ATOM     11  H   UNL A   1      33.600  24.568  22.263  1.00  0.00     0.167 HD
BRANCH   9  12
ATOM     12  O   UNL A   1      33.830  27.123  24.072  1.00  0.00    -0.444 OA
BRANCH  12  13
ATOM     13  C   UNL A   1      32.609  27.644  24.650  1.00  0.00     0.106 C 
ATOM     14  C   UNL A   1      32.655  29.159  24.393  1.00  0.00     0.056 C 
ATOM     15  C   UNL A   1      32.567  27.421  26.168  1.00  0.00     0.056 C 
ATOM     16  C   UNL A   1      31.384  27.060  23.942  1.00  0.00     0.056 C 
ENDBRANCH  12  13
ENDBRANCH   9  12
ENDBRANCH   7   8
BRANCH   7  17
ATOM     17  C   UNL A   1      33.113  23.812  25.040  1.00  0.00     0.073 C 
BRANCH  17  18
ATOM     18  C   UNL A   1      33.262  22.409  25.536  1.00  0.00    -0.019 A 
ATOM     19  C   UNL A   1      33.721  22.057  26.794  1.00  0.00     0.087 A 
ATOM     20  C   UNL A   1      32.977  21.188  24.829  1.00  0.00     0.021 A 
ATOM     21  N   UNL A   1      33.663  20.700  26.913  1.00  0.00    -0.361 N 
ATOM     22  C   UNL A   1      33.205  20.150  25.744  1.00  0.00     0.047 A 
ATOM     23  C   UNL A   1      32.516  20.815  23.542  1.00  0.00     0.050 A 
ATOM     24  H   UNL A   1      33.911  20.190  27.719  1.00  0.00     0.166 HD
ATOM     25  C   UNL A   1      32.980  18.808  25.451  1.00  0.00     0.027 A 
ATOM     26  C   UNL A   1      32.302  19.485  23.211  1.00  0.00     0.021 A 
ATOM     27  Cl  UNL A   1      32.205  22.028  22.383  1.00  0.00    -0.084 Cl
ATOM     28  C   UNL A   1      32.543  18.511  24.167  1.00  0.00     0.004 A 
ENDBRANCH  17  18
ENDBRANCH   7  17
ENDBRANCH   4   7
ENDBRANCH   2   3
ENDBRANCH   1   2
BRANCH   1  29
ATOM     29  C   UNL A   1      38.917  22.191  26.048  1.00  0.00     0.023 C 
BRANCH  29  30
ATOM     30  C   UNL A   1      40.250  21.849  26.699  1.00  0.00     0.116 C 
BRANCH  30  31
ATOM     31  N   UNL A   1      41.421  21.904  25.850  1.00  0.00    -0.352 N 
ATOM     32  C   UNL A   1      42.248  22.976  25.555  1.00  0.00     0.251 C 
ATOM     33  H   UNL A   1      41.666  21.055  25.417  1.00  0.00     0.163 HD
ATOM     34  O   UNL A   1      43.087  22.810  24.668  1.00  0.00    -0.269 OA
BRANCH  32  35
ATOM     35  C   UNL A   1      42.224  24.277  26.302  1.00  0.00     0.039 A 
ATOM     36  C   UNL A   1      42.833  24.355  27.570  1.00  0.00     0.014 A 
ATOM     37  C   UNL A   1      41.532  25.399  25.859  1.00  0.00     0.014 A 
ATOM     38  C   UNL A   1      42.640  25.475  28.398  1.00  0.00     0.010 A 
ATOM     39  C   UNL A   1      41.306  26.481  26.682  1.00  0.00     0.010 A 
ATOM     40  C   UNL A   1      41.805  26.507  27.972  1.00  0.00    -0.014 A 
BRANCH  40  41
ATOM     41  C   UNL A   1      41.628  27.774  28.675  1.00  0.00     0.031 A 
ATOM     42  C   UNL A   1      42.690  28.740  28.299  1.00  0.00     0.074 A 
ATOM     43  C   UNL A   1      40.522  28.195  29.329  1.00  0.00     0.049 A 
ATOM     44  N   UNL A   1      43.792  28.941  28.943  1.00  0.00    -0.248 NA
ATOM     45  C   UNL A   1      42.662  29.373  26.967  1.00  0.00     0.031 C 
ATOM     46  C   UNL A   1      39.246  27.510  29.536  1.00  0.00     0.029 A 
ATOM     47  N   UNL A   1      40.291  29.414  29.904  1.00  0.00    -0.354 N 
ATOM     48  C   UNL A   1      44.438  29.946  28.238  1.00  0.00     0.074 A 
ATOM     49  C   UNL A   1      43.873  29.932  26.918  1.00  0.00     0.031 C 
ATOM     50  C   UNL A   1      38.310  28.385  29.983  1.00  0.00     0.029 A 
ATOM     51  C   UNL A   1      38.974  29.634  30.306  1.00  0.00     0.049 A 
ATOM     52  H   UNL A   1      41.001  30.086  30.027  1.00  0.00     0.167 HD
ATOM     53  C   UNL A   1      45.103  30.935  28.897  1.00  0.00     0.037 A 
ATOM     54  C   UNL A   1      38.487  30.730  30.942  1.00  0.00     0.037 A 
ATOM     55  C   UNL A   1      45.159  30.643  30.309  1.00  0.00     0.049 A 
ATOM     56  C   UNL A   1      39.634  31.337  31.657  1.00  0.00     0.074 A 
ATOM     57  C   UNL A   1      45.843  29.773  31.129  1.00  0.00     0.029 A 
ATOM     58  N   UNL A   1      44.059  31.081  31.005  1.00  0.00    -0.354 N 
ATOM     59  N   UNL A   1      40.255  30.751  32.643  1.00  0.00    -0.248 NA
ATOM     60  C   UNL A   1      40.321  32.482  31.072  1.00  0.00     0.031 C 
ATOM     61  C   UNL A   1      45.021  29.576  32.279  1.00  0.00     0.029 A 
ATOM     62  C   UNL A   1      43.873  30.354  32.150  1.00  0.00     0.049 A 
ATOM     63  H   UNL A   1      43.480  31.824  30.718  1.00  0.00     0.167 HD
ATOM     64  C   UNL A   1      41.563  31.166  32.511  1.00  0.00     0.074 A 
ATOM     65  C   UNL A   1      41.512  32.348  31.663  1.00  0.00     0.031 C 
ATOM     66  C   UNL A   1      42.592  30.330  32.821  1.00  0.00     0.037 A 
BRANCH  53  67
ATOM     67  C   UNL A   1      45.284  32.354  28.404  1.00  0.00     0.058 A 
ATOM     68  C   UNL A   1      46.595  32.826  28.181  1.00  0.00     0.135 A 
ATOM     69  C   UNL A   1      44.275  33.343  28.392  1.00  0.00     0.135 A 
ATOM     70  F   UNL A   1      47.636  31.978  28.183  1.00  0.00    -0.206 F 
ATOM     71  C   UNL A   1      46.886  34.181  28.014  1.00  0.00     0.059 A 
ATOM     72  C   UNL A   1      44.536  34.690  28.168  1.00  0.00     0.059 A 
ATOM     73  F   UNL A   1      43.001  33.077  28.696  1.00  0.00    -0.206 F 
ATOM     74  C   UNL A   1      45.848  35.106  28.016  1.00  0.00     0.060 A 
BRANCH  74  75
ATOM     75  S   UNL A   1      46.224  36.860  27.873  1.00  0.00     0.124 S 
ATOM     76  O   UNL A   1      45.136  37.323  27.019  1.00  0.00    -0.237 OA
ATOM     77  O   UNL A   1      46.176  37.293  29.265  1.00  0.00    -0.237 OA
ATOM     78  O   UNL A   1      47.552  36.870  27.266  1.00  0.00    -0.744 OA
ENDBRANCH  74  75
ENDBRANCH  53  67
BRANCH  54  79
ATOM     79  C   UNL A   1      37.169  31.411  30.914  1.00  0.00     0.058 A 
ATOM     80  C   UNL A   1      36.269  31.263  31.989  1.00  0.00     0.135 A 
ATOM     81  C   UNL A   1      36.936  32.491  30.046  1.00  0.00     0.135 A 
ATOM     82  F   UNL A   1      36.410  30.252  32.858  1.00  0.00    -0.206 F 
ATOM     83  C   UNL A   1      35.269  32.200  32.258  1.00  0.00     0.059 A 
ATOM     84  C   UNL A   1      35.936  33.439  30.292  1.00  0.00     0.059 A 
ATOM     85  F   UNL A   1      37.748  32.713  29.001  1.00  0.00    -0.206 F 
ATOM     86  C   UNL A   1      35.138  33.310  31.427  1.00  0.00     0.060 A 
BRANCH  86  87
ATOM     87  S   UNL A   1      34.023  34.645  31.930  1.00  0.00     0.124 S 
ATOM     88  O   UNL A   1      33.242  34.007  32.984  1.00  0.00    -0.237 OA
ATOM     89  O   UNL A   1      34.960  35.676  32.367  1.00  0.00    -0.237 OA
ATOM     90  O   UNL A   1      33.289  34.952  30.705  1.00  0.00    -0.744 OA
ENDBRANCH  86  87
ENDBRANCH  54  79
BRANCH  66  91
ATOM     91  C   UNL A   1      42.325  29.254  33.831  1.00  0.00     0.058 A 
ATOM     92  C   UNL A   1      41.791  27.986  33.549  1.00  0.00     0.135 A 
ATOM     93  C   UNL A   1      42.700  29.515  35.157  1.00  0.00     0.135 A 
ATOM     94  F   UNL A   1      41.468  27.635  32.296  1.00  0.00    -0.206 F 
ATOM     95  C   UNL A   1      41.615  27.029  34.551  1.00  0.00     0.059 A 
ATOM     96  C   UNL A   1      42.560  28.569  36.165  1.00  0.00     0.059 A 
ATOM     97  F   UNL A   1      43.248  30.699  35.479  1.00  0.00    -0.206 F 
ATOM     98  C   UNL A   1      42.007  27.329  35.857  1.00  0.00     0.060 A 
BRANCH  98  99
ATOM     99  S   UNL A   1      41.852  26.068  37.139  1.00  0.00     0.124 S 
ATOM    100  O   UNL A   1      42.144  24.843  36.403  1.00  0.00    -0.237 OA
ATOM    101  O   UNL A   1      42.862  26.480  38.110  1.00  0.00    -0.237 OA
ATOM    102  O   UNL A   1      40.470  26.210  37.594  1.00  0.00    -0.744 OA
ENDBRANCH  98  99
ENDBRANCH  66  91
ENDBRANCH  40  41
ENDBRANCH  32  35
ENDBRANCH  30  31
ENDBRANCH  29  30
ENDBRANCH   1  29
TORSDOF 19
ENDMDL
MODEL 2
REMARK VINA RESULT:     -12.1      1.469      3.112
REMARK SMILES CC(C)(C)OC(=O)N[C@@H](Cc1c[nH]c2cccc(Cl)c12)C(=O)NCCCCNC(=O)c1ccc(-c2c3nc(c(-c4c(F)cc(S(=O)(=O)[O-])cc4F)c4ccc([nH]4)c(-c4c(F)cc(S(=O)(=O)[O-])cc4F)c4nc(c(-c5c(F)cc(S(=O)(=O)[O-])cc5F)c5ccc2[nH]5)C=C4)C=C3)cc1
REMARK SMILES IDX 25 1 24 2 23 3 21 4 22 5 9 7 8 8 6 9 7 10 5 12 2 13 1 14
REMARK SMILES IDX 3 15 4 16 10 17 11 18 12 19 20 20 13 21 14 22 18 23 15 25
REMARK SMILES IDX 17 26 19 27 16 28 26 29 27 30 28 31 29 32 30 34 31 35 32 36
REMARK SMILES IDX 96 37 33 38 95 39 34 40 35 41 36 42 89 43 37 44 94 45 88 46
REMARK SMILES IDX 90 47 38 48 93 49 87 50 86 51 39 53 73 54 52 55 72 56 53 57
REMARK SMILES IDX 56 58 71 59 91 60 54 61 55 62 70 64 92 65 57 66 40 67 41 68
REMARK SMILES IDX 50 69 42 70 43 71 49 72 51 73 44 74 45 75 46 76 47 77 48 78
REMARK SMILES IDX 74 79 75 80 84 81 76 82 77 83 83 84 85 85 78 86 79 87 80 88
REMARK SMILES IDX 81 89 82 90 58 91 59 92 68 93 60 94 61 95 67 96 69 97 62 98
REMARK SMILES IDX 63 99 64 100 65 101 66 102
REMARK H PARENT 23 6 8 11 13 24 28 33 90 52 56 63
REMARK Flexibility Score: inf
ROOT
ATOM      1  C   UNL A   1      38.983  23.409  26.660  1.00  0.00     0.023 C 
ENDROOT
BRANCH   1   2
ATOM      2  C   UNL A   1      37.678  23.862  26.000  1.00  0.00     0.116 C 
BRANCH   2   3
ATOM      3  N   UNL A   1      37.421  23.299  24.688  1.00  0.00    -0.354 N 
ATOM      4  C   UNL A   1      36.298  23.342  23.905  1.00  0.00     0.243 C 
ATOM      5  O   UNL A   1      36.448  23.041  22.715  1.00  0.00    -0.273 OA
ATOM      6  H   UNL A   1      38.178  22.806  24.297  1.00  0.00     0.163 HD
BRANCH   4   7
ATOM      7  C   UNL A   1      34.901  23.774  24.421  1.00  0.00     0.179 C 
BRANCH   7   8
ATOM      8  N   UNL A   1      34.527  23.018  25.614  1.00  0.00    -0.309 N 
ATOM      9  C   UNL A   1      33.333  22.414  25.858  1.00  0.00     0.408 C 
ATOM     10  O   UNL A   1      33.217  21.623  26.772  1.00  0.00    -0.225 OA
ATOM     11  H   UNL A   1      35.211  22.937  26.317  1.00  0.00     0.167 HD
BRANCH   9  12
ATOM     12  O   UNL A   1      32.349  22.845  25.031  1.00  0.00    -0.444 OA
BRANCH  12  13
ATOM     13  C   UNL A   1      31.202  23.541  25.576  1.00  0.00     0.106 C 
ATOM     14  C   UNL A   1      30.483  24.146  24.359  1.00  0.00     0.056 C 
ATOM     15  C   UNL A   1      31.629  24.692  26.497  1.00  0.00     0.056 C 
ATOM     16  C   UNL A   1      30.255  22.560  26.271  1.00  0.00     0.056 C 
ENDBRANCH  12  13
ENDBRANCH   9  12
ENDBRANCH   7   8
BRANCH   7  17
ATOM     17  C   UNL A   1      34.631  25.281  24.558  1.00  0.00     0.073 C 
BRANCH  17  18
ATOM     18  C   UNL A   1      33.617  25.865  23.626  1.00  0.00    -0.019 A 
ATOM     19  C   UNL A   1      33.350  25.397  22.350  1.00  0.00     0.087 A 
ATOM     20  C   UNL A   1      32.755  26.996  23.854  1.00  0.00     0.021 A 
ATOM     21  N   UNL A   1      32.329  26.132  21.823  1.00  0.00    -0.361 N 
ATOM     22  C   UNL A   1      31.942  27.097  22.715  1.00  0.00     0.047 A 
ATOM     23  C   UNL A   1      32.520  27.931  24.892  1.00  0.00     0.050 A 
ATOM     24  H   UNL A   1      31.929  25.990  20.934  1.00  0.00     0.166 HD
ATOM     25  C   UNL A   1      30.929  28.041  22.581  1.00  0.00     0.027 A 
ATOM     26  C   UNL A   1      31.532  28.898  24.781  1.00  0.00     0.021 A 
ATOM     27  Cl  UNL A   1      33.463  27.857  26.312  1.00  0.00    -0.084 Cl
ATOM     28  C   UNL A   1      30.761  28.936  23.629  1.00  0.00     0.004 A 
ENDBRANCH  17  18
ENDBRANCH   7  17
ENDBRANCH   4   7
ENDBRANCH   2   3
ENDBRANCH   1   2
BRANCH   1  29
ATOM     29  C   UNL A   1      39.507  22.026  26.259  1.00  0.00     0.023 C 
BRANCH  29  30
ATOM     30  C   UNL A   1      40.922  21.723  26.731  1.00  0.00     0.116 C 
BRANCH  30  31
ATOM     31  N   UNL A   1      41.982  21.893  25.760  1.00  0.00    -0.352 N 
ATOM     32  C   UNL A   1      42.662  23.041  25.389  1.00  0.00     0.251 C 
ATOM     33  H   UNL A   1      42.260  21.072  25.294  1.00  0.00     0.163 HD
ATOM     34  O   UNL A   1      43.411  22.958  24.413  1.00  0.00    -0.269 OA
BRANCH  32  35
ATOM     35  C   UNL A   1      42.592  24.334  26.147  1.00  0.00     0.039 A 
ATOM     36  C   UNL A   1      43.241  24.437  27.393  1.00  0.00     0.014 A 
ATOM     37  C   UNL A   1      41.823  25.418  25.739  1.00  0.00     0.014 A 
ATOM     38  C   UNL A   1      43.017  25.539  28.237  1.00  0.00     0.010 A 
ATOM     39  C   UNL A   1      41.567  26.480  26.578  1.00  0.00     0.010 A 
ATOM     40  C   UNL A   1      42.111  26.526  27.850  1.00  0.00    -0.014 A 
BRANCH  40  41
ATOM     41  C   UNL A   1      41.888  27.776  28.570  1.00  0.00     0.031 A 
ATOM     42  C   UNL A   1      42.911  28.787  28.201  1.00  0.00     0.074 A 
ATOM     43  C   UNL A   1      40.770  28.146  29.234  1.00  0.00     0.049 A 
ATOM     44  N   UNL A   1      44.007  29.022  28.843  1.00  0.00    -0.248 NA
ATOM     45  C   UNL A   1      42.852  29.435  26.878  1.00  0.00     0.031 C 
ATOM     46  C   UNL A   1      39.523  27.410  29.438  1.00  0.00     0.029 A 
ATOM     47  N   UNL A   1      40.496  29.348  29.826  1.00  0.00    -0.354 N 
ATOM     48  C   UNL A   1      44.611  30.060  28.147  1.00  0.00     0.074 A 
ATOM     49  C   UNL A   1      44.040  30.040  26.830  1.00  0.00     0.031 C 
ATOM     50  C   UNL A   1      38.556  28.242  29.900  1.00  0.00     0.029 A 
ATOM     51  C   UNL A   1      39.173  29.512  30.236  1.00  0.00     0.049 A 
ATOM     52  H   UNL A   1      41.179  30.045  29.954  1.00  0.00     0.167 HD
ATOM     53  C   UNL A   1      45.240  31.066  28.816  1.00  0.00     0.037 A 
ATOM     54  C   UNL A   1      38.647  30.580  30.889  1.00  0.00     0.037 A 
ATOM     55  C   UNL A   1      45.314  30.758  30.224  1.00  0.00     0.049 A 
ATOM     56  C   UNL A   1      39.774  31.222  31.605  1.00  0.00     0.074 A 
ATOM     57  C   UNL A   1      46.035  29.905  31.030  1.00  0.00     0.029 A 
ATOM     58  N   UNL A   1      44.202  31.145  30.930  1.00  0.00    -0.354 N 
ATOM     59  N   UNL A   1      40.422  30.648  32.581  1.00  0.00    -0.248 NA
ATOM     60  C   UNL A   1      40.413  32.400  31.032  1.00  0.00     0.031 C 
ATOM     61  C   UNL A   1      45.227  29.662  32.181  1.00  0.00     0.029 A 
ATOM     62  C   UNL A   1      44.050  30.397  32.067  1.00  0.00     0.049 A 
ATOM     63  H   UNL A   1      43.593  31.869  30.655  1.00  0.00     0.167 HD
ATOM     64  C   UNL A   1      41.712  31.115  32.449  1.00  0.00     0.074 A 
ATOM     65  C   UNL A   1      41.611  32.305  31.616  1.00  0.00     0.031 C 
ATOM     66  C   UNL A   1      42.774  30.315  32.744  1.00  0.00     0.037 A 
BRANCH  53  67
ATOM     67  C   UNL A   1      45.365  32.497  28.341  1.00  0.00     0.058 A 
ATOM     68  C   UNL A   1      46.652  33.066  28.250  1.00  0.00     0.135 A 
ATOM     69  C   UNL A   1      44.291  33.408  28.224  1.00  0.00     0.135 A 
ATOM     70  F   UNL A   1      47.748  32.297  28.359  1.00  0.00    -0.206 F 
ATOM     71  C   UNL A   1      46.857  34.439  28.109  1.00  0.00     0.059 A 
ATOM     72  C   UNL A   1      44.473  34.772  28.024  1.00  0.00     0.059 A 
ATOM     73  F   UNL A   1      43.016  33.046  28.398  1.00  0.00    -0.206 F 
ATOM     74  C   UNL A   1      45.758  35.285  28.004  1.00  0.00     0.060 A 
BRANCH  74  75
ATOM     75  S   UNL A   1      46.015  37.062  27.895  1.00  0.00     0.124 S 
ATOM     76  O   UNL A   1      44.742  37.573  28.391  1.00  0.00    -0.237 OA
ATOM     77  O   UNL A   1      47.167  37.254  28.769  1.00  0.00    -0.237 OA
ATOM     78  O   UNL A   1      46.273  37.278  26.474  1.00  0.00    -0.744 OA
ENDBRANCH  74  75
ENDBRANCH  53  67
BRANCH  54  79
ATOM     79  C   UNL A   1      37.304  31.210  30.875  1.00  0.00     0.058 A 
ATOM     80  C   UNL A   1      36.439  31.066  31.978  1.00  0.00     0.135 A 
ATOM     81  C   UNL A   1      37.006  32.251  29.979  1.00  0.00     0.135 A 
ATOM     82  F   UNL A   1      36.642  30.090  32.876  1.00  0.00    -0.206 F 
ATOM     83  C   UNL A   1      35.412  31.974  32.245  1.00  0.00     0.059 A 
ATOM     84  C   UNL A   1      35.978  33.169  30.221  1.00  0.00     0.059 A 
ATOM     85  F   UNL A   1      37.782  32.468  28.904  1.00  0.00    -0.206 F 
ATOM     86  C   UNL A   1      35.217  33.049  31.381  1.00  0.00     0.060 A 
BRANCH  86  87
ATOM     87  S   UNL A   1      34.065  34.358  31.872  1.00  0.00     0.124 S 
ATOM     88  O   UNL A   1      33.362  34.627  30.623  1.00  0.00    -0.237 OA
ATOM     89  O   UNL A   1      33.283  33.700  32.914  1.00  0.00    -0.237 OA
ATOM     90  O   UNL A   1      34.946  35.426  32.336  1.00  0.00    -0.744 OA
ENDBRANCH  86  87
ENDBRANCH  54  79
BRANCH  66  91
ATOM     91  C   UNL A   1      42.554  29.217  33.741  1.00  0.00     0.058 A 
ATOM     92  C   UNL A   1      42.409  29.391  35.127  1.00  0.00     0.135 A 
ATOM     93  C   UNL A   1      42.419  27.915  33.236  1.00  0.00     0.135 A 
ATOM     94  F   UNL A   1      42.459  30.611  35.680  1.00  0.00    -0.206 F 
ATOM     95  C   UNL A   1      42.164  28.309  35.976  1.00  0.00     0.059 A 
ATOM     96  C   UNL A   1      42.148  26.828  34.059  1.00  0.00     0.059 A 
ATOM     97  F   UNL A   1      42.514  27.694  31.915  1.00  0.00    -0.206 F 
ATOM     98  C   UNL A   1      42.032  27.031  35.431  1.00  0.00     0.060 A 
BRANCH  98  99
ATOM     99  S   UNL A   1      41.640  25.642  36.517  1.00  0.00     0.124 S 
ATOM    100  O   UNL A   1      40.645  26.222  37.411  1.00  0.00    -0.237 OA
ATOM    101  O   UNL A   1      41.142  24.639  35.579  1.00  0.00    -0.237 OA
ATOM    102  O   UNL A   1      42.924  25.318  37.135  1.00  0.00    -0.744 OA
ENDBRANCH  98  99
ENDBRANCH  66  91
ENDBRANCH  40  41
ENDBRANCH  32  35
ENDBRANCH  30  31
ENDBRANCH  29  30
ENDBRANCH   1  29
TORSDOF 19
ENDMDL
MODEL 3
REMARK VINA RESULT:     -12.0      2.897      9.167
REMARK SMILES CC(C)(C)OC(=O)N[C@@H](Cc1c[nH]c2cccc(Cl)c12)C(=O)NCCCCNC(=O)c1ccc(-c2c3nc(c(-c4c(F)cc(S(=O)(=O)[O-])cc4F)c4ccc([nH]4)c(-c4c(F)cc(S(=O)(=O)[O-])cc4F)c4nc(c(-c5c(F)cc(S(=O)(=O)[O-])cc5F)c5ccc2[nH]5)C=C4)C=C3)cc1
REMARK SMILES IDX 25 1 24 2 23 3 21 4 22 5 9 7 8 8 6 9 7 10 5 12 2 13 1 14
REMARK SMILES IDX 3 15 4 16 10 17 11 18 12 19 20 20 13 21 14 22 18 23 15 25
REMARK SMILES IDX 17 26 19 27 16 28 26 29 27 30 28 31 29 32 30 34 31 35 32 36
REMARK SMILES IDX 96 37 33 38 95 39 34 40 35 41 36 42 89 43 37 44 94 45 88 46
REMARK SMILES IDX 90 47 38 48 93 49 87 50 86 51 39 53 73 54 52 55 72 56 53 57
REMARK SMILES IDX 56 58 71 59 91 60 54 61 55 62 70 64 92 65 57 66 40 67 41 68
REMARK SMILES IDX 50 69 42 70 43 71 49 72 51 73 44 74 45 75 46 76 47 77 48 78
REMARK SMILES IDX 74 79 75 80 84 81 76 82 77 83 83 84 85 85 78 86 79 87 80 88
REMARK SMILES IDX 81 89 82 90 58 91 59 92 68 93 60 94 61 95 67 96 69 97 62 98
REMARK SMILES IDX 63 99 64 100 65 101 66 102
REMARK H PARENT 23 6 8 11 13 24 28 33 90 52 56 63
REMARK Flexibility Score: inf
ROOT
ATOM      1  C   UNL A   1      33.000  30.389  26.958  1.00  0.00     0.023 C 
ENDROOT
BRANCH   1   2
ATOM      2  C   UNL A   1      33.078  29.090  26.152  1.00  0.00     0.116 C 
BRANCH   2   3
ATOM      3  N   UNL A   1      33.978  29.121  25.015  1.00  0.00    -0.354 N 
ATOM      4  C   UNL A   1      33.953  28.418  23.840  1.00  0.00     0.243 C 
ATOM      5  O   UNL A   1      34.663  28.854  22.925  1.00  0.00    -0.273 OA
ATOM      6  H   UNL A   1      34.730  29.750  25.103  1.00  0.00     0.163 HD
BRANCH   4   7
ATOM      7  C   UNL A   1      33.072  27.164  23.601  1.00  0.00     0.179 C 
BRANCH   7   8
ATOM      8  N   UNL A   1      32.077  27.414  22.562  1.00  0.00    -0.309 N 
ATOM      9  C   UNL A   1      30.763  27.712  22.744  1.00  0.00     0.408 C 
ATOM     10  O   UNL A   1      30.090  28.127  21.822  1.00  0.00    -0.225 OA
ATOM     11  H   UNL A   1      32.390  27.360  21.630  1.00  0.00     0.167 HD
BRANCH   9  12
ATOM     12  O   UNL A   1      30.331  27.436  23.999  1.00  0.00    -0.444 OA
BRANCH  12  13
ATOM     13  C   UNL A   1      29.674  26.175  24.275  1.00  0.00     0.106 C 
ATOM     14  C   UNL A   1      28.174  26.454  24.095  1.00  0.00     0.056 C 
ATOM     15  C   UNL A   1      29.905  25.728  25.726  1.00  0.00     0.056 C 
ATOM     16  C   UNL A   1      30.103  25.109  23.264  1.00  0.00     0.056 C 
ENDBRANCH  12  13
ENDBRANCH   9  12
ENDBRANCH   7   8
BRANCH   7  17
ATOM     17  C   UNL A   1      33.792  25.816  23.431  1.00  0.00     0.073 C 
BRANCH  17  18
ATOM     18  C   UNL A   1      33.563  24.797  24.502  1.00  0.00    -0.019 A 
ATOM     19  C   UNL A   1      33.663  25.040  25.862  1.00  0.00     0.087 A 
ATOM     20  C   UNL A   1      33.217  23.409  24.341  1.00  0.00     0.021 A 
ATOM     21  N   UNL A   1      33.328  23.901  26.531  1.00  0.00    -0.361 N 
ATOM     22  C   UNL A   1      33.042  22.902  25.637  1.00  0.00     0.047 A 
ATOM     23  C   UNL A   1      32.986  22.513  23.268  1.00  0.00     0.050 A 
ATOM     24  H   UNL A   1      33.295  23.808  27.512  1.00  0.00     0.166 HD
ATOM     25  C   UNL A   1      32.640  21.597  25.900  1.00  0.00     0.027 A 
ATOM     26  C   UNL A   1      32.605  21.199  23.497  1.00  0.00     0.021 A 
ATOM     27  Cl  UNL A   1      33.167  23.066  21.665  1.00  0.00    -0.084 Cl
ATOM     28  C   UNL A   1      32.445  20.767  24.804  1.00  0.00     0.004 A 
ENDBRANCH  17  18
ENDBRANCH   7  17
ENDBRANCH   4   7
ENDBRANCH   2   3
ENDBRANCH   1   2
BRANCH   1  29
ATOM     29  C   UNL A   1      34.291  30.847  27.644  1.00  0.00     0.023 C 
BRANCH  29  30
ATOM     30  C   UNL A   1      34.375  32.344  27.904  1.00  0.00     0.116 C 
BRANCH  30  31
ATOM     31  N   UNL A   1      34.412  32.762  29.289  1.00  0.00    -0.352 N 
ATOM     32  C   UNL A   1      35.230  32.330  30.320  1.00  0.00     0.251 C 
ATOM     33  H   UNL A   1      33.759  33.456  29.536  1.00  0.00     0.163 HD
ATOM     34  O   UNL A   1      34.954  32.720  31.456  1.00  0.00    -0.269 OA
BRANCH  32  35
ATOM     35  C   UNL A   1      36.456  31.490  30.115  1.00  0.00     0.039 A 
ATOM     36  C   UNL A   1      36.401  30.111  30.397  1.00  0.00     0.014 A 
ATOM     37  C   UNL A   1      37.693  32.018  29.763  1.00  0.00     0.014 A 
ATOM     38  C   UNL A   1      37.571  29.333  30.438  1.00  0.00     0.010 A 
ATOM     39  C   UNL A   1      38.848  31.270  29.842  1.00  0.00     0.010 A 
ATOM     40  C   UNL A   1      38.808  29.943  30.233  1.00  0.00    -0.014 A 
BRANCH  40  41
ATOM     41  C   UNL A   1      40.077  29.230  30.122  1.00  0.00     0.031 A 
ATOM     42  C   UNL A   1      40.642  28.945  31.464  1.00  0.00     0.074 A 
ATOM     43  C   UNL A   1      40.568  28.606  29.027  1.00  0.00     0.049 A 
ATOM     44  N   UNL A   1      41.509  29.671  32.090  1.00  0.00    -0.248 NA
ATOM     45  C   UNL A   1      40.029  27.902  32.307  1.00  0.00     0.031 C 
ATOM     46  C   UNL A   1      39.999  28.500  27.684  1.00  0.00     0.029 A 
ATOM     47  N   UNL A   1      41.698  27.845  28.923  1.00  0.00    -0.354 N 
ATOM     48  C   UNL A   1      41.754  28.992  33.275  1.00  0.00     0.074 A 
ATOM     49  C   UNL A   1      40.622  28.133  33.480  1.00  0.00     0.031 C 
ATOM     50  C   UNL A   1      40.654  27.552  26.969  1.00  0.00     0.029 A 
ATOM     51  C   UNL A   1      41.825  27.144  27.724  1.00  0.00     0.049 A 
ATOM     52  H   UNL A   1      42.372  27.795  29.638  1.00  0.00     0.167 HD
ATOM     53  C   UNL A   1      43.016  28.917  33.780  1.00  0.00     0.037 A 
ATOM     54  C   UNL A   1      42.865  26.359  27.343  1.00  0.00     0.037 A 
ATOM     55  C   UNL A   1      43.907  29.762  33.022  1.00  0.00     0.049 A 
ATOM     56  C   UNL A   1      44.047  26.846  28.094  1.00  0.00     0.074 A 
ATOM     57  C   UNL A   1      44.144  31.113  32.895  1.00  0.00     0.029 A 
ATOM     58  N   UNL A   1      44.441  29.148  31.917  1.00  0.00    -0.354 N 
ATOM     59  N   UNL A   1      44.570  28.027  27.918  1.00  0.00    -0.248 NA
ATOM     60  C   UNL A   1      44.478  26.138  29.293  1.00  0.00     0.031 C 
ATOM     61  C   UNL A   1      44.692  31.303  31.590  1.00  0.00     0.029 A 
ATOM     62  C   UNL A   1      44.806  30.063  30.966  1.00  0.00     0.049 A 
ATOM     63  H   UNL A   1      44.549  28.173  31.821  1.00  0.00     0.167 HD
ATOM     64  C   UNL A   1      45.035  28.379  29.167  1.00  0.00     0.074 A 
ATOM     65  C   UNL A   1      45.119  27.132  29.915  1.00  0.00     0.031 C 
ATOM     66  C   UNL A   1      44.993  29.673  29.586  1.00  0.00     0.037 A 
BRANCH  53  67
ATOM     67  C   UNL A   1      43.567  27.777  34.609  1.00  0.00     0.058 A 
ATOM     68  C   UNL A   1      44.027  28.055  35.913  1.00  0.00     0.135 A 
ATOM     69  C   UNL A   1      43.906  26.501  34.107  1.00  0.00     0.135 A 
ATOM     70  F   UNL A   1      43.774  29.242  36.488  1.00  0.00    -0.206 F 
ATOM     71  C   UNL A   1      44.809  27.156  36.639  1.00  0.00     0.059 A 
ATOM     72  C   UNL A   1      44.633  25.568  34.837  1.00  0.00     0.059 A 
ATOM     73  F   UNL A   1      43.642  26.126  32.851  1.00  0.00    -0.206 F 
ATOM     74  C   UNL A   1      45.113  25.916  36.088  1.00  0.00     0.060 A 
BRANCH  74  75
ATOM     75  S   UNL A   1      46.180  24.783  36.990  1.00  0.00     0.124 S 
ATOM     76  O   UNL A   1      45.584  23.493  36.657  1.00  0.00    -0.237 OA
ATOM     77  O   UNL A   1      47.483  25.060  36.397  1.00  0.00    -0.237 OA
ATOM     78  O   UNL A   1      46.027  25.210  38.378  1.00  0.00    -0.744 OA
ENDBRANCH  74  75
ENDBRANCH  53  67
BRANCH  54  79
ATOM     79  C   UNL A   1      42.955  25.140  26.501  1.00  0.00     0.058 A 
ATOM     80  C   UNL A   1      43.828  25.102  25.396  1.00  0.00     0.135 A 
ATOM     81  C   UNL A   1      42.494  23.901  26.978  1.00  0.00     0.135 A 
ATOM     82  F   UNL A   1      44.306  26.239  24.869  1.00  0.00    -0.206 F 
ATOM     83  C   UNL A   1      44.313  23.903  24.869  1.00  0.00     0.059 A 
ATOM     84  C   UNL A   1      42.961  22.687  26.462  1.00  0.00     0.059 A 
ATOM     85  F   UNL A   1      41.666  23.842  28.033  1.00  0.00    -0.206 F 
ATOM     86  C   UNL A   1      43.906  22.699  25.438  1.00  0.00     0.060 A 
BRANCH  86  87
ATOM     87  S   UNL A   1      44.736  21.173  24.927  1.00  0.00     0.124 S 
ATOM     88  O   UNL A   1      43.895  20.150  25.540  1.00  0.00    -0.237 OA
ATOM     89  O   UNL A   1      44.671  21.263  23.472  1.00  0.00    -0.237 OA
ATOM     90  O   UNL A   1      46.073  21.308  25.499  1.00  0.00    -0.744 OA
ENDBRANCH  86  87
ENDBRANCH  54  79
BRANCH  66  91
ATOM     91  C   UNL A   1      45.022  30.740  28.532  1.00  0.00     0.058 A 
ATOM     92  C   UNL A   1      46.149  31.117  27.783  1.00  0.00     0.135 A 
ATOM     93  C   UNL A   1      43.805  31.368  28.227  1.00  0.00     0.135 A 
ATOM     94  F   UNL A   1      47.334  30.519  27.970  1.00  0.00    -0.206 F 
ATOM     95  C   UNL A   1      46.071  32.096  26.790  1.00  0.00     0.059 A 
ATOM     96  C   UNL A   1      43.698  32.324  27.224  1.00  0.00     0.059 A 
ATOM     97  F   UNL A   1      42.687  31.023  28.887  1.00  0.00    -0.206 F 
ATOM     98  C   UNL A   1      44.838  32.691  26.515  1.00  0.00     0.060 A 
BRANCH  98  99
ATOM     99  S   UNL A   1      44.719  33.901  25.181  1.00  0.00     0.124 S 
ATOM    100  O   UNL A   1      43.703  34.818  25.685  1.00  0.00    -0.237 OA
ATOM    101  O   UNL A   1      46.078  34.434  25.116  1.00  0.00    -0.237 OA
ATOM    102  O   UNL A   1      44.320  33.099  24.026  1.00  0.00    -0.744 OA
ENDBRANCH  98  99
ENDBRANCH  66  91
ENDBRANCH  40  41
ENDBRANCH  32  35
ENDBRANCH  30  31
ENDBRANCH  29  30
ENDBRANCH   1  29
TORSDOF 19
ENDMDL
