MODEL 1
REMARK VINA RESULT:     -10.7      0.000      0.000
REMARK SMILES COc1cc(Cl)cc(/C=C/C(=O)NCCCCNC(=O)c2ccc(-c3c4nc(c(-c5c(F)cc(S(=O)(=O)[O-])cc5F)c5ccc([nH]5)c(-c5c(F)cc(S(=O)(=O)[O-])cc5F)c5nc(c(-c6c(F)cc(S(=O)(=O)[O-])cc6F)c6ccc3[nH]6)C=C5)C=C4)cc2)c1OC
REMARK SMILES IDX 16 1 15 2 14 3 13 4 11 5 12 6 10 8 9 9 8 10 3 11 4 12 87 13
REMARK SMILES IDX 5 14 6 15 7 16 2 17 1 18 88 19 89 20 17 21 18 22 19 23 20 25
REMARK SMILES IDX 21 26 22 27 86 28 23 29 85 30 24 31 25 32 26 33 79 34 27 35
REMARK SMILES IDX 84 36 78 37 80 38 28 39 83 40 77 41 76 42 29 44 63 45 42 46
REMARK SMILES IDX 62 47 43 48 46 49 61 50 81 51 44 52 45 53 60 55 82 56 47 57
REMARK SMILES IDX 30 58 31 59 40 60 32 61 33 62 39 63 41 64 34 65 35 66 36 67
REMARK SMILES IDX 37 68 38 69 64 70 65 71 74 72 66 73 67 74 73 75 75 76 68 77
REMARK SMILES IDX 69 78 70 79 71 80 72 81 48 82 49 83 58 84 50 85 51 86 57 87
REMARK SMILES IDX 59 88 52 89 53 90 54 91 55 92 56 93
REMARK H PARENT 13 7 18 24 80 43 46 54
REMARK Flexibility Score: inf
ROOT
ATOM      1  C   UNL A   1      33.761  28.133  25.688  1.00  0.00     0.023 C 
ENDROOT
BRANCH   1   2
ATOM      2  C   UNL A   1      33.285  29.276  24.787  1.00  0.00     0.023 C 
BRANCH   2   3
ATOM      3  C   UNL A   1      33.496  29.032  23.293  1.00  0.00     0.116 C 
BRANCH   3   4
ATOM      4  N   UNL A   1      32.249  28.674  22.640  1.00  0.00    -0.353 N 
ATOM      5  C   UNL A   1      31.748  27.452  22.318  1.00  0.00     0.244 C 
ATOM      6  O   UNL A   1      30.617  27.352  21.847  1.00  0.00    -0.270 OA
ATOM      7  H   UNL A   1      31.678  29.437  22.390  1.00  0.00     0.163 HD
BRANCH   5   8
ATOM      8  C   UNL A   1      32.512  26.221  22.616  1.00  0.00     0.072 C 
ATOM      9  C   UNL A   1      32.142  25.305  23.523  1.00  0.00     0.018 C 
BRANCH   9  10
ATOM     10  C   UNL A   1      32.925  24.089  23.812  1.00  0.00     0.022 A 
ATOM     11  C   UNL A   1      33.158  21.893  24.838  1.00  0.00     0.162 A 
ATOM     12  C   UNL A   1      34.478  21.828  24.366  1.00  0.00     0.071 A 
ATOM     13  C   UNL A   1      32.360  23.018  24.552  1.00  0.00     0.168 A 
ATOM     14  C   UNL A   1      35.022  22.892  23.655  1.00  0.00     0.045 A 
ATOM     15  Cl  UNL A   1      36.651  22.806  23.105  1.00  0.00    -0.084 Cl
ATOM     16  C   UNL A   1      34.261  24.022  23.385  1.00  0.00     0.032 A 
BRANCH  11  17
ATOM     17  O   UNL A   1      32.638  20.809  25.497  1.00  0.00    -0.493 OA
ATOM     18  C   UNL A   1      33.079  19.561  24.962  1.00  0.00     0.278 C 
ENDBRANCH  11  17
BRANCH  13  19
ATOM     19  O   UNL A   1      31.047  23.213  24.907  1.00  0.00    -0.492 OA
ATOM     20  C   UNL A   1      30.717  23.483  26.260  1.00  0.00     0.278 C 
ENDBRANCH  13  19
ENDBRANCH   9  10
ENDBRANCH   5   8
ENDBRANCH   3   4
ENDBRANCH   2   3
ENDBRANCH   1   2
BRANCH   1  21
ATOM     21  C   UNL A   1      33.585  28.367  27.187  1.00  0.00     0.116 C 
BRANCH  21  22
ATOM     22  N   UNL A   1      33.464  29.773  27.539  1.00  0.00    -0.352 N 
ATOM     23  C   UNL A   1      34.407  30.602  28.101  1.00  0.00     0.251 C 
ATOM     24  H   UNL A   1      32.590  30.186  27.349  1.00  0.00     0.163 HD
ATOM     25  O   UNL A   1      34.106  31.741  28.432  1.00  0.00    -0.269 OA
BRANCH  23  26
ATOM     26  C   UNL A   1      35.773  30.088  28.336  1.00  0.00     0.039 A 
ATOM     27  C   UNL A   1      36.698  30.137  27.291  1.00  0.00     0.014 A 
ATOM     28  C   UNL A   1      36.146  29.589  29.588  1.00  0.00     0.014 A 
ATOM     29  C   UNL A   1      38.020  29.750  27.521  1.00  0.00     0.010 A 
ATOM     30  C   UNL A   1      37.476  29.262  29.831  1.00  0.00     0.010 A 
ATOM     31  C   UNL A   1      38.428  29.344  28.802  1.00  0.00    -0.014 A 
BRANCH  31  32
ATOM     32  C   UNL A   1      39.847  29.014  29.091  1.00  0.00     0.031 A 
ATOM     33  C   UNL A   1      40.757  30.051  29.689  1.00  0.00     0.074 A 
ATOM     34  C   UNL A   1      40.330  27.806  28.744  1.00  0.00     0.049 A 
ATOM     35  N   UNL A   1      42.037  29.975  29.944  1.00  0.00    -0.248 NA
ATOM     36  C   UNL A   1      40.155  31.353  30.015  1.00  0.00     0.031 C 
ATOM     37  C   UNL A   1      39.558  26.735  28.109  1.00  0.00     0.029 A 
ATOM     38  N   UNL A   1      41.590  27.276  28.867  1.00  0.00    -0.354 N 
ATOM     39  C   UNL A   1      42.397  31.221  30.444  1.00  0.00     0.074 A 
ATOM     40  C   UNL A   1      41.210  32.047  30.412  1.00  0.00     0.031 C 
ATOM     41  C   UNL A   1      40.354  25.672  27.916  1.00  0.00     0.029 A 
ATOM     42  C   UNL A   1      41.700  25.994  28.383  1.00  0.00     0.049 A 
ATOM     43  H   UNL A   1      42.344  27.768  29.263  1.00  0.00     0.167 HD
ATOM     44  C   UNL A   1      43.602  31.631  30.907  1.00  0.00     0.037 A 
ATOM     45  C   UNL A   1      42.764  25.171  28.320  1.00  0.00     0.037 A 
ATOM     46  C   UNL A   1      44.772  30.793  30.964  1.00  0.00     0.049 A 
ATOM     47  C   UNL A   1      44.088  25.642  28.854  1.00  0.00     0.074 A 
ATOM     48  C   UNL A   1      46.022  31.093  31.478  1.00  0.00     0.029 A 
ATOM     49  N   UNL A   1      44.837  29.491  30.491  1.00  0.00    -0.354 N 
ATOM     50  N   UNL A   1      44.396  26.802  29.385  1.00  0.00    -0.248 NA
ATOM     51  C   UNL A   1      45.208  24.694  28.789  1.00  0.00     0.031 C 
ATOM     52  C   UNL A   1      46.851  29.983  31.283  1.00  0.00     0.029 A 
ATOM     53  C   UNL A   1      46.108  28.978  30.685  1.00  0.00     0.049 A 
ATOM     54  H   UNL A   1      44.088  29.002  30.078  1.00  0.00     0.167 HD
ATOM     55  C   UNL A   1      45.738  26.715  29.738  1.00  0.00     0.074 A 
ATOM     56  C   UNL A   1      46.180  25.385  29.370  1.00  0.00     0.031 C 
ATOM     57  C   UNL A   1      46.531  27.650  30.316  1.00  0.00     0.037 A 
BRANCH  44  58
ATOM     58  C   UNL A   1      43.712  33.051  31.391  1.00  0.00     0.058 A 
ATOM     59  C   UNL A   1      43.420  33.398  32.720  1.00  0.00     0.135 A 
ATOM     60  C   UNL A   1      44.127  34.073  30.524  1.00  0.00     0.135 A 
ATOM     61  F   UNL A   1      43.005  32.462  33.588  1.00  0.00    -0.206 F 
ATOM     62  C   UNL A   1      43.502  34.714  33.163  1.00  0.00     0.059 A 
ATOM     63  C   UNL A   1      44.241  35.392  30.951  1.00  0.00     0.059 A 
ATOM     64  F   UNL A   1      44.419  33.795  29.243  1.00  0.00    -0.206 F 
ATOM     65  C   UNL A   1      43.909  35.705  32.268  1.00  0.00     0.060 A 
BRANCH  65  66
ATOM     66  S   UNL A   1      43.999  37.411  32.854  1.00  0.00     0.124 S 
ATOM     67  O   UNL A   1      43.842  38.153  31.606  1.00  0.00    -0.237 OA
ATOM     68  O   UNL A   1      42.874  37.486  33.781  1.00  0.00    -0.237 OA
ATOM     69  O   UNL A   1      45.320  37.489  33.468  1.00  0.00    -0.744 OA
ENDBRANCH  65  66
ENDBRANCH  44  58
BRANCH  45  70
ATOM     70  C   UNL A   1      42.610  23.804  27.757  1.00  0.00     0.058 A 
ATOM     71  C   UNL A   1      42.475  22.692  28.601  1.00  0.00     0.135 A 
ATOM     72  C   UNL A   1      42.569  23.584  26.373  1.00  0.00     0.135 A 
ATOM     73  F   UNL A   1      42.514  22.854  29.933  1.00  0.00    -0.206 F 
ATOM     74  C   UNL A   1      42.313  21.407  28.094  1.00  0.00     0.059 A 
ATOM     75  C   UNL A   1      42.387  22.310  25.840  1.00  0.00     0.059 A 
ATOM     76  F   UNL A   1      42.678  24.618  25.523  1.00  0.00    -0.206 F 
ATOM     77  C   UNL A   1      42.267  21.227  26.710  1.00  0.00     0.060 A 
BRANCH  77  78
ATOM     78  S   UNL A   1      41.995  19.563  26.063  1.00  0.00     0.124 S 
ATOM     79  O   UNL A   1      42.442  18.737  27.178  1.00  0.00    -0.237 OA
ATOM     80  O   UNL A   1      40.557  19.564  25.805  1.00  0.00    -0.237 OA
ATOM     81  O   UNL A   1      42.836  19.527  24.871  1.00  0.00    -0.744 OA
ENDBRANCH  77  78
ENDBRANCH  45  70
BRANCH  57  82
ATOM     82  C   UNL A   1      47.952  27.261  30.613  1.00  0.00     0.058 A 
ATOM     83  C   UNL A   1      48.308  26.646  31.824  1.00  0.00     0.135 A 
ATOM     84  C   UNL A   1      48.958  27.457  29.654  1.00  0.00     0.135 A 
ATOM     85  F   UNL A   1      47.384  26.443  32.776  1.00  0.00    -0.206 F 
ATOM     86  C   UNL A   1      49.618  26.257  32.081  1.00  0.00     0.059 A 
ATOM     87  C   UNL A   1      50.270  27.054  29.881  1.00  0.00     0.059 A 
ATOM     88  F   UNL A   1      48.667  28.033  28.476  1.00  0.00    -0.206 F 
ATOM     89  C   UNL A   1      50.592  26.465  31.102  1.00  0.00     0.060 A 
BRANCH  89  90
ATOM     90  S   UNL A   1      52.282  25.922  31.432  1.00  0.00     0.124 S 
ATOM     91  O   UNL A   1      52.066  24.559  31.905  1.00  0.00    -0.237 OA
ATOM     92  O   UNL A   1      52.914  26.046  30.122  1.00  0.00    -0.237 OA
ATOM     93  O   UNL A   1      52.753  26.869  32.439  1.00  0.00    -0.744 OA
ENDBRANCH  89  90
ENDBRANCH  57  82
ENDBRANCH  31  32
ENDBRANCH  23  26
ENDBRANCH  21  22
ENDBRANCH   1  21
TORSDOF 17
ENDMDL
MODEL 2
REMARK VINA RESULT:     -10.5      3.618      6.721
REMARK SMILES COc1cc(Cl)cc(/C=C/C(=O)NCCCCNC(=O)c2ccc(-c3c4nc(c(-c5c(F)cc(S(=O)(=O)[O-])cc5F)c5ccc([nH]5)c(-c5c(F)cc(S(=O)(=O)[O-])cc5F)c5nc(c(-c6c(F)cc(S(=O)(=O)[O-])cc6F)c6ccc3[nH]6)C=C5)C=C4)cc2)c1OC
REMARK SMILES IDX 16 1 15 2 14 3 13 4 11 5 12 6 10 8 9 9 8 10 3 11 4 12 87 13
REMARK SMILES IDX 5 14 6 15 7 16 2 17 1 18 88 19 89 20 17 21 18 22 19 23 20 25
REMARK SMILES IDX 21 26 22 27 86 28 23 29 85 30 24 31 25 32 26 33 79 34 27 35
REMARK SMILES IDX 84 36 78 37 80 38 28 39 83 40 77 41 76 42 29 44 63 45 42 46
REMARK SMILES IDX 62 47 43 48 46 49 61 50 81 51 44 52 45 53 60 55 82 56 47 57
REMARK SMILES IDX 30 58 31 59 40 60 32 61 33 62 39 63 41 64 34 65 35 66 36 67
REMARK SMILES IDX 37 68 38 69 64 70 65 71 74 72 66 73 67 74 73 75 75 76 68 77
REMARK SMILES IDX 69 78 70 79 71 80 72 81 48 82 49 83 58 84 50 85 51 86 57 87
REMARK SMILES IDX 59 88 52 89 53 90 54 91 55 92 56 93
REMARK H PARENT 13 7 18 24 80 43 46 54
REMARK Flexibility Score: inf
ROOT
ATOM      1  C   UNL A   1      35.474  33.633  29.391  1.00  0.00     0.023 C 
ENDROOT
BRANCH   1   2
ATOM      2  C   UNL A   1      36.894  33.553  28.824  1.00  0.00     0.023 C 
BRANCH   2   3
ATOM      3  C   UNL A   1      37.994  33.909  29.824  1.00  0.00     0.116 C 
BRANCH   3   4
ATOM      4  N   UNL A   1      37.441  34.563  30.997  1.00  0.00    -0.353 N 
ATOM      5  C   UNL A   1      37.545  34.236  32.313  1.00  0.00     0.244 C 
ATOM      6  O   UNL A   1      37.078  34.979  33.173  1.00  0.00    -0.270 OA
ATOM      7  H   UNL A   1      36.907  35.369  30.810  1.00  0.00     0.163 HD
BRANCH   5   8
ATOM      8  C   UNL A   1      38.300  33.036  32.735  1.00  0.00     0.072 C 
ATOM      9  C   UNL A   1      38.937  32.921  33.909  1.00  0.00     0.018 C 
BRANCH   9  10
ATOM     10  C   UNL A   1      39.693  31.718  34.306  1.00  0.00     0.022 A 
ATOM     11  C   UNL A   1      41.180  30.537  35.829  1.00  0.00     0.162 A 
ATOM     12  C   UNL A   1      41.143  29.422  34.979  1.00  0.00     0.071 A 
ATOM     13  C   UNL A   1      40.441  31.693  35.511  1.00  0.00     0.168 A 
ATOM     14  C   UNL A   1      40.417  29.467  33.794  1.00  0.00     0.045 A 
ATOM     15  Cl  UNL A   1      40.402  28.098  32.750  1.00  0.00    -0.084 Cl
ATOM     16  C   UNL A   1      39.703  30.606  33.448  1.00  0.00     0.032 A 
BRANCH  11  17
ATOM     17  O   UNL A   1      41.870  30.444  37.011  1.00  0.00    -0.493 OA
ATOM     18  C   UNL A   1      43.287  30.477  36.839  1.00  0.00     0.278 C 
ENDBRANCH  11  17
BRANCH  13  19
ATOM     19  O   UNL A   1      40.344  32.844  36.255  1.00  0.00    -0.492 OA
ATOM     20  C   UNL A   1      41.447  33.734  36.321  1.00  0.00     0.278 C 
ENDBRANCH  13  19
ENDBRANCH   9  10
ENDBRANCH   5   8
ENDBRANCH   3   4
ENDBRANCH   2   3
ENDBRANCH   1   2
BRANCH   1  21
ATOM     21  C   UNL A   1      34.910  32.319  29.927  1.00  0.00     0.116 C 
BRANCH  21  22
ATOM     22  N   UNL A   1      34.200  31.545  28.920  1.00  0.00    -0.352 N 
ATOM     23  C   UNL A   1      34.663  30.498  28.157  1.00  0.00     0.251 C 
ATOM     24  H   UNL A   1      33.263  31.805  28.764  1.00  0.00     0.163 HD
ATOM     25  O   UNL A   1      33.962  30.023  27.274  1.00  0.00    -0.269 OA
BRANCH  23  26
ATOM     26  C   UNL A   1      36.030  29.984  28.389  1.00  0.00     0.039 A 
ATOM     27  C   UNL A   1      36.971  30.091  27.362  1.00  0.00     0.014 A 
ATOM     28  C   UNL A   1      36.387  29.427  29.620  1.00  0.00     0.014 A 
ATOM     29  C   UNL A   1      38.292  29.703  27.594  1.00  0.00     0.010 A 
ATOM     30  C   UNL A   1      37.717  29.099  29.868  1.00  0.00     0.010 A 
ATOM     31  C   UNL A   1      38.683  29.239  28.860  1.00  0.00    -0.014 A 
BRANCH  31  32
ATOM     32  C   UNL A   1      40.100  28.907  29.155  1.00  0.00     0.031 A 
ATOM     33  C   UNL A   1      41.000  29.929  29.791  1.00  0.00     0.074 A 
ATOM     34  C   UNL A   1      40.592  27.710  28.780  1.00  0.00     0.049 A 
ATOM     35  N   UNL A   1      42.278  29.852  30.058  1.00  0.00    -0.248 NA
ATOM     36  C   UNL A   1      40.389  31.220  30.148  1.00  0.00     0.031 C 
ATOM     37  C   UNL A   1      39.832  26.655  28.106  1.00  0.00     0.029 A 
ATOM     38  N   UNL A   1      41.853  27.182  28.901  1.00  0.00    -0.354 N 
ATOM     39  C   UNL A   1      42.627  31.084  30.597  1.00  0.00     0.074 A 
ATOM     40  C   UNL A   1      41.437  31.907  30.575  1.00  0.00     0.031 C 
ATOM     41  C   UNL A   1      40.635  25.601  27.892  1.00  0.00     0.029 A 
ATOM     42  C   UNL A   1      41.974  25.914  28.383  1.00  0.00     0.049 A 
ATOM     43  H   UNL A   1      42.601  27.666  29.319  1.00  0.00     0.167 HD
ATOM     44  C   UNL A   1      43.825  31.486  31.084  1.00  0.00     0.037 A 
ATOM     45  C   UNL A   1      43.042  25.098  28.308  1.00  0.00     0.037 A 
ATOM     46  C   UNL A   1      44.998  30.651  31.131  1.00  0.00     0.049 A 
ATOM     47  C   UNL A   1      44.358  25.559  28.870  1.00  0.00     0.074 A 
ATOM     48  C   UNL A   1      46.241  30.941  31.666  1.00  0.00     0.029 A 
ATOM     49  N   UNL A   1      45.073  29.363  30.622  1.00  0.00    -0.354 N 
ATOM     50  N   UNL A   1      44.656  26.705  29.437  1.00  0.00    -0.248 NA
ATOM     51  C   UNL A   1      45.483  24.617  28.791  1.00  0.00     0.031 C 
ATOM     52  C   UNL A   1      47.077  29.841  31.450  1.00  0.00     0.029 A 
ATOM     53  C   UNL A   1      46.345  28.851  30.815  1.00  0.00     0.049 A 
ATOM     54  H   UNL A   1      44.331  28.883  30.187  1.00  0.00     0.167 HD
ATOM     55  C   UNL A   1      45.994  26.613  29.801  1.00  0.00     0.074 A 
ATOM     56  C   UNL A   1      46.445  25.296  29.401  1.00  0.00     0.031 C 
ATOM     57  C   UNL A   1      46.777  27.535  30.414  1.00  0.00     0.037 A 
BRANCH  44  58
ATOM     58  C   UNL A   1      43.923  32.892  31.609  1.00  0.00     0.058 A 
ATOM     59  C   UNL A   1      43.638  33.197  32.950  1.00  0.00     0.135 A 
ATOM     60  C   UNL A   1      44.322  33.943  30.769  1.00  0.00     0.135 A 
ATOM     61  F   UNL A   1      43.238  32.231  33.793  1.00  0.00    -0.206 F 
ATOM     62  C   UNL A   1      43.709  34.500  33.430  1.00  0.00     0.059 A 
ATOM     63  C   UNL A   1      44.426  35.250  31.235  1.00  0.00     0.059 A 
ATOM     64  F   UNL A   1      44.608  33.707  29.479  1.00  0.00    -0.206 F 
ATOM     65  C   UNL A   1      44.099  35.522  32.563  1.00  0.00     0.060 A 
BRANCH  65  66
ATOM     66  S   UNL A   1      44.176  37.211  33.197  1.00  0.00     0.124 S 
ATOM     67  O   UNL A   1      45.325  37.130  34.095  1.00  0.00    -0.237 OA
ATOM     68  O   UNL A   1      44.376  37.994  31.982  1.00  0.00    -0.237 OA
ATOM     69  O   UNL A   1      42.883  37.388  33.847  1.00  0.00    -0.744 OA
ENDBRANCH  65  66
ENDBRANCH  44  58
BRANCH  45  70
ATOM     70  C   UNL A   1      42.900  23.746  27.705  1.00  0.00     0.058 A 
ATOM     71  C   UNL A   1      42.543  22.644  28.495  1.00  0.00     0.135 A 
ATOM     72  C   UNL A   1      43.091  23.535  26.332  1.00  0.00     0.135 A 
ATOM     73  F   UNL A   1      42.355  22.797  29.815  1.00  0.00    -0.206 F 
ATOM     74  C   UNL A   1      42.389  21.375  27.947  1.00  0.00     0.059 A 
ATOM     75  C   UNL A   1      42.922  22.278  25.756  1.00  0.00     0.059 A 
ATOM     76  F   UNL A   1      43.418  24.562  25.532  1.00  0.00    -0.206 F 
ATOM     77  C   UNL A   1      42.577  21.203  26.574  1.00  0.00     0.060 A 
BRANCH  77  78
ATOM     78  S   UNL A   1      42.315  19.564  25.863  1.00  0.00     0.124 S 
ATOM     79  O   UNL A   1      43.264  19.567  24.757  1.00  0.00    -0.237 OA
ATOM     80  O   UNL A   1      42.641  18.686  26.984  1.00  0.00    -0.237 OA
ATOM     81  O   UNL A   1      40.904  19.586  25.487  1.00  0.00    -0.744 OA
ENDBRANCH  77  78
ENDBRANCH  45  70
BRANCH  57  82
ATOM     82  C   UNL A   1      48.196  27.143  30.715  1.00  0.00     0.058 A 
ATOM     83  C   UNL A   1      49.252  27.488  29.857  1.00  0.00     0.135 A 
ATOM     84  C   UNL A   1      48.509  26.462  31.903  1.00  0.00     0.135 A 
ATOM     85  F   UNL A   1      49.005  28.133  28.707  1.00  0.00    -0.206 F 
ATOM     86  C   UNL A   1      50.568  27.152  30.157  1.00  0.00     0.059 A 
ATOM     87  C   UNL A   1      49.820  26.138  32.234  1.00  0.00     0.059 A 
ATOM     88  F   UNL A   1      47.535  26.118  32.762  1.00  0.00    -0.206 F 
ATOM     89  C   UNL A   1      50.842  26.478  31.349  1.00  0.00     0.060 A 
BRANCH  89  90
ATOM     90  S   UNL A   1      52.558  26.080  31.746  1.00  0.00     0.124 S 
ATOM     91  O   UNL A   1      53.176  26.096  30.424  1.00  0.00    -0.237 OA
ATOM     92  O   UNL A   1      52.936  27.173  32.636  1.00  0.00    -0.237 OA
ATOM     93  O   UNL A   1      52.464  24.768  32.379  1.00  0.00    -0.744 OA
ENDBRANCH  89  90
ENDBRANCH  57  82
ENDBRANCH  31  32
ENDBRANCH  23  26
ENDBRANCH  21  22
ENDBRANCH   1  21
TORSDOF 17
ENDMDL
MODEL 3
REMARK VINA RESULT:     -10.5      1.171      2.086
REMARK SMILES COc1cc(Cl)cc(/C=C/C(=O)NCCCCNC(=O)c2ccc(-c3c4nc(c(-c5c(F)cc(S(=O)(=O)[O-])cc5F)c5ccc([nH]5)c(-c5c(F)cc(S(=O)(=O)[O-])cc5F)c5nc(c(-c6c(F)cc(S(=O)(=O)[O-])cc6F)c6ccc3[nH]6)C=C5)C=C4)cc2)c1OC
REMARK SMILES IDX 16 1 15 2 14 3 13 4 11 5 12 6 10 8 9 9 8 10 3 11 4 12 87 13
REMARK SMILES IDX 5 14 6 15 7 16 2 17 1 18 88 19 89 20 17 21 18 22 19 23 20 25
REMARK SMILES IDX 21 26 22 27 86 28 23 29 85 30 24 31 25 32 26 33 79 34 27 35
REMARK SMILES IDX 84 36 78 37 80 38 28 39 83 40 77 41 76 42 29 44 63 45 42 46
REMARK SMILES IDX 62 47 43 48 46 49 61 50 81 51 44 52 45 53 60 55 82 56 47 57
REMARK SMILES IDX 30 58 31 59 40 60 32 61 33 62 39 63 41 64 34 65 35 66 36 67
REMARK SMILES IDX 37 68 38 69 64 70 65 71 74 72 66 73 67 74 73 75 75 76 68 77
REMARK SMILES IDX 69 78 70 79 71 80 72 81 48 82 49 83 58 84 50 85 51 86 57 87
REMARK SMILES IDX 59 88 52 89 53 90 54 91 55 92 56 93
REMARK H PARENT 13 7 18 24 80 43 46 54
REMARK Flexibility Score: inf
ROOT
ATOM      1  C   UNL A   1      34.099  28.342  25.632  1.00  0.00     0.023 C 
ENDROOT
BRANCH   1   2
ATOM      2  C   UNL A   1      33.492  29.427  24.736  1.00  0.00     0.023 C 
BRANCH   2   3
ATOM      3  C   UNL A   1      33.104  28.946  23.338  1.00  0.00     0.116 C 
BRANCH   3   4
ATOM      4  N   UNL A   1      31.696  29.187  23.075  1.00  0.00    -0.353 N 
ATOM      5  C   UNL A   1      30.624  28.363  23.222  1.00  0.00     0.244 C 
ATOM      6  O   UNL A   1      29.487  28.788  23.032  1.00  0.00    -0.270 OA
ATOM      7  H   UNL A   1      31.485  30.086  22.733  1.00  0.00     0.163 HD
BRANCH   5   8
ATOM      8  C   UNL A   1      30.800  26.976  23.705  1.00  0.00     0.072 C 
ATOM      9  C   UNL A   1      31.148  26.652  24.958  1.00  0.00     0.018 C 
BRANCH   9  10
ATOM     10  C   UNL A   1      31.327  25.261  25.416  1.00  0.00     0.022 A 
ATOM     11  C   UNL A   1      32.621  23.202  25.531  1.00  0.00     0.162 A 
ATOM     12  C   UNL A   1      31.588  22.611  26.273  1.00  0.00     0.071 A 
ATOM     13  C   UNL A   1      32.511  24.541  25.107  1.00  0.00     0.168 A 
ATOM     14  C   UNL A   1      30.428  23.325  26.554  1.00  0.00     0.045 A 
ATOM     15  Cl  UNL A   1      29.160  22.576  27.446  1.00  0.00    -0.084 Cl
ATOM     16  C   UNL A   1      30.288  24.638  26.124  1.00  0.00     0.032 A 
BRANCH  11  17
ATOM     17  O   UNL A   1      33.769  22.485  25.308  1.00  0.00    -0.493 OA
ATOM     18  C   UNL A   1      33.560  21.325  24.502  1.00  0.00     0.278 C 
ENDBRANCH  11  17
BRANCH  13  19
ATOM     19  O   UNL A   1      33.445  25.269  24.412  1.00  0.00    -0.492 OA
ATOM     20  C   UNL A   1      33.693  24.973  23.046  1.00  0.00     0.278 C 
ENDBRANCH  13  19
ENDBRANCH   9  10
ENDBRANCH   5   8
ENDBRANCH   3   4
ENDBRANCH   2   3
ENDBRANCH   1   2
BRANCH   1  21
ATOM     21  C   UNL A   1      33.700  28.412  27.104  1.00  0.00     0.116 C 
BRANCH  21  22
ATOM     22  N   UNL A   1      33.557  29.774  27.596  1.00  0.00    -0.352 N 
ATOM     23  C   UNL A   1      34.485  30.555  28.245  1.00  0.00     0.251 C 
ATOM     24  H   UNL A   1      32.678  30.192  27.443  1.00  0.00     0.163 HD
ATOM     25  O   UNL A   1      34.165  31.650  28.688  1.00  0.00    -0.269 OA
BRANCH  23  26
ATOM     26  C   UNL A   1      35.857  30.040  28.435  1.00  0.00     0.039 A 
ATOM     27  C   UNL A   1      36.773  30.163  27.387  1.00  0.00     0.014 A 
ATOM     28  C   UNL A   1      36.246  29.465  29.649  1.00  0.00     0.014 A 
ATOM     29  C   UNL A   1      38.100  29.774  27.581  1.00  0.00     0.010 A 
ATOM     30  C   UNL A   1      37.581  29.135  29.859  1.00  0.00     0.010 A 
ATOM     31  C   UNL A   1      38.522  29.291  28.830  1.00  0.00    -0.014 A 
BRANCH  31  32
ATOM     32  C   UNL A   1      39.947  28.957  29.084  1.00  0.00     0.031 A 
ATOM     33  C   UNL A   1      40.876  29.993  29.652  1.00  0.00     0.074 A 
ATOM     34  C   UNL A   1      40.415  27.744  28.734  1.00  0.00     0.049 A 
ATOM     35  N   UNL A   1      42.162  29.913  29.876  1.00  0.00    -0.248 NA
ATOM     36  C   UNL A   1      40.289  31.300  29.985  1.00  0.00     0.031 C 
ATOM     37  C   UNL A   1      39.623  26.673  28.125  1.00  0.00     0.029 A 
ATOM     38  N   UNL A   1      41.676  27.209  28.828  1.00  0.00    -0.354 N 
ATOM     39  C   UNL A   1      42.541  31.160  30.358  1.00  0.00     0.074 A 
ATOM     40  C   UNL A   1      41.357  31.992  30.350  1.00  0.00     0.031 C 
ATOM     41  C   UNL A   1      40.409  25.604  27.919  1.00  0.00     0.029 A 
ATOM     42  C   UNL A   1      41.767  25.923  28.350  1.00  0.00     0.049 A 
ATOM     43  H   UNL A   1      42.442  27.700  29.202  1.00  0.00     0.167 HD
ATOM     44  C   UNL A   1      43.759  31.567  30.787  1.00  0.00     0.037 A 
ATOM     45  C   UNL A   1      42.826  25.095  28.265  1.00  0.00     0.037 A 
ATOM     46  C   UNL A   1      44.926  30.724  30.821  1.00  0.00     0.049 A 
ATOM     47  C   UNL A   1      44.165  25.563  28.763  1.00  0.00     0.074 A 
ATOM     48  C   UNL A   1      46.190  31.021  31.301  1.00  0.00     0.029 A 
ATOM     49  N   UNL A   1      44.973  29.419  30.355  1.00  0.00    -0.354 N 
ATOM     50  N   UNL A   1      44.492  26.725  29.278  1.00  0.00    -0.248 NA
ATOM     51  C   UNL A   1      45.279  24.609  28.676  1.00  0.00     0.031 C 
ATOM     52  C   UNL A   1      47.009  29.907  31.093  1.00  0.00     0.029 A 
ATOM     53  C   UNL A   1      46.247  28.901  30.520  1.00  0.00     0.049 A 
ATOM     54  H   UNL A   1      44.212  28.931  29.964  1.00  0.00     0.167 HD
ATOM     55  C   UNL A   1      45.842  26.634  29.598  1.00  0.00     0.074 A 
ATOM     56  C   UNL A   1      46.268  25.299  29.227  1.00  0.00     0.031 C 
ATOM     57  C   UNL A   1      46.653  27.569  30.149  1.00  0.00     0.037 A 
BRANCH  44  58
ATOM     58  C   UNL A   1      43.887  32.990  31.260  1.00  0.00     0.058 A 
ATOM     59  C   UNL A   1      43.751  33.328  32.615  1.00  0.00     0.135 A 
ATOM     60  C   UNL A   1      44.164  34.023  30.351  1.00  0.00     0.135 A 
ATOM     61  F   UNL A   1      43.472  32.381  33.525  1.00  0.00    -0.206 F 
ATOM     62  C   UNL A   1      43.850  34.647  33.049  1.00  0.00     0.059 A 
ATOM     63  C   UNL A   1      44.293  35.345  30.766  1.00  0.00     0.059 A 
ATOM     64  F   UNL A   1      44.304  33.754  29.043  1.00  0.00    -0.206 F 
ATOM     65  C   UNL A   1      44.116  35.649  32.115  1.00  0.00     0.060 A 
BRANCH  65  66
ATOM     66  S   UNL A   1      44.229  37.357  32.690  1.00  0.00     0.124 S 
ATOM     67  O   UNL A   1      44.095  38.093  31.436  1.00  0.00    -0.237 OA
ATOM     68  O   UNL A   1      43.098  37.456  33.607  1.00  0.00    -0.237 OA
ATOM     69  O   UNL A   1      45.546  37.416  33.316  1.00  0.00    -0.744 OA
ENDBRANCH  65  66
ENDBRANCH  44  58
BRANCH  45  70
ATOM     70  C   UNL A   1      42.652  23.725  27.715  1.00  0.00     0.058 A 
ATOM     71  C   UNL A   1      42.720  23.493  26.334  1.00  0.00     0.135 A 
ATOM     72  C   UNL A   1      42.441  22.622  28.555  1.00  0.00     0.135 A 
ATOM     73  F   UNL A   1      42.915  24.518  25.491  1.00  0.00    -0.206 F 
ATOM     74  C   UNL A   1      42.576  22.215  25.802  1.00  0.00     0.059 A 
ATOM     75  C   UNL A   1      42.315  21.331  28.049  1.00  0.00     0.059 A 
ATOM     76  F   UNL A   1      42.384  22.790  29.886  1.00  0.00    -0.206 F 
ATOM     77  C   UNL A   1      42.377  21.140  26.669  1.00  0.00     0.060 A 
BRANCH  77  78
ATOM     78  S   UNL A   1      42.253  19.478  25.972  1.00  0.00     0.124 S 
ATOM     79  O   UNL A   1      40.827  19.385  25.686  1.00  0.00    -0.237 OA
ATOM     80  O   UNL A   1      43.134  19.565  24.811  1.00  0.00    -0.237 OA
ATOM     81  O   UNL A   1      42.739  18.626  27.053  1.00  0.00    -0.744 OA
ENDBRANCH  77  78
ENDBRANCH  45  70
BRANCH  57  82
ATOM     82  C   UNL A   1      48.079  27.175  30.413  1.00  0.00     0.058 A 
ATOM     83  C   UNL A   1      49.098  27.435  29.482  1.00  0.00     0.135 A 
ATOM     84  C   UNL A   1      48.439  26.579  31.633  1.00  0.00     0.135 A 
ATOM     85  F   UNL A   1      48.805  27.996  28.299  1.00  0.00    -0.206 F 
ATOM     86  C   UNL A   1      50.422  27.099  29.745  1.00  0.00     0.059 A 
ATOM     87  C   UNL A   1      49.759  26.257  31.925  1.00  0.00     0.059 A 
ATOM     88  F   UNL A   1      47.502  26.318  32.559  1.00  0.00    -0.206 F 
ATOM     89  C   UNL A   1      50.743  26.511  30.970  1.00  0.00     0.060 A 
BRANCH  89  90
ATOM     90  S   UNL A   1      52.470  26.113  31.315  1.00  0.00     0.124 S 
ATOM     91  O   UNL A   1      52.819  27.142  32.288  1.00  0.00    -0.237 OA
ATOM     92  O   UNL A   1      52.382  24.752  31.835  1.00  0.00    -0.237 OA
ATOM     93  O   UNL A   1      53.114  26.237  30.011  1.00  0.00    -0.744 OA
ENDBRANCH  89  90
ENDBRANCH  57  82
ENDBRANCH  31  32
ENDBRANCH  23  26
ENDBRANCH  21  22
ENDBRANCH   1  21
TORSDOF 17
ENDMDL
