MODEL 1
REMARK VINA RESULT:     -11.3      0.000      0.000
REMARK SMILES CSCC[C@H](NC(=O)N[C@@H]1CCCCC1(C)C)C(=O)NCCCCNC(=O)c1ccc(-c2c3nc(c(-c4c(F)cc(S(=O)(=O)[O-])cc4F)c4ccc([nH]4)c(-c4c(F)cc(S(=O)(=O)[O-])cc4F)c4nc(c(-c5c(F)cc(S(=O)(=O)[O-])cc5F)c5ccc2[nH]5)C=C4)C=C3)cc1
REMARK SMILES IDX 22 1 21 2 20 3 18 4 19 5 5 7 4 8 3 9 2 10 1 11 6 12 7 13
REMARK SMILES IDX 8 15 9 16 10 18 11 19 15 20 12 21 14 22 16 23 17 24 13 25
REMARK SMILES IDX 23 26 24 27 25 28 26 29 27 31 28 32 29 33 93 34 30 35 92 36
REMARK SMILES IDX 31 37 32 38 33 39 86 40 34 41 91 42 85 43 87 44 35 45 90 46
REMARK SMILES IDX 84 47 83 48 36 50 70 51 49 52 69 53 50 54 53 55 68 56 88 57
REMARK SMILES IDX 51 58 52 59 67 61 89 62 54 63 37 64 38 65 47 66 39 67 40 68
REMARK SMILES IDX 46 69 48 70 41 71 42 72 43 73 44 74 45 75 71 76 72 77 81 78
REMARK SMILES IDX 73 79 74 80 80 81 82 82 75 83 76 84 77 85 78 86 79 87 55 88
REMARK SMILES IDX 56 89 65 90 57 91 58 92 64 93 66 94 59 95 60 96 61 97 62 98
REMARK SMILES IDX 63 99
REMARK H PARENT 20 6 6 14 9 17 25 30 87 49 53 60
REMARK Flexibility Score: inf
ROOT
ATOM      1  C   UNL A   1      31.477  27.700  27.076  1.00  0.00     0.023 C 
ENDROOT
BRANCH   1   2
ATOM      2  C   UNL A   1      31.659  26.328  26.447  1.00  0.00     0.116 C 
BRANCH   2   3
ATOM      3  N   UNL A   1      30.716  25.326  26.875  1.00  0.00    -0.354 N 
ATOM      4  C   UNL A   1      30.778  23.986  26.605  1.00  0.00     0.242 C 
ATOM      5  O   UNL A   1      30.340  23.209  27.458  1.00  0.00    -0.273 OA
ATOM      6  H   UNL A   1      29.954  25.636  27.416  1.00  0.00     0.163 HD
BRANCH   4   7
ATOM      7  C   UNL A   1      31.502  23.454  25.341  1.00  0.00     0.174 C 
BRANCH   7   8
ATOM      8  C   UNL A   1      30.778  24.029  24.088  1.00  0.00     0.046 C 
BRANCH   8   9
ATOM      9  C   UNL A   1      31.569  24.182  22.784  1.00  0.00     0.072 C 
BRANCH   9  10
ATOM     10  S   UNL A   1      32.084  25.903  22.412  1.00  0.00    -0.165 SA
ATOM     11  C   UNL A   1      32.687  25.745  20.709  1.00  0.00     0.085 C 
ENDBRANCH   9  10
ENDBRANCH   8   9
ENDBRANCH   7   8
BRANCH   7  12
ATOM     12  N   UNL A   1      31.707  21.998  25.327  1.00  0.00    -0.326 N 
ATOM     13  C   UNL A   1      32.641  21.075  25.171  1.00  0.00     0.315 C 
ATOM     14  H   UNL A   1      30.844  21.553  25.490  1.00  0.00     0.166 HD
ATOM     15  O   UNL A   1      32.177  19.963  24.865  1.00  0.00    -0.249 OA
ATOM     16  N   UNL A   1      33.961  21.105  25.239  1.00  0.00    -0.335 N 
ATOM     17  H   UNL A   1      34.274  20.372  24.662  1.00  0.00     0.165 HD
BRANCH  16  18
ATOM     18  C   UNL A   1      35.204  21.749  25.793  1.00  0.00     0.089 C 
ATOM     19  C   UNL A   1      34.903  23.243  26.065  1.00  0.00     0.025 C 
ATOM     20  C   UNL A   1      36.536  21.614  25.035  1.00  0.00    -0.015 C 
ATOM     21  C   UNL A   1      34.812  24.063  24.780  1.00  0.00     0.002 C 
ATOM     22  C   UNL A   1      36.341  22.324  23.678  1.00  0.00     0.008 C 
ATOM     23  C   UNL A   1      37.739  22.294  25.745  1.00  0.00     0.013 C 
ATOM     24  C   UNL A   1      36.924  20.126  25.018  1.00  0.00     0.013 C 
ATOM     25  C   UNL A   1      35.959  23.808  23.802  1.00  0.00     0.001 C 
ENDBRANCH  16  18
ENDBRANCH   7  12
ENDBRANCH   4   7
ENDBRANCH   2   3
ENDBRANCH   1   2
BRANCH   1  26
ATOM     26  C   UNL A   1      32.309  28.819  26.465  1.00  0.00     0.023 C 
BRANCH  26  27
ATOM     27  C   UNL A   1      33.635  29.113  27.152  1.00  0.00     0.116 C 
BRANCH  27  28
ATOM     28  N   UNL A   1      33.669  30.345  27.935  1.00  0.00    -0.352 N 
ATOM     29  C   UNL A   1      34.749  30.880  28.603  1.00  0.00     0.251 C 
ATOM     30  H   UNL A   1      32.825  30.849  27.993  1.00  0.00     0.163 HD
ATOM     31  O   UNL A   1      34.669  31.944  29.206  1.00  0.00    -0.269 OA
BRANCH  29  32
ATOM     32  C   UNL A   1      35.991  30.088  28.623  1.00  0.00     0.039 A 
ATOM     33  C   UNL A   1      36.809  30.108  27.493  1.00  0.00     0.014 A 
ATOM     34  C   UNL A   1      36.426  29.527  29.826  1.00  0.00     0.014 A 
ATOM     35  C   UNL A   1      38.124  29.657  27.599  1.00  0.00     0.010 A 
ATOM     36  C   UNL A   1      37.759  29.159  29.948  1.00  0.00     0.010 A 
ATOM     37  C   UNL A   1      38.625  29.239  28.842  1.00  0.00    -0.014 A 
BRANCH  37  38
ATOM     38  C   UNL A   1      40.052  28.879  29.029  1.00  0.00     0.031 A 
ATOM     39  C   UNL A   1      41.011  29.935  29.502  1.00  0.00     0.074 A 
ATOM     40  C   UNL A   1      40.500  27.658  28.673  1.00  0.00     0.049 A 
ATOM     41  N   UNL A   1      42.316  29.907  29.545  1.00  0.00    -0.248 NA
ATOM     42  C   UNL A   1      40.419  31.211  29.938  1.00  0.00     0.031 C 
ATOM     43  C   UNL A   1      39.673  26.565  28.155  1.00  0.00     0.029 A 
ATOM     44  N   UNL A   1      41.769  27.137  28.674  1.00  0.00    -0.354 N 
ATOM     45  C   UNL A   1      42.702  31.174  29.966  1.00  0.00     0.074 A 
ATOM     46  C   UNL A   1      41.497  31.957  30.122  1.00  0.00     0.031 C 
ATOM     47  C   UNL A   1      40.454  25.499  27.907  1.00  0.00     0.029 A 
ATOM     48  C   UNL A   1      41.840  25.844  28.206  1.00  0.00     0.049 A 
ATOM     49  H   UNL A   1      42.558  27.641  28.980  1.00  0.00     0.167 HD
ATOM     50  C   UNL A   1      43.948  31.633  30.222  1.00  0.00     0.037 A 
ATOM     51  C   UNL A   1      42.904  25.037  28.028  1.00  0.00     0.037 A 
ATOM     52  C   UNL A   1      45.133  30.825  30.127  1.00  0.00     0.049 A 
ATOM     53  C   UNL A   1      44.277  25.553  28.369  1.00  0.00     0.074 A 
ATOM     54  C   UNL A   1      46.438  31.172  30.429  1.00  0.00     0.029 A 
ATOM     55  N   UNL A   1      45.153  29.500  29.717  1.00  0.00    -0.354 N 
ATOM     56  N   UNL A   1      44.623  26.742  28.802  1.00  0.00    -0.248 NA
ATOM     57  C   UNL A   1      45.403  24.625  28.198  1.00  0.00     0.031 C 
ATOM     58  C   UNL A   1      47.250  30.060  30.182  1.00  0.00     0.029 A 
ATOM     59  C   UNL A   1      46.446  29.013  29.758  1.00  0.00     0.049 A 
ATOM     60  H   UNL A   1      44.363  28.983  29.437  1.00  0.00     0.167 HD
ATOM     61  C   UNL A   1      46.000  26.695  28.984  1.00  0.00     0.074 A 
ATOM     62  C   UNL A   1      46.424  25.361  28.615  1.00  0.00     0.031 C 
ATOM     63  C   UNL A   1      46.838  27.669  29.416  1.00  0.00     0.037 A 
BRANCH  50  64
ATOM     64  C   UNL A   1      44.083  33.070  30.637  1.00  0.00     0.058 A 
ATOM     65  C   UNL A   1      44.295  34.091  29.697  1.00  0.00     0.135 A 
ATOM     66  C   UNL A   1      44.000  33.433  31.990  1.00  0.00     0.135 A 
ATOM     67  F   UNL A   1      44.402  33.795  28.391  1.00  0.00    -0.206 F 
ATOM     68  C   UNL A   1      44.459  35.415  30.084  1.00  0.00     0.059 A 
ATOM     69  C   UNL A   1      44.133  34.757  32.400  1.00  0.00     0.059 A 
ATOM     70  F   UNL A   1      43.800  32.496  32.931  1.00  0.00    -0.206 F 
ATOM     71  C   UNL A   1      44.381  35.738  31.440  1.00  0.00     0.060 A 
BRANCH  71  72
ATOM     72  S   UNL A   1      44.608  37.460  31.932  1.00  0.00     0.124 S 
ATOM     73  O   UNL A   1      44.283  37.399  33.354  1.00  0.00    -0.237 OA
ATOM     74  O   UNL A   1      46.013  37.694  31.615  1.00  0.00    -0.237 OA
ATOM     75  O   UNL A   1      43.650  38.178  31.098  1.00  0.00    -0.744 OA
ENDBRANCH  71  72
ENDBRANCH  50  64
BRANCH  51  76
ATOM     76  C   UNL A   1      42.715  23.649  27.528  1.00  0.00     0.058 A 
ATOM     77  C   UNL A   1      42.554  22.581  28.424  1.00  0.00     0.135 A 
ATOM     78  C   UNL A   1      42.681  23.360  26.156  1.00  0.00     0.135 A 
ATOM     79  F   UNL A   1      42.584  22.805  29.745  1.00  0.00    -0.206 F 
ATOM     80  C   UNL A   1      42.382  21.273  27.978  1.00  0.00     0.059 A 
ATOM     81  C   UNL A   1      42.491  22.063  25.684  1.00  0.00     0.059 A 
ATOM     82  F   UNL A   1      42.815  24.348  25.257  1.00  0.00    -0.206 F 
ATOM     83  C   UNL A   1      42.352  21.025  26.605  1.00  0.00     0.060 A 
BRANCH  83  84
ATOM     84  S   UNL A   1      42.082  19.331  26.036  1.00  0.00     0.124 S 
ATOM     85  O   UNL A   1      40.669  19.363  25.681  1.00  0.00    -0.237 OA
ATOM     86  O   UNL A   1      43.019  19.228  24.921  1.00  0.00    -0.237 OA
ATOM     87  O   UNL A   1      42.424  18.528  27.206  1.00  0.00    -0.744 OA
ENDBRANCH  83  84
ENDBRANCH  51  76
BRANCH  63  88
ATOM     88  C   UNL A   1      48.290  27.324  29.566  1.00  0.00     0.058 A 
ATOM     89  C   UNL A   1      49.221  27.620  28.560  1.00  0.00     0.135 A 
ATOM     90  C   UNL A   1      48.768  26.791  30.774  1.00  0.00     0.135 A 
ATOM     91  F   UNL A   1      48.812  28.125  27.386  1.00  0.00    -0.206 F 
ATOM     92  C   UNL A   1      50.582  27.402  28.748  1.00  0.00     0.059 A 
ATOM     93  C   UNL A   1      50.124  26.582  30.991  1.00  0.00     0.059 A 
ATOM     94  F   UNL A   1      47.913  26.500  31.767  1.00  0.00    -0.206 F 
ATOM     95  C   UNL A   1      51.025  26.890  29.971  1.00  0.00     0.060 A 
BRANCH  95  96
ATOM     96  S   UNL A   1      52.799  26.688  30.234  1.00  0.00     0.124 S 
ATOM     97  O   UNL A   1      53.188  28.029  30.657  1.00  0.00    -0.237 OA
ATOM     98  O   UNL A   1      52.848  25.658  31.269  1.00  0.00    -0.237 OA
ATOM     99  O   UNL A   1      53.291  26.272  28.924  1.00  0.00    -0.744 OA
ENDBRANCH  95  96
ENDBRANCH  63  88
ENDBRANCH  37  38
ENDBRANCH  29  32
ENDBRANCH  27  28
ENDBRANCH  26  27
ENDBRANCH   1  26
TORSDOF 19
ENDMDL
MODEL 2
REMARK VINA RESULT:     -11.1      2.673      3.546
REMARK SMILES CSCC[C@H](NC(=O)N[C@@H]1CCCCC1(C)C)C(=O)NCCCCNC(=O)c1ccc(-c2c3nc(c(-c4c(F)cc(S(=O)(=O)[O-])cc4F)c4ccc([nH]4)c(-c4c(F)cc(S(=O)(=O)[O-])cc4F)c4nc(c(-c5c(F)cc(S(=O)(=O)[O-])cc5F)c5ccc2[nH]5)C=C4)C=C3)cc1
REMARK SMILES IDX 22 1 21 2 20 3 18 4 19 5 5 7 4 8 3 9 2 10 1 11 6 12 7 13
REMARK SMILES IDX 8 15 9 16 10 18 11 19 15 20 12 21 14 22 16 23 17 24 13 25
REMARK SMILES IDX 23 26 24 27 25 28 26 29 27 31 28 32 29 33 93 34 30 35 92 36
REMARK SMILES IDX 31 37 32 38 33 39 86 40 34 41 91 42 85 43 87 44 35 45 90 46
REMARK SMILES IDX 84 47 83 48 36 50 70 51 49 52 69 53 50 54 53 55 68 56 88 57
REMARK SMILES IDX 51 58 52 59 67 61 89 62 54 63 37 64 38 65 47 66 39 67 40 68
REMARK SMILES IDX 46 69 48 70 41 71 42 72 43 73 44 74 45 75 71 76 72 77 81 78
REMARK SMILES IDX 73 79 74 80 80 81 82 82 75 83 76 84 77 85 78 86 79 87 55 88
REMARK SMILES IDX 56 89 65 90 57 91 58 92 64 93 66 94 59 95 60 96 61 97 62 98
REMARK SMILES IDX 63 99
REMARK H PARENT 20 6 6 14 9 17 25 30 87 49 53 60
REMARK Flexibility Score: inf
ROOT
ATOM      1  C   UNL A   1      33.746  28.579  26.868  1.00  0.00     0.023 C 
ENDROOT
BRANCH   1   2
ATOM      2  C   UNL A   1      33.095  28.347  25.514  1.00  0.00     0.116 C 
BRANCH   2   3
ATOM      3  N   UNL A   1      31.743  27.851  25.559  1.00  0.00    -0.354 N 
ATOM      4  C   UNL A   1      30.987  27.459  24.488  1.00  0.00     0.242 C 
ATOM      5  O   UNL A   1      30.177  26.544  24.663  1.00  0.00    -0.273 OA
ATOM      6  H   UNL A   1      31.323  27.787  26.448  1.00  0.00     0.163 HD
BRANCH   4   7
ATOM      7  C   UNL A   1      31.237  28.039  23.072  1.00  0.00     0.174 C 
BRANCH   7   8
ATOM      8  C   UNL A   1      29.884  28.586  22.525  1.00  0.00     0.046 C 
BRANCH   8   9
ATOM      9  C   UNL A   1      29.823  30.031  22.017  1.00  0.00     0.072 C 
BRANCH   9  10
ATOM     10  S   UNL A   1      28.128  30.626  21.645  1.00  0.00    -0.165 SA
ATOM     11  C   UNL A   1      27.695  31.484  23.183  1.00  0.00     0.085 C 
ENDBRANCH   9  10
ENDBRANCH   8   9
ENDBRANCH   7   8
BRANCH   7  12
ATOM     12  N   UNL A   1      31.955  27.135  22.163  1.00  0.00    -0.326 N 
ATOM     13  C   UNL A   1      32.885  26.196  22.142  1.00  0.00     0.315 C 
ATOM     14  H   UNL A   1      31.629  27.281  21.246  1.00  0.00     0.166 HD
ATOM     15  O   UNL A   1      33.389  26.038  21.017  1.00  0.00    -0.249 OA
ATOM     16  N   UNL A   1      33.409  25.422  23.078  1.00  0.00    -0.335 N 
ATOM     17  H   UNL A   1      34.315  25.197  22.762  1.00  0.00     0.165 HD
BRANCH  16  18
ATOM     18  C   UNL A   1      33.255  24.729  24.405  1.00  0.00     0.089 C 
ATOM     19  C   UNL A   1      34.603  24.813  25.161  1.00  0.00     0.025 C 
ATOM     20  C   UNL A   1      32.718  23.287  24.455  1.00  0.00    -0.015 C 
ATOM     21  C   UNL A   1      35.661  23.882  24.573  1.00  0.00     0.002 C 
ATOM     22  C   UNL A   1      33.747  22.410  23.712  1.00  0.00     0.008 C 
ATOM     23  C   UNL A   1      32.574  22.716  25.893  1.00  0.00     0.013 C 
ATOM     24  C   UNL A   1      31.273  23.301  23.930  1.00  0.00     0.013 C 
ATOM     25  C   UNL A   1      35.159  22.461  24.315  1.00  0.00     0.001 C 
ENDBRANCH  16  18
ENDBRANCH   7  12
ENDBRANCH   4   7
ENDBRANCH   2   3
ENDBRANCH   1   2
BRANCH   1  26
ATOM     26  C   UNL A   1      33.946  30.037  27.260  1.00  0.00     0.023 C 
BRANCH  26  27
ATOM     27  C   UNL A   1      35.328  30.399  27.784  1.00  0.00     0.116 C 
BRANCH  27  28
ATOM     28  N   UNL A   1      35.366  30.863  29.168  1.00  0.00    -0.352 N 
ATOM     29  C   UNL A   1      36.392  30.705  30.074  1.00  0.00     0.251 C 
ATOM     30  H   UNL A   1      34.567  31.341  29.491  1.00  0.00     0.163 HD
ATOM     31  O   UNL A   1      36.326  31.166  31.207  1.00  0.00    -0.269 OA
BRANCH  29  32
ATOM     32  C   UNL A   1      37.548  29.896  29.650  1.00  0.00     0.039 A 
ATOM     33  C   UNL A   1      37.973  29.991  28.324  1.00  0.00     0.014 A 
ATOM     34  C   UNL A   1      38.317  29.241  30.614  1.00  0.00     0.014 A 
ATOM     35  C   UNL A   1      39.238  29.515  27.981  1.00  0.00     0.010 A 
ATOM     36  C   UNL A   1      39.607  28.847  30.287  1.00  0.00     0.010 A 
ATOM     37  C   UNL A   1      40.087  28.998  28.972  1.00  0.00    -0.014 A 
BRANCH  37  38
ATOM     38  C   UNL A   1      41.487  28.607  28.677  1.00  0.00     0.031 A 
ATOM     39  C   UNL A   1      42.552  29.667  28.672  1.00  0.00     0.074 A 
ATOM     40  C   UNL A   1      41.778  27.343  28.310  1.00  0.00     0.049 A 
ATOM     41  N   UNL A   1      43.786  29.596  28.253  1.00  0.00    -0.248 NA
ATOM     42  C   UNL A   1      42.154  30.999  29.159  1.00  0.00     0.031 C 
ATOM     43  C   UNL A   1      40.820  26.236  28.230  1.00  0.00     0.029 A 
ATOM     44  N   UNL A   1      42.965  26.778  27.913  1.00  0.00    -0.354 N 
ATOM     45  C   UNL A   1      44.298  30.882  28.381  1.00  0.00     0.074 A 
ATOM     46  C   UNL A   1      43.227  31.720  28.874  1.00  0.00     0.031 C 
ATOM     47  C   UNL A   1      41.461  25.124  27.830  1.00  0.00     0.029 A 
ATOM     48  C   UNL A   1      42.864  25.446  27.583  1.00  0.00     0.049 A 
ATOM     49  H   UNL A   1      43.811  27.280  27.869  1.00  0.00     0.167 HD
ATOM     50  C   UNL A   1      45.554  31.318  28.131  1.00  0.00     0.037 A 
ATOM     51  C   UNL A   1      43.795  24.587  27.121  1.00  0.00     0.037 A 
ATOM     52  C   UNL A   1      46.627  30.463  27.705  1.00  0.00     0.049 A 
ATOM     53  C   UNL A   1      45.199  25.084  26.900  1.00  0.00     0.074 A 
ATOM     54  C   UNL A   1      47.953  30.789  27.489  1.00  0.00     0.029 A 
ATOM     55  N   UNL A   1      46.499  29.105  27.449  1.00  0.00    -0.354 N 
ATOM     56  N   UNL A   1      45.676  26.295  27.062  1.00  0.00    -0.248 NA
ATOM     57  C   UNL A   1      46.190  24.103  26.436  1.00  0.00     0.031 C 
ATOM     58  C   UNL A   1      48.624  29.630  27.083  1.00  0.00     0.029 A 
ATOM     59  C   UNL A   1      47.721  28.578  27.078  1.00  0.00     0.049 A 
ATOM     60  H   UNL A   1      45.661  28.593  27.521  1.00  0.00     0.167 HD
ATOM     61  C   UNL A   1      47.028  26.216  26.748  1.00  0.00     0.074 A 
ATOM     62  C   UNL A   1      47.293  24.838  26.389  1.00  0.00     0.031 C 
ATOM     63  C   UNL A   1      47.965  27.194  26.756  1.00  0.00     0.037 A 
BRANCH  50  64
ATOM     64  C   UNL A   1      45.828  32.782  28.327  1.00  0.00     0.058 A 
ATOM     65  C   UNL A   1      45.633  33.711  27.292  1.00  0.00     0.135 A 
ATOM     66  C   UNL A   1      46.291  33.264  29.561  1.00  0.00     0.135 A 
ATOM     67  F   UNL A   1      45.210  33.299  26.085  1.00  0.00    -0.206 F 
ATOM     68  C   UNL A   1      45.924  35.059  27.460  1.00  0.00     0.059 A 
ATOM     69  C   UNL A   1      46.563  34.614  29.761  1.00  0.00     0.059 A 
ATOM     70  F   UNL A   1      46.496  32.418  30.583  1.00  0.00    -0.206 F 
ATOM     71  C   UNL A   1      46.394  35.500  28.698  1.00  0.00     0.060 A 
BRANCH  71  72
ATOM     72  S   UNL A   1      46.780  37.252  28.900  1.00  0.00     0.124 S 
ATOM     73  O   UNL A   1      46.357  37.792  27.611  1.00  0.00    -0.237 OA
ATOM     74  O   UNL A   1      45.954  37.625  30.044  1.00  0.00    -0.237 OA
ATOM     75  O   UNL A   1      48.219  37.255  29.141  1.00  0.00    -0.744 OA
ENDBRANCH  71  72
ENDBRANCH  50  64
BRANCH  51  76
ATOM     76  C   UNL A   1      43.439  23.167  26.862  1.00  0.00     0.058 A 
ATOM     77  C   UNL A   1      43.225  22.277  27.926  1.00  0.00     0.135 A 
ATOM     78  C   UNL A   1      43.296  22.671  25.558  1.00  0.00     0.135 A 
ATOM     79  F   UNL A   1      43.355  22.702  29.191  1.00  0.00    -0.206 F 
ATOM     80  C   UNL A   1      42.898  20.942  27.707  1.00  0.00     0.059 A 
ATOM     81  C   UNL A   1      42.950  21.344  25.312  1.00  0.00     0.059 A 
ATOM     82  F   UNL A   1      43.474  23.485  24.505  1.00  0.00    -0.206 F 
ATOM     83  C   UNL A   1      42.763  20.484  26.395  1.00  0.00     0.060 A 
BRANCH  83  84
ATOM     84  S   UNL A   1      42.293  18.761  26.120  1.00  0.00     0.124 S 
ATOM     85  O   UNL A   1      42.494  18.189  27.446  1.00  0.00    -0.237 OA
ATOM     86  O   UNL A   1      40.906  18.886  25.682  1.00  0.00    -0.237 OA
ATOM     87  O   UNL A   1      43.229  18.321  25.091  1.00  0.00    -0.744 OA
ENDBRANCH  83  84
ENDBRANCH  51  76
BRANCH  63  88
ATOM     88  C   UNL A   1      49.376  26.813  26.415  1.00  0.00     0.058 A 
ATOM     89  C   UNL A   1      50.248  26.293  27.381  1.00  0.00     0.135 A 
ATOM     90  C   UNL A   1      49.820  26.871  25.085  1.00  0.00     0.135 A 
ATOM     91  F   UNL A   1      49.871  26.224  28.668  1.00  0.00    -0.206 F 
ATOM     92  C   UNL A   1      51.517  25.838  27.039  1.00  0.00     0.059 A 
ATOM     93  C   UNL A   1      51.077  26.405  24.716  1.00  0.00     0.059 A 
ATOM     94  F   UNL A   1      49.016  27.355  24.125  1.00  0.00    -0.206 F 
ATOM     95  C   UNL A   1      51.919  25.890  25.702  1.00  0.00     0.060 A 
BRANCH  95  96
ATOM     96  S   UNL A   1      53.536  25.221  25.256  1.00  0.00     0.124 S 
ATOM     97  O   UNL A   1      53.704  25.737  23.902  1.00  0.00    -0.237 OA
ATOM     98  O   UNL A   1      54.408  25.806  26.271  1.00  0.00    -0.237 OA
ATOM     99  O   UNL A   1      53.346  23.777  25.360  1.00  0.00    -0.744 OA
ENDBRANCH  95  96
ENDBRANCH  63  88
ENDBRANCH  37  38
ENDBRANCH  29  32
ENDBRANCH  27  28
ENDBRANCH  26  27
ENDBRANCH   1  26
TORSDOF 19
ENDMDL
MODEL 3
REMARK VINA RESULT:     -11.1      3.439      9.614
REMARK SMILES CSCC[C@H](NC(=O)N[C@@H]1CCCCC1(C)C)C(=O)NCCCCNC(=O)c1ccc(-c2c3nc(c(-c4c(F)cc(S(=O)(=O)[O-])cc4F)c4ccc([nH]4)c(-c4c(F)cc(S(=O)(=O)[O-])cc4F)c4nc(c(-c5c(F)cc(S(=O)(=O)[O-])cc5F)c5ccc2[nH]5)C=C4)C=C3)cc1
REMARK SMILES IDX 22 1 21 2 20 3 18 4 19 5 5 7 4 8 3 9 2 10 1 11 6 12 7 13
REMARK SMILES IDX 8 15 9 16 10 18 11 19 15 20 12 21 14 22 16 23 17 24 13 25
REMARK SMILES IDX 23 26 24 27 25 28 26 29 27 31 28 32 29 33 93 34 30 35 92 36
REMARK SMILES IDX 31 37 32 38 33 39 86 40 34 41 91 42 85 43 87 44 35 45 90 46
REMARK SMILES IDX 84 47 83 48 36 50 70 51 49 52 69 53 50 54 53 55 68 56 88 57
REMARK SMILES IDX 51 58 52 59 67 61 89 62 54 63 37 64 38 65 47 66 39 67 40 68
REMARK SMILES IDX 46 69 48 70 41 71 42 72 43 73 44 74 45 75 71 76 72 77 81 78
REMARK SMILES IDX 73 79 74 80 80 81 82 82 75 83 76 84 77 85 78 86 79 87 55 88
REMARK SMILES IDX 56 89 65 90 57 91 58 92 64 93 66 94 59 95 60 96 61 97 62 98
REMARK SMILES IDX 63 99
REMARK H PARENT 20 6 6 14 9 17 25 30 87 49 53 60
REMARK Flexibility Score: inf
ROOT
ATOM      1  C   UNL A   1      35.384  23.759  23.647  1.00  0.00     0.023 C 
ENDROOT
BRANCH   1   2
ATOM      2  C   UNL A   1      33.987  23.293  23.268  1.00  0.00     0.116 C 
BRANCH   2   3
ATOM      3  N   UNL A   1      33.539  23.698  21.960  1.00  0.00    -0.354 N 
ATOM      4  C   UNL A   1      32.838  24.834  21.659  1.00  0.00     0.242 C 
ATOM      5  O   UNL A   1      33.042  25.359  20.561  1.00  0.00    -0.273 OA
ATOM      6  H   UNL A   1      33.760  23.099  21.210  1.00  0.00     0.163 HD
BRANCH   4   7
ATOM      7  C   UNL A   1      31.928  25.519  22.710  1.00  0.00     0.174 C 
BRANCH   7   8
ATOM      8  C   UNL A   1      30.928  24.456  23.255  1.00  0.00     0.046 C 
BRANCH   8   9
ATOM      9  C   UNL A   1      30.451  24.567  24.707  1.00  0.00     0.072 C 
BRANCH   9  10
ATOM     10  S   UNL A   1      31.331  23.459  25.876  1.00  0.00    -0.165 SA
ATOM     11  C   UNL A   1      29.984  22.946  26.977  1.00  0.00     0.085 C 
ENDBRANCH   9  10
ENDBRANCH   8   9
ENDBRANCH   7   8
BRANCH   7  12
ATOM     12  N   UNL A   1      31.312  26.774  22.255  1.00  0.00    -0.326 N 
ATOM     13  C   UNL A   1      31.072  28.018  22.634  1.00  0.00     0.315 C 
ATOM     14  H   UNL A   1      30.952  26.642  21.348  1.00  0.00     0.166 HD
ATOM     15  O   UNL A   1      30.151  28.551  21.990  1.00  0.00    -0.249 OA
ATOM     16  N   UNL A   1      31.584  28.790  23.577  1.00  0.00    -0.335 N 
ATOM     17  H   UNL A   1      30.876  29.436  23.806  1.00  0.00     0.165 HD
BRANCH  16  18
ATOM     18  C   UNL A   1      32.753  29.134  24.461  1.00  0.00     0.089 C 
ATOM     19  C   UNL A   1      33.823  28.026  24.311  1.00  0.00     0.025 C 
ATOM     20  C   UNL A   1      32.518  29.435  25.952  1.00  0.00    -0.015 C 
ATOM     21  C   UNL A   1      33.422  26.729  25.009  1.00  0.00     0.002 C 
ATOM     22  C   UNL A   1      31.966  28.138  26.580  1.00  0.00     0.008 C 
ATOM     23  C   UNL A   1      33.809  29.813  26.731  1.00  0.00     0.013 C 
ATOM     24  C   UNL A   1      31.656  30.705  26.050  1.00  0.00     0.013 C 
ATOM     25  C   UNL A   1      32.901  26.928  26.433  1.00  0.00     0.001 C 
ENDBRANCH  16  18
ENDBRANCH   7  12
ENDBRANCH   4   7
ENDBRANCH   2   3
ENDBRANCH   1   2
BRANCH   1  26
ATOM     26  C   UNL A   1      36.308  22.684  24.202  1.00  0.00     0.023 C 
BRANCH  26  27
ATOM     27  C   UNL A   1      37.183  23.101  25.375  1.00  0.00     0.116 C 
BRANCH  27  28
ATOM     28  N   UNL A   1      38.475  22.426  25.456  1.00  0.00    -0.352 N 
ATOM     29  C   UNL A   1      39.606  22.864  26.112  1.00  0.00     0.251 C 
ATOM     30  H   UNL A   1      38.548  21.562  24.989  1.00  0.00     0.163 HD
ATOM     31  O   UNL A   1      40.632  22.195  26.139  1.00  0.00    -0.269 OA
BRANCH  29  32
ATOM     32  C   UNL A   1      39.557  24.204  26.722  1.00  0.00     0.039 A 
ATOM     33  C   UNL A   1      38.991  24.334  27.992  1.00  0.00     0.014 A 
ATOM     34  C   UNL A   1      40.263  25.254  26.131  1.00  0.00     0.014 A 
ATOM     35  C   UNL A   1      39.228  25.496  28.724  1.00  0.00     0.010 A 
ATOM     36  C   UNL A   1      40.567  26.370  26.897  1.00  0.00     0.010 A 
ATOM     37  C   UNL A   1      40.069  26.494  28.207  1.00  0.00    -0.014 A 
BRANCH  37  38
ATOM     38  C   UNL A   1      40.457  27.682  29.006  1.00  0.00     0.031 A 
ATOM     39  C   UNL A   1      41.748  27.650  29.775  1.00  0.00     0.074 A 
ATOM     40  C   UNL A   1      39.613  28.726  29.128  1.00  0.00     0.049 A 
ATOM     41  N   UNL A   1      42.188  28.477  30.685  1.00  0.00    -0.248 NA
ATOM     42  C   UNL A   1      42.636  26.504  29.520  1.00  0.00     0.031 C 
ATOM     43  C   UNL A   1      38.310  28.851  28.469  1.00  0.00     0.029 A 
ATOM     44  N   UNL A   1      39.716  29.876  29.870  1.00  0.00    -0.354 N 
ATOM     45  C   UNL A   1      43.380  27.927  31.143  1.00  0.00     0.074 A 
ATOM     46  C   UNL A   1      43.569  26.676  30.443  1.00  0.00     0.031 C 
ATOM     47  C   UNL A   1      37.747  30.020  28.820  1.00  0.00     0.029 A 
ATOM     48  C   UNL A   1      38.624  30.708  29.762  1.00  0.00     0.049 A 
ATOM     49  H   UNL A   1      40.499  30.088  30.428  1.00  0.00     0.167 HD
ATOM     50  C   UNL A   1      44.248  28.433  32.048  1.00  0.00     0.037 A 
ATOM     51  C   UNL A   1      38.359  31.883  30.365  1.00  0.00     0.037 A 
ATOM     52  C   UNL A   1      44.082  29.709  32.688  1.00  0.00     0.049 A 
ATOM     53  C   UNL A   1      39.365  32.452  31.330  1.00  0.00     0.074 A 
ATOM     54  C   UNL A   1      44.936  30.347  33.570  1.00  0.00     0.029 A 
ATOM     55  N   UNL A   1      42.997  30.551  32.498  1.00  0.00    -0.354 N 
ATOM     56  N   UNL A   1      40.505  31.937  31.725  1.00  0.00    -0.248 NA
ATOM     57  C   UNL A   1      39.052  33.755  31.932  1.00  0.00     0.031 C 
ATOM     58  C   UNL A   1      44.356  31.568  33.928  1.00  0.00     0.029 A 
ATOM     59  C   UNL A   1      43.158  31.704  33.244  1.00  0.00     0.049 A 
ATOM     60  H   UNL A   1      42.225  30.357  31.918  1.00  0.00     0.167 HD
ATOM     61  C   UNL A   1      41.060  32.867  32.597  1.00  0.00     0.074 A 
ATOM     62  C   UNL A   1      40.131  33.976  32.672  1.00  0.00     0.031 C 
ATOM     63  C   UNL A   1      42.231  32.808  33.276  1.00  0.00     0.037 A 
BRANCH  50  64
ATOM     64  C   UNL A   1      45.455  27.605  32.385  1.00  0.00     0.058 A 
ATOM     65  C   UNL A   1      45.465  26.734  33.486  1.00  0.00     0.135 A 
ATOM     66  C   UNL A   1      46.616  27.682  31.600  1.00  0.00     0.135 A 
ATOM     67  F   UNL A   1      44.387  26.638  34.281  1.00  0.00    -0.206 F 
ATOM     68  C   UNL A   1      46.595  25.998  33.821  1.00  0.00     0.059 A 
ATOM     69  C   UNL A   1      47.750  26.933  31.899  1.00  0.00     0.059 A 
ATOM     70  F   UNL A   1      46.660  28.500  30.536  1.00  0.00    -0.206 F 
ATOM     71  C   UNL A   1      47.735  26.108  33.023  1.00  0.00     0.060 A 
BRANCH  71  72
ATOM     72  S   UNL A   1      49.200  25.156  33.476  1.00  0.00     0.124 S 
ATOM     73  O   UNL A   1      49.913  25.099  32.203  1.00  0.00    -0.237 OA
ATOM     74  O   UNL A   1      49.811  25.990  34.506  1.00  0.00    -0.237 OA
ATOM     75  O   UNL A   1      48.648  23.889  33.943  1.00  0.00    -0.744 OA
ENDBRANCH  71  72
ENDBRANCH  50  64
BRANCH  51  76
ATOM     76  C   UNL A   1      37.101  32.615  30.056  1.00  0.00     0.058 A 
ATOM     77  C   UNL A   1      37.078  33.612  29.070  1.00  0.00     0.135 A 
ATOM     78  C   UNL A   1      35.902  32.331  30.726  1.00  0.00     0.135 A 
ATOM     79  F   UNL A   1      38.200  33.924  28.405  1.00  0.00    -0.206 F 
ATOM     80  C   UNL A   1      35.914  34.315  28.768  1.00  0.00     0.059 A 
ATOM     81  C   UNL A   1      34.720  33.005  30.429  1.00  0.00     0.059 A 
ATOM     82  F   UNL A   1      35.868  31.375  31.667  1.00  0.00    -0.206 F 
ATOM     83  C   UNL A   1      34.739  34.004  29.455  1.00  0.00     0.060 A 
BRANCH  83  84
ATOM     84  S   UNL A   1      33.223  34.888  29.025  1.00  0.00     0.124 S 
ATOM     85  O   UNL A   1      33.753  36.149  28.521  1.00  0.00    -0.237 OA
ATOM     86  O   UNL A   1      32.622  34.004  28.031  1.00  0.00    -0.237 OA
ATOM     87  O   UNL A   1      32.510  34.963  30.297  1.00  0.00    -0.744 OA
ENDBRANCH  83  84
ENDBRANCH  51  76
BRANCH  63  88
ATOM     88  C   UNL A   1      42.609  33.989  34.121  1.00  0.00     0.058 A 
ATOM     89  C   UNL A   1      42.267  34.059  35.478  1.00  0.00     0.135 A 
ATOM     90  C   UNL A   1      43.415  35.008  33.588  1.00  0.00     0.135 A 
ATOM     91  F   UNL A   1      41.493  33.111  36.031  1.00  0.00    -0.206 F 
ATOM     92  C   UNL A   1      42.715  35.100  36.284  1.00  0.00     0.059 A 
ATOM     93  C   UNL A   1      43.890  36.049  34.378  1.00  0.00     0.059 A 
ATOM     94  F   UNL A   1      43.774  34.979  32.295  1.00  0.00    -0.206 F 
ATOM     95  C   UNL A   1      43.533  36.086  35.726  1.00  0.00     0.060 A 
BRANCH  95  96
ATOM     96  S   UNL A   1      44.175  37.388  36.799  1.00  0.00     0.124 S 
ATOM     97  O   UNL A   1      43.273  37.298  37.942  1.00  0.00    -0.237 OA
ATOM     98  O   UNL A   1      45.548  36.950  37.038  1.00  0.00    -0.237 OA
ATOM     99  O   UNL A   1      44.044  38.594  35.986  1.00  0.00    -0.744 OA
ENDBRANCH  95  96
ENDBRANCH  63  88
ENDBRANCH  37  38
ENDBRANCH  29  32
ENDBRANCH  27  28
ENDBRANCH  26  27
ENDBRANCH   1  26
TORSDOF 19
ENDMDL
