MODEL 1
REMARK VINA RESULT:     -12.7      0.000      0.000
REMARK SMILES C[C@H](CN(Cc1ccccc1)C(=O)c1cc2ccccc2oc1=O)C(=O)NCCCCNC(=O)c1ccc(-c2c3nc(c(-c4c(F)cc(S(=O)(=O)[O-])cc4F)c4ccc([nH]4)c(-c4c(F)cc(S(=O)(=O)[O-])cc4F)c4nc(c(-c5c(F)cc(S(=O)(=O)[O-])cc5F)c5ccc2[nH]5)C=C4)C=C3)cc1
REMARK SMILES IDX 29 1 28 2 27 3 25 4 26 5 2 7 1 8 3 9 4 10 5 11 6 12 7 13
REMARK SMILES IDX 11 14 8 15 10 16 9 17 12 18 13 19 14 20 15 21 23 22 16 23
REMARK SMILES IDX 22 24 24 25 17 26 21 27 18 28 20 29 19 30 30 31 31 32 32 33
REMARK SMILES IDX 33 34 34 36 35 37 36 38 100 39 37 40 99 41 38 42 39 43 40 44
REMARK SMILES IDX 93 45 41 46 98 47 92 48 94 49 42 50 97 51 91 52 90 53 43 55
REMARK SMILES IDX 77 56 56 57 76 58 57 59 60 60 75 61 95 62 58 63 59 64 74 66
REMARK SMILES IDX 96 67 61 68 44 69 45 70 54 71 46 72 47 73 53 74 55 75 48 76
REMARK SMILES IDX 49 77 50 78 51 79 52 80 78 81 79 82 88 83 80 84 81 85 87 86
REMARK SMILES IDX 89 87 82 88 83 89 84 90 85 91 86 92 62 93 63 94 72 95 64 96
REMARK SMILES IDX 65 97 71 98 73 99 66 100 67 101 68 102 69 103 70 104
REMARK H PARENT 27 6 32 35 94 54 60 65
REMARK Flexibility Score: inf
ROOT
ATOM      1  C   UNL A   1      38.756  21.521  25.815  1.00  0.00     0.023 C 
ENDROOT
BRANCH   1   2
ATOM      2  C   UNL A   1      37.608  22.535  25.736  1.00  0.00     0.116 C 
BRANCH   2   3
ATOM      3  N   UNL A   1      37.345  22.904  24.356  1.00  0.00    -0.356 N 
ATOM      4  C   UNL A   1      36.227  22.774  23.595  1.00  0.00     0.224 C 
ATOM      5  O   UNL A   1      36.323  23.057  22.397  1.00  0.00    -0.275 OA
ATOM      6  H   UNL A   1      38.109  23.319  23.892  1.00  0.00     0.163 HD
BRANCH   4   7
ATOM      7  C   UNL A   1      34.862  22.396  24.176  1.00  0.00     0.095 C 
ATOM      8  C   UNL A   1      34.994  21.105  24.976  1.00  0.00     0.020 C 
BRANCH   7   9
ATOM      9  C   UNL A   1      33.681  22.496  23.185  1.00  0.00     0.133 C 
BRANCH   9  10
ATOM     10  N   UNL A   1      32.889  23.738  23.270  1.00  0.00    -0.333 N 
BRANCH  10  11
ATOM     11  C   UNL A   1      32.783  24.571  22.062  1.00  0.00     0.155 C 
BRANCH  11  12
ATOM     12  C   UNL A   1      32.780  26.041  22.447  1.00  0.00    -0.029 A 
ATOM     13  C   UNL A   1      31.563  26.708  22.663  1.00  0.00     0.005 A 
ATOM     14  C   UNL A   1      33.964  26.793  22.405  1.00  0.00     0.005 A 
ATOM     15  C   UNL A   1      31.527  28.099  22.767  1.00  0.00     0.000 A 
ATOM     16  C   UNL A   1      33.925  28.184  22.517  1.00  0.00     0.000 A 
ATOM     17  C   UNL A   1      32.706  28.837  22.681  1.00  0.00     0.000 A 
ENDBRANCH  11  12
ENDBRANCH  10  11
BRANCH  10  18
ATOM     18  C   UNL A   1      31.884  23.838  24.233  1.00  0.00     0.261 C 
ATOM     19  O   UNL A   1      30.702  23.978  23.931  1.00  0.00    -0.269 OA
BRANCH  18  20
ATOM     20  C   UNL A   1      32.293  23.764  25.676  1.00  0.00     0.126 A 
ATOM     21  C   UNL A   1      33.345  24.537  26.033  1.00  0.00     0.033 A 
ATOM     22  C   UNL A   1      31.182  23.908  26.651  1.00  0.00     0.349 A 
ATOM     23  C   UNL A   1      32.983  25.966  26.167  1.00  0.00     0.018 A 
ATOM     24  O   UNL A   1      30.782  25.227  26.881  1.00  0.00    -0.422 OA
ATOM     25  O   UNL A   1      30.626  22.944  27.164  1.00  0.00    -0.246 OA
ATOM     26  C   UNL A   1      33.889  27.000  25.960  1.00  0.00     0.012 A 
ATOM     27  C   UNL A   1      31.668  26.271  26.535  1.00  0.00     0.138 A 
ATOM     28  C   UNL A   1      33.460  28.326  26.087  1.00  0.00     0.001 A 
ATOM     29  C   UNL A   1      31.222  27.584  26.630  1.00  0.00     0.048 A 
ATOM     30  C   UNL A   1      32.127  28.617  26.397  1.00  0.00     0.004 A 
ENDBRANCH  18  20
ENDBRANCH  10  18
ENDBRANCH   9  10
ENDBRANCH   7   9
ENDBRANCH   4   7
ENDBRANCH   2   3
ENDBRANCH   1   2
BRANCH   1  31
ATOM     31  C   UNL A   1      39.997  22.006  26.554  1.00  0.00     0.023 C 
BRANCH  31  32
ATOM     32  C   UNL A   1      40.000  23.486  26.923  1.00  0.00     0.116 C 
BRANCH  32  33
ATOM     33  N   UNL A   1      40.544  24.383  25.913  1.00  0.00    -0.352 N 
ATOM     34  C   UNL A   1      41.090  25.636  26.104  1.00  0.00     0.251 C 
ATOM     35  H   UNL A   1      40.520  24.057  24.984  1.00  0.00     0.163 HD
ATOM     36  O   UNL A   1      41.481  26.309  25.154  1.00  0.00    -0.269 OA
BRANCH  34  37
ATOM     37  C   UNL A   1      41.162  26.196  27.476  1.00  0.00     0.039 A 
ATOM     38  C   UNL A   1      42.273  26.965  27.825  1.00  0.00     0.014 A 
ATOM     39  C   UNL A   1      40.103  26.044  28.375  1.00  0.00     0.014 A 
ATOM     40  C   UNL A   1      42.254  27.701  29.011  1.00  0.00     0.010 A 
ATOM     41  C   UNL A   1      40.046  26.842  29.512  1.00  0.00     0.010 A 
ATOM     42  C   UNL A   1      41.105  27.708  29.818  1.00  0.00    -0.014 A 
BRANCH  42  43
ATOM     43  C   UNL A   1      40.943  28.696  30.913  1.00  0.00     0.031 A 
ATOM     44  C   UNL A   1      41.763  28.599  32.165  1.00  0.00     0.074 A 
ATOM     45  C   UNL A   1      39.966  29.621  30.805  1.00  0.00     0.049 A 
ATOM     46  N   UNL A   1      41.716  29.345  33.238  1.00  0.00    -0.248 NA
ATOM     47  C   UNL A   1      42.741  27.502  32.238  1.00  0.00     0.031 C 
ATOM     48  C   UNL A   1      39.044  29.750  29.671  1.00  0.00     0.029 A 
ATOM     49  N   UNL A   1      39.573  30.619  31.659  1.00  0.00    -0.354 N 
ATOM     50  C   UNL A   1      42.652  28.810  34.114  1.00  0.00     0.074 A 
ATOM     51  C   UNL A   1      43.212  27.641  33.470  1.00  0.00     0.031 C 
ATOM     52  C   UNL A   1      38.217  30.784  29.887  1.00  0.00     0.029 A 
ATOM     53  C   UNL A   1      38.523  31.372  31.185  1.00  0.00     0.049 A 
ATOM     54  H   UNL A   1      40.002  30.782  32.530  1.00  0.00     0.167 HD
ATOM     55  C   UNL A   1      43.024  29.266  35.334  1.00  0.00     0.037 A 
ATOM     56  C   UNL A   1      37.881  32.419  31.735  1.00  0.00     0.037 A 
ATOM     57  C   UNL A   1      42.469  30.440  35.955  1.00  0.00     0.049 A 
ATOM     58  C   UNL A   1      38.333  32.925  33.076  1.00  0.00     0.074 A 
ATOM     59  C   UNL A   1      42.825  31.030  37.156  1.00  0.00     0.029 A 
ATOM     60  N   UNL A   1      41.438  31.204  35.426  1.00  0.00    -0.354 N 
ATOM     61  N   UNL A   1      39.284  32.461  33.851  1.00  0.00    -0.248 NA
ATOM     62  C   UNL A   1      37.634  34.099  33.615  1.00  0.00     0.031 C 
ATOM     63  C   UNL A   1      41.985  32.128  37.370  1.00  0.00     0.029 A 
ATOM     64  C   UNL A   1      41.133  32.249  36.284  1.00  0.00     0.049 A 
ATOM     65  H   UNL A   1      40.989  31.030  34.567  1.00  0.00     0.167 HD
ATOM     66  C   UNL A   1      39.317  33.302  34.956  1.00  0.00     0.074 A 
ATOM     67  C   UNL A   1      38.297  34.309  34.744  1.00  0.00     0.031 C 
ATOM     68  C   UNL A   1      40.118  33.246  36.049  1.00  0.00     0.037 A 
BRANCH  55  69
ATOM     69  C   UNL A   1      44.089  28.502  36.069  1.00  0.00     0.058 A 
ATOM     70  C   UNL A   1      45.449  28.833  35.941  1.00  0.00     0.135 A 
ATOM     71  C   UNL A   1      43.751  27.452  36.937  1.00  0.00     0.135 A 
ATOM     72  F   UNL A   1      45.829  29.819  35.113  1.00  0.00    -0.206 F 
ATOM     73  C   UNL A   1      46.436  28.134  36.627  1.00  0.00     0.059 A 
ATOM     74  C   UNL A   1      44.721  26.755  37.652  1.00  0.00     0.059 A 
ATOM     75  F   UNL A   1      42.467  27.092  37.096  1.00  0.00    -0.206 F 
ATOM     76  C   UNL A   1      46.062  27.094  37.478  1.00  0.00     0.060 A 
BRANCH  76  77
ATOM     77  S   UNL A   1      47.356  26.197  38.363  1.00  0.00     0.124 S 
ATOM     78  O   UNL A   1      46.582  25.155  39.031  1.00  0.00    -0.237 OA
ATOM     79  O   UNL A   1      48.222  25.746  37.278  1.00  0.00    -0.237 OA
ATOM     80  O   UNL A   1      47.933  27.211  39.241  1.00  0.00    -0.744 OA
ENDBRANCH  76  77
ENDBRANCH  55  69
BRANCH  56  81
ATOM     81  C   UNL A   1      36.772  33.082  30.999  1.00  0.00     0.058 A 
ATOM     82  C   UNL A   1      35.434  32.826  31.333  1.00  0.00     0.135 A 
ATOM     83  C   UNL A   1      37.024  33.996  29.964  1.00  0.00     0.135 A 
ATOM     84  F   UNL A   1      35.142  31.959  32.315  1.00  0.00    -0.206 F 
ATOM     85  C   UNL A   1      34.383  33.437  30.656  1.00  0.00     0.059 A 
ATOM     86  C   UNL A   1      35.990  34.636  29.287  1.00  0.00     0.059 A 
ATOM     87  F   UNL A   1      38.287  34.292  29.620  1.00  0.00    -0.206 F 
ATOM     88  C   UNL A   1      34.672  34.340  29.633  1.00  0.00     0.060 A 
BRANCH  88  89
ATOM     89  S   UNL A   1      33.301  35.160  28.787  1.00  0.00     0.124 S 
ATOM     90  O   UNL A   1      32.524  35.665  29.912  1.00  0.00    -0.237 OA
ATOM     91  O   UNL A   1      33.992  36.164  27.984  1.00  0.00    -0.237 OA
ATOM     92  O   UNL A   1      32.683  34.077  28.026  1.00  0.00    -0.744 OA
ENDBRANCH  88  89
ENDBRANCH  56  81
BRANCH  68  93
ATOM     93  C   UNL A   1      39.946  34.322  37.082  1.00  0.00     0.058 A 
ATOM     94  C   UNL A   1      40.620  35.548  36.986  1.00  0.00     0.135 A 
ATOM     95  C   UNL A   1      39.057  34.140  38.153  1.00  0.00     0.135 A 
ATOM     96  F   UNL A   1      41.487  35.767  35.984  1.00  0.00    -0.206 F 
ATOM     97  C   UNL A   1      40.435  36.553  37.930  1.00  0.00     0.059 A 
ATOM     98  C   UNL A   1      38.838  35.140  39.096  1.00  0.00     0.059 A 
ATOM     99  F   UNL A   1      38.382  32.987  38.285  1.00  0.00    -0.206 F 
ATOM    100  C   UNL A   1      39.540  36.339  38.981  1.00  0.00     0.060 A 
BRANCH 100 101
ATOM    101  S   UNL A   1      39.280  37.662  40.180  1.00  0.00     0.124 S 
ATOM    102  O   UNL A   1      40.577  38.329  40.168  1.00  0.00    -0.237 OA
ATOM    103  O   UNL A   1      38.176  38.412  39.585  1.00  0.00    -0.237 OA
ATOM    104  O   UNL A   1      38.951  36.947  41.409  1.00  0.00    -0.744 OA
ENDBRANCH 100 101
ENDBRANCH  68  93
ENDBRANCH  42  43
ENDBRANCH  34  37
ENDBRANCH  32  33
ENDBRANCH  31  32
ENDBRANCH   1  31
TORSDOF 20
ENDMDL
MODEL 2
REMARK VINA RESULT:     -12.5      6.442     11.584
REMARK SMILES C[C@H](CN(Cc1ccccc1)C(=O)c1cc2ccccc2oc1=O)C(=O)NCCCCNC(=O)c1ccc(-c2c3nc(c(-c4c(F)cc(S(=O)(=O)[O-])cc4F)c4ccc([nH]4)c(-c4c(F)cc(S(=O)(=O)[O-])cc4F)c4nc(c(-c5c(F)cc(S(=O)(=O)[O-])cc5F)c5ccc2[nH]5)C=C4)C=C3)cc1
REMARK SMILES IDX 29 1 28 2 27 3 25 4 26 5 2 7 1 8 3 9 4 10 5 11 6 12 7 13
REMARK SMILES IDX 11 14 8 15 10 16 9 17 12 18 13 19 14 20 15 21 23 22 16 23
REMARK SMILES IDX 22 24 24 25 17 26 21 27 18 28 20 29 19 30 30 31 31 32 32 33
REMARK SMILES IDX 33 34 34 36 35 37 36 38 100 39 37 40 99 41 38 42 39 43 40 44
REMARK SMILES IDX 93 45 41 46 98 47 92 48 94 49 42 50 97 51 91 52 90 53 43 55
REMARK SMILES IDX 77 56 56 57 76 58 57 59 60 60 75 61 95 62 58 63 59 64 74 66
REMARK SMILES IDX 96 67 61 68 44 69 45 70 54 71 46 72 47 73 53 74 55 75 48 76
REMARK SMILES IDX 49 77 50 78 51 79 52 80 78 81 79 82 88 83 80 84 81 85 87 86
REMARK SMILES IDX 89 87 82 88 83 89 84 90 85 91 86 92 62 93 63 94 72 95 64 96
REMARK SMILES IDX 65 97 71 98 73 99 66 100 67 101 68 102 69 103 70 104
REMARK H PARENT 27 6 32 35 94 54 60 65
REMARK Flexibility Score: inf
ROOT
ATOM      1  C   UNL A   1      34.564  30.734  27.610  1.00  0.00     0.023 C 
ENDROOT
BRANCH   1   2
ATOM      2  C   UNL A   1      33.217  30.632  26.882  1.00  0.00     0.116 C 
BRANCH   2   3
ATOM      3  N   UNL A   1      32.339  29.695  27.560  1.00  0.00    -0.356 N 
ATOM      4  C   UNL A   1      31.999  28.414  27.260  1.00  0.00     0.224 C 
ATOM      5  O   UNL A   1      31.118  27.888  27.948  1.00  0.00    -0.275 OA
ATOM      6  H   UNL A   1      31.918  30.048  28.377  1.00  0.00     0.163 HD
BRANCH   4   7
ATOM      7  C   UNL A   1      32.720  27.587  26.193  1.00  0.00     0.095 C 
ATOM      8  C   UNL A   1      34.203  27.502  26.539  1.00  0.00     0.020 C 
BRANCH   7   9
ATOM      9  C   UNL A   1      32.353  27.939  24.735  1.00  0.00     0.133 C 
BRANCH   9  10
ATOM     10  N   UNL A   1      31.628  26.888  23.995  1.00  0.00    -0.333 N 
BRANCH  10  11
ATOM     11  C   UNL A   1      31.034  27.244  22.698  1.00  0.00     0.155 C 
BRANCH  11  12
ATOM     12  C   UNL A   1      29.836  28.154  22.909  1.00  0.00    -0.029 A 
ATOM     13  C   UNL A   1      28.616  27.617  23.352  1.00  0.00     0.005 A 
ATOM     14  C   UNL A   1      29.872  29.492  22.488  1.00  0.00     0.005 A 
ATOM     15  C   UNL A   1      27.450  28.382  23.311  1.00  0.00     0.000 A 
ATOM     16  C   UNL A   1      28.705  30.257  22.455  1.00  0.00     0.000 A 
ATOM     17  C   UNL A   1      27.492  29.696  22.851  1.00  0.00     0.000 A 
ENDBRANCH  11  12
ENDBRANCH  10  11
BRANCH  10  18
ATOM     18  C   UNL A   1      31.943  25.550  24.233  1.00  0.00     0.261 C 
ATOM     19  O   UNL A   1      33.082  25.112  24.092  1.00  0.00    -0.269 OA
BRANCH  18  20
ATOM     20  C   UNL A   1      30.832  24.641  24.677  1.00  0.00     0.126 A 
ATOM     21  C   UNL A   1      31.016  23.322  24.439  1.00  0.00     0.033 A 
ATOM     22  C   UNL A   1      30.359  24.863  26.066  1.00  0.00     0.349 A 
ATOM     23  C   UNL A   1      31.961  22.697  25.392  1.00  0.00     0.018 A 
ATOM     24  O   UNL A   1      31.163  24.281  27.051  1.00  0.00    -0.422 OA
ATOM     25  O   UNL A   1      29.377  25.548  26.328  1.00  0.00    -0.246 OA
ATOM     26  C   UNL A   1      32.741  21.592  25.071  1.00  0.00     0.012 A 
ATOM     27  C   UNL A   1      32.050  23.248  26.674  1.00  0.00     0.138 A 
ATOM     28  C   UNL A   1      33.625  21.075  26.023  1.00  0.00     0.001 A 
ATOM     29  C   UNL A   1      32.949  22.765  27.617  1.00  0.00     0.048 A 
ATOM     30  C   UNL A   1      33.747  21.672  27.282  1.00  0.00     0.004 A 
ENDBRANCH  18  20
ENDBRANCH  10  18
ENDBRANCH   9  10
ENDBRANCH   7   9
ENDBRANCH   4   7
ENDBRANCH   2   3
ENDBRANCH   1   2
BRANCH   1  31
ATOM     31  C   UNL A   1      34.968  32.142  28.028  1.00  0.00     0.023 C 
BRANCH  31  32
ATOM     32  C   UNL A   1      35.795  32.230  29.306  1.00  0.00     0.116 C 
BRANCH  32  33
ATOM     33  N   UNL A   1      35.625  31.126  30.241  1.00  0.00    -0.352 N 
ATOM     34  C   UNL A   1      36.573  30.205  30.639  1.00  0.00     0.251 C 
ATOM     35  H   UNL A   1      34.729  31.025  30.635  1.00  0.00     0.163 HD
ATOM     36  O   UNL A   1      36.285  29.294  31.411  1.00  0.00    -0.269 OA
BRANCH  34  37
ATOM     37  C   UNL A   1      37.947  30.292  30.089  1.00  0.00     0.039 A 
ATOM     38  C   UNL A   1      39.007  30.504  30.972  1.00  0.00     0.014 A 
ATOM     39  C   UNL A   1      38.198  30.072  28.731  1.00  0.00     0.014 A 
ATOM     40  C   UNL A   1      40.319  30.346  30.522  1.00  0.00     0.010 A 
ATOM     41  C   UNL A   1      39.498  29.831  28.302  1.00  0.00     0.010 A 
ATOM     42  C   UNL A   1      40.566  29.926  29.204  1.00  0.00    -0.014 A 
BRANCH  42  43
ATOM     43  C   UNL A   1      41.914  29.469  28.786  1.00  0.00     0.031 A 
ATOM     44  C   UNL A   1      43.055  30.435  28.673  1.00  0.00     0.074 A 
ATOM     45  C   UNL A   1      42.067  28.183  28.405  1.00  0.00     0.049 A 
ATOM     46  N   UNL A   1      44.282  30.217  28.276  1.00  0.00    -0.248 NA
ATOM     47  C   UNL A   1      42.776  31.838  29.020  1.00  0.00     0.031 C 
ATOM     48  C   UNL A   1      41.002  27.174  28.384  1.00  0.00     0.029 A 
ATOM     49  N   UNL A   1      43.168  27.504  27.950  1.00  0.00    -0.354 N 
ATOM     50  C   UNL A   1      44.920  31.449  28.321  1.00  0.00     0.074 A 
ATOM     51  C   UNL A   1      43.931  32.423  28.730  1.00  0.00     0.031 C 
ATOM     52  C   UNL A   1      41.508  26.002  27.970  1.00  0.00     0.029 A 
ATOM     53  C   UNL A   1      42.922  26.180  27.663  1.00  0.00     0.049 A 
ATOM     54  H   UNL A   1      44.052  27.924  27.839  1.00  0.00     0.167 HD
ATOM     55  C   UNL A   1      46.219  31.737  28.065  1.00  0.00     0.037 A 
ATOM     56  C   UNL A   1      43.745  25.218  27.206  1.00  0.00     0.037 A 
ATOM     57  C   UNL A   1      47.197  30.754  27.675  1.00  0.00     0.049 A 
ATOM     58  C   UNL A   1      45.189  25.555  26.959  1.00  0.00     0.074 A 
ATOM     59  C   UNL A   1      48.554  30.926  27.463  1.00  0.00     0.029 A 
ATOM     60  N   UNL A   1      46.922  29.414  27.438  1.00  0.00    -0.354 N 
ATOM     61  N   UNL A   1      45.798  26.710  27.095  1.00  0.00    -0.248 NA
ATOM     62  C   UNL A   1      46.060  24.463  26.506  1.00  0.00     0.031 C 
ATOM     63  C   UNL A   1      49.092  29.699  27.060  1.00  0.00     0.029 A 
ATOM     64  C   UNL A   1      48.080  28.752  27.063  1.00  0.00     0.049 A 
ATOM     65  H   UNL A   1      46.036  28.996  27.523  1.00  0.00     0.167 HD
ATOM     66  C   UNL A   1      47.129  26.476  26.771  1.00  0.00     0.074 A 
ATOM     67  C   UNL A   1      47.238  25.069  26.443  1.00  0.00     0.031 C 
ATOM     68  C   UNL A   1      48.168  27.348  26.748  1.00  0.00     0.037 A 
BRANCH  55  69
ATOM     69  C   UNL A   1      46.659  33.166  28.213  1.00  0.00     0.058 A 
ATOM     70  C   UNL A   1      47.140  33.662  29.437  1.00  0.00     0.135 A 
ATOM     71  C   UNL A   1      46.637  34.043  27.117  1.00  0.00     0.135 A 
ATOM     72  F   UNL A   1      47.169  32.872  30.522  1.00  0.00    -0.206 F 
ATOM     73  C   UNL A   1      47.556  34.982  29.575  1.00  0.00     0.059 A 
ATOM     74  C   UNL A   1      47.072  35.360  27.226  1.00  0.00     0.059 A 
ATOM     75  F   UNL A   1      46.185  33.622  25.924  1.00  0.00    -0.206 F 
ATOM     76  C   UNL A   1      47.516  35.824  28.463  1.00  0.00     0.060 A 
BRANCH  76  77
ATOM     77  S   UNL A   1      48.062  37.534  28.659  1.00  0.00     0.124 S 
ATOM     78  O   UNL A   1      49.457  37.443  28.237  1.00  0.00    -0.237 OA
ATOM     79  O   UNL A   1      47.172  38.253  27.752  1.00  0.00    -0.237 OA
ATOM     80  O   UNL A   1      47.852  37.798  30.079  1.00  0.00    -0.744 OA
ENDBRANCH  76  77
ENDBRANCH  55  69
BRANCH  56  81
ATOM     81  C   UNL A   1      43.232  23.839  26.993  1.00  0.00     0.058 A 
ATOM     82  C   UNL A   1      43.092  22.951  28.069  1.00  0.00     0.135 A 
ATOM     83  C   UNL A   1      42.856  23.387  25.719  1.00  0.00     0.135 A 
ATOM     84  F   UNL A   1      43.439  23.336  29.307  1.00  0.00    -0.206 F 
ATOM     85  C   UNL A   1      42.614  21.656  27.890  1.00  0.00     0.059 A 
ATOM     86  C   UNL A   1      42.355  22.105  25.517  1.00  0.00     0.059 A 
ATOM     87  F   UNL A   1      42.951  24.205  24.659  1.00  0.00    -0.206 F 
ATOM     88  C   UNL A   1      42.248  21.242  26.609  1.00  0.00     0.060 A 
BRANCH  88  89
ATOM     89  S   UNL A   1      41.590  19.574  26.392  1.00  0.00     0.124 S 
ATOM     90  O   UNL A   1      41.884  18.973  27.686  1.00  0.00    -0.237 OA
ATOM     91  O   UNL A   1      40.181  19.833  26.112  1.00  0.00    -0.237 OA
ATOM     92  O   UNL A   1      42.360  19.055  25.264  1.00  0.00    -0.744 OA
ENDBRANCH  88  89
ENDBRANCH  56  81
BRANCH  68  93
ATOM     93  C   UNL A   1      49.517  26.798  26.384  1.00  0.00     0.058 A 
ATOM     94  C   UNL A   1      49.999  26.843  25.067  1.00  0.00     0.135 A 
ATOM     95  C   UNL A   1      50.356  26.264  27.375  1.00  0.00     0.135 A 
ATOM     96  F   UNL A   1      49.231  27.338  24.082  1.00  0.00    -0.206 F 
ATOM     97  C   UNL A   1      51.261  26.359  24.741  1.00  0.00     0.059 A 
ATOM     98  C   UNL A   1      51.631  25.797  27.076  1.00  0.00     0.059 A 
ATOM     99  F   UNL A   1      49.944  26.206  28.652  1.00  0.00    -0.206 F 
ATOM    100  C   UNL A   1      52.071  25.838  25.753  1.00  0.00     0.060 A 
BRANCH 100 101
ATOM    101  S   UNL A   1      53.721  25.246  25.325  1.00  0.00     0.124 S 
ATOM    102  O   UNL A   1      53.850  25.709  23.947  1.00  0.00    -0.237 OA
ATOM    103  O   UNL A   1      54.563  25.927  26.305  1.00  0.00    -0.237 OA
ATOM    104  O   UNL A   1      53.617  23.800  25.495  1.00  0.00    -0.744 OA
ENDBRANCH 100 101
ENDBRANCH  68  93
ENDBRANCH  42  43
ENDBRANCH  34  37
ENDBRANCH  32  33
ENDBRANCH  31  32
ENDBRANCH   1  31
TORSDOF 20
ENDMDL
MODEL 3
REMARK VINA RESULT:     -12.4      2.352      8.603
REMARK SMILES C[C@H](CN(Cc1ccccc1)C(=O)c1cc2ccccc2oc1=O)C(=O)NCCCCNC(=O)c1ccc(-c2c3nc(c(-c4c(F)cc(S(=O)(=O)[O-])cc4F)c4ccc([nH]4)c(-c4c(F)cc(S(=O)(=O)[O-])cc4F)c4nc(c(-c5c(F)cc(S(=O)(=O)[O-])cc5F)c5ccc2[nH]5)C=C4)C=C3)cc1
REMARK SMILES IDX 29 1 28 2 27 3 25 4 26 5 2 7 1 8 3 9 4 10 5 11 6 12 7 13
REMARK SMILES IDX 11 14 8 15 10 16 9 17 12 18 13 19 14 20 15 21 23 22 16 23
REMARK SMILES IDX 22 24 24 25 17 26 21 27 18 28 20 29 19 30 30 31 31 32 32 33
REMARK SMILES IDX 33 34 34 36 35 37 36 38 100 39 37 40 99 41 38 42 39 43 40 44
REMARK SMILES IDX 93 45 41 46 98 47 92 48 94 49 42 50 97 51 91 52 90 53 43 55
REMARK SMILES IDX 77 56 56 57 76 58 57 59 60 60 75 61 95 62 58 63 59 64 74 66
REMARK SMILES IDX 96 67 61 68 44 69 45 70 54 71 46 72 47 73 53 74 55 75 48 76
REMARK SMILES IDX 49 77 50 78 51 79 52 80 78 81 79 82 88 83 80 84 81 85 87 86
REMARK SMILES IDX 89 87 82 88 83 89 84 90 85 91 86 92 62 93 63 94 72 95 64 96
REMARK SMILES IDX 65 97 71 98 73 99 66 100 67 101 68 102 69 103 70 104
REMARK H PARENT 27 6 32 35 94 54 60 65
REMARK Flexibility Score: inf
ROOT
ATOM      1  C   UNL A   1      34.752  30.306  27.926  1.00  0.00     0.023 C 
ENDROOT
BRANCH   1   2
ATOM      2  C   UNL A   1      34.342  29.010  27.216  1.00  0.00     0.116 C 
BRANCH   2   3
ATOM      3  N   UNL A   1      33.131  28.466  27.805  1.00  0.00    -0.356 N 
ATOM      4  C   UNL A   1      31.951  28.098  27.239  1.00  0.00     0.224 C 
ATOM      5  O   UNL A   1      31.032  27.785  28.003  1.00  0.00    -0.275 OA
ATOM      6  H   UNL A   1      33.172  28.342  28.781  1.00  0.00     0.163 HD
BRANCH   4   7
ATOM      7  C   UNL A   1      31.756  27.965  25.726  1.00  0.00     0.095 C 
ATOM      8  C   UNL A   1      31.776  29.351  25.092  1.00  0.00     0.020 C 
BRANCH   7   9
ATOM      9  C   UNL A   1      30.625  27.005  25.296  1.00  0.00     0.133 C 
BRANCH   9  10
ATOM     10  N   UNL A   1      31.040  25.613  25.043  1.00  0.00    -0.333 N 
BRANCH  10  11
ATOM     11  C   UNL A   1      30.595  24.577  25.988  1.00  0.00     0.155 C 
BRANCH  11  12
ATOM     12  C   UNL A   1      31.703  23.561  26.202  1.00  0.00    -0.029 A 
ATOM     13  C   UNL A   1      31.778  22.421  25.387  1.00  0.00     0.005 A 
ATOM     14  C   UNL A   1      32.543  23.646  27.324  1.00  0.00     0.005 A 
ATOM     15  C   UNL A   1      32.624  21.363  25.724  1.00  0.00     0.000 A 
ATOM     16  C   UNL A   1      33.394  22.589  27.654  1.00  0.00     0.000 A 
ATOM     17  C   UNL A   1      33.421  21.443  26.863  1.00  0.00     0.000 A 
ENDBRANCH  11  12
ENDBRANCH  10  11
BRANCH  10  18
ATOM     18  C   UNL A   1      31.358  25.226  23.740  1.00  0.00     0.261 C 
ATOM     19  O   UNL A   1      30.733  24.351  23.148  1.00  0.00    -0.269 OA
BRANCH  18  20
ATOM     20  C   UNL A   1      32.507  25.923  23.068  1.00  0.00     0.126 A 
ATOM     21  C   UNL A   1      33.588  26.165  23.844  1.00  0.00     0.033 A 
ATOM     22  C   UNL A   1      32.916  25.342  21.764  1.00  0.00     0.349 A 
ATOM     23  C   UNL A   1      34.407  24.954  24.075  1.00  0.00     0.018 A 
ATOM     24  O   UNL A   1      33.727  24.208  21.866  1.00  0.00    -0.422 OA
ATOM     25  O   UNL A   1      32.527  25.788  20.691  1.00  0.00    -0.246 OA
ATOM     26  C   UNL A   1      35.182  24.769  25.214  1.00  0.00     0.012 A 
ATOM     27  C   UNL A   1      34.401  23.967  23.084  1.00  0.00     0.138 A 
ATOM     28  C   UNL A   1      35.911  23.584  25.365  1.00  0.00     0.001 A 
ATOM     29  C   UNL A   1      35.093  22.771  23.238  1.00  0.00     0.048 A 
ATOM     30  C   UNL A   1      35.848  22.580  24.393  1.00  0.00     0.004 A 
ENDBRANCH  18  20
ENDBRANCH  10  18
ENDBRANCH   9  10
ENDBRANCH   7   9
ENDBRANCH   4   7
ENDBRANCH   2   3
ENDBRANCH   1   2
BRANCH   1  31
ATOM     31  C   UNL A   1      33.658  31.361  28.029  1.00  0.00     0.023 C 
BRANCH  31  32
ATOM     32  C   UNL A   1      33.951  32.677  27.316  1.00  0.00     0.116 C 
BRANCH  32  33
ATOM     33  N   UNL A   1      33.109  33.801  27.702  1.00  0.00    -0.352 N 
ATOM     34  C   UNL A   1      33.264  34.635  28.791  1.00  0.00     0.251 C 
ATOM     35  H   UNL A   1      32.340  33.988  27.118  1.00  0.00     0.163 HD
ATOM     36  O   UNL A   1      32.455  35.529  29.024  1.00  0.00    -0.269 OA
BRANCH  34  37
ATOM     37  C   UNL A   1      34.401  34.418  29.718  1.00  0.00     0.039 A 
ATOM     38  C   UNL A   1      34.137  33.908  30.990  1.00  0.00     0.014 A 
ATOM     39  C   UNL A   1      35.721  34.624  29.304  1.00  0.00     0.014 A 
ATOM     40  C   UNL A   1      35.195  33.465  31.786  1.00  0.00     0.010 A 
ATOM     41  C   UNL A   1      36.767  34.106  30.059  1.00  0.00     0.010 A 
ATOM     42  C   UNL A   1      36.509  33.486  31.288  1.00  0.00    -0.014 A 
BRANCH  42  43
ATOM     43  C   UNL A   1      37.602  32.760  31.980  1.00  0.00     0.031 A 
ATOM     44  C   UNL A   1      38.156  33.261  33.281  1.00  0.00     0.074 A 
ATOM     45  C   UNL A   1      38.162  31.698  31.362  1.00  0.00     0.049 A 
ATOM     46  N   UNL A   1      39.141  32.780  33.995  1.00  0.00    -0.248 NA
ATOM     47  C   UNL A   1      37.548  34.479  33.839  1.00  0.00     0.031 C 
ATOM     48  C   UNL A   1      37.765  31.178  30.049  1.00  0.00     0.029 A 
ATOM     49  N   UNL A   1      39.189  30.874  31.743  1.00  0.00    -0.354 N 
ATOM     50  C   UNL A   1      39.275  33.635  35.081  1.00  0.00     0.074 A 
ATOM     51  C   UNL A   1      38.307  34.697  34.904  1.00  0.00     0.031 C 
ATOM     52  C   UNL A   1      38.518  30.109  29.750  1.00  0.00     0.029 A 
ATOM     53  C   UNL A   1      39.472  29.884  30.829  1.00  0.00     0.049 A 
ATOM     54  H   UNL A   1      39.679  30.980  32.590  1.00  0.00     0.167 HD
ATOM     55  C   UNL A   1      40.113  33.530  36.139  1.00  0.00     0.037 A 
ATOM     56  C   UNL A   1      40.395  28.905  30.859  1.00  0.00     0.037 A 
ATOM     57  C   UNL A   1      41.060  32.458  36.310  1.00  0.00     0.049 A 
ATOM     58  C   UNL A   1      41.293  28.792  32.059  1.00  0.00     0.074 A 
ATOM     59  C   UNL A   1      41.905  32.217  37.380  1.00  0.00     0.029 A 
ATOM     60  N   UNL A   1      41.287  31.448  35.386  1.00  0.00    -0.354 N 
ATOM     61  N   UNL A   1      41.344  29.558  33.123  1.00  0.00    -0.248 NA
ATOM     62  C   UNL A   1      42.253  27.680  32.069  1.00  0.00     0.031 C 
ATOM     63  C   UNL A   1      42.671  31.084  37.085  1.00  0.00     0.029 A 
ATOM     64  C   UNL A   1      42.273  30.593  35.852  1.00  0.00     0.049 A 
ATOM     65  H   UNL A   1      40.819  31.353  34.526  1.00  0.00     0.167 HD
ATOM     66  C   UNL A   1      42.320  29.005  33.942  1.00  0.00     0.074 A 
ATOM     67  C   UNL A   1      42.827  27.835  33.254  1.00  0.00     0.031 C 
ATOM     68  C   UNL A   1      42.758  29.428  35.154  1.00  0.00     0.037 A 
BRANCH  55  69
ATOM     69  C   UNL A   1      40.034  34.592  37.200  1.00  0.00     0.058 A 
ATOM     70  C   UNL A   1      39.142  34.484  38.280  1.00  0.00     0.135 A 
ATOM     71  C   UNL A   1      40.881  35.712  37.161  1.00  0.00     0.135 A 
ATOM     72  F   UNL A   1      38.299  33.443  38.359  1.00  0.00    -0.206 F 
ATOM     73  C   UNL A   1      39.073  35.461  39.268  1.00  0.00     0.059 A 
ATOM     74  C   UNL A   1      40.846  36.689  38.152  1.00  0.00     0.059 A 
ATOM     75  F   UNL A   1      41.752  35.865  36.151  1.00  0.00    -0.206 F 
ATOM     76  C   UNL A   1      39.928  36.562  39.193  1.00  0.00     0.060 A 
BRANCH  76  77
ATOM     77  S   UNL A   1      39.827  37.819  40.484  1.00  0.00     0.124 S 
ATOM     78  O   UNL A   1      38.453  38.286  40.327  1.00  0.00    -0.237 OA
ATOM     79  O   UNL A   1      40.100  37.049  41.694  1.00  0.00    -0.237 OA
ATOM     80  O   UNL A   1      40.863  38.777  40.108  1.00  0.00    -0.744 OA
ENDBRANCH  76  77
ENDBRANCH  55  69
BRANCH  56  81
ATOM     81  C   UNL A   1      40.487  27.933  29.737  1.00  0.00     0.058 A 
ATOM     82  C   UNL A   1      41.481  28.060  28.757  1.00  0.00     0.135 A 
ATOM     83  C   UNL A   1      39.599  26.852  29.632  1.00  0.00     0.135 A 
ATOM     84  F   UNL A   1      42.353  29.080  28.813  1.00  0.00    -0.206 F 
ATOM     85  C   UNL A   1      41.583  27.162  27.700  1.00  0.00     0.059 A 
ATOM     86  C   UNL A   1      39.695  25.927  28.597  1.00  0.00     0.059 A 
ATOM     87  F   UNL A   1      38.644  26.673  30.557  1.00  0.00    -0.206 F 
ATOM     88  C   UNL A   1      40.684  26.098  27.629  1.00  0.00     0.060 A 
BRANCH  88  89
ATOM     89  S   UNL A   1      40.850  24.911  26.275  1.00  0.00     0.124 S 
ATOM     90  O   UNL A   1      39.495  24.384  26.182  1.00  0.00    -0.237 OA
ATOM     91  O   UNL A   1      41.284  25.762  25.172  1.00  0.00    -0.237 OA
ATOM     92  O   UNL A   1      41.859  23.978  26.771  1.00  0.00    -0.744 OA
ENDBRANCH  88  89
ENDBRANCH  56  81
BRANCH  68  93
ATOM     93  C   UNL A   1      43.817  28.602  35.827  1.00  0.00     0.058 A 
ATOM     94  C   UNL A   1      43.487  27.522  36.660  1.00  0.00     0.135 A 
ATOM     95  C   UNL A   1      45.175  28.866  35.597  1.00  0.00     0.135 A 
ATOM     96  F   UNL A   1      42.201  27.234  36.917  1.00  0.00    -0.206 F 
ATOM     97  C   UNL A   1      44.471  26.742  37.258  1.00  0.00     0.059 A 
ATOM     98  C   UNL A   1      46.176  28.085  36.165  1.00  0.00     0.059 A 
ATOM     99  F   UNL A   1      45.542  29.884  34.802  1.00  0.00    -0.206 F 
ATOM    100  C   UNL A   1      45.814  27.031  37.003  1.00  0.00     0.060 A 
BRANCH 100 101
ATOM    101  S   UNL A   1      47.082  25.991  37.755  1.00  0.00     0.124 S 
ATOM    102  O   UNL A   1      48.263  26.840  37.643  1.00  0.00    -0.237 OA
ATOM    103  O   UNL A   1      46.567  25.797  39.108  1.00  0.00    -0.237 OA
ATOM    104  O   UNL A   1      47.083  24.797  36.916  1.00  0.00    -0.744 OA
ENDBRANCH 100 101
ENDBRANCH  68  93
ENDBRANCH  42  43
ENDBRANCH  34  37
ENDBRANCH  32  33
ENDBRANCH  31  32
ENDBRANCH   1  31
TORSDOF 20
ENDMDL
