MODEL 1
REMARK VINA RESULT:     -11.2      0.000      0.000
REMARK SMILES O=C(NCCCCNC(=O)c1cc(-c2ccoc2)n[nH]1)c1ccc(-c2c3nc(c(-c4c(F)cc(S(=O)(=O)[O-])cc4F)c4ccc([nH]4)c(-c4c(F)cc(S(=O)(=O)[O-])cc4F)c4nc(c(-c5c(F)cc(S(=O)(=O)[O-])cc5F)c5ccc2[nH]5)C=C4)C=C3)cc1
REMARK SMILES IDX 4 1 3 2 1 3 2 4 21 6 22 7 86 8 23 9 85 10 24 11 25 12 26 13
REMARK SMILES IDX 79 14 27 15 84 16 78 17 80 18 28 19 83 20 77 21 76 22 29 24
REMARK SMILES IDX 63 25 42 26 62 27 43 28 46 29 61 30 81 31 44 32 45 33 60 35
REMARK SMILES IDX 82 36 47 37 30 38 31 39 40 40 32 41 33 42 39 43 41 44 34 45
REMARK SMILES IDX 35 46 36 47 37 48 38 49 64 50 65 51 74 52 66 53 67 54 73 55
REMARK SMILES IDX 75 56 68 57 69 58 70 59 71 60 72 61 48 62 49 63 58 64 50 65
REMARK SMILES IDX 51 66 57 67 59 68 52 69 53 70 54 71 55 72 56 73 5 74 6 75
REMARK SMILES IDX 7 76 8 77 9 78 10 80 11 81 12 82 20 83 13 84 19 85 14 87
REMARK SMILES IDX 15 88 18 89 16 90 17 91
REMARK H PARENT 3 5 80 23 46 34 8 79 20 86
REMARK Flexibility Score: inf
ROOT
ATOM      1  C   UNL A   1      34.513  32.453  28.889  1.00  0.00     0.116 C 
ENDROOT
BRANCH   1   2
ATOM      2  N   UNL A   1      33.908  31.254  28.326  1.00  0.00    -0.352 N 
ATOM      3  O   UNL A   1      33.868  29.211  27.373  1.00  0.00    -0.269 OA
ATOM      4  C   UNL A   1      34.512  30.073  27.964  1.00  0.00     0.251 C 
ATOM      5  H   UNL A   1      32.935  31.295  28.186  1.00  0.00     0.163 HD
BRANCH   4   6
ATOM      6  C   UNL A   1      35.945  29.864  28.264  1.00  0.00     0.039 A 
ATOM      7  C   UNL A   1      36.914  30.113  27.290  1.00  0.00     0.014 A 
ATOM      8  C   UNL A   1      36.320  29.396  29.526  1.00  0.00     0.014 A 
ATOM      9  C   UNL A   1      38.235  29.754  27.525  1.00  0.00     0.010 A 
ATOM     10  C   UNL A   1      37.665  29.121  29.791  1.00  0.00     0.010 A 
ATOM     11  C   UNL A   1      38.630  29.270  28.784  1.00  0.00    -0.014 A 
BRANCH  11  12
ATOM     12  C   UNL A   1      40.069  29.001  29.036  1.00  0.00     0.031 A 
ATOM     13  C   UNL A   1      40.959  30.032  29.674  1.00  0.00     0.074 A 
ATOM     14  C   UNL A   1      40.561  27.792  28.701  1.00  0.00     0.049 A 
ATOM     15  N   UNL A   1      42.231  29.948  29.969  1.00  0.00    -0.248 NA
ATOM     16  C   UNL A   1      40.349  31.325  30.024  1.00  0.00     0.031 C 
ATOM     17  C   UNL A   1      39.792  26.720  28.059  1.00  0.00     0.029 A 
ATOM     18  N   UNL A   1      41.809  27.251  28.860  1.00  0.00    -0.354 N 
ATOM     19  C   UNL A   1      42.581  31.176  30.518  1.00  0.00     0.074 A 
ATOM     20  C   UNL A   1      41.391  31.998  30.500  1.00  0.00     0.031 C 
ATOM     21  C   UNL A   1      40.573  25.640  27.918  1.00  0.00     0.029 A 
ATOM     22  C   UNL A   1      41.912  25.960  28.397  1.00  0.00     0.049 A 
ATOM     23  H   UNL A   1      42.561  27.739  29.268  1.00  0.00     0.167 HD
ATOM     24  C   UNL A   1      43.785  31.573  30.998  1.00  0.00     0.037 A 
ATOM     25  C   UNL A   1      42.971  25.131  28.341  1.00  0.00     0.037 A 
ATOM     26  C   UNL A   1      44.959  30.737  31.029  1.00  0.00     0.049 A 
ATOM     27  C   UNL A   1      44.294  25.605  28.868  1.00  0.00     0.074 A 
ATOM     28  C   UNL A   1      46.215  31.036  31.534  1.00  0.00     0.029 A 
ATOM     29  N   UNL A   1      45.029  29.442  30.535  1.00  0.00    -0.354 N 
ATOM     30  N   UNL A   1      44.595  26.758  29.415  1.00  0.00    -0.248 NA
ATOM     31  C   UNL A   1      45.421  24.671  28.766  1.00  0.00     0.031 C 
ATOM     32  C   UNL A   1      47.053  29.940  31.305  1.00  0.00     0.029 A 
ATOM     33  C   UNL A   1      46.308  28.938  30.703  1.00  0.00     0.049 A 
ATOM     34  H   UNL A   1      44.278  28.954  30.126  1.00  0.00     0.167 HD
ATOM     35  C   UNL A   1      45.944  26.682  29.738  1.00  0.00     0.074 A 
ATOM     36  C   UNL A   1      46.394  25.362  29.344  1.00  0.00     0.031 C 
ATOM     37  C   UNL A   1      46.739  27.621  30.307  1.00  0.00     0.037 A 
BRANCH  24  38
ATOM     38  C   UNL A   1      43.912  32.978  31.523  1.00  0.00     0.058 A 
ATOM     39  C   UNL A   1      44.249  34.052  30.686  1.00  0.00     0.135 A 
ATOM     40  C   UNL A   1      43.611  33.264  32.866  1.00  0.00     0.135 A 
ATOM     41  F   UNL A   1      44.560  33.834  29.398  1.00  0.00    -0.206 F 
ATOM     42  C   UNL A   1      44.294  35.359  31.163  1.00  0.00     0.059 A 
ATOM     43  C   UNL A   1      43.627  34.567  33.358  1.00  0.00     0.059 A 
ATOM     44  F   UNL A   1      43.282  32.274  33.710  1.00  0.00    -0.206 F 
ATOM     45  C   UNL A   1      43.977  35.607  32.500  1.00  0.00     0.060 A 
BRANCH  45  46
ATOM     46  S   UNL A   1      44.011  37.312  33.093  1.00  0.00     0.124 S 
ATOM     47  O   UNL A   1      43.923  38.057  31.840  1.00  0.00    -0.237 OA
ATOM     48  O   UNL A   1      42.828  37.370  33.947  1.00  0.00    -0.237 OA
ATOM     49  O   UNL A   1      45.290  37.406  33.790  1.00  0.00    -0.744 OA
ENDBRANCH  45  46
ENDBRANCH  24  38
BRANCH  25  50
ATOM     50  C   UNL A   1      42.819  23.778  27.745  1.00  0.00     0.058 A 
ATOM     51  C   UNL A   1      42.580  22.655  28.549  1.00  0.00     0.135 A 
ATOM     52  C   UNL A   1      42.897  23.587  26.357  1.00  0.00     0.135 A 
ATOM     53  F   UNL A   1      42.497  22.788  29.881  1.00  0.00    -0.206 F 
ATOM     54  C   UNL A   1      42.445  21.384  28.000  1.00  0.00     0.059 A 
ATOM     55  C   UNL A   1      42.737  22.331  25.782  1.00  0.00     0.059 A 
ATOM     56  F   UNL A   1      43.104  24.634  25.543  1.00  0.00    -0.206 F 
ATOM     57  C   UNL A   1      42.526  21.233  26.614  1.00  0.00     0.060 A 
BRANCH  57  58
ATOM     58  S   UNL A   1      42.315  19.586  25.904  1.00  0.00     0.124 S 
ATOM     59  O   UNL A   1      43.345  19.582  24.871  1.00  0.00    -0.237 OA
ATOM     60  O   UNL A   1      42.560  18.721  27.054  1.00  0.00    -0.237 OA
ATOM     61  O   UNL A   1      40.937  19.603  25.424  1.00  0.00    -0.744 OA
ENDBRANCH  57  58
ENDBRANCH  25  50
BRANCH  37  62
ATOM     62  C   UNL A   1      48.170  27.242  30.562  1.00  0.00     0.058 A 
ATOM     63  C   UNL A   1      49.193  27.584  29.664  1.00  0.00     0.135 A 
ATOM     64  C   UNL A   1      48.525  26.558  31.735  1.00  0.00     0.135 A 
ATOM     65  F   UNL A   1      48.903  28.228  28.523  1.00  0.00    -0.206 F 
ATOM     66  C   UNL A   1      50.517  27.238  29.908  1.00  0.00     0.059 A 
ATOM     67  C   UNL A   1      49.848  26.226  32.013  1.00  0.00     0.059 A 
ATOM     68  F   UNL A   1      47.585  26.216  32.630  1.00  0.00    -0.206 F 
ATOM     69  C   UNL A   1      50.835  26.558  31.087  1.00  0.00     0.060 A 
BRANCH  69  70
ATOM     70  S   UNL A   1      52.561  26.138  31.406  1.00  0.00     0.124 S 
ATOM     71  O   UNL A   1      53.120  26.148  30.059  1.00  0.00    -0.237 OA
ATOM     72  O   UNL A   1      52.992  27.227  32.279  1.00  0.00    -0.237 OA
ATOM     73  O   UNL A   1      52.479  24.828  32.044  1.00  0.00    -0.744 OA
ENDBRANCH  69  70
ENDBRANCH  37  62
ENDBRANCH  11  12
ENDBRANCH   4   6
ENDBRANCH   1   2
BRANCH   1  74
ATOM     74  C   UNL A   1      34.334  33.682  28.007  1.00  0.00     0.023 C 
BRANCH  74  75
ATOM     75  C   UNL A   1      34.269  35.009  28.756  1.00  0.00     0.023 C 
BRANCH  75  76
ATOM     76  C   UNL A   1      32.884  35.385  29.280  1.00  0.00     0.116 C 
BRANCH  76  77
ATOM     77  N   UNL A   1      32.923  36.566  30.131  1.00  0.00    -0.351 N 
ATOM     78  C   UNL A   1      33.107  36.635  31.487  1.00  0.00     0.269 C 
ATOM     79  H   UNL A   1      32.802  37.428  29.671  1.00  0.00     0.163 HD
ATOM     80  O   UNL A   1      32.819  37.673  32.082  1.00  0.00    -0.268 OA
BRANCH  78  81
ATOM     81  C   UNL A   1      33.586  35.471  32.167  1.00  0.00     0.123 A 
ATOM     82  C   UNL A   1      34.865  35.007  32.409  1.00  0.00     0.064 A 
ATOM     83  N   UNL A   1      32.758  34.555  32.753  1.00  0.00    -0.272 N 
ATOM     84  C   UNL A   1      34.683  33.727  32.963  1.00  0.00     0.096 A 
ATOM     85  N   UNL A   1      33.393  33.436  33.154  1.00  0.00    -0.175 NA
ATOM     86  H   UNL A   1      31.791  34.698  32.870  1.00  0.00     0.190 HD
BRANCH  84  87
ATOM     87  C   UNL A   1      35.769  32.791  33.196  1.00  0.00     0.040 A 
ATOM     88  C   UNL A   1      36.102  31.681  32.383  1.00  0.00     0.052 A 
ATOM     89  C   UNL A   1      36.637  32.772  34.261  1.00  0.00     0.205 A 
ATOM     90  C   UNL A   1      37.154  31.057  33.015  1.00  0.00     0.195 A 
ATOM     91  O   UNL A   1      37.482  31.710  34.161  1.00  0.00    -0.472 OA
ENDBRANCH  84  87
ENDBRANCH  78  81
ENDBRANCH  76  77
ENDBRANCH  75  76
ENDBRANCH  74  75
ENDBRANCH   1  74
TORSDOF 15
ENDMDL
MODEL 2
REMARK VINA RESULT:     -11.1      0.434      8.518
REMARK SMILES O=C(NCCCCNC(=O)c1cc(-c2ccoc2)n[nH]1)c1ccc(-c2c3nc(c(-c4c(F)cc(S(=O)(=O)[O-])cc4F)c4ccc([nH]4)c(-c4c(F)cc(S(=O)(=O)[O-])cc4F)c4nc(c(-c5c(F)cc(S(=O)(=O)[O-])cc5F)c5ccc2[nH]5)C=C4)C=C3)cc1
REMARK SMILES IDX 4 1 3 2 1 3 2 4 21 6 22 7 86 8 23 9 85 10 24 11 25 12 26 13
REMARK SMILES IDX 79 14 27 15 84 16 78 17 80 18 28 19 83 20 77 21 76 22 29 24
REMARK SMILES IDX 63 25 42 26 62 27 43 28 46 29 61 30 81 31 44 32 45 33 60 35
REMARK SMILES IDX 82 36 47 37 30 38 31 39 40 40 32 41 33 42 39 43 41 44 34 45
REMARK SMILES IDX 35 46 36 47 37 48 38 49 64 50 65 51 74 52 66 53 67 54 73 55
REMARK SMILES IDX 75 56 68 57 69 58 70 59 71 60 72 61 48 62 49 63 58 64 50 65
REMARK SMILES IDX 51 66 57 67 59 68 52 69 53 70 54 71 55 72 56 73 5 74 6 75
REMARK SMILES IDX 7 76 8 77 9 78 10 80 11 81 12 82 20 83 13 84 19 85 14 87
REMARK SMILES IDX 15 88 18 89 16 90 17 91
REMARK H PARENT 3 5 80 23 46 34 8 79 20 86
REMARK Flexibility Score: inf
ROOT
ATOM      1  C   UNL A   1      34.505  32.405  29.033  1.00  0.00     0.116 C 
ENDROOT
BRANCH   1   2
ATOM      2  N   UNL A   1      33.899  31.264  28.361  1.00  0.00    -0.352 N 
ATOM      3  O   UNL A   1      33.856  29.309  27.239  1.00  0.00    -0.269 OA
ATOM      4  C   UNL A   1      34.498  30.111  27.910  1.00  0.00     0.251 C 
ATOM      5  H   UNL A   1      32.929  31.327  28.211  1.00  0.00     0.163 HD
BRANCH   4   6
ATOM      6  C   UNL A   1      35.924  29.863  28.214  1.00  0.00     0.039 A 
ATOM      7  C   UNL A   1      36.904  30.102  27.248  1.00  0.00     0.014 A 
ATOM      8  C   UNL A   1      36.282  29.368  29.470  1.00  0.00     0.014 A 
ATOM      9  C   UNL A   1      38.214  29.708  27.484  1.00  0.00     0.010 A 
ATOM     10  C   UNL A   1      37.618  29.056  29.738  1.00  0.00     0.010 A 
ATOM     11  C   UNL A   1      38.591  29.196  28.737  1.00  0.00    -0.014 A 
BRANCH  11  12
ATOM     12  C   UNL A   1      40.022  28.889  28.992  1.00  0.00     0.031 A 
ATOM     13  C   UNL A   1      40.620  27.564  28.605  1.00  0.00     0.074 A 
ATOM     14  C   UNL A   1      40.788  29.840  29.561  1.00  0.00     0.049 A 
ATOM     15  N   UNL A   1      41.851  27.146  28.751  1.00  0.00    -0.248 NA
ATOM     16  C   UNL A   1      39.726  26.578  27.977  1.00  0.00     0.031 C 
ATOM     17  C   UNL A   1      40.309  31.158  29.994  1.00  0.00     0.029 A 
ATOM     18  N   UNL A   1      42.124  29.862  29.862  1.00  0.00    -0.354 N 
ATOM     19  C   UNL A   1      41.880  25.848  28.256  1.00  0.00     0.074 A 
ATOM     20  C   UNL A   1      40.535  25.537  27.820  1.00  0.00     0.031 C 
ATOM     21  C   UNL A   1      41.341  31.870  30.466  1.00  0.00     0.029 A 
ATOM     22  C   UNL A   1      42.541  31.043  30.429  1.00  0.00     0.049 A 
ATOM     23  H   UNL A   1      42.728  29.105  29.688  1.00  0.00     0.167 HD
ATOM     24  C   UNL A   1      42.934  25.000  28.169  1.00  0.00     0.037 A 
ATOM     25  C   UNL A   1      43.749  31.414  30.892  1.00  0.00     0.037 A 
ATOM     26  C   UNL A   1      44.273  25.330  28.589  1.00  0.00     0.049 A 
ATOM     27  C   UNL A   1      44.893  30.448  30.795  1.00  0.00     0.074 A 
ATOM     28  C   UNL A   1      45.417  24.552  28.503  1.00  0.00     0.029 A 
ATOM     29  N   UNL A   1      44.652  26.529  29.175  1.00  0.00    -0.354 N 
ATOM     30  N   UNL A   1      44.906  29.238  30.291  1.00  0.00    -0.248 NA
ATOM     31  C   UNL A   1      46.184  30.894  31.332  1.00  0.00     0.031 C 
ATOM     32  C   UNL A   1      46.476  25.263  29.076  1.00  0.00     0.029 A 
ATOM     33  C   UNL A   1      46.005  26.504  29.475  1.00  0.00     0.049 A 
ATOM     34  H   UNL A   1      44.048  27.287  29.350  1.00  0.00     0.167 HD
ATOM     35  C   UNL A   1      46.210  28.782  30.435  1.00  0.00     0.074 A 
ATOM     36  C   UNL A   1      46.961  29.856  31.054  1.00  0.00     0.031 C 
ATOM     37  C   UNL A   1      46.737  27.583  30.089  1.00  0.00     0.037 A 
BRANCH  24  38
ATOM     38  C   UNL A   1      42.694  23.624  27.610  1.00  0.00     0.058 A 
ATOM     39  C   UNL A   1      42.784  23.359  26.235  1.00  0.00     0.135 A 
ATOM     40  C   UNL A   1      42.451  22.540  28.471  1.00  0.00     0.135 A 
ATOM     41  F   UNL A   1      43.000  24.359  25.366  1.00  0.00    -0.206 F 
ATOM     42  C   UNL A   1      42.632  22.070  25.732  1.00  0.00     0.059 A 
ATOM     43  C   UNL A   1      42.318  21.239  27.990  1.00  0.00     0.059 A 
ATOM     44  F   UNL A   1      42.355  22.737  29.794  1.00  0.00    -0.206 F 
ATOM     45  C   UNL A   1      42.404  21.016  26.618  1.00  0.00     0.060 A 
BRANCH  45  46
ATOM     46  S   UNL A   1      42.240  19.346  25.950  1.00  0.00     0.124 S 
ATOM     47  O   UNL A   1      40.805  19.279  25.685  1.00  0.00    -0.237 OA
ATOM     48  O   UNL A   1      43.099  19.395  24.771  1.00  0.00    -0.237 OA
ATOM     49  O   UNL A   1      42.717  18.496  27.036  1.00  0.00    -0.744 OA
ENDBRANCH  45  46
ENDBRANCH  24  38
BRANCH  25  50
ATOM     50  C   UNL A   1      43.924  32.757  31.506  1.00  0.00     0.058 A 
ATOM     51  C   UNL A   1      44.289  33.866  30.731  1.00  0.00     0.135 A 
ATOM     52  C   UNL A   1      43.716  32.956  32.880  1.00  0.00     0.135 A 
ATOM     53  F   UNL A   1      44.499  33.725  29.414  1.00  0.00    -0.206 F 
ATOM     54  C   UNL A   1      44.463  35.124  31.300  1.00  0.00     0.059 A 
ATOM     55  C   UNL A   1      43.856  34.208  33.466  1.00  0.00     0.059 A 
ATOM     56  F   UNL A   1      43.345  31.929  33.661  1.00  0.00    -0.206 F 
ATOM     57  C   UNL A   1      44.245  35.284  32.669  1.00  0.00     0.060 A 
BRANCH  57  58
ATOM     58  S   UNL A   1      44.438  36.926  33.395  1.00  0.00     0.124 S 
ATOM     59  O   UNL A   1      45.348  36.648  34.501  1.00  0.00    -0.237 OA
ATOM     60  O   UNL A   1      44.997  37.691  32.284  1.00  0.00    -0.237 OA
ATOM     61  O   UNL A   1      43.076  37.288  33.772  1.00  0.00    -0.744 OA
ENDBRANCH  57  58
ENDBRANCH  25  50
BRANCH  37  62
ATOM     62  C   UNL A   1      48.204  27.380  30.347  1.00  0.00     0.058 A 
ATOM     63  C   UNL A   1      49.167  27.654  29.363  1.00  0.00     0.135 A 
ATOM     64  C   UNL A   1      48.651  26.940  31.602  1.00  0.00     0.135 A 
ATOM     65  F   UNL A   1      48.790  28.067  28.144  1.00  0.00    -0.206 F 
ATOM     66  C   UNL A   1      50.524  27.473  29.608  1.00  0.00     0.059 A 
ATOM     67  C   UNL A   1      50.005  26.778  31.877  1.00  0.00     0.059 A 
ATOM     68  F   UNL A   1      47.769  26.673  32.578  1.00  0.00    -0.206 F 
ATOM     69  C   UNL A   1      50.933  27.034  30.870  1.00  0.00     0.060 A 
BRANCH  69  70
ATOM     70  S   UNL A   1      52.699  26.828  31.185  1.00  0.00     0.124 S 
ATOM     71  O   UNL A   1      52.890  27.685  32.350  1.00  0.00    -0.237 OA
ATOM     72  O   UNL A   1      52.808  25.393  31.428  1.00  0.00    -0.237 OA
ATOM     73  O   UNL A   1      53.320  27.297  29.950  1.00  0.00    -0.744 OA
ENDBRANCH  69  70
ENDBRANCH  37  62
ENDBRANCH  11  12
ENDBRANCH   4   6
ENDBRANCH   1   2
BRANCH   1  74
ATOM     74  C   UNL A   1      35.068  33.437  28.064  1.00  0.00     0.023 C 
BRANCH  74  75
ATOM     75  C   UNL A   1      34.448  34.828  28.172  1.00  0.00     0.023 C 
BRANCH  75  76
ATOM     76  C   UNL A   1      33.096  34.875  28.882  1.00  0.00     0.116 C 
BRANCH  76  77
ATOM     77  N   UNL A   1      32.913  36.113  29.627  1.00  0.00    -0.351 N 
ATOM     78  C   UNL A   1      33.014  36.319  30.979  1.00  0.00     0.269 C 
ATOM     79  H   UNL A   1      32.689  36.907  29.089  1.00  0.00     0.163 HD
ATOM     80  O   UNL A   1      32.543  37.344  31.469  1.00  0.00    -0.268 OA
BRANCH  78  81
ATOM     81  C   UNL A   1      33.626  35.300  31.775  1.00  0.00     0.123 A 
ATOM     82  C   UNL A   1      34.940  34.888  31.893  1.00  0.00     0.064 A 
ATOM     83  N   UNL A   1      32.926  34.510  32.644  1.00  0.00    -0.272 N 
ATOM     84  C   UNL A   1      34.883  33.733  32.694  1.00  0.00     0.096 A 
ATOM     85  N   UNL A   1      33.647  33.484  33.137  1.00  0.00    -0.175 NA
ATOM     86  H   UNL A   1      31.986  34.673  32.884  1.00  0.00     0.190 HD
BRANCH  84  87
ATOM     87  C   UNL A   1      36.018  32.856  32.919  1.00  0.00     0.040 A 
ATOM     88  C   UNL A   1      36.714  32.121  31.930  1.00  0.00     0.052 A 
ATOM     89  C   UNL A   1      36.594  32.534  34.126  1.00  0.00     0.205 A 
ATOM     90  C   UNL A   1      37.670  31.396  32.605  1.00  0.00     0.195 A 
ATOM     91  O   UNL A   1      37.600  31.636  33.942  1.00  0.00    -0.472 OA
ENDBRANCH  84  87
ENDBRANCH  78  81
ENDBRANCH  76  77
ENDBRANCH  75  76
ENDBRANCH  74  75
ENDBRANCH   1  74
TORSDOF 15
ENDMDL
MODEL 3
REMARK VINA RESULT:     -11.1      3.454     11.125
REMARK SMILES O=C(NCCCCNC(=O)c1cc(-c2ccoc2)n[nH]1)c1ccc(-c2c3nc(c(-c4c(F)cc(S(=O)(=O)[O-])cc4F)c4ccc([nH]4)c(-c4c(F)cc(S(=O)(=O)[O-])cc4F)c4nc(c(-c5c(F)cc(S(=O)(=O)[O-])cc5F)c5ccc2[nH]5)C=C4)C=C3)cc1
REMARK SMILES IDX 4 1 3 2 1 3 2 4 21 6 22 7 86 8 23 9 85 10 24 11 25 12 26 13
REMARK SMILES IDX 79 14 27 15 84 16 78 17 80 18 28 19 83 20 77 21 76 22 29 24
REMARK SMILES IDX 63 25 42 26 62 27 43 28 46 29 61 30 81 31 44 32 45 33 60 35
REMARK SMILES IDX 82 36 47 37 30 38 31 39 40 40 32 41 33 42 39 43 41 44 34 45
REMARK SMILES IDX 35 46 36 47 37 48 38 49 64 50 65 51 74 52 66 53 67 54 73 55
REMARK SMILES IDX 75 56 68 57 69 58 70 59 71 60 72 61 48 62 49 63 58 64 50 65
REMARK SMILES IDX 51 66 57 67 59 68 52 69 53 70 54 71 55 72 56 73 5 74 6 75
REMARK SMILES IDX 7 76 8 77 9 78 10 80 11 81 12 82 20 83 13 84 19 85 14 87
REMARK SMILES IDX 15 88 18 89 16 90 17 91
REMARK H PARENT 3 5 80 23 46 34 8 79 20 86
REMARK Flexibility Score: inf
ROOT
ATOM      1  C   UNL A   1      41.087  22.014  26.301  1.00  0.00     0.116 C 
ENDROOT
BRANCH   1   2
ATOM      2  N   UNL A   1      39.763  22.273  25.755  1.00  0.00    -0.352 N 
ATOM      3  O   UNL A   1      37.772  23.315  25.566  1.00  0.00    -0.269 OA
ATOM      4  C   UNL A   1      38.916  23.326  26.011  1.00  0.00     0.251 C 
ATOM      5  H   UNL A   1      39.428  21.603  25.116  1.00  0.00     0.163 HD
BRANCH   4   6
ATOM      6  C   UNL A   1      39.384  24.452  26.847  1.00  0.00     0.039 A 
ATOM      7  C   UNL A   1      39.025  24.528  28.195  1.00  0.00     0.014 A 
ATOM      8  C   UNL A   1      40.173  25.451  26.273  1.00  0.00     0.014 A 
ATOM      9  C   UNL A   1      39.328  25.670  28.925  1.00  0.00     0.010 A 
ATOM     10  C   UNL A   1      40.554  26.559  27.037  1.00  0.00     0.010 A 
ATOM     11  C   UNL A   1      40.110  26.691  28.360  1.00  0.00    -0.014 A 
BRANCH  11  12
ATOM     12  C   UNL A   1      40.507  27.847  29.205  1.00  0.00     0.031 A 
ATOM     13  C   UNL A   1      39.592  29.024  29.405  1.00  0.00     0.074 A 
ATOM     14  C   UNL A   1      41.709  27.809  29.814  1.00  0.00     0.049 A 
ATOM     15  N   UNL A   1      39.788  30.104  30.117  1.00  0.00    -0.248 NA
ATOM     16  C   UNL A   1      38.291  28.991  28.717  1.00  0.00     0.031 C 
ATOM     17  C   UNL A   1      42.687  26.724  29.677  1.00  0.00     0.029 A 
ATOM     18  N   UNL A   1      42.310  28.687  30.677  1.00  0.00    -0.354 N 
ATOM     19  C   UNL A   1      38.653  30.887  29.951  1.00  0.00     0.074 A 
ATOM     20  C   UNL A   1      37.775  30.167  29.053  1.00  0.00     0.031 C 
ATOM     21  C   UNL A   1      43.745  26.982  30.459  1.00  0.00     0.029 A 
ATOM     22  C   UNL A   1      43.552  28.276  31.102  1.00  0.00     0.049 A 
ATOM     23  H   UNL A   1      41.893  29.531  30.966  1.00  0.00     0.167 HD
ATOM     24  C   UNL A   1      38.369  32.092  30.504  1.00  0.00     0.037 A 
ATOM     25  C   UNL A   1      44.449  28.882  31.902  1.00  0.00     0.037 A 
ATOM     26  C   UNL A   1      39.245  32.790  31.413  1.00  0.00     0.049 A 
ATOM     27  C   UNL A   1      44.113  30.222  32.487  1.00  0.00     0.074 A 
ATOM     28  C   UNL A   1      39.028  33.997  32.058  1.00  0.00     0.029 A 
ATOM     29  N   UNL A   1      40.500  32.351  31.805  1.00  0.00    -0.354 N 
ATOM     30  N   UNL A   1      43.018  30.930  32.345  1.00  0.00    -0.248 NA
ATOM     31  C   UNL A   1      45.132  30.849  33.337  1.00  0.00     0.031 C 
ATOM     32  C   UNL A   1      40.170  34.308  32.804  1.00  0.00     0.029 A 
ATOM     33  C   UNL A   1      41.079  33.271  32.664  1.00  0.00     0.049 A 
ATOM     34  H   UNL A   1      40.919  31.507  31.516  1.00  0.00     0.167 HD
ATOM     35  C   UNL A   1      43.209  32.079  33.101  1.00  0.00     0.074 A 
ATOM     36  C   UNL A   1      44.517  31.961  33.714  1.00  0.00     0.031 C 
ATOM     37  C   UNL A   1      42.380  33.137  33.268  1.00  0.00     0.037 A 
BRANCH  24  38
ATOM     38  C   UNL A   1      37.067  32.751  30.140  1.00  0.00     0.058 A 
ATOM     39  C   UNL A   1      35.904  32.561  30.902  1.00  0.00     0.135 A 
ATOM     40  C   UNL A   1      37.002  33.651  29.062  1.00  0.00     0.135 A 
ATOM     41  F   UNL A   1      35.906  31.702  31.935  1.00  0.00    -0.206 F 
ATOM     42  C   UNL A   1      34.720  33.230  30.603  1.00  0.00     0.059 A 
ATOM     43  C   UNL A   1      35.835  34.348  28.760  1.00  0.00     0.059 A 
ATOM     44  F   UNL A   1      38.085  33.871  28.301  1.00  0.00    -0.206 F 
ATOM     45  C   UNL A   1      34.698  34.125  29.532  1.00  0.00     0.060 A 
BRANCH  45  46
ATOM     46  S   UNL A   1      33.162  35.008  29.178  1.00  0.00     0.124 S 
ATOM     47  O   UNL A   1      32.528  34.112  28.214  1.00  0.00    -0.237 OA
ATOM     48  O   UNL A   1      32.529  35.074  30.491  1.00  0.00    -0.237 OA
ATOM     49  O   UNL A   1      33.619  36.285  28.639  1.00  0.00    -0.744 OA
ENDBRANCH  45  46
ENDBRANCH  24  38
BRANCH  25  50
ATOM     50  C   UNL A   1      45.756  28.228  32.175  1.00  0.00     0.058 A 
ATOM     51  C   UNL A   1      45.917  27.352  33.257  1.00  0.00     0.135 A 
ATOM     52  C   UNL A   1      46.866  28.459  31.347  1.00  0.00     0.135 A 
ATOM     53  F   UNL A   1      44.885  27.101  34.076  1.00  0.00    -0.206 F 
ATOM     54  C   UNL A   1      47.139  26.744  33.523  1.00  0.00     0.059 A 
ATOM     55  C   UNL A   1      48.089  27.840  31.575  1.00  0.00     0.059 A 
ATOM     56  F   UNL A   1      46.757  29.273  30.285  1.00  0.00    -0.206 F 
ATOM     57  C   UNL A   1      48.220  26.995  32.676  1.00  0.00     0.060 A 
BRANCH  57  58
ATOM     58  S   UNL A   1      49.794  26.174  33.007  1.00  0.00     0.124 S 
ATOM     59  O   UNL A   1      49.908  25.290  31.852  1.00  0.00    -0.237 OA
ATOM     60  O   UNL A   1      50.725  27.298  33.045  1.00  0.00    -0.237 OA
ATOM     61  O   UNL A   1      49.565  25.516  34.289  1.00  0.00    -0.744 OA
ENDBRANCH  57  58
ENDBRANCH  25  50
BRANCH  37  62
ATOM     62  C   UNL A   1      42.852  34.239  34.175  1.00  0.00     0.058 A 
ATOM     63  C   UNL A   1      43.557  35.347  33.680  1.00  0.00     0.135 A 
ATOM     64  C   UNL A   1      42.565  34.201  35.548  1.00  0.00     0.135 A 
ATOM     65  F   UNL A   1      43.865  35.425  32.376  1.00  0.00    -0.206 F 
ATOM     66  C   UNL A   1      43.984  36.369  34.521  1.00  0.00     0.059 A 
ATOM     67  C   UNL A   1      42.960  35.225  36.404  1.00  0.00     0.059 A 
ATOM     68  F   UNL A   1      41.886  33.166  36.069  1.00  0.00    -0.206 F 
ATOM     69  C   UNL A   1      43.681  36.298  35.883  1.00  0.00     0.060 A 
BRANCH  69  70
ATOM     70  S   UNL A   1      44.217  37.643  36.961  1.00  0.00     0.124 S 
ATOM     71  O   UNL A   1      45.514  37.155  37.416  1.00  0.00    -0.237 OA
ATOM     72  O   UNL A   1      44.253  38.781  36.048  1.00  0.00    -0.237 OA
ATOM     73  O   UNL A   1      43.173  37.697  37.980  1.00  0.00    -0.744 OA
ENDBRANCH  69  70
ENDBRANCH  37  62
ENDBRANCH  11  12
ENDBRANCH   4   6
ENDBRANCH   1   2
BRANCH   1  74
ATOM     74  C   UNL A   1      41.061  21.118  27.532  1.00  0.00     0.023 C 
BRANCH  74  75
ATOM     75  C   UNL A   1      42.035  19.944  27.496  1.00  0.00     0.023 C 
BRANCH  75  76
ATOM     76  C   UNL A   1      42.211  19.296  26.124  1.00  0.00     0.116 C 
BRANCH  76  77
ATOM     77  N   UNL A   1      43.490  18.610  26.003  1.00  0.00    -0.351 N 
ATOM     78  C   UNL A   1      44.612  19.011  25.326  1.00  0.00     0.269 C 
ATOM     79  H   UNL A   1      43.557  17.746  26.470  1.00  0.00     0.163 HD
ATOM     80  O   UNL A   1      45.493  18.188  25.080  1.00  0.00    -0.268 OA
BRANCH  78  81
ATOM     81  C   UNL A   1      44.691  20.370  24.888  1.00  0.00     0.123 A 
ATOM     82  C   UNL A   1      44.915  21.548  25.576  1.00  0.00     0.064 A 
ATOM     83  N   UNL A   1      44.557  20.742  23.579  1.00  0.00    -0.272 N 
ATOM     84  C   UNL A   1      44.698  22.564  24.628  1.00  0.00     0.096 A 
ATOM     85  N   UNL A   1      44.457  22.075  23.408  1.00  0.00    -0.175 NA
ATOM     86  H   UNL A   1      44.536  20.099  22.835  1.00  0.00     0.190 HD
BRANCH  84  87
ATOM     87  C   UNL A   1      44.638  23.975  24.962  1.00  0.00     0.040 A 
ATOM     88  C   UNL A   1      43.474  24.780  24.976  1.00  0.00     0.052 A 
ATOM     89  C   UNL A   1      45.691  24.802  25.276  1.00  0.00     0.205 A 
ATOM     90  C   UNL A   1      43.900  26.050  25.296  1.00  0.00     0.195 A 
ATOM     91  O   UNL A   1      45.247  26.073  25.474  1.00  0.00    -0.472 OA
ENDBRANCH  84  87
ENDBRANCH  78  81
ENDBRANCH  76  77
ENDBRANCH  75  76
ENDBRANCH  74  75
ENDBRANCH   1  74
TORSDOF 15
ENDMDL
