MODEL 1
REMARK VINA RESULT:     -11.4      0.000      0.000
REMARK SMILES CC1(C)CCSC[C@@]1(Nc1ccccc1Br)C(=O)NCCCCNC(=O)c1ccc(-c2c3nc(c(-c4c(F)cc(S(=O)(=O)[O-])cc4F)c4ccc([nH]4)c(-c4c(F)cc(S(=O)(=O)[O-])cc4F)c4nc(c(-c5c(F)cc(S(=O)(=O)[O-])cc5F)c5ccc2[nH]5)C=C4)C=C3)cc1
REMARK SMILES IDX 22 1 21 2 20 3 19 4 17 5 18 6 8 8 1 9 2 10 3 11 4 12 5 13
REMARK SMILES IDX 7 14 6 15 9 16 10 18 11 19 15 20 12 21 14 22 16 23 13 24
REMARK SMILES IDX 23 25 24 26 25 27 26 29 27 30 28 31 92 32 29 33 91 34 30 35
REMARK SMILES IDX 31 36 32 37 85 38 33 39 90 40 84 41 86 42 34 43 89 44 83 45
REMARK SMILES IDX 82 46 35 48 69 49 48 50 68 51 49 52 52 53 67 54 87 55 50 56
REMARK SMILES IDX 51 57 66 59 88 60 53 61 36 62 37 63 46 64 38 65 39 66 45 67
REMARK SMILES IDX 47 68 40 69 41 70 42 71 43 72 44 73 70 74 71 75 80 76 72 77
REMARK SMILES IDX 73 78 79 79 81 80 74 81 75 82 76 83 77 84 78 85 54 86 55 87
REMARK SMILES IDX 64 88 56 89 57 90 63 91 65 92 58 93 59 94 60 95 61 96 62 97
REMARK H PARENT 19 7 9 17 24 28 86 47 52 58
REMARK Flexibility Score: inf
ROOT
ATOM      1  C   UNL A   1      33.727  28.937  27.167  1.00  0.00     0.023 C 
ENDROOT
BRANCH   1   2
ATOM      2  C   UNL A   1      33.085  29.850  26.144  1.00  0.00     0.023 C 
BRANCH   2   3
ATOM      3  C   UNL A   1      33.122  29.324  24.706  1.00  0.00     0.116 C 
BRANCH   3   4
ATOM      4  N   UNL A   1      33.705  28.003  24.721  1.00  0.00    -0.354 N 
ATOM      5  C   UNL A   1      33.499  27.062  23.751  1.00  0.00     0.247 C 
ATOM      6  O   UNL A   1      33.650  27.349  22.564  1.00  0.00    -0.272 OA
ATOM      7  H   UNL A   1      34.289  27.766  25.477  1.00  0.00     0.163 HD
BRANCH   5   8
ATOM      8  C   UNL A   1      32.943  25.669  24.256  1.00  0.00     0.131 C 
ATOM      9  C   UNL A   1      30.606  26.693  23.636  1.00  0.00     0.014 C 
ATOM     10  C   UNL A   1      31.383  25.815  24.664  1.00  0.00    -0.002 C 
ATOM     11  C   UNL A   1      31.190  26.431  26.082  1.00  0.00     0.014 C 
ATOM     12  C   UNL A   1      30.653  24.438  24.760  1.00  0.00     0.020 C 
ATOM     13  C   UNL A   1      30.653  23.591  23.502  1.00  0.00     0.070 C 
ATOM     14  C   UNL A   1      33.103  24.721  23.023  1.00  0.00     0.108 C 
ATOM     15  S   UNL A   1      32.331  23.070  23.118  1.00  0.00    -0.159 SA
BRANCH   8  16
ATOM     16  N   UNL A   1      33.695  25.187  25.476  1.00  0.00    -0.369 N 
ATOM     17  H   UNL A   1      33.589  25.682  26.321  1.00  0.00     0.161 HD
BRANCH  16  18
ATOM     18  C   UNL A   1      34.534  24.069  25.456  1.00  0.00     0.049 A 
ATOM     19  C   UNL A   1      35.636  24.079  24.583  1.00  0.00     0.027 A 
ATOM     20  C   UNL A   1      34.352  22.917  26.238  1.00  0.00     0.041 A 
ATOM     21  C   UNL A   1      36.570  23.041  24.557  1.00  0.00     0.002 A 
ATOM     22  C   UNL A   1      35.293  21.878  26.224  1.00  0.00     0.018 A 
ATOM     23  Br  UNL A   1      32.760  22.574  27.215  1.00  0.00    -0.049 Br
ATOM     24  C   UNL A   1      36.410  21.948  25.396  1.00  0.00     0.001 A 
ENDBRANCH  16  18
ENDBRANCH   8  16
ENDBRANCH   5   8
ENDBRANCH   3   4
ENDBRANCH   2   3
ENDBRANCH   1   2
BRANCH   1  25
ATOM     25  C   UNL A   1      35.131  29.339  27.566  1.00  0.00     0.116 C 
BRANCH  25  26
ATOM     26  N   UNL A   1      35.210  30.065  28.827  1.00  0.00    -0.352 N 
ATOM     27  C   UNL A   1      36.319  30.200  29.647  1.00  0.00     0.251 C 
ATOM     28  H   UNL A   1      34.384  30.507  29.130  1.00  0.00     0.163 HD
ATOM     29  O   UNL A   1      36.258  30.784  30.708  1.00  0.00    -0.269 OA
BRANCH  27  30
ATOM     30  C   UNL A   1      37.571  29.545  29.198  1.00  0.00     0.039 A 
ATOM     31  C   UNL A   1      37.969  29.694  27.869  1.00  0.00     0.014 A 
ATOM     32  C   UNL A   1      38.422  28.966  30.140  1.00  0.00     0.014 A 
ATOM     33  C   UNL A   1      39.274  29.349  27.507  1.00  0.00     0.010 A 
ATOM     34  C   UNL A   1      39.748  28.731  29.801  1.00  0.00     0.010 A 
ATOM     35  C   UNL A   1      40.191  28.920  28.483  1.00  0.00    -0.014 A 
BRANCH  35  36
ATOM     36  C   UNL A   1      41.616  28.658  28.146  1.00  0.00     0.031 A 
ATOM     37  C   UNL A   1      42.043  27.271  27.745  1.00  0.00     0.074 A 
ATOM     38  C   UNL A   1      42.537  29.636  28.277  1.00  0.00     0.049 A 
ATOM     39  N   UNL A   1      43.242  26.816  27.491  1.00  0.00    -0.248 NA
ATOM     40  C   UNL A   1      40.986  26.249  27.663  1.00  0.00     0.031 C 
ATOM     41  C   UNL A   1      42.271  31.001  28.742  1.00  0.00     0.029 A 
ATOM     42  N   UNL A   1      43.888  29.631  28.035  1.00  0.00    -0.354 N 
ATOM     43  C   UNL A   1      43.086  25.454  27.257  1.00  0.00     0.074 A 
ATOM     44  C   UNL A   1      41.689  25.146  27.462  1.00  0.00     0.031 C 
ATOM     45  C   UNL A   1      43.414  31.707  28.713  1.00  0.00     0.029 A 
ATOM     46  C   UNL A   1      44.497  30.845  28.254  1.00  0.00     0.049 A 
ATOM     47  H   UNL A   1      44.376  28.831  27.731  1.00  0.00     0.167 HD
ATOM     48  C   UNL A   1      44.012  24.547  26.867  1.00  0.00     0.037 A 
ATOM     49  C   UNL A   1      45.781  31.221  28.091  1.00  0.00     0.037 A 
ATOM     50  C   UNL A   1      45.386  24.869  26.597  1.00  0.00     0.049 A 
ATOM     51  C   UNL A   1      46.778  30.216  27.577  1.00  0.00     0.074 A 
ATOM     52  C   UNL A   1      46.390  24.042  26.123  1.00  0.00     0.029 A 
ATOM     53  N   UNL A   1      45.947  26.128  26.760  1.00  0.00    -0.354 N 
ATOM     54  N   UNL A   1      46.597  28.947  27.294  1.00  0.00    -0.248 NA
ATOM     55  C   UNL A   1      48.148  30.695  27.346  1.00  0.00     0.031 C 
ATOM     56  C   UNL A   1      47.563  24.798  26.016  1.00  0.00     0.029 A 
ATOM     57  C   UNL A   1      47.281  26.101  26.394  1.00  0.00     0.049 A 
ATOM     58  H   UNL A   1      45.467  26.921  27.089  1.00  0.00     0.167 HD
ATOM     59  C   UNL A   1      47.822  28.485  26.827  1.00  0.00     0.074 A 
ATOM     60  C   UNL A   1      48.732  29.611  26.855  1.00  0.00     0.031 C 
ATOM     61  C   UNL A   1      48.165  27.239  26.415  1.00  0.00     0.037 A 
BRANCH  48  62
ATOM     62  C   UNL A   1      43.551  23.128  26.684  1.00  0.00     0.058 A 
ATOM     63  C   UNL A   1      43.248  22.309  27.785  1.00  0.00     0.135 A 
ATOM     64  C   UNL A   1      43.413  22.578  25.401  1.00  0.00     0.135 A 
ATOM     65  F   UNL A   1      43.382  22.780  29.036  1.00  0.00    -0.206 F 
ATOM     66  C   UNL A   1      42.866  20.983  27.622  1.00  0.00     0.059 A 
ATOM     67  C   UNL A   1      43.005  21.260  25.213  1.00  0.00     0.059 A 
ATOM     68  F   UNL A   1      43.691  23.315  24.315  1.00  0.00    -0.206 F 
ATOM     69  C   UNL A   1      42.754  20.465  26.331  1.00  0.00     0.060 A 
BRANCH  69  70
ATOM     70  S   UNL A   1      42.269  18.738  26.133  1.00  0.00     0.124 S 
ATOM     71  O   UNL A   1      40.867  18.872  25.751  1.00  0.00    -0.237 OA
ATOM     72  O   UNL A   1      43.171  18.276  25.082  1.00  0.00    -0.237 OA
ATOM     73  O   UNL A   1      42.509  18.166  27.454  1.00  0.00    -0.744 OA
ENDBRANCH  69  70
ENDBRANCH  48  62
BRANCH  49  74
ATOM     74  C   UNL A   1      46.190  32.626  28.360  1.00  0.00     0.058 A 
ATOM     75  C   UNL A   1      46.092  33.604  27.359  1.00  0.00     0.135 A 
ATOM     76  C   UNL A   1      46.676  33.020  29.615  1.00  0.00     0.135 A 
ATOM     77  F   UNL A   1      45.637  33.273  26.142  1.00  0.00    -0.206 F 
ATOM     78  C   UNL A   1      46.481  34.921  27.584  1.00  0.00     0.059 A 
ATOM     79  C   UNL A   1      47.052  34.337  29.871  1.00  0.00     0.059 A 
ATOM     80  F   UNL A   1      46.772  32.127  30.611  1.00  0.00    -0.206 F 
ATOM     81  C   UNL A   1      46.960  35.277  28.846  1.00  0.00     0.060 A 
BRANCH  81  82
ATOM     82  S   UNL A   1      47.417  37.000  29.145  1.00  0.00     0.124 S 
ATOM     83  O   UNL A   1      48.805  37.016  28.702  1.00  0.00    -0.237 OA
ATOM     84  O   UNL A   1      46.469  37.721  28.301  1.00  0.00    -0.237 OA
ATOM     85  O   UNL A   1      47.208  37.155  30.582  1.00  0.00    -0.744 OA
ENDBRANCH  81  82
ENDBRANCH  49  74
BRANCH  61  86
ATOM     86  C   UNL A   1      49.568  27.039  25.922  1.00  0.00     0.058 A 
ATOM     87  C   UNL A   1      50.612  26.697  26.794  1.00  0.00     0.135 A 
ATOM     88  C   UNL A   1      49.862  27.146  24.553  1.00  0.00     0.135 A 
ATOM     89  F   UNL A   1      50.382  26.586  28.113  1.00  0.00    -0.206 F 
ATOM     90  C   UNL A   1      51.906  26.491  26.330  1.00  0.00     0.059 A 
ATOM     91  C   UNL A   1      51.144  26.922  24.064  1.00  0.00     0.059 A 
ATOM     92  F   UNL A   1      48.894  27.460  23.676  1.00  0.00    -0.206 F 
ATOM     93  C   UNL A   1      52.164  26.608  24.962  1.00  0.00     0.060 A 
BRANCH  93  94
ATOM     94  S   UNL A   1      53.841  26.314  24.365  1.00  0.00     0.124 S 
ATOM     95  O   UNL A   1      54.615  27.219  25.207  1.00  0.00    -0.237 OA
ATOM     96  O   UNL A   1      54.024  24.890  24.627  1.00  0.00    -0.237 OA
ATOM     97  O   UNL A   1      53.765  26.678  22.953  1.00  0.00    -0.744 OA
ENDBRANCH  93  94
ENDBRANCH  61  86
ENDBRANCH  35  36
ENDBRANCH  27  30
ENDBRANCH  25  26
ENDBRANCH   1  25
TORSDOF 16
ENDMDL
MODEL 2
REMARK VINA RESULT:     -11.4      2.294      7.974
REMARK SMILES CC1(C)CCSC[C@@]1(Nc1ccccc1Br)C(=O)NCCCCNC(=O)c1ccc(-c2c3nc(c(-c4c(F)cc(S(=O)(=O)[O-])cc4F)c4ccc([nH]4)c(-c4c(F)cc(S(=O)(=O)[O-])cc4F)c4nc(c(-c5c(F)cc(S(=O)(=O)[O-])cc5F)c5ccc2[nH]5)C=C4)C=C3)cc1
REMARK SMILES IDX 22 1 21 2 20 3 19 4 17 5 18 6 8 8 1 9 2 10 3 11 4 12 5 13
REMARK SMILES IDX 7 14 6 15 9 16 10 18 11 19 15 20 12 21 14 22 16 23 13 24
REMARK SMILES IDX 23 25 24 26 25 27 26 29 27 30 28 31 92 32 29 33 91 34 30 35
REMARK SMILES IDX 31 36 32 37 85 38 33 39 90 40 84 41 86 42 34 43 89 44 83 45
REMARK SMILES IDX 82 46 35 48 69 49 48 50 68 51 49 52 52 53 67 54 87 55 50 56
REMARK SMILES IDX 51 57 66 59 88 60 53 61 36 62 37 63 46 64 38 65 39 66 45 67
REMARK SMILES IDX 47 68 40 69 41 70 42 71 43 72 44 73 70 74 71 75 80 76 72 77
REMARK SMILES IDX 73 78 79 79 81 80 74 81 75 82 76 83 77 84 78 85 54 86 55 87
REMARK SMILES IDX 64 88 56 89 57 90 63 91 65 92 58 93 59 94 60 95 61 96 62 97
REMARK H PARENT 19 7 9 17 24 28 86 47 52 58
REMARK Flexibility Score: inf
ROOT
ATOM      1  C   UNL A   1      37.950  21.455  25.365  1.00  0.00     0.023 C 
ENDROOT
BRANCH   1   2
ATOM      2  C   UNL A   1      37.163  22.738  25.531  1.00  0.00     0.023 C 
BRANCH   2   3
ATOM      3  C   UNL A   1      35.926  22.849  24.636  1.00  0.00     0.116 C 
BRANCH   3   4
ATOM      4  N   UNL A   1      35.450  24.211  24.687  1.00  0.00    -0.354 N 
ATOM      5  C   UNL A   1      34.329  24.608  25.360  1.00  0.00     0.247 C 
ATOM      6  O   UNL A   1      34.159  24.278  26.534  1.00  0.00    -0.272 OA
ATOM      7  H   UNL A   1      35.967  24.897  24.206  1.00  0.00     0.163 HD
BRANCH   5   8
ATOM      8  C   UNL A   1      33.250  25.382  24.499  1.00  0.00     0.131 C 
ATOM      9  C   UNL A   1      34.023  27.458  25.908  1.00  0.00     0.014 C 
ATOM     10  C   UNL A   1      32.799  26.734  25.268  1.00  0.00    -0.002 C 
ATOM     11  C   UNL A   1      31.746  26.464  26.385  1.00  0.00     0.014 C 
ATOM     12  C   UNL A   1      32.083  27.752  24.327  1.00  0.00     0.020 C 
ATOM     13  C   UNL A   1      32.878  28.229  23.127  1.00  0.00     0.070 C 
ATOM     14  C   UNL A   1      33.996  25.728  23.169  1.00  0.00     0.108 C 
ATOM     15  S   UNL A   1      33.163  26.857  22.001  1.00  0.00    -0.159 SA
BRANCH   8  16
ATOM     16  N   UNL A   1      32.013  24.540  24.283  1.00  0.00    -0.369 N 
ATOM     17  H   UNL A   1      31.144  24.995  24.193  1.00  0.00     0.161 HD
BRANCH  16  18
ATOM     18  C   UNL A   1      32.049  23.145  24.207  1.00  0.00     0.049 A 
ATOM     19  C   UNL A   1      32.467  22.555  23.001  1.00  0.00     0.027 A 
ATOM     20  C   UNL A   1      31.683  22.276  25.248  1.00  0.00     0.041 A 
ATOM     21  C   UNL A   1      32.610  21.172  22.863  1.00  0.00     0.002 A 
ATOM     22  C   UNL A   1      31.837  20.888  25.119  1.00  0.00     0.018 A 
ATOM     23  Br  UNL A   1      30.785  22.863  26.814  1.00  0.00    -0.049 Br
ATOM     24  C   UNL A   1      32.316  20.338  23.933  1.00  0.00     0.001 A 
ENDBRANCH  16  18
ENDBRANCH   8  16
ENDBRANCH   5   8
ENDBRANCH   3   4
ENDBRANCH   2   3
ENDBRANCH   1   2
BRANCH   1  25
ATOM     25  C   UNL A   1      39.286  21.447  26.077  1.00  0.00     0.116 C 
BRANCH  25  26
ATOM     26  N   UNL A   1      39.973  20.163  26.044  1.00  0.00    -0.352 N 
ATOM     27  C   UNL A   1      41.334  19.938  26.178  1.00  0.00     0.251 C 
ATOM     28  H   UNL A   1      39.409  19.367  25.912  1.00  0.00     0.163 HD
ATOM     29  O   UNL A   1      41.809  18.827  26.080  1.00  0.00    -0.269 OA
BRANCH  27  30
ATOM     30  C   UNL A   1      42.194  21.128  26.386  1.00  0.00     0.039 A 
ATOM     31  C   UNL A   1      42.487  21.946  25.293  1.00  0.00     0.014 A 
ATOM     32  C   UNL A   1      42.528  21.520  27.683  1.00  0.00     0.014 A 
ATOM     33  C   UNL A   1      43.031  23.213  25.518  1.00  0.00     0.010 A 
ATOM     34  C   UNL A   1      42.962  22.820  27.907  1.00  0.00     0.010 A 
ATOM     35  C   UNL A   1      43.217  23.683  26.830  1.00  0.00    -0.014 A 
BRANCH  35  36
ATOM     36  C   UNL A   1      43.685  25.069  27.099  1.00  0.00     0.031 A 
ATOM     37  C   UNL A   1      45.127  25.428  26.858  1.00  0.00     0.074 A 
ATOM     38  C   UNL A   1      42.842  25.979  27.631  1.00  0.00     0.049 A 
ATOM     39  N   UNL A   1      45.751  26.551  27.104  1.00  0.00    -0.248 NA
ATOM     40  C   UNL A   1      45.993  24.370  26.313  1.00  0.00     0.031 C 
ATOM     41  C   UNL A   1      41.443  25.736  27.995  1.00  0.00     0.029 A 
ATOM     42  N   UNL A   1      43.042  27.296  27.965  1.00  0.00    -0.354 N 
ATOM     43  C   UNL A   1      47.082  26.320  26.777  1.00  0.00     0.074 A 
ATOM     44  C   UNL A   1      47.187  24.934  26.379  1.00  0.00     0.031 C 
ATOM     45  C   UNL A   1      40.904  26.874  28.463  1.00  0.00     0.029 A 
ATOM     46  C   UNL A   1      41.920  27.921  28.459  1.00  0.00     0.049 A 
ATOM     47  H   UNL A   1      43.909  27.751  27.860  1.00  0.00     0.167 HD
ATOM     48  C   UNL A   1      48.119  27.190  26.769  1.00  0.00     0.037 A 
ATOM     49  C   UNL A   1      41.732  29.196  28.852  1.00  0.00     0.037 A 
ATOM     50  C   UNL A   1      47.999  28.583  27.099  1.00  0.00     0.049 A 
ATOM     51  C   UNL A   1      42.877  30.167  28.756  1.00  0.00     0.074 A 
ATOM     52  C   UNL A   1      48.969  29.569  27.050  1.00  0.00     0.029 A 
ATOM     53  N   UNL A   1      46.828  29.194  27.523  1.00  0.00    -0.354 N 
ATOM     54  N   UNL A   1      44.115  29.947  28.379  1.00  0.00    -0.248 NA
ATOM     55  C   UNL A   1      42.600  31.563  29.126  1.00  0.00     0.031 C 
ATOM     56  C   UNL A   1      48.388  30.774  27.461  1.00  0.00     0.029 A 
ATOM     57  C   UNL A   1      47.050  30.544  27.737  1.00  0.00     0.049 A 
ATOM     58  H   UNL A   1      45.967  28.735  27.654  1.00  0.00     0.167 HD
ATOM     59  C   UNL A   1      44.755  31.180  28.440  1.00  0.00     0.074 A 
ATOM     60  C   UNL A   1      43.767  32.143  28.879  1.00  0.00     0.031 C 
ATOM     61  C   UNL A   1      46.046  31.487  28.159  1.00  0.00     0.037 A 
BRANCH  48  62
ATOM     62  C   UNL A   1      49.464  26.655  26.362  1.00  0.00     0.058 A 
ATOM     63  C   UNL A   1      50.290  25.979  27.276  1.00  0.00     0.135 A 
ATOM     64  C   UNL A   1      49.936  26.821  25.051  1.00  0.00     0.135 A 
ATOM     65  F   UNL A   1      49.895  25.811  28.548  1.00  0.00    -0.206 F 
ATOM     66  C   UNL A   1      51.553  25.524  26.917  1.00  0.00     0.059 A 
ATOM     67  C   UNL A   1      51.185  26.348  24.661  1.00  0.00     0.059 A 
ATOM     68  F   UNL A   1      49.188  27.460  24.139  1.00  0.00    -0.206 F 
ATOM     69  C   UNL A   1      51.995  25.719  25.607  1.00  0.00     0.060 A 
BRANCH  69  70
ATOM     70  S   UNL A   1      53.642  25.134  25.156  1.00  0.00     0.124 S 
ATOM     71  O   UNL A   1      53.512  23.699  25.385  1.00  0.00    -0.237 OA
ATOM     72  O   UNL A   1      53.750  25.546  23.760  1.00  0.00    -0.237 OA
ATOM     73  O   UNL A   1      54.518  25.843  26.084  1.00  0.00    -0.744 OA
ENDBRANCH  69  70
ENDBRANCH  48  62
BRANCH  49  74
ATOM     74  C   UNL A   1      40.391  29.646  29.315  1.00  0.00     0.058 A 
ATOM     75  C   UNL A   1      40.140  29.862  30.678  1.00  0.00     0.135 A 
ATOM     76  C   UNL A   1      39.342  29.875  28.412  1.00  0.00     0.135 A 
ATOM     77  F   UNL A   1      41.111  29.652  31.579  1.00  0.00    -0.206 F 
ATOM     78  C   UNL A   1      38.891  30.271  31.135  1.00  0.00     0.059 A 
ATOM     79  C   UNL A   1      38.090  30.304  28.843  1.00  0.00     0.059 A 
ATOM     80  F   UNL A   1      39.537  29.700  27.096  1.00  0.00    -0.206 F 
ATOM     81  C   UNL A   1      37.871  30.489  30.208  1.00  0.00     0.060 A 
BRANCH  81  82
ATOM     82  S   UNL A   1      36.266  31.066  30.805  1.00  0.00     0.124 S 
ATOM     83  O   UNL A   1      35.949  30.062  31.812  1.00  0.00    -0.237 OA
ATOM     84  O   UNL A   1      36.584  32.399  31.308  1.00  0.00    -0.237 OA
ATOM     85  O   UNL A   1      35.436  31.041  29.603  1.00  0.00    -0.744 OA
ENDBRANCH  81  82
ENDBRANCH  49  74
BRANCH  61  86
ATOM     86  C   UNL A   1      46.453  32.927  28.280  1.00  0.00     0.058 A 
ATOM     87  C   UNL A   1      47.000  33.440  29.465  1.00  0.00     0.135 A 
ATOM     88  C   UNL A   1      46.333  33.792  27.180  1.00  0.00     0.135 A 
ATOM     89  F   UNL A   1      47.131  32.653  30.545  1.00  0.00    -0.206 F 
ATOM     90  C   UNL A   1      47.396  34.769  29.564  1.00  0.00     0.059 A 
ATOM     91  C   UNL A   1      46.743  35.119  27.250  1.00  0.00     0.059 A 
ATOM     92  F   UNL A   1      45.825  33.346  26.020  1.00  0.00    -0.206 F 
ATOM     93  C   UNL A   1      47.261  35.603  28.452  1.00  0.00     0.060 A 
BRANCH  93  94
ATOM     94  S   UNL A   1      47.800  37.320  28.581  1.00  0.00     0.124 S 
ATOM     95  O   UNL A   1      47.035  37.949  27.511  1.00  0.00    -0.237 OA
ATOM     96  O   UNL A   1      47.401  37.674  29.940  1.00  0.00    -0.237 OA
ATOM     97  O   UNL A   1      49.241  37.239  28.362  1.00  0.00    -0.744 OA
ENDBRANCH  93  94
ENDBRANCH  61  86
ENDBRANCH  35  36
ENDBRANCH  27  30
ENDBRANCH  25  26
ENDBRANCH   1  25
TORSDOF 16
ENDMDL
MODEL 3
REMARK VINA RESULT:     -11.4      2.325      8.084
REMARK SMILES CC1(C)CCSC[C@@]1(Nc1ccccc1Br)C(=O)NCCCCNC(=O)c1ccc(-c2c3nc(c(-c4c(F)cc(S(=O)(=O)[O-])cc4F)c4ccc([nH]4)c(-c4c(F)cc(S(=O)(=O)[O-])cc4F)c4nc(c(-c5c(F)cc(S(=O)(=O)[O-])cc5F)c5ccc2[nH]5)C=C4)C=C3)cc1
REMARK SMILES IDX 22 1 21 2 20 3 19 4 17 5 18 6 8 8 1 9 2 10 3 11 4 12 5 13
REMARK SMILES IDX 7 14 6 15 9 16 10 18 11 19 15 20 12 21 14 22 16 23 13 24
REMARK SMILES IDX 23 25 24 26 25 27 26 29 27 30 28 31 92 32 29 33 91 34 30 35
REMARK SMILES IDX 31 36 32 37 85 38 33 39 90 40 84 41 86 42 34 43 89 44 83 45
REMARK SMILES IDX 82 46 35 48 69 49 48 50 68 51 49 52 52 53 67 54 87 55 50 56
REMARK SMILES IDX 51 57 66 59 88 60 53 61 36 62 37 63 46 64 38 65 39 66 45 67
REMARK SMILES IDX 47 68 40 69 41 70 42 71 43 72 44 73 70 74 71 75 80 76 72 77
REMARK SMILES IDX 73 78 79 79 81 80 74 81 75 82 76 83 77 84 78 85 54 86 55 87
REMARK SMILES IDX 64 88 56 89 57 90 63 91 65 92 58 93 59 94 60 95 61 96 62 97
REMARK H PARENT 19 7 9 17 24 28 86 47 52 58
REMARK Flexibility Score: inf
ROOT
ATOM      1  C   UNL A   1      38.018  21.566  25.377  1.00  0.00     0.023 C 
ENDROOT
BRANCH   1   2
ATOM      2  C   UNL A   1      37.371  22.932  25.452  1.00  0.00     0.023 C 
BRANCH   2   3
ATOM      3  C   UNL A   1      36.116  23.094  24.589  1.00  0.00     0.116 C 
BRANCH   3   4
ATOM      4  N   UNL A   1      35.457  24.319  24.973  1.00  0.00    -0.354 N 
ATOM      5  C   UNL A   1      34.243  24.374  25.599  1.00  0.00     0.247 C 
ATOM      6  O   UNL A   1      34.029  23.693  26.602  1.00  0.00    -0.272 OA
ATOM      7  H   UNL A   1      35.911  25.169  24.772  1.00  0.00     0.163 HD
BRANCH   5   8
ATOM      8  C   UNL A   1      33.139  25.249  24.878  1.00  0.00     0.131 C 
ATOM      9  C   UNL A   1      32.458  22.970  23.766  1.00  0.00     0.014 C 
ATOM     10  C   UNL A   1      32.638  24.501  23.532  1.00  0.00    -0.002 C 
ATOM     11  C   UNL A   1      33.614  24.706  22.335  1.00  0.00     0.014 C 
ATOM     12  C   UNL A   1      31.282  25.063  23.000  1.00  0.00     0.020 C 
ATOM     13  C   UNL A   1      30.105  24.987  23.954  1.00  0.00     0.070 C 
ATOM     14  C   UNL A   1      31.979  25.342  25.922  1.00  0.00     0.108 C 
ATOM     15  S   UNL A   1      30.395  26.061  25.366  1.00  0.00    -0.159 SA
BRANCH   8  16
ATOM     16  N   UNL A   1      33.685  26.601  24.477  1.00  0.00    -0.369 N 
ATOM     17  H   UNL A   1      34.205  26.671  23.644  1.00  0.00     0.161 HD
BRANCH  16  18
ATOM     18  C   UNL A   1      33.483  27.756  25.239  1.00  0.00     0.049 A 
ATOM     19  C   UNL A   1      34.056  27.817  26.521  1.00  0.00     0.027 A 
ATOM     20  C   UNL A   1      32.731  28.867  24.825  1.00  0.00     0.041 A 
ATOM     21  C   UNL A   1      33.973  28.962  27.317  1.00  0.00     0.002 A 
ATOM     22  C   UNL A   1      32.654  30.023  25.614  1.00  0.00     0.018 A 
ATOM     23  Br  UNL A   1      31.613  28.842  23.290  1.00  0.00    -0.049 Br
ATOM     24  C   UNL A   1      33.289  30.076  26.852  1.00  0.00     0.001 A 
ENDBRANCH  16  18
ENDBRANCH   8  16
ENDBRANCH   5   8
ENDBRANCH   3   4
ENDBRANCH   2   3
ENDBRANCH   1   2
BRANCH   1  25
ATOM     25  C   UNL A   1      39.289  21.432  26.189  1.00  0.00     0.116 C 
BRANCH  25  26
ATOM     26  N   UNL A   1      39.959  20.147  26.044  1.00  0.00    -0.352 N 
ATOM     27  C   UNL A   1      41.321  19.901  26.116  1.00  0.00     0.251 C 
ATOM     28  H   UNL A   1      39.382  19.369  25.875  1.00  0.00     0.163 HD
ATOM     29  O   UNL A   1      41.779  18.795  25.924  1.00  0.00    -0.269 OA
BRANCH  27  30
ATOM     30  C   UNL A   1      42.202  21.065  26.378  1.00  0.00     0.039 A 
ATOM     31  C   UNL A   1      42.595  21.866  25.305  1.00  0.00     0.014 A 
ATOM     32  C   UNL A   1      42.456  21.455  27.693  1.00  0.00     0.014 A 
ATOM     33  C   UNL A   1      43.161  23.118  25.562  1.00  0.00     0.010 A 
ATOM     34  C   UNL A   1      42.914  22.742  27.942  1.00  0.00     0.010 A 
ATOM     35  C   UNL A   1      43.270  23.590  26.881  1.00  0.00    -0.014 A 
BRANCH  35  36
ATOM     36  C   UNL A   1      43.761  24.963  27.176  1.00  0.00     0.031 A 
ATOM     37  C   UNL A   1      45.211  25.299  26.954  1.00  0.00     0.074 A 
ATOM     38  C   UNL A   1      42.930  25.880  27.716  1.00  0.00     0.049 A 
ATOM     39  N   UNL A   1      45.854  26.406  27.222  1.00  0.00    -0.248 NA
ATOM     40  C   UNL A   1      46.062  24.233  26.399  1.00  0.00     0.031 C 
ATOM     41  C   UNL A   1      41.524  25.657  28.065  1.00  0.00     0.029 A 
ATOM     42  N   UNL A   1      43.152  27.187  28.073  1.00  0.00    -0.354 N 
ATOM     43  C   UNL A   1      47.184  26.155  26.902  1.00  0.00     0.074 A 
ATOM     44  C   UNL A   1      47.266  24.775  26.483  1.00  0.00     0.031 C 
ATOM     45  C   UNL A   1      41.002  26.798  28.546  1.00  0.00     0.029 A 
ATOM     46  C   UNL A   1      42.037  27.825  28.567  1.00  0.00     0.049 A 
ATOM     47  H   UNL A   1      44.028  27.628  27.983  1.00  0.00     0.167 HD
ATOM     48  C   UNL A   1      48.236  27.007  26.917  1.00  0.00     0.037 A 
ATOM     49  C   UNL A   1      41.869  29.097  28.979  1.00  0.00     0.037 A 
ATOM     50  C   UNL A   1      48.139  28.396  27.268  1.00  0.00     0.049 A 
ATOM     51  C   UNL A   1      43.033  30.049  28.909  1.00  0.00     0.074 A 
ATOM     52  C   UNL A   1      49.128  29.364  27.243  1.00  0.00     0.029 A 
ATOM     53  N   UNL A   1      46.976  29.022  27.693  1.00  0.00    -0.354 N 
ATOM     54  N   UNL A   1      44.270  29.811  28.538  1.00  0.00    -0.248 NA
ATOM     55  C   UNL A   1      42.779  31.443  29.298  1.00  0.00     0.031 C 
ATOM     56  C   UNL A   1      48.565  30.573  27.668  1.00  0.00     0.029 A 
ATOM     57  C   UNL A   1      47.220  30.363  27.930  1.00  0.00     0.049 A 
ATOM     58  H   UNL A   1      46.106  28.577  27.809  1.00  0.00     0.167 HD
ATOM     59  C   UNL A   1      44.932  31.031  28.624  1.00  0.00     0.074 A 
ATOM     60  C   UNL A   1      43.958  32.005  29.070  1.00  0.00     0.031 C 
ATOM     61  C   UNL A   1      46.231  31.319  28.359  1.00  0.00     0.037 A 
BRANCH  48  62
ATOM     62  C   UNL A   1      49.575  26.453  26.513  1.00  0.00     0.058 A 
ATOM     63  C   UNL A   1      50.475  25.945  27.465  1.00  0.00     0.135 A 
ATOM     64  C   UNL A   1      49.965  26.432  25.165  1.00  0.00     0.135 A 
ATOM     65  F   UNL A   1      50.158  25.959  28.770  1.00  0.00    -0.206 F 
ATOM     66  C   UNL A   1      51.731  25.475  27.100  1.00  0.00     0.059 A 
ATOM     67  C   UNL A   1      51.207  25.940  24.774  1.00  0.00     0.059 A 
ATOM     68  F   UNL A   1      49.144  26.906  24.215  1.00  0.00    -0.206 F 
ATOM     69  C   UNL A   1      52.091  25.483  25.752  1.00  0.00     0.060 A 
BRANCH  69  70
ATOM     70  S   UNL A   1      53.730  24.882  25.293  1.00  0.00     0.124 S 
ATOM     71  O   UNL A   1      53.992  25.654  24.082  1.00  0.00    -0.237 OA
ATOM     72  O   UNL A   1      54.533  25.239  26.458  1.00  0.00    -0.237 OA
ATOM     73  O   UNL A   1      53.522  23.451  25.094  1.00  0.00    -0.744 OA
ENDBRANCH  69  70
ENDBRANCH  48  62
BRANCH  49  74
ATOM     74  C   UNL A   1      40.534  29.565  29.438  1.00  0.00     0.058 A 
ATOM     75  C   UNL A   1      40.285  29.796  30.799  1.00  0.00     0.135 A 
ATOM     76  C   UNL A   1      39.487  29.796  28.533  1.00  0.00     0.135 A 
ATOM     77  F   UNL A   1      41.254  29.584  31.702  1.00  0.00    -0.206 F 
ATOM     78  C   UNL A   1      39.040  30.221  31.253  1.00  0.00     0.059 A 
ATOM     79  C   UNL A   1      38.238  30.241  28.960  1.00  0.00     0.059 A 
ATOM     80  F   UNL A   1      39.679  29.607  27.219  1.00  0.00    -0.206 F 
ATOM     81  C   UNL A   1      38.022  30.441  30.324  1.00  0.00     0.060 A 
BRANCH  81  82
ATOM     82  S   UNL A   1      36.422  31.038  30.915  1.00  0.00     0.124 S 
ATOM     83  O   UNL A   1      35.656  31.102  29.677  1.00  0.00    -0.237 OA
ATOM     84  O   UNL A   1      36.032  29.993  31.856  1.00  0.00    -0.237 OA
ATOM     85  O   UNL A   1      36.753  32.325  31.523  1.00  0.00    -0.744 OA
ENDBRANCH  81  82
ENDBRANCH  49  74
BRANCH  61  86
ATOM     86  C   UNL A   1      46.663  32.749  28.506  1.00  0.00     0.058 A 
ATOM     87  C   UNL A   1      47.198  33.235  29.707  1.00  0.00     0.135 A 
ATOM     88  C   UNL A   1      46.581  33.630  27.415  1.00  0.00     0.135 A 
ATOM     89  F   UNL A   1      47.293  32.432  30.779  1.00  0.00    -0.206 F 
ATOM     90  C   UNL A   1      47.617  34.556  29.831  1.00  0.00     0.059 A 
ATOM     91  C   UNL A   1      47.015  34.947  27.511  1.00  0.00     0.059 A 
ATOM     92  F   UNL A   1      46.086  33.208  26.240  1.00  0.00    -0.206 F 
ATOM     93  C   UNL A   1      47.519  35.405  28.728  1.00  0.00     0.060 A 
BRANCH  93  94
ATOM     94  S   UNL A   1      48.089  37.110  28.890  1.00  0.00     0.124 S 
ATOM     95  O   UNL A   1      48.377  37.189  30.317  1.00  0.00    -0.237 OA
ATOM     96  O   UNL A   1      49.249  37.141  28.005  1.00  0.00    -0.237 OA
ATOM     97  O   UNL A   1      46.944  37.893  28.435  1.00  0.00    -0.744 OA
ENDBRANCH  93  94
ENDBRANCH  61  86
ENDBRANCH  35  36
ENDBRANCH  27  30
ENDBRANCH  25  26
ENDBRANCH   1  25
TORSDOF 16
ENDMDL
