MODEL 1
REMARK VINA RESULT:     -10.9      0.000      0.000
REMARK SMILES CCCCCCNC(=O)Oc1cccc(-c2ccc(CC(=O)NCCCCNC(=O)c3ccc(-c4c5nc(c(-c6c(F)cc(S(=O)(=O)[O-])cc6F)c6ccc([nH]6)c(-c6c(F)cc(S(=O)(=O)[O-])cc6F)c6nc(c(-c7c(F)cc(S(=O)(=O)[O-])cc7F)c7ccc4[nH]7)C=C6)C=C5)cc3)cc2F)c1
REMARK SMILES IDX 21 1 22 2 23 3 20 5 19 6 16 7 17 8 98 9 18 10 97 11 99 12
REMARK SMILES IDX 15 13 11 14 12 15 100 16 13 17 14 18 10 19 8 20 7 21 9 23
REMARK SMILES IDX 6 24 5 25 4 26 3 27 2 28 1 29 24 30 25 31 26 32 27 33 28 34
REMARK SMILES IDX 29 35 30 37 31 38 32 39 96 40 33 41 95 42 34 43 35 44 36 45
REMARK SMILES IDX 89 46 37 47 94 48 88 49 90 50 38 51 93 52 87 53 86 54 39 56
REMARK SMILES IDX 73 57 52 58 72 59 53 60 56 61 71 62 91 63 54 64 55 65 70 67
REMARK SMILES IDX 92 68 57 69 40 70 41 71 50 72 42 73 43 74 49 75 51 76 44 77
REMARK SMILES IDX 45 78 46 79 47 80 48 81 74 82 75 83 84 84 76 85 77 86 83 87
REMARK SMILES IDX 85 88 78 89 79 90 80 91 81 92 82 93 58 94 59 95 68 96 60 97
REMARK SMILES IDX 61 98 67 99 69 100 62 101 63 102 64 103 65 104 66 105
REMARK H PARENT 23 4 7 22 28 36 90 55 56 66
REMARK Flexibility Score: inf
ROOT
ATOM      1  C   UNL A   1      35.109  34.095  28.608  1.00  0.00     0.224 C 
ATOM      2  O   UNL A   1      34.387  34.816  27.916  1.00  0.00    -0.275 OA
ATOM      3  N   UNL A   1      36.402  34.478  28.824  1.00  0.00    -0.356 N 
ATOM      4  H   UNL A   1      36.656  35.348  28.436  1.00  0.00     0.163 HD
ENDROOT
BRANCH   1   5
ATOM      5  C   UNL A   1      34.568  32.827  29.249  1.00  0.00     0.135 C 
BRANCH   5   6
ATOM      6  C   UNL A   1      34.381  31.686  28.280  1.00  0.00    -0.036 A 
ATOM      7  C   UNL A   1      33.936  29.422  26.629  1.00  0.00     0.018 A 
ATOM      8  C   UNL A   1      35.188  29.649  27.226  1.00  0.00     0.012 A 
ATOM      9  C   UNL A   1      32.937  30.383  26.840  1.00  0.00     0.131 A 
ATOM     10  C   UNL A   1      35.410  30.768  28.039  1.00  0.00     0.005 A 
ATOM     11  C   UNL A   1      33.154  31.505  27.636  1.00  0.00     0.044 A 
ATOM     12  F   UNL A   1      31.715  30.227  26.308  1.00  0.00    -0.206 F 
BRANCH   7  13
ATOM     13  C   UNL A   1      33.678  28.214  25.828  1.00  0.00    -0.012 A 
ATOM     14  C   UNL A   1      33.079  25.863  25.688  1.00  0.00     0.133 A 
ATOM     15  C   UNL A   1      33.265  25.868  24.309  1.00  0.00     0.047 A 
ATOM     16  C   UNL A   1      33.295  27.014  26.447  1.00  0.00     0.056 A 
ATOM     17  C   UNL A   1      33.640  27.051  23.678  1.00  0.00     0.004 A 
ATOM     18  C   UNL A   1      33.841  28.214  24.431  1.00  0.00     0.009 A 
BRANCH  14  19
ATOM     19  O   UNL A   1      32.792  24.632  26.298  1.00  0.00    -0.410 OA
BRANCH  19  20
ATOM     20  C   UNL A   1      31.475  24.203  26.312  1.00  0.00     0.412 C 
ATOM     21  N   UNL A   1      31.319  22.920  25.872  1.00  0.00    -0.321 N 
ATOM     22  H   UNL A   1      30.398  22.573  25.848  1.00  0.00     0.167 HD
ATOM     23  O   UNL A   1      30.499  24.865  26.662  1.00  0.00    -0.224 OA
BRANCH  21  24
ATOM     24  C   UNL A   1      32.364  22.016  25.438  1.00  0.00     0.119 C 
BRANCH  24  25
ATOM     25  C   UNL A   1      32.519  22.007  23.917  1.00  0.00     0.021 C 
BRANCH  25  26
ATOM     26  C   UNL A   1      33.855  22.557  23.399  1.00  0.00     0.002 C 
BRANCH  26  27
ATOM     27  C   UNL A   1      35.033  22.455  24.374  1.00  0.00    -0.000 C 
BRANCH  27  28
ATOM     28  C   UNL A   1      36.422  22.519  23.732  1.00  0.00    -0.003 C 
ATOM     29  C   UNL A   1      37.528  22.001  24.639  1.00  0.00     0.004 C 
ENDBRANCH  27  28
ENDBRANCH  26  27
ENDBRANCH  25  26
ENDBRANCH  24  25
ENDBRANCH  21  24
ENDBRANCH  19  20
ENDBRANCH  14  19
ENDBRANCH   7  13
ENDBRANCH   5   6
ENDBRANCH   1   5
BRANCH   3  30
ATOM     30  C   UNL A   1      37.455  33.787  29.545  1.00  0.00     0.116 C 
BRANCH  30  31
ATOM     31  C   UNL A   1      37.466  34.150  31.031  1.00  0.00     0.023 C 
BRANCH  31  32
ATOM     32  C   UNL A   1      38.636  33.560  31.825  1.00  0.00     0.023 C 
BRANCH  32  33
ATOM     33  C   UNL A   1      38.246  32.589  32.934  1.00  0.00     0.116 C 
BRANCH  33  34
ATOM     34  N   UNL A   1      37.086  31.776  32.605  1.00  0.00    -0.352 N 
ATOM     35  C   UNL A   1      37.011  30.683  31.774  1.00  0.00     0.251 C 
ATOM     36  H   UNL A   1      36.242  32.045  33.034  1.00  0.00     0.163 HD
ATOM     37  O   UNL A   1      35.920  30.182  31.516  1.00  0.00    -0.269 OA
BRANCH  35  38
ATOM     38  C   UNL A   1      38.244  30.140  31.163  1.00  0.00     0.039 A 
ATOM     39  C   UNL A   1      38.418  30.253  29.782  1.00  0.00     0.014 A 
ATOM     40  C   UNL A   1      39.233  29.544  31.950  1.00  0.00     0.014 A 
ATOM     41  C   UNL A   1      39.616  29.832  29.198  1.00  0.00     0.010 A 
ATOM     42  C   UNL A   1      40.453  29.191  31.378  1.00  0.00     0.010 A 
ATOM     43  C   UNL A   1      40.658  29.332  29.997  1.00  0.00    -0.014 A 
BRANCH  43  44
ATOM     44  C   UNL A   1      41.972  28.962  29.409  1.00  0.00     0.031 A 
ATOM     45  C   UNL A   1      43.058  29.995  29.277  1.00  0.00     0.074 A 
ATOM     46  C   UNL A   1      42.161  27.717  28.930  1.00  0.00     0.049 A 
ATOM     47  N   UNL A   1      44.238  29.886  28.724  1.00  0.00    -0.248 NA
ATOM     48  C   UNL A   1      42.771  31.334  29.815  1.00  0.00     0.031 C 
ATOM     49  C   UNL A   1      41.168  26.640  28.954  1.00  0.00     0.029 A 
ATOM     50  N   UNL A   1      43.250  27.147  28.316  1.00  0.00    -0.354 N 
ATOM     51  C   UNL A   1      44.827  31.139  28.832  1.00  0.00     0.074 A 
ATOM     52  C   UNL A   1      43.854  32.008  29.458  1.00  0.00     0.031 C 
ATOM     53  C   UNL A   1      41.700  25.537  28.401  1.00  0.00     0.029 A 
ATOM     54  C   UNL A   1      43.055  25.837  27.948  1.00  0.00     0.049 A 
ATOM     55  H   UNL A   1      44.092  27.632  28.156  1.00  0.00     0.167 HD
ATOM     56  C   UNL A   1      46.072  31.527  28.466  1.00  0.00     0.037 A 
ATOM     57  C   UNL A   1      43.871  24.976  27.308  1.00  0.00     0.037 A 
ATOM     58  C   UNL A   1      47.045  30.651  27.866  1.00  0.00     0.049 A 
ATOM     59  C   UNL A   1      45.249  25.428  26.911  1.00  0.00     0.074 A 
ATOM     60  C   UNL A   1      48.353  30.933  27.511  1.00  0.00     0.029 A 
ATOM     61  N   UNL A   1      46.818  29.324  27.529  1.00  0.00    -0.354 N 
ATOM     62  N   UNL A   1      45.811  26.602  27.079  1.00  0.00    -0.248 NA
ATOM     63  C   UNL A   1      46.107  24.441  26.242  1.00  0.00     0.031 C 
ATOM     64  C   UNL A   1      48.903  29.790  26.921  1.00  0.00     0.029 A 
ATOM     65  C   UNL A   1      47.954  28.780  26.954  1.00  0.00     0.049 A 
ATOM     66  H   UNL A   1      45.972  28.841  27.677  1.00  0.00     0.167 HD
ATOM     67  C   UNL A   1      47.098  26.485  26.563  1.00  0.00     0.074 A 
ATOM     68  C   UNL A   1      47.233  25.124  26.086  1.00  0.00     0.031 C 
ATOM     69  C   UNL A   1      48.078  27.420  26.492  1.00  0.00     0.037 A 
BRANCH  56  70
ATOM     70  C   UNL A   1      46.456  32.961  28.711  1.00  0.00     0.058 A 
ATOM     71  C   UNL A   1      47.051  33.370  29.916  1.00  0.00     0.135 A 
ATOM     72  C   UNL A   1      46.259  33.934  27.716  1.00  0.00     0.135 A 
ATOM     73  F   UNL A   1      47.249  32.485  30.905  1.00  0.00    -0.206 F 
ATOM     74  C   UNL A   1      47.406  34.695  30.140  1.00  0.00     0.059 A 
ATOM     75  C   UNL A   1      46.634  35.261  27.908  1.00  0.00     0.059 A 
ATOM     76  F   UNL A   1      45.695  33.599  26.545  1.00  0.00    -0.206 F 
ATOM     77  C   UNL A   1      47.193  35.635  29.129  1.00  0.00     0.060 A 
BRANCH  77  78
ATOM     78  S   UNL A   1      47.661  37.351  29.435  1.00  0.00     0.124 S 
ATOM     79  O   UNL A   1      47.881  37.339  30.878  1.00  0.00    -0.237 OA
ATOM     80  O   UNL A   1      48.858  37.499  28.614  1.00  0.00    -0.237 OA
ATOM     81  O   UNL A   1      46.497  38.107  28.984  1.00  0.00    -0.744 OA
ENDBRANCH  77  78
ENDBRANCH  56  70
BRANCH  57  82
ATOM     82  C   UNL A   1      43.413  23.589  27.025  1.00  0.00     0.058 A 
ATOM     83  C   UNL A   1      43.089  23.189  25.720  1.00  0.00     0.135 A 
ATOM     84  C   UNL A   1      43.301  22.633  28.047  1.00  0.00     0.135 A 
ATOM     85  F   UNL A   1      43.173  24.068  24.709  1.00  0.00    -0.206 F 
ATOM     86  C   UNL A   1      42.654  21.898  25.439  1.00  0.00     0.059 A 
ATOM     87  C   UNL A   1      42.893  21.329  27.788  1.00  0.00     0.059 A 
ATOM     88  F   UNL A   1      43.615  22.961  29.310  1.00  0.00    -0.206 F 
ATOM     89  C   UNL A   1      42.562  20.973  26.481  1.00  0.00     0.060 A 
BRANCH  89  90
ATOM     90  S   UNL A   1      42.044  19.286  26.097  1.00  0.00     0.124 S 
ATOM     91  O   UNL A   1      42.379  18.588  27.332  1.00  0.00    -0.237 OA
ATOM     92  O   UNL A   1      40.619  19.458  25.826  1.00  0.00    -0.237 OA
ATOM     93  O   UNL A   1      42.858  18.942  24.935  1.00  0.00    -0.744 OA
ENDBRANCH  89  90
ENDBRANCH  57  82
BRANCH  69  94
ATOM     94  C   UNL A   1      49.399  26.997  25.910  1.00  0.00     0.058 A 
ATOM     95  C   UNL A   1      49.724  27.233  24.566  1.00  0.00     0.135 A 
ATOM     96  C   UNL A   1      50.372  26.395  26.726  1.00  0.00     0.135 A 
ATOM     97  F   UNL A   1      48.827  27.798  23.742  1.00  0.00    -0.206 F 
ATOM     98  C   UNL A   1      50.961  26.867  24.044  1.00  0.00     0.059 A 
ATOM     99  C   UNL A   1      51.625  26.047  26.232  1.00  0.00     0.059 A 
ATOM    100  F   UNL A   1      50.115  26.157  28.022  1.00  0.00    -0.206 F 
ATOM    101  C   UNL A   1      51.907  26.277  24.887  1.00  0.00     0.060 A 
BRANCH 101 102
ATOM    102  S   UNL A   1      53.520  25.841  24.206  1.00  0.00     0.124 S 
ATOM    103  O   UNL A   1      53.743  24.525  24.796  1.00  0.00    -0.237 OA
ATOM    104  O   UNL A   1      53.269  25.856  22.768  1.00  0.00    -0.237 OA
ATOM    105  O   UNL A   1      54.394  26.904  24.694  1.00  0.00    -0.744 OA
ENDBRANCH 101 102
ENDBRANCH  69  94
ENDBRANCH  43  44
ENDBRANCH  35  38
ENDBRANCH  33  34
ENDBRANCH  32  33
ENDBRANCH  31  32
ENDBRANCH  30  31
ENDBRANCH   3  30
TORSDOF 23
ENDMDL
MODEL 2
REMARK VINA RESULT:     -10.8      1.332      2.505
REMARK SMILES CCCCCCNC(=O)Oc1cccc(-c2ccc(CC(=O)NCCCCNC(=O)c3ccc(-c4c5nc(c(-c6c(F)cc(S(=O)(=O)[O-])cc6F)c6ccc([nH]6)c(-c6c(F)cc(S(=O)(=O)[O-])cc6F)c6nc(c(-c7c(F)cc(S(=O)(=O)[O-])cc7F)c7ccc4[nH]7)C=C6)C=C5)cc3)cc2F)c1
REMARK SMILES IDX 21 1 22 2 23 3 20 5 19 6 16 7 17 8 98 9 18 10 97 11 99 12
REMARK SMILES IDX 15 13 11 14 12 15 100 16 13 17 14 18 10 19 8 20 7 21 9 23
REMARK SMILES IDX 6 24 5 25 4 26 3 27 2 28 1 29 24 30 25 31 26 32 27 33 28 34
REMARK SMILES IDX 29 35 30 37 31 38 32 39 96 40 33 41 95 42 34 43 35 44 36 45
REMARK SMILES IDX 89 46 37 47 94 48 88 49 90 50 38 51 93 52 87 53 86 54 39 56
REMARK SMILES IDX 73 57 52 58 72 59 53 60 56 61 71 62 91 63 54 64 55 65 70 67
REMARK SMILES IDX 92 68 57 69 40 70 41 71 50 72 42 73 43 74 49 75 51 76 44 77
REMARK SMILES IDX 45 78 46 79 47 80 48 81 74 82 75 83 84 84 76 85 77 86 83 87
REMARK SMILES IDX 85 88 78 89 79 90 80 91 81 92 82 93 58 94 59 95 68 96 60 97
REMARK SMILES IDX 61 98 67 99 69 100 62 101 63 102 64 103 65 104 66 105
REMARK H PARENT 23 4 7 22 28 36 90 55 56 66
REMARK Flexibility Score: inf
ROOT
ATOM      1  C   UNL A   1      35.215  33.426  28.824  1.00  0.00     0.224 C 
ATOM      2  O   UNL A   1      35.794  33.498  27.737  1.00  0.00    -0.275 OA
ATOM      3  N   UNL A   1      35.247  34.510  29.654  1.00  0.00    -0.356 N 
ATOM      4  H   UNL A   1      35.706  35.305  29.296  1.00  0.00     0.163 HD
ENDROOT
BRANCH   1   5
ATOM      5  C   UNL A   1      34.442  32.179  29.220  1.00  0.00     0.135 C 
BRANCH   5   6
ATOM      6  C   UNL A   1      34.296  31.172  28.106  1.00  0.00    -0.036 A 
ATOM      7  C   UNL A   1      33.880  29.163  26.147  1.00  0.00     0.018 A 
ATOM      8  C   UNL A   1      35.009  29.137  26.984  1.00  0.00     0.012 A 
ATOM      9  C   UNL A   1      33.000  30.246  26.284  1.00  0.00     0.131 A 
ATOM     10  C   UNL A   1      35.217  30.129  27.949  1.00  0.00     0.005 A 
ATOM     11  C   UNL A   1      33.207  31.244  27.233  1.00  0.00     0.044 A 
ATOM     12  F   UNL A   1      31.898  30.330  25.524  1.00  0.00    -0.206 F 
BRANCH   7  13
ATOM     13  C   UNL A   1      33.623  28.086  25.176  1.00  0.00    -0.012 A 
ATOM     14  C   UNL A   1      32.774  25.868  24.660  1.00  0.00     0.133 A 
ATOM     15  C   UNL A   1      33.202  25.979  23.341  1.00  0.00     0.047 A 
ATOM     16  C   UNL A   1      32.992  26.898  25.576  1.00  0.00     0.056 A 
ATOM     17  C   UNL A   1      33.826  27.153  22.926  1.00  0.00     0.004 A 
ATOM     18  C   UNL A   1      34.032  28.197  23.834  1.00  0.00     0.009 A 
BRANCH  14  19
ATOM     19  O   UNL A   1      32.235  24.637  25.063  1.00  0.00    -0.410 OA
BRANCH  19  20
ATOM     20  C   UNL A   1      31.189  24.651  25.971  1.00  0.00     0.412 C 
ATOM     21  N   UNL A   1      29.989  24.980  25.409  1.00  0.00    -0.321 N 
ATOM     22  H   UNL A   1      29.214  25.018  26.017  1.00  0.00     0.167 HD
ATOM     23  O   UNL A   1      31.267  24.411  27.175  1.00  0.00    -0.224 OA
BRANCH  21  24
ATOM     24  C   UNL A   1      29.733  25.277  24.015  1.00  0.00     0.119 C 
BRANCH  24  25
ATOM     25  C   UNL A   1      29.086  26.650  23.831  1.00  0.00     0.021 C 
BRANCH  25  26
ATOM     26  C   UNL A   1      29.961  27.688  23.115  1.00  0.00     0.002 C 
BRANCH  26  27
ATOM     27  C   UNL A   1      29.597  29.153  23.377  1.00  0.00    -0.000 C 
BRANCH  27  28
ATOM     28  C   UNL A   1      28.297  29.633  22.726  1.00  0.00    -0.003 C 
ATOM     29  C   UNL A   1      28.370  31.064  22.220  1.00  0.00     0.004 C 
ENDBRANCH  27  28
ENDBRANCH  26  27
ENDBRANCH  25  26
ENDBRANCH  24  25
ENDBRANCH  21  24
ENDBRANCH  19  20
ENDBRANCH  14  19
ENDBRANCH   7  13
ENDBRANCH   5   6
ENDBRANCH   1   5
BRANCH   3  30
ATOM     30  C   UNL A   1      34.701  34.657  30.991  1.00  0.00     0.116 C 
BRANCH  30  31
ATOM     31  C   UNL A   1      35.791  34.622  32.063  1.00  0.00     0.023 C 
BRANCH  31  32
ATOM     32  C   UNL A   1      37.214  34.450  31.522  1.00  0.00     0.023 C 
BRANCH  32  33
ATOM     33  C   UNL A   1      37.836  33.076  31.747  1.00  0.00     0.116 C 
BRANCH  33  34
ATOM     34  N   UNL A   1      36.849  32.027  31.953  1.00  0.00    -0.352 N 
ATOM     35  C   UNL A   1      36.916  30.702  31.592  1.00  0.00     0.251 C 
ATOM     36  H   UNL A   1      36.023  32.303  32.412  1.00  0.00     0.163 HD
ATOM     37  O   UNL A   1      35.938  29.976  31.740  1.00  0.00    -0.269 OA
BRANCH  35  38
ATOM     38  C   UNL A   1      38.156  30.168  30.988  1.00  0.00     0.039 A 
ATOM     39  C   UNL A   1      38.337  30.280  29.608  1.00  0.00     0.014 A 
ATOM     40  C   UNL A   1      39.146  29.581  31.782  1.00  0.00     0.014 A 
ATOM     41  C   UNL A   1      39.542  29.868  29.032  1.00  0.00     0.010 A 
ATOM     42  C   UNL A   1      40.372  29.236  31.217  1.00  0.00     0.010 A 
ATOM     43  C   UNL A   1      40.583  29.377  29.837  1.00  0.00    -0.014 A 
BRANCH  43  44
ATOM     44  C   UNL A   1      41.903  29.017  29.257  1.00  0.00     0.031 A 
ATOM     45  C   UNL A   1      42.976  30.062  29.113  1.00  0.00     0.074 A 
ATOM     46  C   UNL A   1      42.111  27.768  28.796  1.00  0.00     0.049 A 
ATOM     47  N   UNL A   1      44.159  29.961  28.563  1.00  0.00    -0.248 NA
ATOM     48  C   UNL A   1      42.669  31.405  29.631  1.00  0.00     0.031 C 
ATOM     49  C   UNL A   1      41.132  26.678  28.833  1.00  0.00     0.029 A 
ATOM     50  N   UNL A   1      43.208  27.204  28.193  1.00  0.00    -0.354 N 
ATOM     51  C   UNL A   1      44.731  31.224  28.656  1.00  0.00     0.074 A 
ATOM     52  C   UNL A   1      43.744  32.088  29.267  1.00  0.00     0.031 C 
ATOM     53  C   UNL A   1      41.680  25.575  28.297  1.00  0.00     0.029 A 
ATOM     54  C   UNL A   1      43.031  25.886  27.842  1.00  0.00     0.049 A 
ATOM     55  H   UNL A   1      44.044  27.697  28.027  1.00  0.00     0.167 HD
ATOM     56  C   UNL A   1      45.971  31.622  28.287  1.00  0.00     0.037 A 
ATOM     57  C   UNL A   1      43.860  25.027  27.216  1.00  0.00     0.037 A 
ATOM     58  C   UNL A   1      46.958  30.752  27.701  1.00  0.00     0.049 A 
ATOM     59  C   UNL A   1      45.234  25.493  26.815  1.00  0.00     0.074 A 
ATOM     60  C   UNL A   1      48.262  31.046  27.345  1.00  0.00     0.029 A 
ATOM     61  N   UNL A   1      46.748  29.417  27.382  1.00  0.00    -0.354 N 
ATOM     62  N   UNL A   1      45.779  26.677  26.969  1.00  0.00    -0.248 NA
ATOM     63  C   UNL A   1      46.106  24.507  26.162  1.00  0.00     0.031 C 
ATOM     64  C   UNL A   1      48.828  29.903  26.772  1.00  0.00     0.029 A 
ATOM     65  C   UNL A   1      47.893  28.880  26.817  1.00  0.00     0.049 A 
ATOM     66  H   UNL A   1      45.909  28.925  27.536  1.00  0.00     0.167 HD
ATOM     67  C   UNL A   1      47.068  26.569  26.457  1.00  0.00     0.074 A 
ATOM     68  C   UNL A   1      47.223  25.203  25.999  1.00  0.00     0.031 C 
ATOM     69  C   UNL A   1      48.036  27.516  26.375  1.00  0.00     0.037 A 
BRANCH  56  70
ATOM     70  C   UNL A   1      46.335  33.066  28.512  1.00  0.00     0.058 A 
ATOM     71  C   UNL A   1      46.097  34.047  27.536  1.00  0.00     0.135 A 
ATOM     72  C   UNL A   1      46.897  33.479  29.732  1.00  0.00     0.135 A 
ATOM     73  F   UNL A   1      45.575  33.705  26.348  1.00  0.00    -0.206 F 
ATOM     74  C   UNL A   1      46.432  35.380  27.747  1.00  0.00     0.059 A 
ATOM     75  C   UNL A   1      47.213  34.813  29.975  1.00  0.00     0.059 A 
ATOM     76  F   UNL A   1      47.145  32.584  30.701  1.00  0.00    -0.206 F 
ATOM     77  C   UNL A   1      46.992  35.753  28.970  1.00  0.00     0.060 A 
BRANCH  77  78
ATOM     78  S   UNL A   1      47.421  37.488  29.228  1.00  0.00     0.124 S 
ATOM     79  O   UNL A   1      48.631  37.610  28.421  1.00  0.00    -0.237 OA
ATOM     80  O   UNL A   1      46.244  38.180  28.712  1.00  0.00    -0.237 OA
ATOM     81  O   UNL A   1      47.617  37.580  30.671  1.00  0.00    -0.744 OA
ENDBRANCH  77  78
ENDBRANCH  56  70
BRANCH  57  82
ATOM     82  C   UNL A   1      43.422  23.631  26.952  1.00  0.00     0.058 A 
ATOM     83  C   UNL A   1      43.113  23.206  25.651  1.00  0.00     0.135 A 
ATOM     84  C   UNL A   1      43.313  22.690  27.988  1.00  0.00     0.135 A 
ATOM     85  F   UNL A   1      43.196  24.070  24.626  1.00  0.00    -0.206 F 
ATOM     86  C   UNL A   1      42.696  21.906  25.387  1.00  0.00     0.059 A 
ATOM     87  C   UNL A   1      42.923  21.377  27.746  1.00  0.00     0.059 A 
ATOM     88  F   UNL A   1      43.612  23.041  29.248  1.00  0.00    -0.206 F 
ATOM     89  C   UNL A   1      42.608  20.996  26.442  1.00  0.00     0.060 A 
BRANCH  89  90
ATOM     90  S   UNL A   1      42.113  19.297  26.082  1.00  0.00     0.124 S 
ATOM     91  O   UNL A   1      40.672  19.440  25.916  1.00  0.00    -0.237 OA
ATOM     92  O   UNL A   1      42.871  19.009  24.868  1.00  0.00    -0.237 OA
ATOM     93  O   UNL A   1      42.543  18.564  27.269  1.00  0.00    -0.744 OA
ENDBRANCH  89  90
ENDBRANCH  57  82
BRANCH  69  94
ATOM     94  C   UNL A   1      49.364  27.103  25.802  1.00  0.00     0.058 A 
ATOM     95  C   UNL A   1      49.629  27.171  24.425  1.00  0.00     0.135 A 
ATOM     96  C   UNL A   1      50.402  26.683  26.650  1.00  0.00     0.135 A 
ATOM     97  F   UNL A   1      48.669  27.558  23.571  1.00  0.00    -0.206 F 
ATOM     98  C   UNL A   1      50.871  26.817  23.907  1.00  0.00     0.059 A 
ATOM     99  C   UNL A   1      51.660  26.352  26.157  1.00  0.00     0.059 A 
ATOM    100  F   UNL A   1      50.205  26.610  27.976  1.00  0.00    -0.206 F 
ATOM    101  C   UNL A   1      51.882  26.411  24.782  1.00  0.00     0.060 A 
BRANCH 101 102
ATOM    102  S   UNL A   1      53.499  25.991  24.101  1.00  0.00     0.124 S 
ATOM    103  O   UNL A   1      53.219  25.968  22.669  1.00  0.00    -0.237 OA
ATOM    104  O   UNL A   1      54.332  27.096  24.565  1.00  0.00    -0.237 OA
ATOM    105  O   UNL A   1      53.796  24.695  24.703  1.00  0.00    -0.744 OA
ENDBRANCH 101 102
ENDBRANCH  69  94
ENDBRANCH  43  44
ENDBRANCH  35  38
ENDBRANCH  33  34
ENDBRANCH  32  33
ENDBRANCH  31  32
ENDBRANCH  30  31
ENDBRANCH   3  30
TORSDOF 23
ENDMDL
MODEL 3
REMARK VINA RESULT:     -10.5      3.841     11.737
REMARK SMILES CCCCCCNC(=O)Oc1cccc(-c2ccc(CC(=O)NCCCCNC(=O)c3ccc(-c4c5nc(c(-c6c(F)cc(S(=O)(=O)[O-])cc6F)c6ccc([nH]6)c(-c6c(F)cc(S(=O)(=O)[O-])cc6F)c6nc(c(-c7c(F)cc(S(=O)(=O)[O-])cc7F)c7ccc4[nH]7)C=C6)C=C5)cc3)cc2F)c1
REMARK SMILES IDX 21 1 22 2 23 3 20 5 19 6 16 7 17 8 98 9 18 10 97 11 99 12
REMARK SMILES IDX 15 13 11 14 12 15 100 16 13 17 14 18 10 19 8 20 7 21 9 23
REMARK SMILES IDX 6 24 5 25 4 26 3 27 2 28 1 29 24 30 25 31 26 32 27 33 28 34
REMARK SMILES IDX 29 35 30 37 31 38 32 39 96 40 33 41 95 42 34 43 35 44 36 45
REMARK SMILES IDX 89 46 37 47 94 48 88 49 90 50 38 51 93 52 87 53 86 54 39 56
REMARK SMILES IDX 73 57 52 58 72 59 53 60 56 61 71 62 91 63 54 64 55 65 70 67
REMARK SMILES IDX 92 68 57 69 40 70 41 71 50 72 42 73 43 74 49 75 51 76 44 77
REMARK SMILES IDX 45 78 46 79 47 80 48 81 74 82 75 83 84 84 76 85 77 86 83 87
REMARK SMILES IDX 85 88 78 89 79 90 80 91 81 92 82 93 58 94 59 95 68 96 60 97
REMARK SMILES IDX 61 98 67 99 69 100 62 101 63 102 64 103 65 104 66 105
REMARK H PARENT 23 4 7 22 28 36 90 55 56 66
REMARK Flexibility Score: inf
ROOT
ATOM      1  C   UNL A   1      44.995  23.556  25.025  1.00  0.00     0.224 C 
ATOM      2  O   UNL A   1      44.820  24.711  24.631  1.00  0.00    -0.275 OA
ATOM      3  N   UNL A   1      44.236  22.557  24.483  1.00  0.00    -0.356 N 
ATOM      4  H   UNL A   1      43.619  22.836  23.767  1.00  0.00     0.163 HD
ENDROOT
BRANCH   1   5
ATOM      5  C   UNL A   1      46.060  23.233  26.060  1.00  0.00     0.135 C 
BRANCH   5   6
ATOM      6  C   UNL A   1      45.717  23.694  27.454  1.00  0.00    -0.036 A 
ATOM      7  C   UNL A   1      44.953  24.732  29.982  1.00  0.00     0.018 A 
ATOM      8  C   UNL A   1      46.208  25.032  29.424  1.00  0.00     0.012 A 
ATOM      9  C   UNL A   1      44.121  23.861  29.265  1.00  0.00     0.131 A 
ATOM     10  C   UNL A   1      46.588  24.518  28.178  1.00  0.00     0.005 A 
ATOM     11  C   UNL A   1      44.496  23.335  28.032  1.00  0.00     0.044 A 
ATOM     12  F   UNL A   1      42.906  23.537  29.735  1.00  0.00    -0.206 F 
BRANCH   7  13
ATOM     13  C   UNL A   1      44.524  25.322  31.260  1.00  0.00    -0.012 A 
ATOM     14  C   UNL A   1      43.765  27.236  32.551  1.00  0.00     0.133 A 
ATOM     15  C   UNL A   1      43.781  26.488  33.724  1.00  0.00     0.047 A 
ATOM     16  C   UNL A   1      44.145  26.672  31.333  1.00  0.00     0.056 A 
ATOM     17  C   UNL A   1      44.150  25.146  33.670  1.00  0.00     0.004 A 
ATOM     18  C   UNL A   1      44.515  24.569  32.448  1.00  0.00     0.009 A 
BRANCH  14  19
ATOM     19  O   UNL A   1      43.478  28.605  32.661  1.00  0.00    -0.410 OA
BRANCH  19  20
ATOM     20  C   UNL A   1      42.223  29.041  32.270  1.00  0.00     0.412 C 
ATOM     21  N   UNL A   1      41.991  30.354  32.560  1.00  0.00    -0.321 N 
ATOM     22  H   UNL A   1      41.105  30.709  32.315  1.00  0.00     0.167 HD
ATOM     23  O   UNL A   1      41.356  28.362  31.722  1.00  0.00    -0.224 OA
BRANCH  21  24
ATOM     24  C   UNL A   1      42.908  31.282  33.189  1.00  0.00     0.119 C 
BRANCH  24  25
ATOM     25  C   UNL A   1      42.278  31.986  34.390  1.00  0.00     0.021 C 
BRANCH  25  26
ATOM     26  C   UNL A   1      40.946  31.390  34.865  1.00  0.00     0.002 C 
BRANCH  26  27
ATOM     27  C   UNL A   1      40.059  32.328  35.691  1.00  0.00    -0.000 C 
BRANCH  27  28
ATOM     28  C   UNL A   1      40.417  33.814  35.604  1.00  0.00    -0.003 C 
ATOM     29  C   UNL A   1      39.683  34.546  34.491  1.00  0.00     0.004 C 
ENDBRANCH  27  28
ENDBRANCH  26  27
ENDBRANCH  25  26
ENDBRANCH  24  25
ENDBRANCH  21  24
ENDBRANCH  19  20
ENDBRANCH  14  19
ENDBRANCH   7  13
ENDBRANCH   5   6
ENDBRANCH   1   5
BRANCH   3  30
ATOM     30  C   UNL A   1      44.210  21.144  24.811  1.00  0.00     0.116 C 
BRANCH  30  31
ATOM     31  C   UNL A   1      43.064  20.799  25.763  1.00  0.00     0.023 C 
BRANCH  31  32
ATOM     32  C   UNL A   1      42.068  21.938  26.006  1.00  0.00     0.023 C 
BRANCH  32  33
ATOM     33  C   UNL A   1      40.989  21.650  27.044  1.00  0.00     0.116 C 
BRANCH  33  34
ATOM     34  N   UNL A   1      39.641  21.696  26.499  1.00  0.00    -0.352 N 
ATOM     35  C   UNL A   1      38.790  22.772  26.401  1.00  0.00     0.251 C 
ATOM     36  H   UNL A   1      39.292  20.843  26.153  1.00  0.00     0.163 HD
ATOM     37  O   UNL A   1      37.636  22.608  26.018  1.00  0.00    -0.269 OA
BRANCH  35  38
ATOM     38  C   UNL A   1      39.260  24.117  26.800  1.00  0.00     0.039 A 
ATOM     39  C   UNL A   1      39.149  24.501  28.138  1.00  0.00     0.014 A 
ATOM     40  C   UNL A   1      39.828  24.985  25.863  1.00  0.00     0.014 A 
ATOM     41  C   UNL A   1      39.673  25.729  28.551  1.00  0.00     0.010 A 
ATOM     42  C   UNL A   1      40.412  26.177  26.289  1.00  0.00     0.010 A 
ATOM     43  C   UNL A   1      40.342  26.560  27.636  1.00  0.00    -0.014 A 
BRANCH  43  44
ATOM     44  C   UNL A   1      40.984  27.828  28.073  1.00  0.00     0.031 A 
ATOM     45  C   UNL A   1      42.475  27.994  27.971  1.00  0.00     0.074 A 
ATOM     46  C   UNL A   1      40.232  28.800  28.625  1.00  0.00     0.049 A 
ATOM     47  N   UNL A   1      43.225  28.989  28.368  1.00  0.00    -0.248 NA
ATOM     48  C   UNL A   1      43.228  26.883  27.366  1.00  0.00     0.031 C 
ATOM     49  C   UNL A   1      38.782  28.740  28.824  1.00  0.00     0.029 A 
ATOM     50  N   UNL A   1      40.583  30.027  29.133  1.00  0.00    -0.354 N 
ATOM     51  C   UNL A   1      44.532  28.622  28.077  1.00  0.00     0.074 A 
ATOM     52  C   UNL A   1      44.479  27.289  27.516  1.00  0.00     0.031 C 
ATOM     53  C   UNL A   1      38.366  29.884  29.392  1.00  0.00     0.029 A 
ATOM     54  C   UNL A   1      39.521  30.744  29.633  1.00  0.00     0.049 A 
ATOM     55  H   UNL A   1      41.508  30.363  29.137  1.00  0.00     0.167 HD
ATOM     56  C   UNL A   1      45.671  29.337  28.239  1.00  0.00     0.037 A 
ATOM     57  C   UNL A   1      39.482  31.952  30.227  1.00  0.00     0.037 A 
ATOM     58  C   UNL A   1      45.715  30.673  28.775  1.00  0.00     0.049 A 
ATOM     59  C   UNL A   1      40.760  32.728  30.397  1.00  0.00     0.074 A 
ATOM     60  C   UNL A   1      46.812  31.504  28.927  1.00  0.00     0.029 A 
ATOM     61  N   UNL A   1      44.615  31.374  29.249  1.00  0.00    -0.354 N 
ATOM     62  N   UNL A   1      41.981  32.389  30.057  1.00  0.00    -0.248 NA
ATOM     63  C   UNL A   1      40.655  34.053  31.026  1.00  0.00     0.031 C 
ATOM     64  C   UNL A   1      46.383  32.689  29.532  1.00  0.00     0.029 A 
ATOM     65  C   UNL A   1      45.010  32.618  29.711  1.00  0.00     0.049 A 
ATOM     66  H   UNL A   1      43.690  31.036  29.257  1.00  0.00     0.167 HD
ATOM     67  C   UNL A   1      42.786  33.469  30.405  1.00  0.00     0.074 A 
ATOM     68  C   UNL A   1      41.911  34.476  30.972  1.00  0.00     0.031 C 
ATOM     69  C   UNL A   1      44.127  33.614  30.265  1.00  0.00     0.037 A 
BRANCH  56  70
ATOM     70  C   UNL A   1      46.965  28.690  27.825  1.00  0.00     0.058 A 
ATOM     71  C   UNL A   1      47.389  28.679  26.487  1.00  0.00     0.135 A 
ATOM     72  C   UNL A   1      47.810  28.104  28.783  1.00  0.00     0.135 A 
ATOM     73  F   UNL A   1      46.615  29.212  25.529  1.00  0.00    -0.206 F 
ATOM     74  C   UNL A   1      48.586  28.082  26.106  1.00  0.00     0.059 A 
ATOM     75  C   UNL A   1      49.026  27.527  28.429  1.00  0.00     0.059 A 
ATOM     76  F   UNL A   1      47.455  28.087  30.078  1.00  0.00    -0.206 F 
ATOM     77  C   UNL A   1      49.398  27.507  27.085  1.00  0.00     0.060 A 
BRANCH  77  78
ATOM     78  S   UNL A   1      50.949  26.737  26.575  1.00  0.00     0.124 S 
ATOM     79  O   UNL A   1      50.524  25.974  25.406  1.00  0.00    -0.237 OA
ATOM     80  O   UNL A   1      51.796  27.894  26.303  1.00  0.00    -0.237 OA
ATOM     81  O   UNL A   1      51.334  25.942  27.738  1.00  0.00    -0.744 OA
ENDBRANCH  77  78
ENDBRANCH  56  70
BRANCH  57  82
ATOM     82  C   UNL A   1      38.182  32.514  30.685  1.00  0.00     0.058 A 
ATOM     83  C   UNL A   1      37.729  32.305  31.996  1.00  0.00     0.135 A 
ATOM     84  C   UNL A   1      37.375  33.279  29.829  1.00  0.00     0.135 A 
ATOM     85  F   UNL A   1      38.462  31.575  32.851  1.00  0.00    -0.206 F 
ATOM     86  C   UNL A   1      36.513  32.819  32.438  1.00  0.00     0.059 A 
ATOM     87  C   UNL A   1      36.169  33.824  30.254  1.00  0.00     0.059 A 
ATOM     88  F   UNL A   1      37.772  33.521  28.570  1.00  0.00    -0.206 F 
ATOM     89  C   UNL A   1      35.741  33.581  31.560  1.00  0.00     0.060 A 
BRANCH  89  90
ATOM     90  S   UNL A   1      34.189  34.284  32.158  1.00  0.00     0.124 S 
ATOM     91  O   UNL A   1      33.666  33.193  32.970  1.00  0.00    -0.237 OA
ATOM     92  O   UNL A   1      34.649  35.462  32.889  1.00  0.00    -0.237 OA
ATOM     93  O   UNL A   1      33.453  34.566  30.929  1.00  0.00    -0.744 OA
ENDBRANCH  89  90
ENDBRANCH  57  82
BRANCH  69  94
ATOM     94  C   UNL A   1      44.731  34.922  30.698  1.00  0.00     0.058 A 
ATOM     95  C   UNL A   1      44.836  36.014  29.823  1.00  0.00     0.135 A 
ATOM     96  C   UNL A   1      45.163  35.099  32.024  1.00  0.00     0.135 A 
ATOM     97  F   UNL A   1      44.445  35.895  28.544  1.00  0.00    -0.206 F 
ATOM     98  C   UNL A   1      45.367  37.230  30.241  1.00  0.00     0.059 A 
ATOM     99  C   UNL A   1      45.671  36.314  32.470  1.00  0.00     0.059 A 
ATOM    100  F   UNL A   1      45.076  34.089  32.903  1.00  0.00    -0.206 F 
ATOM    101  C   UNL A   1      45.779  37.371  31.569  1.00  0.00     0.060 A 
BRANCH 101 102
ATOM    102  S   UNL A   1      46.432  38.965  32.107  1.00  0.00     0.124 S 
ATOM    103  O   UNL A   1      47.125  38.599  33.339  1.00  0.00    -0.237 OA
ATOM    104  O   UNL A   1      47.289  39.348  30.989  1.00  0.00    -0.237 OA
ATOM    105  O   UNL A   1      45.235  39.783  32.279  1.00  0.00    -0.744 OA
ENDBRANCH 101 102
ENDBRANCH  69  94
ENDBRANCH  43  44
ENDBRANCH  35  38
ENDBRANCH  33  34
ENDBRANCH  32  33
ENDBRANCH  31  32
ENDBRANCH  30  31
ENDBRANCH   3  30
TORSDOF 23
ENDMDL
