MODEL 1
REMARK VINA RESULT:     -11.6      0.000      0.000
REMARK SMILES CC(C)[C@H](C(=O)NCCCCNC(=O)c1ccc(-c2c3nc(c(-c4c(F)cc(S(=O)(=O)[O-])cc4F)c4ccc([nH]4)c(-c4c(F)cc(S(=O)(=O)[O-])cc4F)c4nc(c(-c5c(F)cc(S(=O)(=O)[O-])cc5F)c5ccc2[nH]5)C=C4)C=C3)cc1)c1ccc(Cl)cc1F
REMARK SMILES IDX 10 1 9 2 8 3 7 4 5 5 6 6 4 8 2 9 1 10 3 11 81 12 82 13 87 14
REMARK SMILES IDX 83 15 86 16 88 17 84 18 85 19 11 20 12 21 13 22 14 24 15 25
REMARK SMILES IDX 16 26 80 27 17 28 79 29 18 30 19 31 20 32 73 33 21 34 78 35
REMARK SMILES IDX 72 36 74 37 22 38 77 39 71 40 70 41 23 43 57 44 36 45 56 46
REMARK SMILES IDX 37 47 40 48 55 49 75 50 38 51 39 52 54 54 76 55 41 56 24 57
REMARK SMILES IDX 25 58 34 59 26 60 27 61 33 62 35 63 28 64 29 65 30 66 31 67
REMARK SMILES IDX 32 68 58 69 59 70 68 71 60 72 61 73 67 74 69 75 62 76 63 77
REMARK SMILES IDX 64 78 65 79 66 80 42 81 43 82 52 83 44 84 45 85 51 86 53 87
REMARK SMILES IDX 46 88 47 89 48 90 49 91 50 92
REMARK H PARENT 7 7 12 23 74 42 40 53
REMARK Flexibility Score: inf
ROOT
ATOM      1  C   UNL A   1      37.490  23.295  25.497  1.00  0.00     0.023 C 
ENDROOT
BRANCH   1   2
ATOM      2  C   UNL A   1      37.821  21.803  25.413  1.00  0.00     0.023 C 
BRANCH   2   3
ATOM      3  C   UNL A   1      36.637  20.899  25.076  1.00  0.00     0.116 C 
BRANCH   3   4
ATOM      4  N   UNL A   1      35.530  21.101  25.992  1.00  0.00    -0.356 N 
ATOM      5  C   UNL A   1      34.186  21.166  25.774  1.00  0.00     0.227 C 
ATOM      6  O   UNL A   1      33.468  21.399  26.749  1.00  0.00    -0.274 OA
ATOM      7  H   UNL A   1      35.795  21.211  26.933  1.00  0.00     0.163 HD
BRANCH   5   8
ATOM      8  C   UNL A   1      33.601  20.945  24.367  1.00  0.00     0.114 C 
BRANCH   8   9
ATOM      9  C   UNL A   1      32.594  19.754  24.387  1.00  0.00    -0.000 C 
ATOM     10  C   UNL A   1      32.279  19.248  22.971  1.00  0.00     0.008 C 
ATOM     11  C   UNL A   1      33.049  18.556  25.234  1.00  0.00     0.008 C 
ENDBRANCH   8   9
BRANCH   8  12
ATOM     12  C   UNL A   1      33.138  22.285  23.781  1.00  0.00     0.001 A 
ATOM     13  C   UNL A   1      31.788  22.652  23.975  1.00  0.00     0.009 A 
ATOM     14  C   UNL A   1      33.943  23.169  23.054  1.00  0.00     0.128 A 
ATOM     15  C   UNL A   1      31.270  23.830  23.428  1.00  0.00     0.021 A 
ATOM     16  C   UNL A   1      33.433  24.342  22.501  1.00  0.00     0.060 A 
ATOM     17  F   UNL A   1      35.249  22.936  22.873  1.00  0.00    -0.207 F 
ATOM     18  C   UNL A   1      32.094  24.665  22.683  1.00  0.00     0.043 A 
ATOM     19  Cl  UNL A   1      31.459  26.106  21.992  1.00  0.00    -0.084 Cl
ENDBRANCH   8  12
ENDBRANCH   5   8
ENDBRANCH   3   4
ENDBRANCH   2   3
ENDBRANCH   1   2
BRANCH   1  20
ATOM     20  C   UNL A   1      38.396  24.117  26.410  1.00  0.00     0.116 C 
BRANCH  20  21
ATOM     21  N   UNL A   1      39.810  23.893  26.153  1.00  0.00    -0.352 N 
ATOM     22  C   UNL A   1      40.893  24.614  26.595  1.00  0.00     0.251 C 
ATOM     23  H   UNL A   1      40.020  23.118  25.583  1.00  0.00     0.163 HD
ATOM     24  O   UNL A   1      42.014  24.363  26.158  1.00  0.00    -0.269 OA
BRANCH  22  25
ATOM     25  C   UNL A   1      40.703  25.707  27.573  1.00  0.00     0.039 A 
ATOM     26  C   UNL A   1      39.690  25.594  28.529  1.00  0.00     0.014 A 
ATOM     27  C   UNL A   1      41.527  26.837  27.554  1.00  0.00     0.014 A 
ATOM     28  C   UNL A   1      39.550  26.579  29.511  1.00  0.00     0.010 A 
ATOM     29  C   UNL A   1      41.429  27.782  28.572  1.00  0.00     0.010 A 
ATOM     30  C   UNL A   1      40.441  27.664  29.563  1.00  0.00    -0.014 A 
BRANCH  30  31
ATOM     31  C   UNL A   1      40.358  28.690  30.634  1.00  0.00     0.031 A 
ATOM     32  C   UNL A   1      41.235  28.578  31.853  1.00  0.00     0.074 A 
ATOM     33  C   UNL A   1      39.447  29.681  30.546  1.00  0.00     0.049 A 
ATOM     34  N   UNL A   1      41.231  29.299  32.944  1.00  0.00    -0.248 NA
ATOM     35  C   UNL A   1      42.229  27.492  31.855  1.00  0.00     0.031 C 
ATOM     36  C   UNL A   1      38.515  29.881  29.434  1.00  0.00     0.029 A 
ATOM     37  N   UNL A   1      39.143  30.699  31.417  1.00  0.00    -0.354 N 
ATOM     38  C   UNL A   1      42.209  28.750  33.765  1.00  0.00     0.074 A 
ATOM     39  C   UNL A   1      42.749  27.602  33.068  1.00  0.00     0.031 C 
ATOM     40  C   UNL A   1      37.757  30.962  29.683  1.00  0.00     0.029 A 
ATOM     41  C   UNL A   1      38.117  31.509  30.987  1.00  0.00     0.049 A 
ATOM     42  H   UNL A   1      39.616  30.837  32.269  1.00  0.00     0.167 HD
ATOM     43  C   UNL A   1      42.634  29.174  34.978  1.00  0.00     0.037 A 
ATOM     44  C   UNL A   1      37.526  32.564  31.582  1.00  0.00     0.037 A 
ATOM     45  C   UNL A   1      42.113  30.333  35.656  1.00  0.00     0.049 A 
ATOM     46  C   UNL A   1      38.009  33.009  32.937  1.00  0.00     0.074 A 
ATOM     47  C   UNL A   1      42.503  30.867  36.871  1.00  0.00     0.029 A 
ATOM     48  N   UNL A   1      41.094  31.142  35.173  1.00  0.00    -0.354 N 
ATOM     49  N   UNL A   1      38.961  32.499  33.681  1.00  0.00    -0.248 NA
ATOM     50  C   UNL A   1      37.341  34.176  33.531  1.00  0.00     0.031 C 
ATOM     51  C   UNL A   1      41.698  31.978  37.141  1.00  0.00     0.029 A 
ATOM     52  C   UNL A   1      40.838  32.164  36.071  1.00  0.00     0.049 A 
ATOM     53  H   UNL A   1      40.623  31.008  34.319  1.00  0.00     0.167 HD
ATOM     54  C   UNL A   1      39.031  33.306  34.812  1.00  0.00     0.074 A 
ATOM     55  C   UNL A   1      38.029  34.338  34.653  1.00  0.00     0.031 C 
ATOM     56  C   UNL A   1      39.853  33.201  35.885  1.00  0.00     0.037 A 
BRANCH  43  57
ATOM     57  C   UNL A   1      43.728  28.391  35.649  1.00  0.00     0.058 A 
ATOM     58  C   UNL A   1      43.440  27.355  36.552  1.00  0.00     0.135 A 
ATOM     59  C   UNL A   1      45.077  28.646  35.356  1.00  0.00     0.135 A 
ATOM     60  F   UNL A   1      42.167  27.079  36.881  1.00  0.00    -0.206 F 
ATOM     61  C   UNL A   1      44.449  26.615  37.159  1.00  0.00     0.059 A 
ATOM     62  C   UNL A   1      46.103  27.900  35.930  1.00  0.00     0.059 A 
ATOM     63  F   UNL A   1      45.410  29.625  34.501  1.00  0.00    -0.206 F 
ATOM     64  C   UNL A   1      45.780  26.895  36.840  1.00  0.00     0.060 A 
BRANCH  64  65
ATOM     65  S   UNL A   1      47.077  25.917  37.627  1.00  0.00     0.124 S 
ATOM     66  O   UNL A   1      47.281  26.653  38.871  1.00  0.00    -0.237 OA
ATOM     67  O   UNL A   1      46.444  24.609  37.760  1.00  0.00    -0.237 OA
ATOM     68  O   UNL A   1      48.178  25.982  36.671  1.00  0.00    -0.744 OA
ENDBRANCH  64  65
ENDBRANCH  43  57
BRANCH  44  69
ATOM     69  C   UNL A   1      36.420  33.287  30.898  1.00  0.00     0.058 A 
ATOM     70  C   UNL A   1      36.685  34.176  29.846  1.00  0.00     0.135 A 
ATOM     71  C   UNL A   1      35.083  33.120  31.289  1.00  0.00     0.135 A 
ATOM     72  F   UNL A   1      37.949  34.375  29.439  1.00  0.00    -0.206 F 
ATOM     73  C   UNL A   1      35.670  34.894  29.223  1.00  0.00     0.059 A 
ATOM     74  C   UNL A   1      34.047  33.806  30.664  1.00  0.00     0.059 A 
ATOM     75  F   UNL A   1      34.773  32.268  32.280  1.00  0.00    -0.206 F 
ATOM     76  C   UNL A   1      34.353  34.703  29.641  1.00  0.00     0.060 A 
BRANCH  76  77
ATOM     77  S   UNL A   1      33.037  35.620  28.809  1.00  0.00     0.124 S 
ATOM     78  O   UNL A   1      32.312  36.184  29.942  1.00  0.00    -0.237 OA
ATOM     79  O   UNL A   1      33.791  36.570  27.996  1.00  0.00    -0.237 OA
ATOM     80  O   UNL A   1      32.332  34.586  28.059  1.00  0.00    -0.744 OA
ENDBRANCH  76  77
ENDBRANCH  44  69
BRANCH  56  81
ATOM     81  C   UNL A   1      39.750  34.259  36.948  1.00  0.00     0.058 A 
ATOM     82  C   UNL A   1      39.051  34.041  38.145  1.00  0.00     0.135 A 
ATOM     83  C   UNL A   1      40.413  35.487  36.789  1.00  0.00     0.135 A 
ATOM     84  F   UNL A   1      38.393  32.887  38.343  1.00  0.00    -0.206 F 
ATOM     85  C   UNL A   1      38.998  35.011  39.141  1.00  0.00     0.059 A 
ATOM     86  C   UNL A   1      40.396  36.460  37.783  1.00  0.00     0.059 A 
ATOM     87  F   UNL A   1      41.105  35.741  35.667  1.00  0.00    -0.206 F 
ATOM     88  C   UNL A   1      39.676  36.217  38.952  1.00  0.00     0.060 A 
BRANCH  88  89
ATOM     89  S   UNL A   1      39.639  37.449  40.270  1.00  0.00     0.124 S 
ATOM     90  O   UNL A   1      41.059  37.595  40.576  1.00  0.00    -0.237 OA
ATOM     91  O   UNL A   1      39.011  38.592  39.614  1.00  0.00    -0.237 OA
ATOM     92  O   UNL A   1      38.835  36.811  41.309  1.00  0.00    -0.744 OA
ENDBRANCH  88  89
ENDBRANCH  56  81
ENDBRANCH  30  31
ENDBRANCH  22  25
ENDBRANCH  20  21
ENDBRANCH   1  20
TORSDOF 16
ENDMDL
MODEL 2
REMARK VINA RESULT:     -11.4      7.023     12.446
REMARK SMILES CC(C)[C@H](C(=O)NCCCCNC(=O)c1ccc(-c2c3nc(c(-c4c(F)cc(S(=O)(=O)[O-])cc4F)c4ccc([nH]4)c(-c4c(F)cc(S(=O)(=O)[O-])cc4F)c4nc(c(-c5c(F)cc(S(=O)(=O)[O-])cc5F)c5ccc2[nH]5)C=C4)C=C3)cc1)c1ccc(Cl)cc1F
REMARK SMILES IDX 10 1 9 2 8 3 7 4 5 5 6 6 4 8 2 9 1 10 3 11 81 12 82 13 87 14
REMARK SMILES IDX 83 15 86 16 88 17 84 18 85 19 11 20 12 21 13 22 14 24 15 25
REMARK SMILES IDX 16 26 80 27 17 28 79 29 18 30 19 31 20 32 73 33 21 34 78 35
REMARK SMILES IDX 72 36 74 37 22 38 77 39 71 40 70 41 23 43 57 44 36 45 56 46
REMARK SMILES IDX 37 47 40 48 55 49 75 50 38 51 39 52 54 54 76 55 41 56 24 57
REMARK SMILES IDX 25 58 34 59 26 60 27 61 33 62 35 63 28 64 29 65 30 66 31 67
REMARK SMILES IDX 32 68 58 69 59 70 68 71 60 72 61 73 67 74 69 75 62 76 63 77
REMARK SMILES IDX 64 78 65 79 66 80 42 81 43 82 52 83 44 84 45 85 51 86 53 87
REMARK SMILES IDX 46 88 47 89 48 90 49 91 50 92
REMARK H PARENT 7 7 12 23 74 42 40 53
REMARK Flexibility Score: inf
ROOT
ATOM      1  C   UNL A   1      33.876  29.180  27.143  1.00  0.00     0.023 C 
ENDROOT
BRANCH   1   2
ATOM      2  C   UNL A   1      32.588  30.001  27.242  1.00  0.00     0.023 C 
BRANCH   2   3
ATOM      3  C   UNL A   1      31.983  30.416  25.903  1.00  0.00     0.116 C 
BRANCH   3   4
ATOM      4  N   UNL A   1      32.616  29.729  24.793  1.00  0.00    -0.356 N 
ATOM      5  C   UNL A   1      32.177  28.710  24.001  1.00  0.00     0.227 C 
ATOM      6  O   UNL A   1      32.959  28.283  23.147  1.00  0.00    -0.274 OA
ATOM      7  H   UNL A   1      33.519  30.054  24.574  1.00  0.00     0.163 HD
BRANCH   5   8
ATOM      8  C   UNL A   1      30.760  28.134  24.166  1.00  0.00     0.114 C 
BRANCH   8   9
ATOM      9  C   UNL A   1      29.892  28.479  22.916  1.00  0.00    -0.000 C 
ATOM     10  C   UNL A   1      28.422  28.076  23.113  1.00  0.00     0.008 C 
ATOM     11  C   UNL A   1      29.933  29.958  22.508  1.00  0.00     0.008 C 
ENDBRANCH   8   9
BRANCH   8  12
ATOM     12  C   UNL A   1      30.844  26.669  24.616  1.00  0.00     0.001 A 
ATOM     13  C   UNL A   1      30.778  25.672  23.618  1.00  0.00     0.009 A 
ATOM     14  C   UNL A   1      30.967  26.239  25.942  1.00  0.00     0.128 A 
ATOM     15  C   UNL A   1      30.794  24.313  23.946  1.00  0.00     0.021 A 
ATOM     16  C   UNL A   1      30.977  24.886  26.278  1.00  0.00     0.060 A 
ATOM     17  F   UNL A   1      31.099  27.110  26.950  1.00  0.00    -0.207 F 
ATOM     18  C   UNL A   1      30.882  23.926  25.278  1.00  0.00     0.043 A 
ATOM     19  Cl  UNL A   1      30.882  22.257  25.689  1.00  0.00    -0.084 Cl
ENDBRANCH   8  12
ENDBRANCH   5   8
ENDBRANCH   3   4
ENDBRANCH   2   3
ENDBRANCH   1   2
BRANCH   1  20
ATOM     20  C   UNL A   1      35.161  29.932  27.477  1.00  0.00     0.116 C 
BRANCH  20  21
ATOM     21  N   UNL A   1      35.158  30.484  28.823  1.00  0.00    -0.352 N 
ATOM     22  C   UNL A   1      36.154  30.455  29.770  1.00  0.00     0.251 C 
ATOM     23  H   UNL A   1      34.329  30.940  29.092  1.00  0.00     0.163 HD
ATOM     24  O   UNL A   1      35.922  30.848  30.912  1.00  0.00    -0.269 OA
BRANCH  22  25
ATOM     25  C   UNL A   1      37.490  29.924  29.422  1.00  0.00     0.039 A 
ATOM     26  C   UNL A   1      37.960  30.077  28.115  1.00  0.00     0.014 A 
ATOM     27  C   UNL A   1      38.281  29.288  30.383  1.00  0.00     0.014 A 
ATOM     28  C   UNL A   1      39.253  29.655  27.790  1.00  0.00     0.010 A 
ATOM     29  C   UNL A   1      39.591  28.930  30.075  1.00  0.00     0.010 A 
ATOM     30  C   UNL A   1      40.093  29.111  28.776  1.00  0.00    -0.014 A 
BRANCH  30  31
ATOM     31  C   UNL A   1      41.494  28.716  28.474  1.00  0.00     0.031 A 
ATOM     32  C   UNL A   1      42.581  29.756  28.461  1.00  0.00     0.074 A 
ATOM     33  C   UNL A   1      41.776  27.439  28.144  1.00  0.00     0.049 A 
ATOM     34  N   UNL A   1      43.836  29.637  28.110  1.00  0.00    -0.248 NA
ATOM     35  C   UNL A   1      42.200  31.118  28.870  1.00  0.00     0.031 C 
ATOM     36  C   UNL A   1      40.806  26.343  28.087  1.00  0.00     0.029 A 
ATOM     37  N   UNL A   1      42.960  26.849  27.778  1.00  0.00    -0.354 N 
ATOM     38  C   UNL A   1      44.390  30.905  28.244  1.00  0.00     0.074 A 
ATOM     39  C   UNL A   1      43.322  31.790  28.657  1.00  0.00     0.031 C 
ATOM     40  C   UNL A   1      41.436  25.214  27.725  1.00  0.00     0.029 A 
ATOM     41  C   UNL A   1      42.845  25.510  27.483  1.00  0.00     0.049 A 
ATOM     42  H   UNL A   1      43.813  27.338  27.731  1.00  0.00     0.167 HD
ATOM     43  C   UNL A   1      45.674  31.293  28.061  1.00  0.00     0.037 A 
ATOM     44  C   UNL A   1      43.766  24.625  27.053  1.00  0.00     0.037 A 
ATOM     45  C   UNL A   1      46.739  30.403  27.676  1.00  0.00     0.049 A 
ATOM     46  C   UNL A   1      45.185  25.084  26.846  1.00  0.00     0.074 A 
ATOM     47  C   UNL A   1      48.081  30.692  27.501  1.00  0.00     0.029 A 
ATOM     48  N   UNL A   1      46.585  29.050  27.415  1.00  0.00    -0.354 N 
ATOM     49  N   UNL A   1      45.698  26.280  27.015  1.00  0.00    -0.248 NA
ATOM     50  C   UNL A   1      46.153  24.073  26.396  1.00  0.00     0.031 C 
ATOM     51  C   UNL A   1      48.733  29.522  27.101  1.00  0.00     0.029 A 
ATOM     52  C   UNL A   1      47.806  28.493  27.072  1.00  0.00     0.049 A 
ATOM     53  H   UNL A   1      45.734  28.558  27.465  1.00  0.00     0.167 HD
ATOM     54  C   UNL A   1      47.053  26.155  26.728  1.00  0.00     0.074 A 
ATOM     55  C   UNL A   1      47.282  24.769  26.379  1.00  0.00     0.031 C 
ATOM     56  C   UNL A   1      48.021  27.104  26.752  1.00  0.00     0.037 A 
BRANCH  43  57
ATOM     57  C   UNL A   1      46.005  32.742  28.288  1.00  0.00     0.058 A 
ATOM     58  C   UNL A   1      46.415  33.212  29.546  1.00  0.00     0.135 A 
ATOM     59  C   UNL A   1      45.956  33.664  27.230  1.00  0.00     0.135 A 
ATOM     60  F   UNL A   1      46.464  32.377  30.596  1.00  0.00    -0.206 F 
ATOM     61  C   UNL A   1      46.741  34.548  29.754  1.00  0.00     0.059 A 
ATOM     62  C   UNL A   1      46.304  35.000  27.408  1.00  0.00     0.059 A 
ATOM     63  F   UNL A   1      45.569  33.269  26.006  1.00  0.00    -0.206 F 
ATOM     64  C   UNL A   1      46.684  35.435  28.676  1.00  0.00     0.060 A 
BRANCH  64  65
ATOM     65  S   UNL A   1      47.124  37.163  28.961  1.00  0.00     0.124 S 
ATOM     66  O   UNL A   1      45.840  37.827  28.754  1.00  0.00    -0.237 OA
ATOM     67  O   UNL A   1      47.611  37.138  30.336  1.00  0.00    -0.237 OA
ATOM     68  O   UNL A   1      48.138  37.427  27.944  1.00  0.00    -0.744 OA
ENDBRANCH  64  65
ENDBRANCH  43  57
BRANCH  44  69
ATOM     69  C   UNL A   1      43.386  23.208  26.805  1.00  0.00     0.058 A 
ATOM     70  C   UNL A   1      43.057  22.355  27.868  1.00  0.00     0.135 A 
ATOM     71  C   UNL A   1      43.358  22.674  25.508  1.00  0.00     0.135 A 
ATOM     72  F   UNL A   1      43.075  22.816  29.128  1.00  0.00    -0.206 F 
ATOM     73  C   UNL A   1      42.741  21.016  27.660  1.00  0.00     0.059 A 
ATOM     74  C   UNL A   1      43.020  21.346  25.270  1.00  0.00     0.059 A 
ATOM     75  F   UNL A   1      43.648  23.453  24.453  1.00  0.00    -0.206 F 
ATOM     76  C   UNL A   1      42.727  20.521  26.356  1.00  0.00     0.060 A 
BRANCH  76  77
ATOM     77  S   UNL A   1      42.290  18.788  26.092  1.00  0.00     0.124 S 
ATOM     78  O   UNL A   1      43.208  18.415  25.021  1.00  0.00    -0.237 OA
ATOM     79  O   UNL A   1      42.561  18.199  27.399  1.00  0.00    -0.237 OA
ATOM     80  O   UNL A   1      40.880  18.851  25.722  1.00  0.00    -0.744 OA
ENDBRANCH  76  77
ENDBRANCH  44  69
BRANCH  56  81
ATOM     81  C   UNL A   1      49.429  26.671  26.451  1.00  0.00     0.058 A 
ATOM     82  C   UNL A   1      50.241  26.064  27.421  1.00  0.00     0.135 A 
ATOM     83  C   UNL A   1      49.949  26.812  25.154  1.00  0.00     0.135 A 
ATOM     84  F   UNL A   1      49.794  25.913  28.678  1.00  0.00    -0.206 F 
ATOM     85  C   UNL A   1      51.527  25.627  27.120  1.00  0.00     0.059 A 
ATOM     86  C   UNL A   1      51.222  26.358  24.824  1.00  0.00     0.059 A 
ATOM     87  F   UNL A   1      49.209  27.377  24.186  1.00  0.00    -0.206 F 
ATOM     88  C   UNL A   1      52.008  25.776  25.817  1.00  0.00     0.060 A 
BRANCH  88  89
ATOM     89  S   UNL A   1      53.660  25.163  25.428  1.00  0.00     0.124 S 
ATOM     90  O   UNL A   1      54.448  25.729  26.520  1.00  0.00    -0.237 OA
ATOM     91  O   UNL A   1      53.475  23.716  25.464  1.00  0.00    -0.237 OA
ATOM     92  O   UNL A   1      53.928  25.722  24.107  1.00  0.00    -0.744 OA
ENDBRANCH  88  89
ENDBRANCH  56  81
ENDBRANCH  30  31
ENDBRANCH  22  25
ENDBRANCH  20  21
ENDBRANCH   1  20
TORSDOF 16
ENDMDL
MODEL 3
REMARK VINA RESULT:     -11.4      6.591     11.292
REMARK SMILES CC(C)[C@H](C(=O)NCCCCNC(=O)c1ccc(-c2c3nc(c(-c4c(F)cc(S(=O)(=O)[O-])cc4F)c4ccc([nH]4)c(-c4c(F)cc(S(=O)(=O)[O-])cc4F)c4nc(c(-c5c(F)cc(S(=O)(=O)[O-])cc5F)c5ccc2[nH]5)C=C4)C=C3)cc1)c1ccc(Cl)cc1F
REMARK SMILES IDX 10 1 9 2 8 3 7 4 5 5 6 6 4 8 2 9 1 10 3 11 81 12 82 13 87 14
REMARK SMILES IDX 83 15 86 16 88 17 84 18 85 19 11 20 12 21 13 22 14 24 15 25
REMARK SMILES IDX 16 26 80 27 17 28 79 29 18 30 19 31 20 32 73 33 21 34 78 35
REMARK SMILES IDX 72 36 74 37 22 38 77 39 71 40 70 41 23 43 57 44 36 45 56 46
REMARK SMILES IDX 37 47 40 48 55 49 75 50 38 51 39 52 54 54 76 55 41 56 24 57
REMARK SMILES IDX 25 58 34 59 26 60 27 61 33 62 35 63 28 64 29 65 30 66 31 67
REMARK SMILES IDX 32 68 58 69 59 70 68 71 60 72 61 73 67 74 69 75 62 76 63 77
REMARK SMILES IDX 64 78 65 79 66 80 42 81 43 82 52 83 44 84 45 85 51 86 53 87
REMARK SMILES IDX 46 88 47 89 48 90 49 91 50 92
REMARK H PARENT 7 7 12 23 74 42 40 53
REMARK Flexibility Score: inf
ROOT
ATOM      1  C   UNL A   1      38.067  20.198  24.992  1.00  0.00     0.023 C 
ENDROOT
BRANCH   1   2
ATOM      2  C   UNL A   1      37.233  21.408  24.566  1.00  0.00     0.023 C 
BRANCH   2   3
ATOM      3  C   UNL A   1      37.007  22.452  25.657  1.00  0.00     0.116 C 
BRANCH   3   4
ATOM      4  N   UNL A   1      35.956  22.053  26.573  1.00  0.00    -0.356 N 
ATOM      5  C   UNL A   1      34.603  22.205  26.507  1.00  0.00     0.227 C 
ATOM      6  O   UNL A   1      33.944  21.803  27.470  1.00  0.00    -0.274 OA
ATOM      7  H   UNL A   1      36.275  21.592  27.383  1.00  0.00     0.163 HD
BRANCH   5   8
ATOM      8  C   UNL A   1      33.938  22.842  25.274  1.00  0.00     0.114 C 
BRANCH   8   9
ATOM      9  C   UNL A   1      32.994  21.811  24.582  1.00  0.00    -0.000 C 
ATOM     10  C   UNL A   1      32.613  22.250  23.160  1.00  0.00     0.008 C 
ATOM     11  C   UNL A   1      33.561  20.386  24.507  1.00  0.00     0.008 C 
ENDBRANCH   8   9
BRANCH   8  12
ATOM     12  C   UNL A   1      33.370  24.219  25.644  1.00  0.00     0.001 A 
ATOM     13  C   UNL A   1      34.185  25.348  25.409  1.00  0.00     0.009 A 
ATOM     14  C   UNL A   1      32.112  24.446  26.212  1.00  0.00     0.128 A 
ATOM     15  C   UNL A   1      33.767  26.634  25.766  1.00  0.00     0.021 A 
ATOM     16  C   UNL A   1      31.689  25.724  26.576  1.00  0.00     0.060 A 
ATOM     17  F   UNL A   1      31.246  23.445  26.414  1.00  0.00    -0.207 F 
ATOM     18  C   UNL A   1      32.523  26.814  26.359  1.00  0.00     0.043 A 
ATOM     19  Cl  UNL A   1      32.010  28.389  26.819  1.00  0.00    -0.084 Cl
ENDBRANCH   8  12
ENDBRANCH   5   8
ENDBRANCH   3   4
ENDBRANCH   2   3
ENDBRANCH   1   2
BRANCH   1  20
ATOM     20  C   UNL A   1      39.302  20.516  25.831  1.00  0.00     0.116 C 
BRANCH  20  21
ATOM     21  N   UNL A   1      40.223  19.394  25.927  1.00  0.00    -0.352 N 
ATOM     22  C   UNL A   1      41.585  19.408  26.113  1.00  0.00     0.251 C 
ATOM     23  H   UNL A   1      39.814  18.502  25.847  1.00  0.00     0.163 HD
ATOM     24  O   UNL A   1      42.224  18.362  26.023  1.00  0.00    -0.269 OA
BRANCH  22  25
ATOM     25  C   UNL A   1      42.279  20.684  26.390  1.00  0.00     0.039 A 
ATOM     26  C   UNL A   1      42.779  21.430  25.319  1.00  0.00     0.014 A 
ATOM     27  C   UNL A   1      42.428  21.150  27.700  1.00  0.00     0.014 A 
ATOM     28  C   UNL A   1      43.364  22.677  25.557  1.00  0.00     0.010 A 
ATOM     29  C   UNL A   1      42.950  22.420  27.928  1.00  0.00     0.010 A 
ATOM     30  C   UNL A   1      43.422  23.199  26.859  1.00  0.00    -0.014 A 
BRANCH  30  31
ATOM     31  C   UNL A   1      43.978  24.550  27.134  1.00  0.00     0.031 A 
ATOM     32  C   UNL A   1      43.061  25.670  27.546  1.00  0.00     0.074 A 
ATOM     33  C   UNL A   1      45.293  24.787  26.944  1.00  0.00     0.049 A 
ATOM     34  N   UNL A   1      43.330  26.939  27.716  1.00  0.00    -0.248 NA
ATOM     35  C   UNL A   1      41.649  25.322  27.769  1.00  0.00     0.031 C 
ATOM     36  C   UNL A   1      46.281  23.795  26.514  1.00  0.00     0.029 A 
ATOM     37  N   UNL A   1      46.022  25.944  27.074  1.00  0.00    -0.354 N 
ATOM     38  C   UNL A   1      42.123  27.541  28.053  1.00  0.00     0.074 A 
ATOM     39  C   UNL A   1      41.111  26.508  28.011  1.00  0.00     0.031 C 
ATOM     40  C   UNL A   1      47.486  24.381  26.431  1.00  0.00     0.029 A 
ATOM     41  C   UNL A   1      47.354  25.797  26.761  1.00  0.00     0.049 A 
ATOM     42  H   UNL A   1      45.629  26.798  27.365  1.00  0.00     0.167 HD
ATOM     43  C   UNL A   1      41.883  28.831  28.388  1.00  0.00     0.037 A 
ATOM     44  C   UNL A   1      48.352  26.702  26.730  1.00  0.00     0.037 A 
ATOM     45  C   UNL A   1      42.899  29.850  28.455  1.00  0.00     0.049 A 
ATOM     46  C   UNL A   1      48.056  28.133  27.096  1.00  0.00     0.074 A 
ATOM     47  C   UNL A   1      42.763  31.177  28.820  1.00  0.00     0.029 A 
ATOM     48  N   UNL A   1      44.239  29.653  28.158  1.00  0.00    -0.354 N 
ATOM     49  N   UNL A   1      46.915  28.675  27.449  1.00  0.00    -0.248 NA
ATOM     50  C   UNL A   1      49.185  29.074  27.064  1.00  0.00     0.031 C 
ATOM     51  C   UNL A   1      44.013  31.793  28.711  1.00  0.00     0.029 A 
ATOM     52  C   UNL A   1      44.938  30.837  28.323  1.00  0.00     0.049 A 
ATOM     53  H   UNL A   1      44.635  28.798  27.871  1.00  0.00     0.167 HD
ATOM     54  C   UNL A   1      47.197  30.011  27.717  1.00  0.00     0.074 A 
ATOM     55  C   UNL A   1      48.615  30.194  27.490  1.00  0.00     0.031 C 
ATOM     56  C   UNL A   1      46.356  30.996  28.117  1.00  0.00     0.037 A 
BRANCH  43  57
ATOM     57  C   UNL A   1      40.469  29.214  28.723  1.00  0.00     0.058 A 
ATOM     58  C   UNL A   1      39.508  29.423  27.720  1.00  0.00     0.135 A 
ATOM     59  C   UNL A   1      40.054  29.332  30.059  1.00  0.00     0.135 A 
ATOM     60  F   UNL A   1      39.855  29.339  26.425  1.00  0.00    -0.206 F 
ATOM     61  C   UNL A   1      38.194  29.758  28.027  1.00  0.00     0.059 A 
ATOM     62  C   UNL A   1      38.737  29.640  30.391  1.00  0.00     0.059 A 
ATOM     63  F   UNL A   1      40.931  29.145  31.058  1.00  0.00    -0.206 F 
ATOM     64  C   UNL A   1      37.818  29.863  29.368  1.00  0.00     0.060 A 
BRANCH  64  65
ATOM     65  S   UNL A   1      36.104  30.286  29.749  1.00  0.00     0.124 S 
ATOM     66  O   UNL A   1      35.957  29.720  31.087  1.00  0.00    -0.237 OA
ATOM     67  O   UNL A   1      36.119  31.743  29.676  1.00  0.00    -0.237 OA
ATOM     68  O   UNL A   1      35.347  29.615  28.697  1.00  0.00    -0.744 OA
ENDBRANCH  64  65
ENDBRANCH  43  57
BRANCH  44  69
ATOM     69  C   UNL A   1      49.730  26.286  26.356  1.00  0.00     0.058 A 
ATOM     70  C   UNL A   1      50.617  25.786  27.321  1.00  0.00     0.135 A 
ATOM     71  C   UNL A   1      50.195  26.395  25.037  1.00  0.00     0.135 A 
ATOM     72  F   UNL A   1      50.222  25.669  28.598  1.00  0.00    -0.206 F 
ATOM     73  C   UNL A   1      51.923  25.433  26.998  1.00  0.00     0.059 A 
ATOM     74  C   UNL A   1      51.489  26.023  24.684  1.00  0.00     0.059 A 
ATOM     75  F   UNL A   1      49.381  26.852  24.071  1.00  0.00    -0.206 F 
ATOM     76  C   UNL A   1      52.350  25.557  25.676  1.00  0.00     0.060 A 
BRANCH  76  77
ATOM     77  S   UNL A   1      54.040  25.071  25.261  1.00  0.00     0.124 S 
ATOM     78  O   UNL A   1      54.748  25.398  26.494  1.00  0.00    -0.237 OA
ATOM     79  O   UNL A   1      53.889  23.649  24.969  1.00  0.00    -0.237 OA
ATOM     80  O   UNL A   1      54.356  25.910  24.110  1.00  0.00    -0.744 OA
ENDBRANCH  76  77
ENDBRANCH  44  69
BRANCH  56  81
ATOM     81  C   UNL A   1      46.950  32.349  28.394  1.00  0.00     0.058 A 
ATOM     82  C   UNL A   1      47.019  33.344  27.407  1.00  0.00     0.135 A 
ATOM     83  C   UNL A   1      47.401  32.672  29.684  1.00  0.00     0.135 A 
ATOM     84  F   UNL A   1      46.609  33.084  26.156  1.00  0.00    -0.206 F 
ATOM     85  C   UNL A   1      47.531  34.607  27.685  1.00  0.00     0.059 A 
ATOM     86  C   UNL A   1      47.891  33.937  29.992  1.00  0.00     0.059 A 
ATOM     87  F   UNL A   1      47.348  31.759  30.667  1.00  0.00    -0.206 F 
ATOM     88  C   UNL A   1      47.962  34.896  28.982  1.00  0.00     0.060 A 
BRANCH  88  89
ATOM     89  S   UNL A   1      48.581  36.552  29.342  1.00  0.00     0.124 S 
ATOM     90  O   UNL A   1      48.462  37.200  28.038  1.00  0.00    -0.237 OA
ATOM     91  O   UNL A   1      47.652  37.019  30.367  1.00  0.00    -0.237 OA
ATOM     92  O   UNL A   1      49.945  36.314  29.802  1.00  0.00    -0.744 OA
ENDBRANCH  88  89
ENDBRANCH  56  81
ENDBRANCH  30  31
ENDBRANCH  22  25
ENDBRANCH  20  21
ENDBRANCH   1  20
TORSDOF 16
ENDMDL
