MODEL 1
REMARK VINA RESULT:     -10.3      0.000      0.000
REMARK SMILES C[C@@H](C(=O)NCCCCNC(=O)c1ccc(-c2c3nc(c(-c4c(F)cc(S(=O)(=O)[O-])cc4F)c4ccc([nH]4)c(-c4c(F)cc(S(=O)(=O)[O-])cc4F)c4nc(c(-c5c(F)cc(S(=O)(=O)[O-])cc5F)c5ccc2[nH]5)C=C4)C=C3)cc1)[C@H](C)[N@@H+](C)[C@@H](C)C1CC1
REMARK SMILES IDX 7 1 6 2 5 3 3 4 4 5 2 7 1 8 79 9 80 10 81 11 82 12 83 14
REMARK SMILES IDX 84 15 85 16 86 17 87 18 8 19 9 20 10 21 11 22 12 24 13 25
REMARK SMILES IDX 14 26 78 27 15 28 77 29 16 30 17 31 18 32 71 33 19 34 76 35
REMARK SMILES IDX 70 36 72 37 20 38 75 39 69 40 68 41 21 43 55 44 34 45 54 46
REMARK SMILES IDX 35 47 38 48 53 49 73 50 36 51 37 52 52 54 74 55 39 56 22 57
REMARK SMILES IDX 23 58 32 59 24 60 25 61 31 62 33 63 26 64 27 65 28 66 29 67
REMARK SMILES IDX 30 68 56 69 57 70 66 71 58 72 59 73 65 74 67 75 60 76 61 77
REMARK SMILES IDX 62 78 63 79 64 80 40 81 41 82 50 83 42 84 43 85 49 86 51 87
REMARK SMILES IDX 44 88 45 89 46 90 47 91 48 92
REMARK H PARENT 5 6 81 13 10 23 72 42 38 53
REMARK Flexibility Score: inf
ROOT
ATOM      1  C   UNL A   1      31.655  28.007  26.436  1.00  0.00     0.023 C 
ENDROOT
BRANCH   1   2
ATOM      2  C   UNL A   1      30.825  26.887  25.809  1.00  0.00     0.116 C 
BRANCH   2   3
ATOM      3  N   UNL A   1      30.821  25.705  26.648  1.00  0.00    -0.356 N 
ATOM      4  C   UNL A   1      31.357  24.467  26.440  1.00  0.00     0.228 C 
ATOM      5  O   UNL A   1      31.057  23.596  27.254  1.00  0.00    -0.275 OA
ATOM      6  H   UNL A   1      30.357  25.813  27.510  1.00  0.00     0.163 HD
BRANCH   4   7
ATOM      7  C   UNL A   1      32.227  24.218  25.206  1.00  0.00     0.133 C 
ATOM      8  C   UNL A   1      31.475  23.262  24.268  1.00  0.00     0.024 C 
BRANCH   7   9
ATOM      9  C   UNL A   1      33.673  23.691  25.472  1.00  0.00     0.193 C 
ATOM     10  C   UNL A   1      34.828  24.682  25.251  1.00  0.00     0.076 C 
BRANCH   9  11
ATOM     11  N   UNL A   1      33.998  22.300  25.038  1.00  0.00    -0.332 N 
ATOM     12  C   UNL A   1      35.157  22.309  24.130  1.00  0.00     0.333 C 
ATOM     13  H   UNL A   1      33.118  22.048  24.589  1.00  0.00     0.348 HD
BRANCH  11  14
ATOM     14  C   UNL A   1      34.094  21.177  26.000  1.00  0.00     0.184 C 
ATOM     15  C   UNL A   1      33.949  21.511  27.488  1.00  0.00     0.075 C 
BRANCH  14  16
ATOM     16  C   UNL A   1      33.229  19.997  25.617  1.00  0.00     0.047 C 
ATOM     17  C   UNL A   1      32.556  19.952  24.263  1.00  0.00     0.010 C 
ATOM     18  C   UNL A   1      33.661  18.988  24.575  1.00  0.00     0.010 C 
ENDBRANCH  14  16
ENDBRANCH  11  14
ENDBRANCH   9  11
ENDBRANCH   7   9
ENDBRANCH   4   7
ENDBRANCH   2   3
ENDBRANCH   1   2
BRANCH   1  19
ATOM     19  C   UNL A   1      33.146  27.696  26.578  1.00  0.00     0.023 C 
BRANCH  19  20
ATOM     20  C   UNL A   1      34.082  28.731  25.964  1.00  0.00     0.116 C 
BRANCH  20  21
ATOM     21  N   UNL A   1      33.798  30.082  26.424  1.00  0.00    -0.352 N 
ATOM     22  C   UNL A   1      34.430  30.814  27.403  1.00  0.00     0.251 C 
ATOM     23  H   UNL A   1      33.050  30.535  25.972  1.00  0.00     0.163 HD
ATOM     24  O   UNL A   1      33.961  31.879  27.770  1.00  0.00    -0.269 OA
BRANCH  22  25
ATOM     25  C   UNL A   1      35.665  30.282  28.023  1.00  0.00     0.039 A 
ATOM     26  C   UNL A   1      36.876  30.423  27.343  1.00  0.00     0.014 A 
ATOM     27  C   UNL A   1      35.628  29.668  29.278  1.00  0.00     0.014 A 
ATOM     28  C   UNL A   1      38.062  30.004  27.951  1.00  0.00     0.010 A 
ATOM     29  C   UNL A   1      36.817  29.320  29.913  1.00  0.00     0.010 A 
ATOM     30  C   UNL A   1      38.046  29.484  29.256  1.00  0.00    -0.014 A 
BRANCH  30  31
ATOM     31  C   UNL A   1      39.303  29.109  29.952  1.00  0.00     0.031 A 
ATOM     32  C   UNL A   1      39.749  29.873  31.169  1.00  0.00     0.074 A 
ATOM     33  C   UNL A   1      40.077  28.127  29.449  1.00  0.00     0.049 A 
ATOM     34  N   UNL A   1      40.847  29.746  31.868  1.00  0.00    -0.248 NA
ATOM     35  C   UNL A   1      38.854  30.939  31.648  1.00  0.00     0.031 C 
ATOM     36  C   UNL A   1      39.778  27.347  28.245  1.00  0.00     0.029 A 
ATOM     37  N   UNL A   1      41.280  27.624  29.877  1.00  0.00    -0.354 N 
ATOM     38  C   UNL A   1      40.783  30.721  32.856  1.00  0.00     0.074 A 
ATOM     39  C   UNL A   1      39.563  31.467  32.635  1.00  0.00     0.031 C 
ATOM     40  C   UNL A   1      40.760  26.452  28.046  1.00  0.00     0.029 A 
ATOM     41  C   UNL A   1      41.776  26.619  29.079  1.00  0.00     0.049 A 
ATOM     42  H   UNL A   1      41.745  27.953  30.680  1.00  0.00     0.167 HD
ATOM     43  C   UNL A   1      41.650  30.959  33.870  1.00  0.00     0.037 A 
ATOM     44  C   UNL A   1      42.923  25.917  29.166  1.00  0.00     0.037 A 
ATOM     45  C   UNL A   1      42.850  30.196  34.099  1.00  0.00     0.049 A 
ATOM     46  C   UNL A   1      43.870  26.198  30.302  1.00  0.00     0.074 A 
ATOM     47  C   UNL A   1      43.764  30.320  35.130  1.00  0.00     0.029 A 
ATOM     48  N   UNL A   1      43.304  29.168  33.284  1.00  0.00    -0.354 N 
ATOM     49  N   UNL A   1      43.761  27.081  31.265  1.00  0.00    -0.248 NA
ATOM     50  C   UNL A   1      45.090  25.382  30.367  1.00  0.00     0.031 C 
ATOM     51  C   UNL A   1      44.793  29.397  34.916  1.00  0.00     0.029 A 
ATOM     52  C   UNL A   1      44.493  28.662  33.779  1.00  0.00     0.049 A 
ATOM     53  H   UNL A   1      42.847  28.847  32.473  1.00  0.00     0.167 HD
ATOM     54  C   UNL A   1      44.883  26.907  32.068  1.00  0.00     0.074 A 
ATOM     55  C   UNL A   1      45.653  25.829  31.483  1.00  0.00     0.031 C 
ATOM     56  C   UNL A   1      45.242  27.579  33.191  1.00  0.00     0.037 A 
BRANCH  43  57
ATOM     57  C   UNL A   1      41.330  32.086  34.813  1.00  0.00     0.058 A 
ATOM     58  C   UNL A   1      41.844  33.379  34.617  1.00  0.00     0.135 A 
ATOM     59  C   UNL A   1      40.473  31.883  35.906  1.00  0.00     0.135 A 
ATOM     60  F   UNL A   1      42.680  33.627  33.597  1.00  0.00    -0.206 F 
ATOM     61  C   UNL A   1      41.543  34.421  35.488  1.00  0.00     0.059 A 
ATOM     62  C   UNL A   1      40.135  32.918  36.772  1.00  0.00     0.059 A 
ATOM     63  F   UNL A   1      39.953  30.668  36.141  1.00  0.00    -0.206 F 
ATOM     64  C   UNL A   1      40.687  34.181  36.563  1.00  0.00     0.060 A 
BRANCH  64  65
ATOM     65  S   UNL A   1      40.304  35.546  37.680  1.00  0.00     0.124 S 
ATOM     66  O   UNL A   1      39.963  36.607  36.738  1.00  0.00    -0.237 OA
ATOM     67  O   UNL A   1      39.192  35.010  38.459  1.00  0.00    -0.237 OA
ATOM     68  O   UNL A   1      41.548  35.739  38.420  1.00  0.00    -0.744 OA
ENDBRANCH  64  65
ENDBRANCH  43  57
BRANCH  44  69
ATOM     69  C   UNL A   1      43.227  24.864  28.160  1.00  0.00     0.058 A 
ATOM     70  C   UNL A   1      43.859  25.185  26.949  1.00  0.00     0.135 A 
ATOM     71  C   UNL A   1      42.906  23.518  28.392  1.00  0.00     0.135 A 
ATOM     72  F   UNL A   1      44.181  26.459  26.679  1.00  0.00    -0.206 F 
ATOM     73  C   UNL A   1      44.146  24.213  25.997  1.00  0.00     0.059 A 
ATOM     74  C   UNL A   1      43.206  22.524  27.466  1.00  0.00     0.059 A 
ATOM     75  F   UNL A   1      42.318  23.155  29.542  1.00  0.00    -0.206 F 
ATOM     76  C   UNL A   1      43.817  22.884  26.265  1.00  0.00     0.060 A 
BRANCH  76  77
ATOM     77  S   UNL A   1      44.238  21.624  25.041  1.00  0.00     0.124 S 
ATOM     78  O   UNL A   1      44.016  22.343  23.792  1.00  0.00    -0.237 OA
ATOM     79  O   UNL A   1      45.628  21.329  25.370  1.00  0.00    -0.237 OA
ATOM     80  O   UNL A   1      43.291  20.550  25.328  1.00  0.00    -0.744 OA
ENDBRANCH  76  77
ENDBRANCH  44  69
BRANCH  56  81
ATOM     81  C   UNL A   1      46.501  27.143  33.889  1.00  0.00     0.058 A 
ATOM     82  C   UNL A   1      47.746  27.722  33.601  1.00  0.00     0.135 A 
ATOM     83  C   UNL A   1      46.447  26.171  34.903  1.00  0.00     0.135 A 
ATOM     84  F   UNL A   1      47.853  28.650  32.637  1.00  0.00    -0.206 F 
ATOM     85  C   UNL A   1      48.898  27.340  34.280  1.00  0.00     0.059 A 
ATOM     86  C   UNL A   1      47.582  25.794  35.614  1.00  0.00     0.059 A 
ATOM     87  F   UNL A   1      45.279  25.592  35.225  1.00  0.00    -0.206 F 
ATOM     88  C   UNL A   1      48.805  26.377  35.288  1.00  0.00     0.060 A 
BRANCH  88  89
ATOM     89  S   UNL A   1      50.301  25.920  36.189  1.00  0.00     0.124 S 
ATOM     90  O   UNL A   1      50.207  24.464  36.198  1.00  0.00    -0.237 OA
ATOM     91  O   UNL A   1      51.355  26.482  35.350  1.00  0.00    -0.237 OA
ATOM     92  O   UNL A   1      50.129  26.569  37.486  1.00  0.00    -0.744 OA
ENDBRANCH  88  89
ENDBRANCH  56  81
ENDBRANCH  30  31
ENDBRANCH  22  25
ENDBRANCH  20  21
ENDBRANCH  19  20
ENDBRANCH   1  19
TORSDOF 18
ENDMDL
MODEL 2
REMARK VINA RESULT:     -10.1      2.878      3.776
REMARK SMILES C[C@@H](C(=O)NCCCCNC(=O)c1ccc(-c2c3nc(c(-c4c(F)cc(S(=O)(=O)[O-])cc4F)c4ccc([nH]4)c(-c4c(F)cc(S(=O)(=O)[O-])cc4F)c4nc(c(-c5c(F)cc(S(=O)(=O)[O-])cc5F)c5ccc2[nH]5)C=C4)C=C3)cc1)[C@H](C)[N@@H+](C)[C@@H](C)C1CC1
REMARK SMILES IDX 7 1 6 2 5 3 3 4 4 5 2 7 1 8 79 9 80 10 81 11 82 12 83 14
REMARK SMILES IDX 84 15 85 16 86 17 87 18 8 19 9 20 10 21 11 22 12 24 13 25
REMARK SMILES IDX 14 26 78 27 15 28 77 29 16 30 17 31 18 32 71 33 19 34 76 35
REMARK SMILES IDX 70 36 72 37 20 38 75 39 69 40 68 41 21 43 55 44 34 45 54 46
REMARK SMILES IDX 35 47 38 48 53 49 73 50 36 51 37 52 52 54 74 55 39 56 22 57
REMARK SMILES IDX 23 58 32 59 24 60 25 61 31 62 33 63 26 64 27 65 28 66 29 67
REMARK SMILES IDX 30 68 56 69 57 70 66 71 58 72 59 73 65 74 67 75 60 76 61 77
REMARK SMILES IDX 62 78 63 79 64 80 40 81 41 82 50 83 42 84 43 85 49 86 51 87
REMARK SMILES IDX 44 88 45 89 46 90 47 91 48 92
REMARK H PARENT 5 6 81 13 10 23 72 42 38 53
REMARK Flexibility Score: inf
ROOT
ATOM      1  C   UNL A   1      33.102  26.374  24.719  1.00  0.00     0.023 C 
ENDROOT
BRANCH   1   2
ATOM      2  C   UNL A   1      33.764  25.082  25.198  1.00  0.00     0.116 C 
BRANCH   2   3
ATOM      3  N   UNL A   1      34.515  24.451  24.131  1.00  0.00    -0.356 N 
ATOM      4  C   UNL A   1      35.594  23.616  24.179  1.00  0.00     0.228 C 
ATOM      5  O   UNL A   1      36.138  23.362  23.106  1.00  0.00    -0.275 OA
ATOM      6  H   UNL A   1      34.195  24.658  23.223  1.00  0.00     0.163 HD
BRANCH   4   7
ATOM      7  C   UNL A   1      36.093  23.103  25.531  1.00  0.00     0.133 C 
ATOM      8  C   UNL A   1      37.415  23.814  25.861  1.00  0.00     0.024 C 
BRANCH   7   9
ATOM      9  C   UNL A   1      36.260  21.556  25.668  1.00  0.00     0.193 C 
ATOM     10  C   UNL A   1      37.318  20.888  24.774  1.00  0.00     0.076 C 
BRANCH   9  11
ATOM     11  N   UNL A   1      35.025  20.734  25.836  1.00  0.00    -0.332 N 
ATOM     12  C   UNL A   1      34.027  21.474  26.625  1.00  0.00     0.333 C 
ATOM     13  H   UNL A   1      35.420  19.925  26.316  1.00  0.00     0.348 HD
BRANCH  11  14
ATOM     14  C   UNL A   1      34.384  20.036  24.699  1.00  0.00     0.184 C 
ATOM     15  C   UNL A   1      34.489  18.508  24.660  1.00  0.00     0.075 C 
BRANCH  14  16
ATOM     16  C   UNL A   1      32.963  20.493  24.451  1.00  0.00     0.047 C 
ATOM     17  C   UNL A   1      32.680  21.597  23.456  1.00  0.00     0.010 C 
ATOM     18  C   UNL A   1      32.238  20.196  23.156  1.00  0.00     0.010 C 
ENDBRANCH  14  16
ENDBRANCH  11  14
ENDBRANCH   9  11
ENDBRANCH   7   9
ENDBRANCH   4   7
ENDBRANCH   2   3
ENDBRANCH   1   2
BRANCH   1  19
ATOM     19  C   UNL A   1      33.880  27.650  25.047  1.00  0.00     0.023 C 
BRANCH  19  20
ATOM     20  C   UNL A   1      34.138  27.885  26.530  1.00  0.00     0.116 C 
BRANCH  20  21
ATOM     21  N   UNL A   1      33.642  29.175  26.985  1.00  0.00    -0.352 N 
ATOM     22  C   UNL A   1      34.272  30.120  27.762  1.00  0.00     0.251 C 
ATOM     23  H   UNL A   1      32.729  29.402  26.697  1.00  0.00     0.163 HD
ATOM     24  O   UNL A   1      33.649  31.082  28.181  1.00  0.00    -0.269 OA
BRANCH  22  25
ATOM     25  C   UNL A   1      35.700  29.941  28.106  1.00  0.00     0.039 A 
ATOM     26  C   UNL A   1      36.036  29.520  29.394  1.00  0.00     0.014 A 
ATOM     27  C   UNL A   1      36.700  30.166  27.155  1.00  0.00     0.014 A 
ATOM     28  C   UNL A   1      37.373  29.264  29.710  1.00  0.00     0.010 A 
ATOM     29  C   UNL A   1      38.020  29.840  27.449  1.00  0.00     0.010 A 
ATOM     30  C   UNL A   1      38.371  29.386  28.729  1.00  0.00    -0.014 A 
BRANCH  30  31
ATOM     31  C   UNL A   1      39.786  29.040  29.021  1.00  0.00     0.031 A 
ATOM     32  C   UNL A   1      40.711  30.073  29.605  1.00  0.00     0.074 A 
ATOM     33  C   UNL A   1      40.253  27.818  28.697  1.00  0.00     0.049 A 
ATOM     34  N   UNL A   1      41.990  29.986  29.859  1.00  0.00    -0.248 NA
ATOM     35  C   UNL A   1      40.125  31.386  29.918  1.00  0.00     0.031 C 
ATOM     36  C   UNL A   1      39.467  26.747  28.079  1.00  0.00     0.029 A 
ATOM     37  N   UNL A   1      41.506  27.273  28.828  1.00  0.00    -0.354 N 
ATOM     38  C   UNL A   1      42.366  31.231  30.348  1.00  0.00     0.074 A 
ATOM     39  C   UNL A   1      41.191  32.074  30.304  1.00  0.00     0.031 C 
ATOM     40  C   UNL A   1      40.251  25.670  27.906  1.00  0.00     0.029 A 
ATOM     41  C   UNL A   1      41.601  25.983  28.361  1.00  0.00     0.049 A 
ATOM     42  H   UNL A   1      42.266  27.761  29.221  1.00  0.00     0.167 HD
ATOM     43  C   UNL A   1      43.575  31.631  30.811  1.00  0.00     0.037 A 
ATOM     44  C   UNL A   1      42.658  25.149  28.299  1.00  0.00     0.037 A 
ATOM     45  C   UNL A   1      44.734  30.779  30.875  1.00  0.00     0.049 A 
ATOM     46  C   UNL A   1      43.990  25.615  28.822  1.00  0.00     0.074 A 
ATOM     47  C   UNL A   1      45.988  31.071  31.382  1.00  0.00     0.029 A 
ATOM     48  N   UNL A   1      44.783  29.470  30.417  1.00  0.00    -0.354 N 
ATOM     49  N   UNL A   1      44.312  26.776  29.340  1.00  0.00    -0.248 NA
ATOM     50  C   UNL A   1      45.101  24.655  28.760  1.00  0.00     0.031 C 
ATOM     51  C   UNL A   1      46.808  29.954  31.191  1.00  0.00     0.029 A 
ATOM     52  C   UNL A   1      46.050  28.948  30.612  1.00  0.00     0.049 A 
ATOM     53  H   UNL A   1      44.028  28.985  30.012  1.00  0.00     0.167 HD
ATOM     54  C   UNL A   1      45.652  26.677  29.694  1.00  0.00     0.074 A 
ATOM     55  C   UNL A   1      46.080  25.340  29.339  1.00  0.00     0.031 C 
ATOM     56  C   UNL A   1      46.457  27.609  30.264  1.00  0.00     0.037 A 
BRANCH  43  57
ATOM     57  C   UNL A   1      43.704  33.050  31.293  1.00  0.00     0.058 A 
ATOM     58  C   UNL A   1      43.469  33.397  32.635  1.00  0.00     0.135 A 
ATOM     59  C   UNL A   1      44.100  34.070  30.415  1.00  0.00     0.135 A 
ATOM     60  F   UNL A   1      43.074  32.465  33.515  1.00  0.00    -0.206 F 
ATOM     61  C   UNL A   1      43.595  34.709  33.079  1.00  0.00     0.059 A 
ATOM     62  C   UNL A   1      44.260  35.385  30.844  1.00  0.00     0.059 A 
ATOM     63  F   UNL A   1      44.337  33.796  29.122  1.00  0.00    -0.206 F 
ATOM     64  C   UNL A   1      43.991  35.696  32.176  1.00  0.00     0.060 A 
BRANCH  64  65
ATOM     65  S   UNL A   1      44.152  37.393  32.771  1.00  0.00     0.124 S 
ATOM     66  O   UNL A   1      43.974  38.153  31.538  1.00  0.00    -0.237 OA
ATOM     67  O   UNL A   1      43.062  37.490  33.737  1.00  0.00    -0.237 OA
ATOM     68  O   UNL A   1      45.495  37.427  33.342  1.00  0.00    -0.744 OA
ENDBRANCH  64  65
ENDBRANCH  43  57
BRANCH  44  69
ATOM     69  C   UNL A   1      42.493  23.781  27.741  1.00  0.00     0.058 A 
ATOM     70  C   UNL A   1      42.395  22.664  28.585  1.00  0.00     0.135 A 
ATOM     71  C   UNL A   1      42.417  23.561  26.357  1.00  0.00     0.135 A 
ATOM     72  F   UNL A   1      42.467  22.823  29.915  1.00  0.00    -0.206 F 
ATOM     73  C   UNL A   1      42.245  21.378  28.078  1.00  0.00     0.059 A 
ATOM     74  C   UNL A   1      42.241  22.287  25.826  1.00  0.00     0.059 A 
ATOM     75  F   UNL A   1      42.487  24.596  25.507  1.00  0.00    -0.206 F 
ATOM     76  C   UNL A   1      42.167  21.199  26.697  1.00  0.00     0.060 A 
BRANCH  76  77
ATOM     77  S   UNL A   1      41.924  19.530  26.052  1.00  0.00     0.124 S 
ATOM     78  O   UNL A   1      42.375  18.714  27.173  1.00  0.00    -0.237 OA
ATOM     79  O   UNL A   1      40.491  19.510  25.783  1.00  0.00    -0.237 OA
ATOM     80  O   UNL A   1      42.777  19.501  24.867  1.00  0.00    -0.744 OA
ENDBRANCH  76  77
ENDBRANCH  44  69
BRANCH  56  81
ATOM     81  C   UNL A   1      47.871  27.206  30.580  1.00  0.00     0.058 A 
ATOM     82  C   UNL A   1      48.934  27.490  29.709  1.00  0.00     0.135 A 
ATOM     83  C   UNL A   1      48.172  26.579  31.801  1.00  0.00     0.135 A 
ATOM     84  F   UNL A   1      48.700  28.081  28.527  1.00  0.00    -0.206 F 
ATOM     85  C   UNL A   1      50.244  27.149  30.028  1.00  0.00     0.059 A 
ATOM     86  C   UNL A   1      49.478  26.255  32.153  1.00  0.00     0.059 A 
ATOM     87  F   UNL A   1      47.193  26.294  32.675  1.00  0.00    -0.206 F 
ATOM     88  C   UNL A   1      50.506  26.534  31.256  1.00  0.00     0.060 A 
BRANCH  88  89
ATOM     89  S   UNL A   1      52.216  26.134  31.675  1.00  0.00     0.124 S 
ATOM     90  O   UNL A   1      52.062  24.847  32.343  1.00  0.00    -0.237 OA
ATOM     91  O   UNL A   1      52.859  26.096  30.364  1.00  0.00    -0.237 OA
ATOM     92  O   UNL A   1      52.624  27.243  32.533  1.00  0.00    -0.744 OA
ENDBRANCH  88  89
ENDBRANCH  56  81
ENDBRANCH  30  31
ENDBRANCH  22  25
ENDBRANCH  20  21
ENDBRANCH  19  20
ENDBRANCH   1  19
TORSDOF 18
ENDMDL
MODEL 3
REMARK VINA RESULT:     -10.1      2.703      3.313
REMARK SMILES C[C@@H](C(=O)NCCCCNC(=O)c1ccc(-c2c3nc(c(-c4c(F)cc(S(=O)(=O)[O-])cc4F)c4ccc([nH]4)c(-c4c(F)cc(S(=O)(=O)[O-])cc4F)c4nc(c(-c5c(F)cc(S(=O)(=O)[O-])cc5F)c5ccc2[nH]5)C=C4)C=C3)cc1)[C@H](C)[N@@H+](C)[C@@H](C)C1CC1
REMARK SMILES IDX 7 1 6 2 5 3 3 4 4 5 2 7 1 8 79 9 80 10 81 11 82 12 83 14
REMARK SMILES IDX 84 15 85 16 86 17 87 18 8 19 9 20 10 21 11 22 12 24 13 25
REMARK SMILES IDX 14 26 78 27 15 28 77 29 16 30 17 31 18 32 71 33 19 34 76 35
REMARK SMILES IDX 70 36 72 37 20 38 75 39 69 40 68 41 21 43 55 44 34 45 54 46
REMARK SMILES IDX 35 47 38 48 53 49 73 50 36 51 37 52 52 54 74 55 39 56 22 57
REMARK SMILES IDX 23 58 32 59 24 60 25 61 31 62 33 63 26 64 27 65 28 66 29 67
REMARK SMILES IDX 30 68 56 69 57 70 66 71 58 72 59 73 65 74 67 75 60 76 61 77
REMARK SMILES IDX 62 78 63 79 64 80 40 81 41 82 50 83 42 84 43 85 49 86 51 87
REMARK SMILES IDX 44 88 45 89 46 90 47 91 48 92
REMARK H PARENT 5 6 81 13 10 23 72 42 38 53
REMARK Flexibility Score: inf
ROOT
ATOM      1  C   UNL A   1      32.963  26.902  25.437  1.00  0.00     0.023 C 
ENDROOT
BRANCH   1   2
ATOM      2  C   UNL A   1      31.449  26.803  25.618  1.00  0.00     0.116 C 
BRANCH   2   3
ATOM      3  N   UNL A   1      31.099  25.732  26.529  1.00  0.00    -0.356 N 
ATOM      4  C   UNL A   1      31.282  24.383  26.426  1.00  0.00     0.228 C 
ATOM      5  O   UNL A   1      30.733  23.689  27.279  1.00  0.00    -0.275 OA
ATOM      6  H   UNL A   1      30.655  26.025  27.359  1.00  0.00     0.163 HD
BRANCH   4   7
ATOM      7  C   UNL A   1      32.088  23.818  25.255  1.00  0.00     0.133 C 
ATOM      8  C   UNL A   1      31.128  23.054  24.330  1.00  0.00     0.024 C 
BRANCH   7   9
ATOM      9  C   UNL A   1      33.313  22.921  25.624  1.00  0.00     0.193 C 
ATOM     10  C   UNL A   1      34.125  23.328  26.866  1.00  0.00     0.076 C 
BRANCH   9  11
ATOM     11  N   UNL A   1      34.160  22.406  24.508  1.00  0.00    -0.332 N 
ATOM     12  C   UNL A   1      35.154  23.418  24.116  1.00  0.00     0.333 C 
ATOM     13  H   UNL A   1      33.438  22.236  23.807  1.00  0.00     0.348 HD
BRANCH  11  14
ATOM     14  C   UNL A   1      34.769  21.056  24.541  1.00  0.00     0.184 C 
ATOM     15  C   UNL A   1      36.152  20.924  25.186  1.00  0.00     0.075 C 
BRANCH  14  16
ATOM     16  C   UNL A   1      33.823  19.994  25.054  1.00  0.00     0.047 C 
ATOM     17  C   UNL A   1      32.579  19.638  24.269  1.00  0.00     0.010 C 
ATOM     18  C   UNL A   1      33.694  18.642  24.385  1.00  0.00     0.010 C 
ENDBRANCH  14  16
ENDBRANCH  11  14
ENDBRANCH   9  11
ENDBRANCH   7   9
ENDBRANCH   4   7
ENDBRANCH   2   3
ENDBRANCH   1   2
BRANCH   1  19
ATOM     19  C   UNL A   1      33.565  28.260  25.806  1.00  0.00     0.023 C 
BRANCH  19  20
ATOM     20  C   UNL A   1      33.791  28.481  27.297  1.00  0.00     0.116 C 
BRANCH  20  21
ATOM     21  N   UNL A   1      33.706  29.884  27.671  1.00  0.00    -0.352 N 
ATOM     22  C   UNL A   1      34.648  30.673  28.290  1.00  0.00     0.251 C 
ATOM     23  H   UNL A   1      32.856  30.330  27.451  1.00  0.00     0.163 HD
ATOM     24  O   UNL A   1      34.351  31.795  28.672  1.00  0.00    -0.269 OA
BRANCH  22  25
ATOM     25  C   UNL A   1      36.010  30.139  28.512  1.00  0.00     0.039 A 
ATOM     26  C   UNL A   1      36.925  30.167  27.457  1.00  0.00     0.014 A 
ATOM     27  C   UNL A   1      36.387  29.633  29.759  1.00  0.00     0.014 A 
ATOM     28  C   UNL A   1      38.240  29.746  27.673  1.00  0.00     0.010 A 
ATOM     29  C   UNL A   1      37.714  29.285  29.992  1.00  0.00     0.010 A 
ATOM     30  C   UNL A   1      38.654  29.337  28.952  1.00  0.00    -0.014 A 
BRANCH  30  31
ATOM     31  C   UNL A   1      40.066  28.964  29.222  1.00  0.00     0.031 A 
ATOM     32  C   UNL A   1      41.011  29.970  29.821  1.00  0.00     0.074 A 
ATOM     33  C   UNL A   1      40.513  27.743  28.866  1.00  0.00     0.049 A 
ATOM     34  N   UNL A   1      42.292  29.858  30.061  1.00  0.00    -0.248 NA
ATOM     35  C   UNL A   1      40.448  31.284  30.170  1.00  0.00     0.031 C 
ATOM     36  C   UNL A   1      39.706  26.698  28.230  1.00  0.00     0.029 A 
ATOM     37  N   UNL A   1      41.759  27.177  28.973  1.00  0.00    -0.354 N 
ATOM     38  C   UNL A   1      42.690  31.087  30.575  1.00  0.00     0.074 A 
ATOM     39  C   UNL A   1      41.527  31.947  30.561  1.00  0.00     0.031 C 
ATOM     40  C   UNL A   1      40.472  25.614  28.026  1.00  0.00     0.029 A 
ATOM     41  C   UNL A   1      41.831  25.897  28.476  1.00  0.00     0.049 A 
ATOM     42  H   UNL A   1      42.530  27.645  29.370  1.00  0.00     0.167 HD
ATOM     43  C   UNL A   1      43.908  31.458  31.037  1.00  0.00     0.037 A 
ATOM     44  C   UNL A   1      42.875  25.049  28.385  1.00  0.00     0.037 A 
ATOM     45  C   UNL A   1      45.056  30.588  31.070  1.00  0.00     0.049 A 
ATOM     46  C   UNL A   1      44.218  25.484  28.906  1.00  0.00     0.074 A 
ATOM     47  C   UNL A   1      46.319  30.850  31.571  1.00  0.00     0.029 A 
ATOM     48  N   UNL A   1      45.081  29.290  30.582  1.00  0.00    -0.354 N 
ATOM     49  N   UNL A   1      44.561  26.628  29.448  1.00  0.00    -0.248 NA
ATOM     50  C   UNL A   1      45.315  24.510  28.812  1.00  0.00     0.031 C 
ATOM     51  C   UNL A   1      47.120  29.726  31.347  1.00  0.00     0.029 A 
ATOM     52  C   UNL A   1      46.342  28.745  30.753  1.00  0.00     0.049 A 
ATOM     53  H   UNL A   1      44.316  28.825  30.173  1.00  0.00     0.167 HD
ATOM     54  C   UNL A   1      45.904  26.501  29.786  1.00  0.00     0.074 A 
ATOM     55  C   UNL A   1      46.309  25.167  29.397  1.00  0.00     0.031 C 
ATOM     56  C   UNL A   1      46.727  27.408  30.370  1.00  0.00     0.037 A 
BRANCH  43  57
ATOM     57  C   UNL A   1      44.063  32.864  31.550  1.00  0.00     0.058 A 
ATOM     58  C   UNL A   1      44.359  33.934  30.689  1.00  0.00     0.135 A 
ATOM     59  C   UNL A   1      43.878  33.152  32.911  1.00  0.00     0.135 A 
ATOM     60  F   UNL A   1      44.559  33.714  29.380  1.00  0.00    -0.206 F 
ATOM     61  C   UNL A   1      44.496  35.234  31.165  1.00  0.00     0.059 A 
ATOM     62  C   UNL A   1      43.982  34.450  33.404  1.00  0.00     0.059 A 
ATOM     63  F   UNL A   1      43.594  32.168  33.779  1.00  0.00    -0.206 F 
ATOM     64  C   UNL A   1      44.306  35.482  32.525  1.00  0.00     0.060 A 
BRANCH  64  65
ATOM     65  S   UNL A   1      44.484  37.175  33.124  1.00  0.00     0.124 S 
ATOM     66  O   UNL A   1      43.094  37.618  33.162  1.00  0.00    -0.237 OA
ATOM     67  O   UNL A   1      45.122  36.982  34.422  1.00  0.00    -0.237 OA
ATOM     68  O   UNL A   1      45.318  37.810  32.108  1.00  0.00    -0.744 OA
ENDBRANCH  64  65
ENDBRANCH  43  57
BRANCH  44  69
ATOM     69  C   UNL A   1      42.685  23.697  27.797  1.00  0.00     0.058 A 
ATOM     70  C   UNL A   1      42.509  22.572  28.617  1.00  0.00     0.135 A 
ATOM     71  C   UNL A   1      42.662  23.501  26.407  1.00  0.00     0.135 A 
ATOM     72  F   UNL A   1      42.528  22.707  29.952  1.00  0.00    -0.206 F 
ATOM     73  C   UNL A   1      42.334  21.300  28.083  1.00  0.00     0.059 A 
ATOM     74  C   UNL A   1      42.464  22.243  25.848  1.00  0.00     0.059 A 
ATOM     75  F   UNL A   1      42.808  24.546  25.579  1.00  0.00    -0.206 F 
ATOM     76  C   UNL A   1      42.311  21.146  26.696  1.00  0.00     0.060 A 
BRANCH  76  77
ATOM     77  S   UNL A   1      42.037  19.496  26.013  1.00  0.00     0.124 S 
ATOM     78  O   UNL A   1      40.603  19.521  25.752  1.00  0.00    -0.237 OA
ATOM     79  O   UNL A   1      42.901  19.503  24.838  1.00  0.00    -0.237 OA
ATOM     80  O   UNL A   1      42.467  18.611  27.093  1.00  0.00    -0.744 OA
ENDBRANCH  76  77
ENDBRANCH  44  69
BRANCH  56  81
ATOM     81  C   UNL A   1      48.138  26.978  30.664  1.00  0.00     0.058 A 
ATOM     82  C   UNL A   1      49.161  27.094  29.711  1.00  0.00     0.135 A 
ATOM     83  C   UNL A   1      48.480  26.499  31.940  1.00  0.00     0.135 A 
ATOM     84  F   UNL A   1      48.886  27.540  28.475  1.00  0.00    -0.206 F 
ATOM     85  C   UNL A   1      50.471  26.730  30.005  1.00  0.00     0.059 A 
ATOM     86  C   UNL A   1      49.788  26.156  32.264  1.00  0.00     0.059 A 
ATOM     87  F   UNL A   1      47.540  26.378  32.892  1.00  0.00    -0.206 F 
ATOM     88  C   UNL A   1      50.775  26.266  31.287  1.00  0.00     0.060 A 
BRANCH  88  89
ATOM     89  S   UNL A   1      52.487  25.836  31.668  1.00  0.00     0.124 S 
ATOM     90  O   UNL A   1      53.157  26.156  30.411  1.00  0.00    -0.237 OA
ATOM     91  O   UNL A   1      52.789  26.719  32.790  1.00  0.00    -0.237 OA
ATOM     92  O   UNL A   1      52.415  24.415  31.998  1.00  0.00    -0.744 OA
ENDBRANCH  88  89
ENDBRANCH  56  81
ENDBRANCH  30  31
ENDBRANCH  22  25
ENDBRANCH  20  21
ENDBRANCH  19  20
ENDBRANCH   1  19
TORSDOF 18
ENDMDL
