MODEL 1
REMARK VINA RESULT:     -10.7      0.000      0.000
REMARK SMILES C[C@H]1C[NH2+]C[C@@H](CC(=O)NCCCCNC(=O)c2ccc(-c3c4nc(c(-c5c(F)cc(S(=O)(=O)[O-])cc5F)c5ccc([nH]5)c(-c5c(F)cc(S(=O)(=O)[O-])cc5F)c5nc(c(-c6c(F)cc(S(=O)(=O)[O-])cc6F)c6ccc3[nH]6)C=C5)C=C4)cc2)C1
REMARK SMILES IDX 13 1 12 2 11 3 10 4 8 5 9 6 7 8 6 9 1 10 2 11 3 12 84 13
REMARK SMILES IDX 4 14 5 15 14 18 15 19 16 20 17 22 18 23 19 24 83 25 20 26
REMARK SMILES IDX 82 27 21 28 22 29 23 30 76 31 24 32 81 33 75 34 77 35 25 36
REMARK SMILES IDX 80 37 74 38 73 39 26 41 60 42 39 43 59 44 40 45 43 46 58 47
REMARK SMILES IDX 78 48 41 49 42 50 57 52 79 53 44 54 27 55 28 56 37 57 29 58
REMARK SMILES IDX 30 59 36 60 38 61 31 62 32 63 33 64 34 65 35 66 61 67 62 68
REMARK SMILES IDX 71 69 63 70 64 71 70 72 72 73 65 74 66 75 67 76 68 77 69 78
REMARK SMILES IDX 45 79 46 80 55 81 47 82 48 83 54 84 56 85 49 86 50 87 51 88
REMARK SMILES IDX 52 89 53 90
REMARK H PARENT 10 7 4 16 4 17 15 21 77 40 43 51
REMARK Flexibility Score: inf
ROOT
ATOM      1  C   UNL A   1      34.323  33.502  28.017  1.00  0.00     0.023 C 
ENDROOT
BRANCH   1   2
ATOM      2  C   UNL A   1      33.171  34.412  28.404  1.00  0.00     0.023 C 
BRANCH   2   3
ATOM      3  C   UNL A   1      33.571  35.725  29.083  1.00  0.00     0.116 C 
BRANCH   3   4
ATOM      4  N   UNL A   1      32.593  36.116  30.087  1.00  0.00    -0.356 N 
ATOM      5  C   UNL A   1      32.722  36.279  31.435  1.00  0.00     0.220 C 
ATOM      6  O   UNL A   1      31.710  36.519  32.095  1.00  0.00    -0.275 OA
ATOM      7  H   UNL A   1      31.691  36.292  29.735  1.00  0.00     0.163 HD
BRANCH   5   8
ATOM      8  C   UNL A   1      34.078  36.181  32.113  1.00  0.00     0.109 C 
BRANCH   8   9
ATOM      9  C   UNL A   1      34.379  34.793  32.717  1.00  0.00     0.054 C 
ATOM     10  C   UNL A   1      37.242  32.381  31.644  1.00  0.00     0.013 C 
ATOM     11  C   UNL A   1      36.057  32.829  32.506  1.00  0.00     0.041 C 
ATOM     12  C   UNL A   1      36.505  33.166  33.927  1.00  0.00     0.263 C 
ATOM     13  C   UNL A   1      35.384  34.033  31.851  1.00  0.00     0.019 C 
ATOM     14  N   UNL A   1      35.386  33.687  34.716  1.00  0.00    -0.346 N 
ATOM     15  C   UNL A   1      34.905  34.951  34.151  1.00  0.00     0.264 C 
ATOM     16  H   UNL A   1      35.695  33.845  35.675  1.00  0.00     0.346 HD
ATOM     17  H   UNL A   1      34.626  33.007  34.700  1.00  0.00     0.346 HD
ENDBRANCH   8   9
ENDBRANCH   5   8
ENDBRANCH   3   4
ENDBRANCH   2   3
ENDBRANCH   1   2
BRANCH   1  18
ATOM     18  C   UNL A   1      34.489  32.295  28.918  1.00  0.00     0.116 C 
BRANCH  18  19
ATOM     19  N   UNL A   1      33.946  31.064  28.353  1.00  0.00    -0.352 N 
ATOM     20  C   UNL A   1      34.612  29.891  28.065  1.00  0.00     0.251 C 
ATOM     21  H   UNL A   1      32.983  31.073  28.152  1.00  0.00     0.163 HD
ATOM     22  O   UNL A   1      34.039  28.966  27.508  1.00  0.00    -0.269 OA
BRANCH  20  23
ATOM     23  C   UNL A   1      36.048  29.803  28.402  1.00  0.00     0.039 A 
ATOM     24  C   UNL A   1      36.427  29.327  29.658  1.00  0.00     0.014 A 
ATOM     25  C   UNL A   1      37.005  30.076  27.423  1.00  0.00     0.014 A 
ATOM     26  C   UNL A   1      37.771  29.032  29.900  1.00  0.00     0.010 A 
ATOM     27  C   UNL A   1      38.316  29.676  27.627  1.00  0.00     0.010 A 
ATOM     28  C   UNL A   1      38.717  29.156  28.869  1.00  0.00    -0.014 A 
BRANCH  28  29
ATOM     29  C   UNL A   1      40.144  28.796  29.051  1.00  0.00     0.031 A 
ATOM     30  C   UNL A   1      41.100  29.850  29.543  1.00  0.00     0.074 A 
ATOM     31  C   UNL A   1      40.600  27.584  28.674  1.00  0.00     0.049 A 
ATOM     32  N   UNL A   1      42.407  29.834  29.575  1.00  0.00    -0.248 NA
ATOM     33  C   UNL A   1      40.504  31.114  30.006  1.00  0.00     0.031 C 
ATOM     34  C   UNL A   1      39.783  26.497  28.129  1.00  0.00     0.029 A 
ATOM     35  N   UNL A   1      41.872  27.072  28.673  1.00  0.00    -0.354 N 
ATOM     36  C   UNL A   1      42.785  31.099  30.008  1.00  0.00     0.074 A 
ATOM     37  C   UNL A   1      41.576  31.872  30.177  1.00  0.00     0.031 C 
ATOM     38  C   UNL A   1      40.571  25.439  27.871  1.00  0.00     0.029 A 
ATOM     39  C   UNL A   1      41.952  25.787  28.191  1.00  0.00     0.049 A 
ATOM     40  H   UNL A   1      42.657  27.577  28.989  1.00  0.00     0.167 HD
ATOM     41  C   UNL A   1      44.027  31.567  30.270  1.00  0.00     0.037 A 
ATOM     42  C   UNL A   1      43.021  24.984  28.020  1.00  0.00     0.037 A 
ATOM     43  C   UNL A   1      45.218  30.766  30.177  1.00  0.00     0.049 A 
ATOM     44  C   UNL A   1      44.386  25.499  28.392  1.00  0.00     0.074 A 
ATOM     45  C   UNL A   1      46.520  31.118  30.482  1.00  0.00     0.029 A 
ATOM     46  N   UNL A   1      45.242  29.441  29.768  1.00  0.00    -0.354 N 
ATOM     47  N   UNL A   1      44.726  26.689  28.829  1.00  0.00    -0.248 NA
ATOM     48  C   UNL A   1      45.512  24.564  28.255  1.00  0.00     0.031 C 
ATOM     49  C   UNL A   1      47.335  30.005  30.248  1.00  0.00     0.029 A 
ATOM     50  C   UNL A   1      46.536  28.955  29.824  1.00  0.00     0.049 A 
ATOM     51  H   UNL A   1      44.456  28.923  29.482  1.00  0.00     0.167 HD
ATOM     52  C   UNL A   1      46.097  26.636  29.049  1.00  0.00     0.074 A 
ATOM     53  C   UNL A   1      46.525  25.297  28.699  1.00  0.00     0.031 C 
ATOM     54  C   UNL A   1      46.928  27.608  29.499  1.00  0.00     0.037 A 
BRANCH  41  55
ATOM     55  C   UNL A   1      44.149  33.002  30.700  1.00  0.00     0.058 A 
ATOM     56  C   UNL A   1      44.083  33.372  32.054  1.00  0.00     0.135 A 
ATOM     57  C   UNL A   1      44.325  34.020  29.750  1.00  0.00     0.135 A 
ATOM     58  F   UNL A   1      43.894  32.440  33.000  1.00  0.00    -0.206 F 
ATOM     59  C   UNL A   1      44.143  34.704  32.446  1.00  0.00     0.059 A 
ATOM     60  C   UNL A   1      44.418  35.358  30.124  1.00  0.00     0.059 A 
ATOM     61  F   UNL A   1      44.393  33.721  28.443  1.00  0.00    -0.206 F 
ATOM     62  C   UNL A   1      44.305  35.690  31.474  1.00  0.00     0.060 A 
BRANCH  62  63
ATOM     63  S   UNL A   1      44.365  37.417  31.995  1.00  0.00     0.124 S 
ATOM     64  O   UNL A   1      43.715  38.082  30.871  1.00  0.00    -0.237 OA
ATOM     65  O   UNL A   1      43.607  37.397  33.242  1.00  0.00    -0.237 OA
ATOM     66  O   UNL A   1      45.794  37.677  32.139  1.00  0.00    -0.744 OA
ENDBRANCH  62  63
ENDBRANCH  41  55
BRANCH  42  67
ATOM     67  C   UNL A   1      42.841  23.599  27.513  1.00  0.00     0.058 A 
ATOM     68  C   UNL A   1      42.491  22.557  28.384  1.00  0.00     0.135 A 
ATOM     69  C   UNL A   1      43.000  23.287  26.154  1.00  0.00     0.135 A 
ATOM     70  F   UNL A   1      42.333  22.806  29.694  1.00  0.00    -0.206 F 
ATOM     71  C   UNL A   1      42.320  21.253  27.934  1.00  0.00     0.059 A 
ATOM     72  C   UNL A   1      42.814  21.994  25.674  1.00  0.00     0.059 A 
ATOM     73  F   UNL A   1      43.316  24.252  25.275  1.00  0.00    -0.206 F 
ATOM     74  C   UNL A   1      42.484  20.981  26.575  1.00  0.00     0.060 A 
BRANCH  74  75
ATOM     75  S   UNL A   1      42.211  19.294  25.990  1.00  0.00     0.124 S 
ATOM     76  O   UNL A   1      40.781  19.310  25.707  1.00  0.00    -0.237 OA
ATOM     77  O   UNL A   1      43.092  19.225  24.826  1.00  0.00    -0.237 OA
ATOM     78  O   UNL A   1      42.624  18.475  27.125  1.00  0.00    -0.744 OA
ENDBRANCH  74  75
ENDBRANCH  42  67
BRANCH  54  79
ATOM     79  C   UNL A   1      48.372  27.248  29.694  1.00  0.00     0.058 A 
ATOM     80  C   UNL A   1      49.355  27.632  28.771  1.00  0.00     0.135 A 
ATOM     81  C   UNL A   1      48.782  26.585  30.861  1.00  0.00     0.135 A 
ATOM     82  F   UNL A   1      49.011  28.264  27.639  1.00  0.00    -0.206 F 
ATOM     83  C   UNL A   1      50.700  27.361  28.995  1.00  0.00     0.059 A 
ATOM     84  C   UNL A   1      50.123  26.321  31.115  1.00  0.00     0.059 A 
ATOM     85  F   UNL A   1      47.876  26.207  31.778  1.00  0.00    -0.206 F 
ATOM     86  C   UNL A   1      51.074  26.708  30.172  1.00  0.00     0.060 A 
BRANCH  86  87
ATOM     87  S   UNL A   1      52.829  26.413  30.480  1.00  0.00     0.124 S 
ATOM     88  O   UNL A   1      52.779  25.304  31.427  1.00  0.00    -0.237 OA
ATOM     89  O   UNL A   1      53.332  26.089  29.149  1.00  0.00    -0.237 OA
ATOM     90  O   UNL A   1      53.295  27.685  31.025  1.00  0.00    -0.744 OA
ENDBRANCH  86  87
ENDBRANCH  54  79
ENDBRANCH  28  29
ENDBRANCH  20  23
ENDBRANCH  18  19
ENDBRANCH   1  18
TORSDOF 15
ENDMDL
MODEL 2
REMARK VINA RESULT:     -10.5      2.805      5.040
REMARK SMILES C[C@H]1C[NH2+]C[C@@H](CC(=O)NCCCCNC(=O)c2ccc(-c3c4nc(c(-c5c(F)cc(S(=O)(=O)[O-])cc5F)c5ccc([nH]5)c(-c5c(F)cc(S(=O)(=O)[O-])cc5F)c5nc(c(-c6c(F)cc(S(=O)(=O)[O-])cc6F)c6ccc3[nH]6)C=C5)C=C4)cc2)C1
REMARK SMILES IDX 13 1 12 2 11 3 10 4 8 5 9 6 7 8 6 9 1 10 2 11 3 12 84 13
REMARK SMILES IDX 4 14 5 15 14 18 15 19 16 20 17 22 18 23 19 24 83 25 20 26
REMARK SMILES IDX 82 27 21 28 22 29 23 30 76 31 24 32 81 33 75 34 77 35 25 36
REMARK SMILES IDX 80 37 74 38 73 39 26 41 60 42 39 43 59 44 40 45 43 46 58 47
REMARK SMILES IDX 78 48 41 49 42 50 57 52 79 53 44 54 27 55 28 56 37 57 29 58
REMARK SMILES IDX 30 59 36 60 38 61 31 62 32 63 33 64 34 65 35 66 61 67 62 68
REMARK SMILES IDX 71 69 63 70 64 71 70 72 72 73 65 74 66 75 67 76 68 77 69 78
REMARK SMILES IDX 45 79 46 80 55 81 47 82 48 83 54 84 56 85 49 86 50 87 51 88
REMARK SMILES IDX 52 89 53 90
REMARK H PARENT 10 7 4 16 4 17 15 21 77 40 43 51
REMARK Flexibility Score: inf
ROOT
ATOM      1  C   UNL A   1      33.876  28.636  25.720  1.00  0.00     0.023 C 
ENDROOT
BRANCH   1   2
ATOM      2  C   UNL A   1      33.737  27.258  25.097  1.00  0.00     0.023 C 
BRANCH   2   3
ATOM      3  C   UNL A   1      33.076  27.226  23.716  1.00  0.00     0.116 C 
BRANCH   3   4
ATOM      4  N   UNL A   1      31.684  26.816  23.810  1.00  0.00    -0.356 N 
ATOM      5  C   UNL A   1      30.551  27.554  23.992  1.00  0.00     0.220 C 
ATOM      6  O   UNL A   1      29.482  26.960  24.143  1.00  0.00    -0.275 OA
ATOM      7  H   UNL A   1      31.535  25.846  23.728  1.00  0.00     0.163 HD
BRANCH   5   8
ATOM      8  C   UNL A   1      30.596  29.073  23.998  1.00  0.00     0.109 C 
BRANCH   8   9
ATOM      9  C   UNL A   1      29.298  29.741  23.498  1.00  0.00     0.054 C 
ATOM     10  C   UNL A   1      28.698  33.560  23.037  1.00  0.00     0.013 C 
ATOM     11  C   UNL A   1      28.321  32.078  22.951  1.00  0.00     0.041 C 
ATOM     12  C   UNL A   1      28.236  31.613  21.499  1.00  0.00     0.263 C 
ATOM     13  C   UNL A   1      29.345  31.252  23.726  1.00  0.00     0.019 C 
ATOM     14  N   UNL A   1      27.971  30.174  21.427  1.00  0.00    -0.346 N 
ATOM     15  C   UNL A   1      29.084  29.419  22.012  1.00  0.00     0.264 C 
ATOM     16  H   UNL A   1      27.858  29.901  20.451  1.00  0.00     0.346 HD
ATOM     17  H   UNL A   1      27.121  29.968  21.950  1.00  0.00     0.346 HD
ENDBRANCH   8   9
ENDBRANCH   5   8
ENDBRANCH   3   4
ENDBRANCH   2   3
ENDBRANCH   1   2
BRANCH   1  18
ATOM     18  C   UNL A   1      33.619  28.669  27.212  1.00  0.00     0.116 C 
BRANCH  18  19
ATOM     19  N   UNL A   1      33.591  30.016  27.772  1.00  0.00    -0.352 N 
ATOM     20  C   UNL A   1      34.614  30.705  28.390  1.00  0.00     0.251 C 
ATOM     21  H   UNL A   1      32.733  30.494  27.698  1.00  0.00     0.163 HD
ATOM     22  O   UNL A   1      34.416  31.803  28.890  1.00  0.00    -0.269 OA
BRANCH  20  23
ATOM     23  C   UNL A   1      35.939  30.059  28.475  1.00  0.00     0.039 A 
ATOM     24  C   UNL A   1      36.813  30.146  27.390  1.00  0.00     0.014 A 
ATOM     25  C   UNL A   1      36.349  29.479  29.677  1.00  0.00     0.014 A 
ATOM     26  C   UNL A   1      38.139  29.734  27.546  1.00  0.00     0.010 A 
ATOM     27  C   UNL A   1      37.689  29.179  29.862  1.00  0.00     0.010 A 
ATOM     28  C   UNL A   1      38.599  29.296  28.798  1.00  0.00    -0.014 A 
BRANCH  28  29
ATOM     29  C   UNL A   1      40.010  28.908  29.036  1.00  0.00     0.031 A 
ATOM     30  C   UNL A   1      40.968  29.944  29.562  1.00  0.00     0.074 A 
ATOM     31  C   UNL A   1      40.456  27.686  28.681  1.00  0.00     0.049 A 
ATOM     32  N   UNL A   1      42.271  29.902  29.645  1.00  0.00    -0.248 NA
ATOM     33  C   UNL A   1      40.379  31.221  29.999  1.00  0.00     0.031 C 
ATOM     34  C   UNL A   1      39.640  26.613  28.107  1.00  0.00     0.029 A 
ATOM     35  N   UNL A   1      41.717  27.148  28.730  1.00  0.00    -0.354 N 
ATOM     36  C   UNL A   1      42.658  31.161  30.090  1.00  0.00     0.074 A 
ATOM     37  C   UNL A   1      41.458  31.958  30.210  1.00  0.00     0.031 C 
ATOM     38  C   UNL A   1      40.416  25.539  27.882  1.00  0.00     0.029 A 
ATOM     39  C   UNL A   1      41.790  25.860  28.255  1.00  0.00     0.049 A 
ATOM     40  H   UNL A   1      42.499  27.639  29.075  1.00  0.00     0.167 HD
ATOM     41  C   UNL A   1      43.898  31.605  30.399  1.00  0.00     0.037 A 
ATOM     42  C   UNL A   1      42.848  25.036  28.128  1.00  0.00     0.037 A 
ATOM     43  C   UNL A   1      45.075  30.781  30.353  1.00  0.00     0.049 A 
ATOM     44  C   UNL A   1      44.208  25.525  28.551  1.00  0.00     0.074 A 
ATOM     45  C   UNL A   1      46.371  31.107  30.708  1.00  0.00     0.029 A 
ATOM     46  N   UNL A   1      45.089  29.454  29.949  1.00  0.00    -0.354 N 
ATOM     47  N   UNL A   1      44.554  26.709  28.998  1.00  0.00    -0.248 NA
ATOM     48  C   UNL A   1      45.320  24.567  28.460  1.00  0.00     0.031 C 
ATOM     49  C   UNL A   1      47.172  29.978  30.509  1.00  0.00     0.029 A 
ATOM     50  C   UNL A   1      46.369  28.942  30.056  1.00  0.00     0.049 A 
ATOM     51  H   UNL A   1      44.304  28.950  29.635  1.00  0.00     0.167 HD
ATOM     52  C   UNL A   1      45.915  26.630  29.271  1.00  0.00     0.074 A 
ATOM     53  C   UNL A   1      46.329  25.281  28.941  1.00  0.00     0.031 C 
ATOM     54  C   UNL A   1      46.747  27.586  29.751  1.00  0.00     0.037 A 
BRANCH  41  55
ATOM     55  C   UNL A   1      44.031  33.038  30.829  1.00  0.00     0.058 A 
ATOM     56  C   UNL A   1      43.823  33.428  32.163  1.00  0.00     0.135 A 
ATOM     57  C   UNL A   1      44.362  34.036  29.899  1.00  0.00     0.135 A 
ATOM     58  F   UNL A   1      43.484  32.516  33.088  1.00  0.00    -0.206 F 
ATOM     59  C   UNL A   1      43.896  34.761  32.550  1.00  0.00     0.059 A 
ATOM     60  C   UNL A   1      44.469  35.374  30.271  1.00  0.00     0.059 A 
ATOM     61  F   UNL A   1      44.569  33.719  28.612  1.00  0.00    -0.206 F 
ATOM     62  C   UNL A   1      44.214  35.727  31.596  1.00  0.00     0.060 A 
BRANCH  62  63
ATOM     63  S   UNL A   1      44.288  37.457  32.108  1.00  0.00     0.124 S 
ATOM     64  O   UNL A   1      45.717  37.625  32.353  1.00  0.00    -0.237 OA
ATOM     65  O   UNL A   1      43.760  38.154  30.940  1.00  0.00    -0.237 OA
ATOM     66  O   UNL A   1      43.438  37.494  33.294  1.00  0.00    -0.744 OA
ENDBRANCH  62  63
ENDBRANCH  41  55
BRANCH  42  67
ATOM     67  C   UNL A   1      42.661  23.653  27.617  1.00  0.00     0.058 A 
ATOM     68  C   UNL A   1      42.706  23.386  26.241  1.00  0.00     0.135 A 
ATOM     69  C   UNL A   1      42.447  22.571  28.485  1.00  0.00     0.135 A 
ATOM     70  F   UNL A   1      42.903  24.389  25.371  1.00  0.00    -0.206 F 
ATOM     71  C   UNL A   1      42.531  22.101  25.739  1.00  0.00     0.059 A 
ATOM     72  C   UNL A   1      42.289  21.273  28.009  1.00  0.00     0.059 A 
ATOM     73  F   UNL A   1      42.413  22.771  29.812  1.00  0.00    -0.206 F 
ATOM     74  C   UNL A   1      42.323  21.049  26.633  1.00  0.00     0.060 A 
BRANCH  74  75
ATOM     75  S   UNL A   1      42.145  19.376  25.976  1.00  0.00     0.124 S 
ATOM     76  O   UNL A   1      40.703  19.290  25.779  1.00  0.00    -0.237 OA
ATOM     77  O   UNL A   1      42.954  19.434  24.760  1.00  0.00    -0.237 OA
ATOM     78  O   UNL A   1      42.691  18.540  27.041  1.00  0.00    -0.744 OA
ENDBRANCH  74  75
ENDBRANCH  42  67
BRANCH  54  79
ATOM     79  C   UNL A   1      48.175  27.199  30.002  1.00  0.00     0.058 A 
ATOM     80  C   UNL A   1      49.189  27.495  29.081  1.00  0.00     0.135 A 
ATOM     81  C   UNL A   1      48.539  26.600  31.219  1.00  0.00     0.135 A 
ATOM     82  F   UNL A   1      48.889  28.062  27.903  1.00  0.00    -0.206 F 
ATOM     83  C   UNL A   1      50.520  27.200  29.354  1.00  0.00     0.059 A 
ATOM     84  C   UNL A   1      49.865  26.315  31.521  1.00  0.00     0.059 A 
ATOM     85  F   UNL A   1      47.602  26.308  32.135  1.00  0.00    -0.206 F 
ATOM     86  C   UNL A   1      50.848  26.613  30.578  1.00  0.00     0.060 A 
BRANCH  86  87
ATOM     87  S   UNL A   1      52.586  26.289  30.947  1.00  0.00     0.124 S 
ATOM     88  O   UNL A   1      52.968  27.504  31.658  1.00  0.00    -0.237 OA
ATOM     89  O   UNL A   1      52.515  25.075  31.755  1.00  0.00    -0.237 OA
ATOM     90  O   UNL A   1      53.185  26.118  29.626  1.00  0.00    -0.744 OA
ENDBRANCH  86  87
ENDBRANCH  54  79
ENDBRANCH  28  29
ENDBRANCH  20  23
ENDBRANCH  18  19
ENDBRANCH   1  18
TORSDOF 15
ENDMDL
MODEL 3
REMARK VINA RESULT:     -10.3      3.547     11.542
REMARK SMILES C[C@H]1C[NH2+]C[C@@H](CC(=O)NCCCCNC(=O)c2ccc(-c3c4nc(c(-c5c(F)cc(S(=O)(=O)[O-])cc5F)c5ccc([nH]5)c(-c5c(F)cc(S(=O)(=O)[O-])cc5F)c5nc(c(-c6c(F)cc(S(=O)(=O)[O-])cc6F)c6ccc3[nH]6)C=C5)C=C4)cc2)C1
REMARK SMILES IDX 13 1 12 2 11 3 10 4 8 5 9 6 7 8 6 9 1 10 2 11 3 12 84 13
REMARK SMILES IDX 4 14 5 15 14 18 15 19 16 20 17 22 18 23 19 24 83 25 20 26
REMARK SMILES IDX 82 27 21 28 22 29 23 30 76 31 24 32 81 33 75 34 77 35 25 36
REMARK SMILES IDX 80 37 74 38 73 39 26 41 60 42 39 43 59 44 40 45 43 46 58 47
REMARK SMILES IDX 78 48 41 49 42 50 57 52 79 53 44 54 27 55 28 56 37 57 29 58
REMARK SMILES IDX 30 59 36 60 38 61 31 62 32 63 33 64 34 65 35 66 61 67 62 68
REMARK SMILES IDX 71 69 63 70 64 71 70 72 72 73 65 74 66 75 67 76 68 77 69 78
REMARK SMILES IDX 45 79 46 80 55 81 47 82 48 83 54 84 56 85 49 86 50 87 51 88
REMARK SMILES IDX 52 89 53 90
REMARK H PARENT 10 7 4 16 4 17 15 21 77 40 43 51
REMARK Flexibility Score: inf
ROOT
ATOM      1  C   UNL A   1      40.657  20.237  26.102  1.00  0.00     0.023 C 
ENDROOT
BRANCH   1   2
ATOM      2  C   UNL A   1      42.127  20.032  26.421  1.00  0.00     0.023 C 
BRANCH   2   3
ATOM      3  C   UNL A   1      42.975  21.307  26.457  1.00  0.00     0.116 C 
BRANCH   3   4
ATOM      4  N   UNL A   1      43.658  21.520  25.191  1.00  0.00    -0.356 N 
ATOM      5  C   UNL A   1      43.796  22.647  24.435  1.00  0.00     0.220 C 
ATOM      6  O   UNL A   1      44.340  22.551  23.333  1.00  0.00    -0.275 OA
ATOM      7  H   UNL A   1      44.092  20.719  24.818  1.00  0.00     0.163 HD
BRANCH   5   8
ATOM      8  C   UNL A   1      43.304  23.994  24.935  1.00  0.00     0.109 C 
BRANCH   8   9
ATOM      9  C   UNL A   1      44.429  25.020  25.188  1.00  0.00     0.054 C 
ATOM     10  C   UNL A   1      44.008  28.583  26.700  1.00  0.00     0.013 C 
ATOM     11  C   UNL A   1      44.806  27.395  26.151  1.00  0.00     0.041 C 
ATOM     12  C   UNL A   1      45.633  26.731  27.250  1.00  0.00     0.263 C 
ATOM     13  C   UNL A   1      43.845  26.394  25.515  1.00  0.00     0.019 C 
ATOM     14  N   UNL A   1      46.315  25.540  26.739  1.00  0.00    -0.346 N 
ATOM     15  C   UNL A   1      45.338  24.529  26.323  1.00  0.00     0.264 C 
ATOM     16  H   UNL A   1      46.907  25.151  27.473  1.00  0.00     0.346 HD
ATOM     17  H   UNL A   1      46.881  25.803  25.934  1.00  0.00     0.346 HD
ENDBRANCH   8   9
ENDBRANCH   5   8
ENDBRANCH   3   4
ENDBRANCH   2   3
ENDBRANCH   1   2
BRANCH   1  18
ATOM     18  C   UNL A   1      40.084  21.535  26.632  1.00  0.00     0.116 C 
BRANCH  18  19
ATOM     19  N   UNL A   1      39.012  22.082  25.807  1.00  0.00    -0.352 N 
ATOM     20  C   UNL A   1      38.531  23.374  25.779  1.00  0.00     0.251 C 
ATOM     21  H   UNL A   1      38.578  21.448  25.191  1.00  0.00     0.163 HD
ATOM     22  O   UNL A   1      37.562  23.667  25.092  1.00  0.00    -0.269 OA
BRANCH  20  23
ATOM     23  C   UNL A   1      39.185  24.381  26.639  1.00  0.00     0.039 A 
ATOM     24  C   UNL A   1      40.046  25.317  26.063  1.00  0.00     0.014 A 
ATOM     25  C   UNL A   1      38.840  24.465  27.989  1.00  0.00     0.014 A 
ATOM     26  C   UNL A   1      40.488  26.400  26.827  1.00  0.00     0.010 A 
ATOM     27  C   UNL A   1      39.187  25.598  28.708  1.00  0.00     0.010 A 
ATOM     28  C   UNL A   1      40.020  26.575  28.139  1.00  0.00    -0.014 A 
BRANCH  28  29
ATOM     29  C   UNL A   1      40.405  27.740  28.972  1.00  0.00     0.031 A 
ATOM     30  C   UNL A   1      41.699  27.686  29.740  1.00  0.00     0.074 A 
ATOM     31  C   UNL A   1      39.561  28.779  29.131  1.00  0.00     0.049 A 
ATOM     32  N   UNL A   1      42.136  28.476  30.685  1.00  0.00    -0.248 NA
ATOM     33  C   UNL A   1      42.593  26.554  29.443  1.00  0.00     0.031 C 
ATOM     34  C   UNL A   1      38.253  28.924  28.487  1.00  0.00     0.029 A 
ATOM     35  N   UNL A   1      39.670  29.906  29.907  1.00  0.00    -0.354 N 
ATOM     36  C   UNL A   1      43.324  27.907  31.128  1.00  0.00     0.074 A 
ATOM     37  C   UNL A   1      43.512  26.680  30.387  1.00  0.00     0.031 C 
ATOM     38  C   UNL A   1      37.695  30.083  28.874  1.00  0.00     0.029 A 
ATOM     39  C   UNL A   1      38.583  30.743  29.825  1.00  0.00     0.049 A 
ATOM     40  H   UNL A   1      40.456  30.097  30.470  1.00  0.00     0.167 HD
ATOM     41  C   UNL A   1      44.195  28.378  32.050  1.00  0.00     0.037 A 
ATOM     42  C   UNL A   1      38.331  31.908  30.453  1.00  0.00     0.037 A 
ATOM     43  C   UNL A   1      44.041  29.638  32.724  1.00  0.00     0.049 A 
ATOM     44  C   UNL A   1      39.351  32.453  31.417  1.00  0.00     0.074 A 
ATOM     45  C   UNL A   1      44.895  30.244  33.626  1.00  0.00     0.029 A 
ATOM     46  N   UNL A   1      42.966  30.497  32.545  1.00  0.00    -0.354 N 
ATOM     47  N   UNL A   1      40.485  31.917  31.805  1.00  0.00    -0.248 NA
ATOM     48  C   UNL A   1      39.064  33.761  32.024  1.00  0.00     0.031 C 
ATOM     49  C   UNL A   1      44.331  31.468  34.001  1.00  0.00     0.029 A 
ATOM     50  C   UNL A   1      43.140  31.635  33.311  1.00  0.00     0.049 A 
ATOM     51  H   UNL A   1      42.195  30.324  31.958  1.00  0.00     0.167 HD
ATOM     52  C   UNL A   1      41.061  32.835  32.676  1.00  0.00     0.074 A 
ATOM     53  C   UNL A   1      40.152  33.961  32.757  1.00  0.00     0.031 C 
ATOM     54  C   UNL A   1      42.234  32.754  33.348  1.00  0.00     0.037 A 
BRANCH  41  55
ATOM     55  C   UNL A   1      45.396  27.530  32.361  1.00  0.00     0.058 A 
ATOM     56  C   UNL A   1      45.419  26.665  33.468  1.00  0.00     0.135 A 
ATOM     57  C   UNL A   1      46.541  27.586  31.550  1.00  0.00     0.135 A 
ATOM     58  F   UNL A   1      44.358  26.588  34.287  1.00  0.00    -0.206 F 
ATOM     59  C   UNL A   1      46.548  25.919  33.784  1.00  0.00     0.059 A 
ATOM     60  C   UNL A   1      47.673  26.826  31.832  1.00  0.00     0.059 A 
ATOM     61  F   UNL A   1      46.573  28.398  30.481  1.00  0.00    -0.206 F 
ATOM     62  C   UNL A   1      47.673  26.011  32.964  1.00  0.00     0.060 A 
BRANCH  62  63
ATOM     63  S   UNL A   1      49.139  25.051  33.396  1.00  0.00     0.124 S 
ATOM     64  O   UNL A   1      48.541  23.820  33.899  1.00  0.00    -0.237 OA
ATOM     65  O   UNL A   1      49.832  24.942  32.116  1.00  0.00    -0.237 OA
ATOM     66  O   UNL A   1      49.804  25.882  34.395  1.00  0.00    -0.744 OA
ENDBRANCH  62  63
ENDBRANCH  41  55
BRANCH  42  67
ATOM     67  C   UNL A   1      37.082  32.659  30.161  1.00  0.00     0.058 A 
ATOM     68  C   UNL A   1      37.031  33.578  29.102  1.00  0.00     0.135 A 
ATOM     69  C   UNL A   1      35.915  32.468  30.917  1.00  0.00     0.135 A 
ATOM     70  F   UNL A   1      38.123  33.798  28.354  1.00  0.00    -0.206 F 
ATOM     71  C   UNL A   1      35.875  34.294  28.811  1.00  0.00     0.059 A 
ATOM     72  C   UNL A   1      34.740  33.158  30.633  1.00  0.00     0.059 A 
ATOM     73  F   UNL A   1      35.907  31.587  31.929  1.00  0.00    -0.206 F 
ATOM     74  C   UNL A   1      34.732  34.076  29.583  1.00  0.00     0.060 A 
BRANCH  74  75
ATOM     75  S   UNL A   1      33.221  34.973  29.167  1.00  0.00     0.124 S 
ATOM     76  O   UNL A   1      32.635  34.105  28.153  1.00  0.00    -0.237 OA
ATOM     77  O   UNL A   1      32.525  35.017  30.451  1.00  0.00    -0.237 OA
ATOM     78  O   UNL A   1      33.717  36.261  28.690  1.00  0.00    -0.744 OA
ENDBRANCH  74  75
ENDBRANCH  42  67
BRANCH  54  79
ATOM     79  C   UNL A   1      42.635  33.932  34.187  1.00  0.00     0.058 A 
ATOM     80  C   UNL A   1      42.335  33.997  35.554  1.00  0.00     0.135 A 
ATOM     81  C   UNL A   1      43.401  34.968  33.627  1.00  0.00     0.135 A 
ATOM     82  F   UNL A   1      41.601  33.033  36.132  1.00  0.00    -0.206 F 
ATOM     83  C   UNL A   1      42.773  35.056  36.341  1.00  0.00     0.059 A 
ATOM     84  C   UNL A   1      43.867  36.026  34.399  1.00  0.00     0.059 A 
ATOM     85  F   UNL A   1      43.721  34.943  32.323  1.00  0.00    -0.206 F 
ATOM     86  C   UNL A   1      43.543  36.064  35.754  1.00  0.00     0.060 A 
BRANCH  86  87
ATOM     87  S   UNL A   1      44.157  37.405  36.797  1.00  0.00     0.124 S 
ATOM     88  O   UNL A   1      44.243  38.504  35.841  1.00  0.00    -0.237 OA
ATOM     89  O   UNL A   1      43.110  37.522  37.808  1.00  0.00    -0.237 OA
ATOM     90  O   UNL A   1      45.435  36.894  37.285  1.00  0.00    -0.744 OA
ENDBRANCH  86  87
ENDBRANCH  54  79
ENDBRANCH  28  29
ENDBRANCH  20  23
ENDBRANCH  18  19
ENDBRANCH   1  18
TORSDOF 15
ENDMDL
