MODEL 1
REMARK VINA RESULT:     -11.9      0.000      0.000
REMARK SMILES Cc1ccc(Oc2ccc(NC(=O)CCCC(=O)NCCCCNC(=O)c3ccc(-c4c5nc(c(-c6c(F)cc(S(=O)(=O)[O-])cc6F)c6ccc([nH]6)c(-c6c(F)cc(S(=O)(=O)[O-])cc6F)c6nc(c(-c7c(F)cc(S(=O)(=O)[O-])cc7F)c7ccc4[nH]7)C=C6)C=C5)cc3)cc2)cc1C
REMARK SMILES IDX 20 1 19 2 17 3 18 4 16 6 15 7 14 8 12 9 11 10 13 12 10 13
REMARK SMILES IDX 7 14 8 15 94 16 9 17 93 18 6 19 5 20 1 21 2 22 3 23 96 24
REMARK SMILES IDX 4 25 95 26 97 27 21 28 22 29 23 30 24 31 25 32 26 34 27 35
REMARK SMILES IDX 28 36 92 37 29 38 91 39 30 40 31 41 32 42 85 43 33 44 90 45
REMARK SMILES IDX 84 46 86 47 34 48 89 49 83 50 82 51 35 53 69 54 48 55 68 56
REMARK SMILES IDX 49 57 52 58 67 59 87 60 50 61 51 62 66 64 88 65 53 66 36 67
REMARK SMILES IDX 37 68 46 69 38 70 39 71 45 72 47 73 40 74 41 75 42 76 43 77
REMARK SMILES IDX 44 78 70 79 71 80 80 81 72 82 73 83 79 84 81 85 74 86 75 87
REMARK SMILES IDX 76 88 77 89 78 90 54 91 55 92 64 93 56 94 57 95 63 96 65 97
REMARK SMILES IDX 58 98 59 99 60 100 61 101 62 102
REMARK H PARENT 19 5 11 11 24 33 86 52 52 63
REMARK Flexibility Score: inf
ROOT
ATOM      1  C   UNL A   1      39.659  21.258  26.173  1.00  0.00     0.116 C 
ENDROOT
BRANCH   1   2
ATOM      2  N   UNL A   1      38.961  22.500  26.461  1.00  0.00    -0.356 N 
ATOM      3  C   UNL A   1      37.966  23.240  25.928  1.00  0.00     0.220 C 
ATOM      4  O   UNL A   1      37.490  24.084  26.703  1.00  0.00    -0.275 OA
ATOM      5  H   UNL A   1      39.315  22.921  27.277  1.00  0.00     0.163 HD
BRANCH   3   6
ATOM      6  C   UNL A   1      37.330  23.109  24.545  1.00  0.00     0.100 C 
BRANCH   6   7
ATOM      7  C   UNL A   1      36.528  21.884  24.126  1.00  0.00     0.020 C 
BRANCH   7   8
ATOM      8  C   UNL A   1      36.412  20.648  25.012  1.00  0.00     0.101 C 
BRANCH   8   9
ATOM      9  C   UNL A   1      35.217  19.700  24.957  1.00  0.00     0.224 C 
ATOM     10  N   UNL A   1      33.937  19.905  25.356  1.00  0.00    -0.326 N 
ATOM     11  H   UNL A   1      33.387  19.107  25.187  1.00  0.00     0.169 HD
ATOM     12  O   UNL A   1      35.428  18.553  24.522  1.00  0.00    -0.275 OA
BRANCH  10  13
ATOM     13  C   UNL A   1      33.167  20.923  25.939  1.00  0.00     0.041 A 
ATOM     14  C   UNL A   1      31.659  23.123  26.838  1.00  0.00     0.127 A 
ATOM     15  C   UNL A   1      32.822  22.766  27.495  1.00  0.00     0.049 A 
ATOM     16  C   UNL A   1      31.197  22.350  25.776  1.00  0.00     0.049 A 
ATOM     17  C   UNL A   1      33.540  21.655  27.045  1.00  0.00     0.030 A 
ATOM     18  C   UNL A   1      31.942  21.242  25.342  1.00  0.00     0.030 A 
BRANCH  14  19
ATOM     19  O   UNL A   1      31.058  24.318  27.123  1.00  0.00    -0.457 OA
BRANCH  19  20
ATOM     20  C   UNL A   1      31.273  25.385  26.281  1.00  0.00     0.127 A 
ATOM     21  C   UNL A   1      31.338  29.014  23.955  1.00  0.00     0.044 C 
ATOM     22  C   UNL A   1      31.318  27.699  24.686  1.00  0.00    -0.048 A 
ATOM     23  C   UNL A   1      32.406  27.368  25.513  1.00  0.00     0.007 A 
ATOM     24  C   UNL A   1      30.224  26.819  24.604  1.00  0.00    -0.045 A 
ATOM     25  C   UNL A   1      32.386  26.218  26.307  1.00  0.00     0.047 A 
ATOM     26  C   UNL A   1      30.219  25.666  25.406  1.00  0.00     0.050 A 
ATOM     27  C   UNL A   1      29.062  27.037  23.673  1.00  0.00     0.045 C 
ENDBRANCH  19  20
ENDBRANCH  14  19
ENDBRANCH  10  13
ENDBRANCH   8   9
ENDBRANCH   7   8
ENDBRANCH   6   7
ENDBRANCH   3   6
ENDBRANCH   1   2
BRANCH   1  28
ATOM     28  C   UNL A   1      40.987  21.133  26.918  1.00  0.00     0.023 C 
BRANCH  28  29
ATOM     29  C   UNL A   1      41.238  22.333  27.833  1.00  0.00     0.023 C 
BRANCH  29  30
ATOM     30  C   UNL A   1      42.412  23.212  27.403  1.00  0.00     0.116 C 
BRANCH  30  31
ATOM     31  N   UNL A   1      42.117  24.009  26.222  1.00  0.00    -0.352 N 
ATOM     32  C   UNL A   1      41.682  25.313  26.145  1.00  0.00     0.251 C 
ATOM     33  H   UNL A   1      42.247  23.553  25.359  1.00  0.00     0.163 HD
ATOM     34  O   UNL A   1      41.335  25.787  25.067  1.00  0.00    -0.269 OA
BRANCH  32  35
ATOM     35  C   UNL A   1      41.600  26.127  27.376  1.00  0.00     0.039 A 
ATOM     36  C   UNL A   1      42.503  27.177  27.559  1.00  0.00     0.014 A 
ATOM     37  C   UNL A   1      40.601  25.885  28.322  1.00  0.00     0.014 A 
ATOM     38  C   UNL A   1      42.348  28.037  28.649  1.00  0.00     0.010 A 
ATOM     39  C   UNL A   1      40.396  26.795  29.357  1.00  0.00     0.010 A 
ATOM     40  C   UNL A   1      41.266  27.882  29.532  1.00  0.00    -0.014 A 
BRANCH  40  41
ATOM     41  C   UNL A   1      41.029  28.844  30.643  1.00  0.00     0.031 A 
ATOM     42  C   UNL A   1      41.842  28.748  31.908  1.00  0.00     0.074 A 
ATOM     43  C   UNL A   1      40.038  29.755  30.544  1.00  0.00     0.049 A 
ATOM     44  N   UNL A   1      41.735  29.442  33.011  1.00  0.00    -0.248 NA
ATOM     45  C   UNL A   1      42.893  27.716  31.953  1.00  0.00     0.031 C 
ATOM     46  C   UNL A   1      39.134  29.905  29.399  1.00  0.00     0.029 A 
ATOM     47  N   UNL A   1      39.612  30.719  31.424  1.00  0.00    -0.354 N 
ATOM     48  C   UNL A   1      42.679  28.915  33.886  1.00  0.00     0.074 A 
ATOM     49  C   UNL A   1      43.322  27.814  33.203  1.00  0.00     0.031 C 
ATOM     50  C   UNL A   1      38.278  30.913  29.640  1.00  0.00     0.029 A 
ATOM     51  C   UNL A   1      38.545  31.459  30.967  1.00  0.00     0.049 A 
ATOM     52  H   UNL A   1      40.032  30.869  32.302  1.00  0.00     0.167 HD
ATOM     53  C   UNL A   1      42.999  29.326  35.135  1.00  0.00     0.037 A 
ATOM     54  C   UNL A   1      37.855  32.457  31.553  1.00  0.00     0.037 A 
ATOM     55  C   UNL A   1      42.401  30.461  35.786  1.00  0.00     0.049 A 
ATOM     56  C   UNL A   1      38.262  32.920  32.929  1.00  0.00     0.074 A 
ATOM     57  C   UNL A   1      42.727  31.015  37.012  1.00  0.00     0.029 A 
ATOM     58  N   UNL A   1      41.362  31.217  35.269  1.00  0.00    -0.354 N 
ATOM     59  N   UNL A   1      39.221  32.465  33.701  1.00  0.00    -0.248 NA
ATOM     60  C   UNL A   1      37.503  34.038  33.509  1.00  0.00     0.031 C 
ATOM     61  C   UNL A   1      41.855  32.081  37.256  1.00  0.00     0.029 A 
ATOM     62  C   UNL A   1      41.020  32.221  36.159  1.00  0.00     0.049 A 
ATOM     63  H   UNL A   1      40.931  31.064  34.396  1.00  0.00     0.167 HD
ATOM     64  C   UNL A   1      39.201  33.264  34.840  1.00  0.00     0.074 A 
ATOM     65  C   UNL A   1      38.146  34.237  34.651  1.00  0.00     0.031 C 
ATOM     66  C   UNL A   1      39.985  33.198  35.944  1.00  0.00     0.037 A 
BRANCH  53  67
ATOM     67  C   UNL A   1      44.056  28.566  35.886  1.00  0.00     0.058 A 
ATOM     68  C   UNL A   1      43.733  27.489  36.727  1.00  0.00     0.135 A 
ATOM     69  C   UNL A   1      45.415  28.862  35.691  1.00  0.00     0.135 A 
ATOM     70  F   UNL A   1      42.449  27.175  36.962  1.00  0.00    -0.206 F 
ATOM     71  C   UNL A   1      44.721  26.734  37.349  1.00  0.00     0.059 A 
ATOM     72  C   UNL A   1      46.420  28.104  36.285  1.00  0.00     0.059 A 
ATOM     73  F   UNL A   1      45.777  29.886  34.903  1.00  0.00    -0.206 F 
ATOM     74  C   UNL A   1      46.062  27.043  37.115  1.00  0.00     0.060 A 
BRANCH  74  75
ATOM     75  S   UNL A   1      47.330  26.015  37.885  1.00  0.00     0.124 S 
ATOM     76  O   UNL A   1      46.999  26.156  39.300  1.00  0.00    -0.237 OA
ATOM     77  O   UNL A   1      47.066  24.703  37.300  1.00  0.00    -0.237 OA
ATOM     78  O   UNL A   1      48.579  26.644  37.467  1.00  0.00    -0.744 OA
ENDBRANCH  74  75
ENDBRANCH  53  67
BRANCH  54  79
ATOM     79  C   UNL A   1      36.709  33.102  30.853  1.00  0.00     0.058 A 
ATOM     80  C   UNL A   1      36.918  34.100  29.887  1.00  0.00     0.135 A 
ATOM     81  C   UNL A   1      35.383  32.768  31.165  1.00  0.00     0.135 A 
ATOM     82  F   UNL A   1      38.168  34.458  29.555  1.00  0.00    -0.206 F 
ATOM     83  C   UNL A   1      35.858  34.775  29.292  1.00  0.00     0.059 A 
ATOM     84  C   UNL A   1      34.305  33.408  30.562  1.00  0.00     0.059 A 
ATOM     85  F   UNL A   1      35.126  31.806  32.066  1.00  0.00    -0.206 F 
ATOM     86  C   UNL A   1      34.553  34.427  29.643  1.00  0.00     0.060 A 
BRANCH  86  87
ATOM     87  S   UNL A   1      33.180  35.310  28.871  1.00  0.00     0.124 S 
ATOM     88  O   UNL A   1      33.885  36.311  28.079  1.00  0.00    -0.237 OA
ATOM     89  O   UNL A   1      32.515  34.252  28.119  1.00  0.00    -0.237 OA
ATOM     90  O   UNL A   1      32.429  35.823  30.014  1.00  0.00    -0.744 OA
ENDBRANCH  86  87
ENDBRANCH  54  79
BRANCH  66  91
ATOM     91  C   UNL A   1      39.773  34.236  37.011  1.00  0.00     0.058 A 
ATOM     92  C   UNL A   1      38.912  34.016  38.097  1.00  0.00     0.135 A 
ATOM     93  C   UNL A   1      40.484  35.446  36.971  1.00  0.00     0.135 A 
ATOM     94  F   UNL A   1      38.206  32.876  38.179  1.00  0.00    -0.206 F 
ATOM     95  C   UNL A   1      38.744  34.970  39.093  1.00  0.00     0.059 A 
ATOM     96  C   UNL A   1      40.353  36.402  37.972  1.00  0.00     0.059 A 
ATOM     97  F   UNL A   1      41.330  35.700  35.960  1.00  0.00    -0.206 F 
ATOM     98  C   UNL A   1      39.470  36.161  39.022  1.00  0.00     0.060 A 
BRANCH  98  99
ATOM     99  S   UNL A   1      39.266  37.380  40.338  1.00  0.00     0.124 S 
ATOM    100  O   UNL A   1      38.298  38.295  39.742  1.00  0.00    -0.237 OA
ATOM    101  O   UNL A   1      38.773  36.567  41.445  1.00  0.00    -0.237 OA
ATOM    102  O   UNL A   1      40.612  37.917  40.514  1.00  0.00    -0.744 OA
ENDBRANCH  98  99
ENDBRANCH  66  91
ENDBRANCH  40  41
ENDBRANCH  32  35
ENDBRANCH  30  31
ENDBRANCH  29  30
ENDBRANCH  28  29
ENDBRANCH   1  28
TORSDOF 20
ENDMDL
MODEL 2
REMARK VINA RESULT:     -11.6      1.496      2.702
REMARK SMILES Cc1ccc(Oc2ccc(NC(=O)CCCC(=O)NCCCCNC(=O)c3ccc(-c4c5nc(c(-c6c(F)cc(S(=O)(=O)[O-])cc6F)c6ccc([nH]6)c(-c6c(F)cc(S(=O)(=O)[O-])cc6F)c6nc(c(-c7c(F)cc(S(=O)(=O)[O-])cc7F)c7ccc4[nH]7)C=C6)C=C5)cc3)cc2)cc1C
REMARK SMILES IDX 20 1 19 2 17 3 18 4 16 6 15 7 14 8 12 9 11 10 13 12 10 13
REMARK SMILES IDX 7 14 8 15 94 16 9 17 93 18 6 19 5 20 1 21 2 22 3 23 96 24
REMARK SMILES IDX 4 25 95 26 97 27 21 28 22 29 23 30 24 31 25 32 26 34 27 35
REMARK SMILES IDX 28 36 92 37 29 38 91 39 30 40 31 41 32 42 85 43 33 44 90 45
REMARK SMILES IDX 84 46 86 47 34 48 89 49 83 50 82 51 35 53 69 54 48 55 68 56
REMARK SMILES IDX 49 57 52 58 67 59 87 60 50 61 51 62 66 64 88 65 53 66 36 67
REMARK SMILES IDX 37 68 46 69 38 70 39 71 45 72 47 73 40 74 41 75 42 76 43 77
REMARK SMILES IDX 44 78 70 79 71 80 80 81 72 82 73 83 79 84 81 85 74 86 75 87
REMARK SMILES IDX 76 88 77 89 78 90 54 91 55 92 64 93 56 94 57 95 63 96 65 97
REMARK SMILES IDX 58 98 59 99 60 100 61 101 62 102
REMARK H PARENT 19 5 11 11 24 33 86 52 52 63
REMARK Flexibility Score: inf
ROOT
ATOM      1  C   UNL A   1      37.355  21.236  25.420  1.00  0.00     0.116 C 
ENDROOT
BRANCH   1   2
ATOM      2  N   UNL A   1      36.810  21.894  24.246  1.00  0.00    -0.356 N 
ATOM      3  C   UNL A   1      36.112  23.013  23.954  1.00  0.00     0.220 C 
ATOM      4  O   UNL A   1      36.138  23.329  22.754  1.00  0.00    -0.275 OA
ATOM      5  H   UNL A   1      37.004  21.378  23.431  1.00  0.00     0.163 HD
BRANCH   3   6
ATOM      6  C   UNL A   1      35.380  23.945  24.917  1.00  0.00     0.100 C 
BRANCH   6   7
ATOM      7  C   UNL A   1      34.376  23.437  25.943  1.00  0.00     0.020 C 
BRANCH   7   8
ATOM      8  C   UNL A   1      33.690  22.082  25.806  1.00  0.00     0.101 C 
BRANCH   8   9
ATOM      9  C   UNL A   1      32.264  21.926  25.282  1.00  0.00     0.224 C 
ATOM     10  N   UNL A   1      31.444  22.853  24.729  1.00  0.00    -0.326 N 
ATOM     11  H   UNL A   1      30.581  22.452  24.479  1.00  0.00     0.169 HD
ATOM     12  O   UNL A   1      31.742  20.802  25.399  1.00  0.00    -0.275 OA
BRANCH  10  13
ATOM     13  C   UNL A   1      31.466  24.219  24.409  1.00  0.00     0.041 A 
ATOM     14  C   UNL A   1      31.810  26.958  23.857  1.00  0.00     0.127 A 
ATOM     15  C   UNL A   1      30.888  26.553  24.805  1.00  0.00     0.049 A 
ATOM     16  C   UNL A   1      32.515  26.007  23.125  1.00  0.00     0.049 A 
ATOM     17  C   UNL A   1      30.717  25.187  25.043  1.00  0.00     0.030 A 
ATOM     18  C   UNL A   1      32.327  24.641  23.390  1.00  0.00     0.030 A 
BRANCH  14  19
ATOM     19  O   UNL A   1      32.145  28.280  23.757  1.00  0.00    -0.457 OA
BRANCH  19  20
ATOM     20  C   UNL A   1      32.434  28.979  24.907  1.00  0.00     0.127 A 
ATOM     21  C   UNL A   1      33.947  31.392  28.143  1.00  0.00     0.044 C 
ATOM     22  C   UNL A   1      33.415  30.478  27.073  1.00  0.00    -0.048 A 
ATOM     23  C   UNL A   1      32.153  30.749  26.517  1.00  0.00     0.007 A 
ATOM     24  C   UNL A   1      34.163  29.392  26.583  1.00  0.00    -0.045 A 
ATOM     25  C   UNL A   1      31.663  30.006  25.440  1.00  0.00     0.047 A 
ATOM     26  C   UNL A   1      33.658  28.652  25.501  1.00  0.00     0.050 A 
ATOM     27  C   UNL A   1      35.477  28.963  27.179  1.00  0.00     0.045 C 
ENDBRANCH  19  20
ENDBRANCH  14  19
ENDBRANCH  10  13
ENDBRANCH   8   9
ENDBRANCH   7   8
ENDBRANCH   6   7
ENDBRANCH   3   6
ENDBRANCH   1   2
BRANCH   1  28
ATOM     28  C   UNL A   1      38.781  21.679  25.746  1.00  0.00     0.023 C 
BRANCH  28  29
ATOM     29  C   UNL A   1      38.802  23.015  26.489  1.00  0.00     0.023 C 
BRANCH  29  30
ATOM     30  C   UNL A   1      40.161  23.378  27.085  1.00  0.00     0.116 C 
BRANCH  30  31
ATOM     31  N   UNL A   1      41.085  23.913  26.097  1.00  0.00    -0.352 N 
ATOM     32  C   UNL A   1      41.545  25.203  25.952  1.00  0.00     0.251 C 
ATOM     33  H   UNL A   1      41.430  23.263  25.442  1.00  0.00     0.163 HD
ATOM     34  O   UNL A   1      42.207  25.517  24.966  1.00  0.00    -0.269 OA
BRANCH  32  35
ATOM     35  C   UNL A   1      41.203  26.217  26.972  1.00  0.00     0.039 A 
ATOM     36  C   UNL A   1      40.264  25.903  27.956  1.00  0.00     0.014 A 
ATOM     37  C   UNL A   1      41.849  27.456  26.985  1.00  0.00     0.014 A 
ATOM     38  C   UNL A   1      40.035  26.800  29.002  1.00  0.00     0.010 A 
ATOM     39  C   UNL A   1      41.684  28.307  28.075  1.00  0.00     0.010 A 
ATOM     40  C   UNL A   1      40.777  27.990  29.097  1.00  0.00    -0.014 A 
BRANCH  40  41
ATOM     41  C   UNL A   1      40.617  28.912  30.254  1.00  0.00     0.031 A 
ATOM     42  C   UNL A   1      41.474  28.737  31.481  1.00  0.00     0.074 A 
ATOM     43  C   UNL A   1      39.655  29.858  30.232  1.00  0.00     0.049 A 
ATOM     44  N   UNL A   1      41.434  29.387  32.615  1.00  0.00    -0.248 NA
ATOM     45  C   UNL A   1      42.490  27.670  31.442  1.00  0.00     0.031 C 
ATOM     46  C   UNL A   1      38.713  30.086  29.130  1.00  0.00     0.029 A 
ATOM     47  N   UNL A   1      39.297  30.799  31.166  1.00  0.00    -0.354 N 
ATOM     48  C   UNL A   1      42.392  28.793  33.429  1.00  0.00     0.074 A 
ATOM     49  C   UNL A   1      42.970  27.701  32.677  1.00  0.00     0.031 C 
ATOM     50  C   UNL A   1      37.903  31.110  29.446  1.00  0.00     0.029 A 
ATOM     51  C   UNL A   1      38.239  31.591  30.781  1.00  0.00     0.049 A 
ATOM     52  H   UNL A   1      39.755  30.897  32.032  1.00  0.00     0.167 HD
ATOM     53  C   UNL A   1      42.773  29.141  34.680  1.00  0.00     0.037 A 
ATOM     54  C   UNL A   1      37.607  32.587  31.434  1.00  0.00     0.037 A 
ATOM     55  C   UNL A   1      42.240  30.267  35.400  1.00  0.00     0.049 A 
ATOM     56  C   UNL A   1      38.083  32.979  32.811  1.00  0.00     0.074 A 
ATOM     57  C   UNL A   1      42.632  30.759  36.633  1.00  0.00     0.029 A 
ATOM     58  N   UNL A   1      41.209  31.078  34.955  1.00  0.00    -0.354 N 
ATOM     59  N   UNL A   1      39.054  32.460  33.525  1.00  0.00    -0.248 NA
ATOM     60  C   UNL A   1      37.385  34.095  33.465  1.00  0.00     0.031 C 
ATOM     61  C   UNL A   1      41.808  31.841  36.954  1.00  0.00     0.029 A 
ATOM     62  C   UNL A   1      40.937  32.054  35.898  1.00  0.00     0.049 A 
ATOM     63  H   UNL A   1      40.740  30.975  34.095  1.00  0.00     0.167 HD
ATOM     64  C   UNL A   1      39.105  33.211  34.695  1.00  0.00     0.074 A 
ATOM     65  C   UNL A   1      38.079  34.226  34.587  1.00  0.00     0.031 C 
ATOM     66  C   UNL A   1      39.928  33.074  35.763  1.00  0.00     0.037 A 
BRANCH  53  67
ATOM     67  C   UNL A   1      43.831  28.316  35.357  1.00  0.00     0.058 A 
ATOM     68  C   UNL A   1      45.187  28.679  35.318  1.00  0.00     0.135 A 
ATOM     69  C   UNL A   1      43.474  27.199  36.130  1.00  0.00     0.135 A 
ATOM     70  F   UNL A   1      45.586  29.727  34.579  1.00  0.00    -0.206 F 
ATOM     71  C   UNL A   1      46.151  27.963  36.019  1.00  0.00     0.059 A 
ATOM     72  C   UNL A   1      44.418  26.484  36.860  1.00  0.00     0.059 A 
ATOM     73  F   UNL A   1      42.192  26.806  36.196  1.00  0.00    -0.206 F 
ATOM     74  C   UNL A   1      45.755  26.872  36.795  1.00  0.00     0.060 A 
BRANCH  74  75
ATOM     75  S   UNL A   1      47.012  25.990  37.745  1.00  0.00     0.124 S 
ATOM     76  O   UNL A   1      47.746  27.095  38.351  1.00  0.00    -0.237 OA
ATOM     77  O   UNL A   1      46.205  25.188  38.659  1.00  0.00    -0.237 OA
ATOM     78  O   UNL A   1      47.739  25.236  36.729  1.00  0.00    -0.744 OA
ENDBRANCH  74  75
ENDBRANCH  53  67
BRANCH  54  79
ATOM     79  C   UNL A   1      36.458  33.298  30.807  1.00  0.00     0.058 A 
ATOM     80  C   UNL A   1      36.648  34.161  29.716  1.00  0.00     0.135 A 
ATOM     81  C   UNL A   1      35.156  33.165  31.312  1.00  0.00     0.135 A 
ATOM     82  F   UNL A   1      37.875  34.324  29.198  1.00  0.00    -0.206 F 
ATOM     83  C   UNL A   1      35.601  34.902  29.178  1.00  0.00     0.059 A 
ATOM     84  C   UNL A   1      34.086  33.872  30.773  1.00  0.00     0.059 A 
ATOM     85  F   UNL A   1      34.914  32.337  32.341  1.00  0.00    -0.206 F 
ATOM     86  C   UNL A   1      34.323  34.756  29.720  1.00  0.00     0.060 A 
BRANCH  86  87
ATOM     87  S   UNL A   1      32.967  35.724  29.022  1.00  0.00     0.124 S 
ATOM     88  O   UNL A   1      32.353  34.758  28.119  1.00  0.00    -0.237 OA
ATOM     89  O   UNL A   1      32.193  36.072  30.209  1.00  0.00    -0.237 OA
ATOM     90  O   UNL A   1      33.653  36.843  28.380  1.00  0.00    -0.744 OA
ENDBRANCH  86  87
ENDBRANCH  54  79
BRANCH  66  91
ATOM     91  C   UNL A   1      39.793  34.072  36.879  1.00  0.00     0.058 A 
ATOM     92  C   UNL A   1      40.380  35.345  36.808  1.00  0.00     0.135 A 
ATOM     93  C   UNL A   1      39.019  33.768  38.010  1.00  0.00     0.135 A 
ATOM     94  F   UNL A   1      41.134  35.684  35.749  1.00  0.00    -0.206 F 
ATOM     95  C   UNL A   1      40.226  36.272  37.833  1.00  0.00     0.059 A 
ATOM     96  C   UNL A   1      38.828  34.690  39.033  1.00  0.00     0.059 A 
ATOM     97  F   UNL A   1      38.425  32.569  38.120  1.00  0.00    -0.206 F 
ATOM     98  C   UNL A   1      39.447  35.935  38.941  1.00  0.00     0.060 A 
BRANCH  98  99
ATOM     99  S   UNL A   1      39.229  37.158  40.251  1.00  0.00     0.124 S 
ATOM    100  O   UNL A   1      40.603  37.347  40.707  1.00  0.00    -0.237 OA
ATOM    101  O   UNL A   1      38.639  38.284  39.534  1.00  0.00    -0.237 OA
ATOM    102  O   UNL A   1      38.340  36.489  41.196  1.00  0.00    -0.744 OA
ENDBRANCH  98  99
ENDBRANCH  66  91
ENDBRANCH  40  41
ENDBRANCH  32  35
ENDBRANCH  30  31
ENDBRANCH  29  30
ENDBRANCH  28  29
ENDBRANCH   1  28
TORSDOF 20
ENDMDL
MODEL 3
REMARK VINA RESULT:     -11.6      1.553      2.910
REMARK SMILES Cc1ccc(Oc2ccc(NC(=O)CCCC(=O)NCCCCNC(=O)c3ccc(-c4c5nc(c(-c6c(F)cc(S(=O)(=O)[O-])cc6F)c6ccc([nH]6)c(-c6c(F)cc(S(=O)(=O)[O-])cc6F)c6nc(c(-c7c(F)cc(S(=O)(=O)[O-])cc7F)c7ccc4[nH]7)C=C6)C=C5)cc3)cc2)cc1C
REMARK SMILES IDX 20 1 19 2 17 3 18 4 16 6 15 7 14 8 12 9 11 10 13 12 10 13
REMARK SMILES IDX 7 14 8 15 94 16 9 17 93 18 6 19 5 20 1 21 2 22 3 23 96 24
REMARK SMILES IDX 4 25 95 26 97 27 21 28 22 29 23 30 24 31 25 32 26 34 27 35
REMARK SMILES IDX 28 36 92 37 29 38 91 39 30 40 31 41 32 42 85 43 33 44 90 45
REMARK SMILES IDX 84 46 86 47 34 48 89 49 83 50 82 51 35 53 69 54 48 55 68 56
REMARK SMILES IDX 49 57 52 58 67 59 87 60 50 61 51 62 66 64 88 65 53 66 36 67
REMARK SMILES IDX 37 68 46 69 38 70 39 71 45 72 47 73 40 74 41 75 42 76 43 77
REMARK SMILES IDX 44 78 70 79 71 80 80 81 72 82 73 83 79 84 81 85 74 86 75 87
REMARK SMILES IDX 76 88 77 89 78 90 54 91 55 92 64 93 56 94 57 95 63 96 65 97
REMARK SMILES IDX 58 98 59 99 60 100 61 101 62 102
REMARK H PARENT 19 5 11 11 24 33 86 52 52 63
REMARK Flexibility Score: inf
ROOT
ATOM      1  C   UNL A   1      44.691  21.731  25.867  1.00  0.00     0.116 C 
ENDROOT
BRANCH   1   2
ATOM      2  N   UNL A   1      44.746  20.392  25.307  1.00  0.00    -0.356 N 
ATOM      3  C   UNL A   1      44.005  19.263  25.326  1.00  0.00     0.220 C 
ATOM      4  O   UNL A   1      44.292  18.452  24.432  1.00  0.00    -0.275 OA
ATOM      5  H   UNL A   1      45.554  20.273  24.757  1.00  0.00     0.163 HD
BRANCH   3   6
ATOM      6  C   UNL A   1      42.838  18.917  26.250  1.00  0.00     0.100 C 
BRANCH   6   7
ATOM      7  C   UNL A   1      41.437  19.475  26.042  1.00  0.00     0.020 C 
BRANCH   7   8
ATOM      8  C   UNL A   1      40.834  20.522  26.973  1.00  0.00     0.101 C 
BRANCH   8   9
ATOM      9  C   UNL A   1      40.727  21.998  26.599  1.00  0.00     0.224 C 
ATOM     10  N   UNL A   1      39.668  22.685  26.103  1.00  0.00    -0.326 N 
ATOM     11  H   UNL A   1      39.899  23.632  25.967  1.00  0.00     0.169 HD
ATOM     12  O   UNL A   1      41.756  22.687  26.724  1.00  0.00    -0.275 OA
BRANCH  10  13
ATOM     13  C   UNL A   1      38.339  22.441  25.726  1.00  0.00     0.041 A 
ATOM     14  C   UNL A   1      35.597  21.997  25.272  1.00  0.00     0.127 A 
ATOM     15  C   UNL A   1      36.513  20.993  25.016  1.00  0.00     0.049 A 
ATOM     16  C   UNL A   1      36.039  23.250  25.686  1.00  0.00     0.049 A 
ATOM     17  C   UNL A   1      37.870  21.246  25.225  1.00  0.00     0.030 A 
ATOM     18  C   UNL A   1      37.410  23.474  25.893  1.00  0.00     0.030 A 
BRANCH  14  19
ATOM     19  O   UNL A   1      34.260  21.710  25.279  1.00  0.00    -0.457 OA
BRANCH  19  20
ATOM     20  C   UNL A   1      33.364  22.731  25.493  1.00  0.00     0.127 A 
ATOM     21  C   UNL A   1      30.066  25.488  25.829  1.00  0.00     0.044 C 
ATOM     22  C   UNL A   1      31.266  24.594  25.670  1.00  0.00    -0.048 A 
ATOM     23  C   UNL A   1      31.921  24.129  26.824  1.00  0.00     0.007 A 
ATOM     24  C   UNL A   1      31.718  24.174  24.406  1.00  0.00    -0.045 A 
ATOM     25  C   UNL A   1      32.964  23.203  26.739  1.00  0.00     0.047 A 
ATOM     26  C   UNL A   1      32.769  23.245  24.336  1.00  0.00     0.050 A 
ATOM     27  C   UNL A   1      31.147  24.694  23.114  1.00  0.00     0.045 C 
ENDBRANCH  19  20
ENDBRANCH  14  19
ENDBRANCH  10  13
ENDBRANCH   8   9
ENDBRANCH   7   8
ENDBRANCH   6   7
ENDBRANCH   3   6
ENDBRANCH   1   2
BRANCH   1  28
ATOM     28  C   UNL A   1      44.841  22.826  24.812  1.00  0.00     0.023 C 
BRANCH  28  29
ATOM     29  C   UNL A   1      45.457  24.097  25.398  1.00  0.00     0.023 C 
BRANCH  29  30
ATOM     30  C   UNL A   1      44.443  25.047  26.034  1.00  0.00     0.116 C 
BRANCH  30  31
ATOM     31  N   UNL A   1      43.187  25.103  25.303  1.00  0.00    -0.352 N 
ATOM     32  C   UNL A   1      41.986  25.655  25.688  1.00  0.00     0.251 C 
ATOM     33  H   UNL A   1      43.197  24.691  24.409  1.00  0.00     0.163 HD
ATOM     34  O   UNL A   1      40.978  25.481  25.008  1.00  0.00    -0.269 OA
BRANCH  32  35
ATOM     35  C   UNL A   1      41.909  26.427  26.947  1.00  0.00     0.039 A 
ATOM     36  C   UNL A   1      42.553  27.663  27.028  1.00  0.00     0.014 A 
ATOM     37  C   UNL A   1      41.160  25.952  28.026  1.00  0.00     0.014 A 
ATOM     38  C   UNL A   1      42.374  28.461  28.161  1.00  0.00     0.010 A 
ATOM     39  C   UNL A   1      40.912  26.786  29.114  1.00  0.00     0.010 A 
ATOM     40  C   UNL A   1      41.514  28.051  29.194  1.00  0.00    -0.014 A 
BRANCH  40  41
ATOM     41  C   UNL A   1      41.235  28.928  30.363  1.00  0.00     0.031 A 
ATOM     42  C   UNL A   1      42.051  28.786  31.622  1.00  0.00     0.074 A 
ATOM     43  C   UNL A   1      40.205  29.799  30.320  1.00  0.00     0.049 A 
ATOM     44  N   UNL A   1      41.913  29.402  32.768  1.00  0.00    -0.248 NA
ATOM     45  C   UNL A   1      43.146  27.800  31.604  1.00  0.00     0.031 C 
ATOM     46  C   UNL A   1      39.296  29.983  29.184  1.00  0.00     0.029 A 
ATOM     47  N   UNL A   1      39.737  30.685  31.259  1.00  0.00    -0.354 N 
ATOM     48  C   UNL A   1      42.879  28.861  33.609  1.00  0.00     0.074 A 
ATOM     49  C   UNL A   1      43.569  27.836  32.859  1.00  0.00     0.031 C 
ATOM     50  C   UNL A   1      38.397  30.935  29.486  1.00  0.00     0.029 A 
ATOM     51  C   UNL A   1      38.639  31.405  30.846  1.00  0.00     0.049 A 
ATOM     52  H   UNL A   1      40.149  30.796  32.146  1.00  0.00     0.167 HD
ATOM     53  C   UNL A   1      43.179  29.205  34.884  1.00  0.00     0.037 A 
ATOM     54  C   UNL A   1      37.905  32.333  31.493  1.00  0.00     0.037 A 
ATOM     55  C   UNL A   1      42.531  30.269  35.605  1.00  0.00     0.049 A 
ATOM     56  C   UNL A   1      38.291  32.724  32.897  1.00  0.00     0.074 A 
ATOM     57  C   UNL A   1      42.833  30.756  36.865  1.00  0.00     0.029 A 
ATOM     58  N   UNL A   1      41.461  31.010  35.133  1.00  0.00    -0.354 N 
ATOM     59  N   UNL A   1      39.268  32.262  33.641  1.00  0.00    -0.248 NA
ATOM     60  C   UNL A   1      37.483  33.767  33.545  1.00  0.00     0.031 C 
ATOM     61  C   UNL A   1      41.915  31.765  37.173  1.00  0.00     0.029 A 
ATOM     62  C   UNL A   1      41.075  31.939  36.085  1.00  0.00     0.049 A 
ATOM     63  H   UNL A   1      41.037  30.895  34.251  1.00  0.00     0.167 HD
ATOM     64  C   UNL A   1      39.213  32.985  34.829  1.00  0.00     0.074 A 
ATOM     65  C   UNL A   1      38.117  33.921  34.699  1.00  0.00     0.031 C 
ATOM     66  C   UNL A   1      39.998  32.882  35.929  1.00  0.00     0.037 A 
BRANCH  53  67
ATOM     67  C   UNL A   1      44.268  28.445  35.588  1.00  0.00     0.058 A 
ATOM     68  C   UNL A   1      43.993  27.300  36.352  1.00  0.00     0.135 A 
ATOM     69  C   UNL A   1      45.613  28.815  35.421  1.00  0.00     0.135 A 
ATOM     70  F   UNL A   1      42.724  26.913  36.559  1.00  0.00    -0.206 F 
ATOM     71  C   UNL A   1      45.012  26.550  36.928  1.00  0.00     0.059 A 
ATOM     72  C   UNL A   1      46.649  28.065  35.968  1.00  0.00     0.059 A 
ATOM     73  F   UNL A   1      45.929  29.905  34.705  1.00  0.00    -0.206 F 
ATOM     74  C   UNL A   1      46.338  26.935  36.723  1.00  0.00     0.060 A 
BRANCH  74  75
ATOM     75  S   UNL A   1      47.650  25.916  37.429  1.00  0.00     0.124 S 
ATOM     76  O   UNL A   1      48.707  26.902  37.632  1.00  0.00    -0.237 OA
ATOM     77  O   UNL A   1      47.025  25.400  38.643  1.00  0.00    -0.237 OA
ATOM     78  O   UNL A   1      47.908  24.924  36.390  1.00  0.00    -0.744 OA
ENDBRANCH  74  75
ENDBRANCH  53  67
BRANCH  54  79
ATOM     79  C   UNL A   1      36.733  32.971  30.832  1.00  0.00     0.058 A 
ATOM     80  C   UNL A   1      36.903  33.907  29.800  1.00  0.00     0.135 A 
ATOM     81  C   UNL A   1      35.422  32.693  31.247  1.00  0.00     0.135 A 
ATOM     82  F   UNL A   1      38.137  34.210  29.368  1.00  0.00    -0.206 F 
ATOM     83  C   UNL A   1      35.824  34.579  29.236  1.00  0.00     0.059 A 
ATOM     84  C   UNL A   1      34.323  33.329  30.678  1.00  0.00     0.059 A 
ATOM     85  F   UNL A   1      35.200  31.790  32.215  1.00  0.00    -0.206 F 
ATOM     86  C   UNL A   1      34.536  34.288  29.689  1.00  0.00     0.060 A 
BRANCH  86  87
ATOM     87  S   UNL A   1      33.138  35.167  28.957  1.00  0.00     0.124 S 
ATOM     88  O   UNL A   1      32.652  34.190  27.990  1.00  0.00    -0.237 OA
ATOM     89  O   UNL A   1      32.282  35.403  30.114  1.00  0.00    -0.237 OA
ATOM     90  O   UNL A   1      33.756  36.364  28.391  1.00  0.00    -0.744 OA
ENDBRANCH  86  87
ENDBRANCH  54  79
BRANCH  66  91
ATOM     91  C   UNL A   1      39.740  33.839  37.060  1.00  0.00     0.058 A 
ATOM     92  C   UNL A   1      38.994  33.467  38.189  1.00  0.00     0.135 A 
ATOM     93  C   UNL A   1      40.296  35.128  37.035  1.00  0.00     0.135 A 
ATOM     94  F   UNL A   1      38.439  32.246  38.259  1.00  0.00    -0.206 F 
ATOM     95  C   UNL A   1      38.785  34.350  39.242  1.00  0.00     0.059 A 
ATOM     96  C   UNL A   1      40.123  36.017  38.090  1.00  0.00     0.059 A 
ATOM     97  F   UNL A   1      41.029  35.529  35.984  1.00  0.00    -0.206 F 
ATOM     98  C   UNL A   1      39.354  35.623  39.184  1.00  0.00     0.060 A 
BRANCH  98  99
ATOM     99  S   UNL A   1      39.101  36.750  40.571  1.00  0.00     0.124 S 
ATOM    100  O   UNL A   1      38.619  37.948  39.891  1.00  0.00    -0.237 OA
ATOM    101  O   UNL A   1      38.114  36.038  41.377  1.00  0.00    -0.237 OA
ATOM    102  O   UNL A   1      40.429  36.858  41.168  1.00  0.00    -0.744 OA
ENDBRANCH  98  99
ENDBRANCH  66  91
ENDBRANCH  40  41
ENDBRANCH  32  35
ENDBRANCH  30  31
ENDBRANCH  29  30
ENDBRANCH  28  29
ENDBRANCH   1  28
TORSDOF 20
ENDMDL
