MODEL 1
REMARK VINA RESULT:     -10.7      0.000      0.000
REMARK SMILES COc1ccc(OCc2nc(N)cc(SCC(=O)NCCCCNC(=O)c3ccc(-c4c5nc(c(-c6c(F)cc(S(=O)(=O)[O-])cc6F)c6ccc([nH]6)c(-c6c(F)cc(S(=O)(=O)[O-])cc6F)c6nc(c(-c7c(F)cc(S(=O)(=O)[O-])cc7F)c7ccc4[nH]7)C=C6)C=C5)cc3)n2)cc1
REMARK SMILES IDX 20 1 19 2 17 3 18 4 16 6 15 7 14 8 9 9 10 10 93 11 11 12
REMARK SMILES IDX 13 13 8 14 7 15 6 16 3 17 4 18 95 19 5 20 94 21 2 22 1 23
REMARK SMILES IDX 12 24 21 27 22 28 23 29 24 30 25 31 26 33 27 34 28 35 92 36
REMARK SMILES IDX 29 37 91 38 30 39 31 40 32 41 85 42 33 43 90 44 84 45 86 46
REMARK SMILES IDX 34 47 89 48 83 49 82 50 35 52 69 53 48 54 68 55 49 56 52 57
REMARK SMILES IDX 67 58 87 59 50 60 51 61 66 63 88 64 53 65 36 66 37 67 46 68
REMARK SMILES IDX 38 69 39 70 45 71 47 72 40 73 41 74 42 75 43 76 44 77 70 78
REMARK SMILES IDX 71 79 80 80 72 81 73 82 79 83 81 84 74 85 75 86 76 87 77 88
REMARK SMILES IDX 78 89 54 90 55 91 64 92 56 93 57 94 63 95 65 96 58 97 59 98
REMARK SMILES IDX 60 99 61 100 62 101
REMARK H PARENT 19 5 12 25 12 26 24 32 86 51 52 62
REMARK Flexibility Score: inf
ROOT
ATOM      1  C   UNL A   1      44.485  21.975  24.430  1.00  0.00     0.116 C 
ENDROOT
BRANCH   1   2
ATOM      2  N   UNL A   1      44.918  20.749  23.787  1.00  0.00    -0.355 N 
ATOM      3  C   UNL A   1      45.010  19.495  24.307  1.00  0.00     0.230 C 
ATOM      4  O   UNL A   1      45.488  18.601  23.603  1.00  0.00    -0.274 OA
ATOM      5  H   UNL A   1      45.182  20.837  22.842  1.00  0.00     0.163 HD
BRANCH   3   6
ATOM      6  C   UNL A   1      44.467  19.184  25.689  1.00  0.00     0.176 C 
BRANCH   6   7
ATOM      7  S   UNL A   1      42.663  18.950  25.749  1.00  0.00    -0.096 SA
BRANCH   7   8
ATOM      8  C   UNL A   1      42.052  20.401  26.583  1.00  0.00     0.102 A 
ATOM      9  C   UNL A   1      40.319  21.899  26.722  1.00  0.00     0.169 A 
ATOM     10  N   UNL A   1      40.851  22.485  27.810  1.00  0.00    -0.213 NA
ATOM     11  N   UNL A   1      40.880  20.854  26.092  1.00  0.00    -0.223 NA
ATOM     12  C   UNL A   1      42.043  22.066  28.221  1.00  0.00     0.128 A 
ATOM     13  C   UNL A   1      42.674  20.984  27.664  1.00  0.00     0.082 A 
BRANCH   9  14
ATOM     14  C   UNL A   1      38.993  22.444  26.214  1.00  0.00     0.306 C 
BRANCH  14  15
ATOM     15  O   UNL A   1      38.152  21.496  25.533  1.00  0.00    -0.486 OA
BRANCH  15  16
ATOM     16  C   UNL A   1      36.815  21.770  25.434  1.00  0.00     0.120 A 
ATOM     17  C   UNL A   1      34.126  22.533  25.547  1.00  0.00     0.119 A 
ATOM     18  C   UNL A   1      35.125  23.497  25.647  1.00  0.00     0.050 A 
ATOM     19  C   UNL A   1      34.462  21.210  25.281  1.00  0.00     0.050 A 
ATOM     20  C   UNL A   1      36.468  23.113  25.600  1.00  0.00     0.050 A 
ATOM     21  C   UNL A   1      35.806  20.836  25.200  1.00  0.00     0.050 A 
BRANCH  17  22
ATOM     22  O   UNL A   1      32.827  22.948  25.649  1.00  0.00    -0.497 OA
ATOM     23  C   UNL A   1      32.168  22.958  24.381  1.00  0.00     0.278 C 
ENDBRANCH  17  22
ENDBRANCH  15  16
ENDBRANCH  14  15
ENDBRANCH   9  14
BRANCH  12  24
ATOM     24  N   UNL A   1      42.600  22.750  29.286  1.00  0.00    -0.384 N 
ATOM     25  H   UNL A   1      43.348  22.355  29.787  1.00  0.00     0.158 HD
ATOM     26  H   UNL A   1      42.247  23.633  29.543  1.00  0.00     0.158 HD
ENDBRANCH  12  24
ENDBRANCH   7   8
ENDBRANCH   6   7
ENDBRANCH   3   6
ENDBRANCH   1   2
BRANCH   1  27
ATOM     27  C   UNL A   1      45.637  22.649  25.174  1.00  0.00     0.023 C 
BRANCH  27  28
ATOM     28  C   UNL A   1      45.288  23.133  26.585  1.00  0.00     0.023 C 
BRANCH  28  29
ATOM     29  C   UNL A   1      44.802  24.576  26.679  1.00  0.00     0.116 C 
BRANCH  29  30
ATOM     30  N   UNL A   1      43.765  24.889  25.708  1.00  0.00    -0.352 N 
ATOM     31  C   UNL A   1      42.654  25.682  25.855  1.00  0.00     0.251 C 
ATOM     32  H   UNL A   1      43.877  24.475  24.821  1.00  0.00     0.163 HD
ATOM     33  O   UNL A   1      41.812  25.726  24.961  1.00  0.00    -0.269 OA
BRANCH  31  34
ATOM     34  C   UNL A   1      42.459  26.455  27.101  1.00  0.00     0.039 A 
ATOM     35  C   UNL A   1      43.148  27.660  27.261  1.00  0.00     0.014 A 
ATOM     36  C   UNL A   1      41.594  26.002  28.100  1.00  0.00     0.014 A 
ATOM     37  C   UNL A   1      42.917  28.443  28.394  1.00  0.00     0.010 A 
ATOM     38  C   UNL A   1      41.310  26.818  29.193  1.00  0.00     0.010 A 
ATOM     39  C   UNL A   1      41.969  28.047  29.352  1.00  0.00    -0.014 A 
BRANCH  39  40
ATOM     40  C   UNL A   1      41.646  28.910  30.518  1.00  0.00     0.031 A 
ATOM     41  C   UNL A   1      42.438  28.791  31.793  1.00  0.00     0.074 A 
ATOM     42  C   UNL A   1      40.600  29.757  30.451  1.00  0.00     0.049 A 
ATOM     43  N   UNL A   1      42.265  29.409  32.933  1.00  0.00    -0.248 NA
ATOM     44  C   UNL A   1      43.554  27.831  31.796  1.00  0.00     0.031 C 
ATOM     45  C   UNL A   1      39.722  29.926  29.291  1.00  0.00     0.029 A 
ATOM     46  N   UNL A   1      40.085  30.625  31.381  1.00  0.00    -0.354 N 
ATOM     47  C   UNL A   1      43.237  28.906  33.790  1.00  0.00     0.074 A 
ATOM     48  C   UNL A   1      43.963  27.893  33.054  1.00  0.00     0.031 C 
ATOM     49  C   UNL A   1      38.794  30.855  29.570  1.00  0.00     0.029 A 
ATOM     50  C   UNL A   1      38.982  31.319  30.942  1.00  0.00     0.049 A 
ATOM     51  H   UNL A   1      40.471  30.742  32.280  1.00  0.00     0.167 HD
ATOM     52  C   UNL A   1      43.514  29.270  35.064  1.00  0.00     0.037 A 
ATOM     53  C   UNL A   1      38.202  32.219  31.573  1.00  0.00     0.037 A 
ATOM     54  C   UNL A   1      42.802  30.297  35.782  1.00  0.00     0.049 A 
ATOM     55  C   UNL A   1      38.532  32.610  32.988  1.00  0.00     0.074 A 
ATOM     56  C   UNL A   1      43.048  30.783  37.055  1.00  0.00     0.029 A 
ATOM     57  N   UNL A   1      41.706  30.994  35.294  1.00  0.00    -0.354 N 
ATOM     58  N   UNL A   1      39.498  32.173  33.760  1.00  0.00    -0.248 NA
ATOM     59  C   UNL A   1      37.672  33.623  33.616  1.00  0.00     0.031 C 
ATOM     60  C   UNL A   1      42.070  31.736  37.355  1.00  0.00     0.029 A 
ATOM     61  C   UNL A   1      41.250  31.888  36.248  1.00  0.00     0.049 A 
ATOM     62  H   UNL A   1      41.312  30.871  34.400  1.00  0.00     0.167 HD
ATOM     63  C   UNL A   1      39.380  32.875  34.954  1.00  0.00     0.074 A 
ATOM     64  C   UNL A   1      38.257  33.777  34.796  1.00  0.00     0.031 C 
ATOM     65  C   UNL A   1      40.133  32.785  36.077  1.00  0.00     0.037 A 
BRANCH  52  66
ATOM     66  C   UNL A   1      44.636  28.557  35.770  1.00  0.00     0.058 A 
ATOM     67  C   UNL A   1      44.410  27.406  36.541  1.00  0.00     0.135 A 
ATOM     68  C   UNL A   1      45.962  29.002  35.634  1.00  0.00     0.135 A 
ATOM     69  F   UNL A   1      43.162  26.944  36.717  1.00  0.00    -0.206 F 
ATOM     70  C   UNL A   1      45.453  26.737  37.174  1.00  0.00     0.059 A 
ATOM     71  C   UNL A   1      47.024  28.331  36.234  1.00  0.00     0.059 A 
ATOM     72  F   UNL A   1      46.236  30.098  34.908  1.00  0.00    -0.206 F 
ATOM     73  C   UNL A   1      46.758  27.207  37.012  1.00  0.00     0.060 A 
BRANCH  73  74
ATOM     74  S   UNL A   1      48.099  26.319  37.830  1.00  0.00     0.124 S 
ATOM     75  O   UNL A   1      49.156  27.326  37.834  1.00  0.00    -0.237 OA
ATOM     76  O   UNL A   1      47.517  26.005  39.132  1.00  0.00    -0.237 OA
ATOM     77  O   UNL A   1      48.330  25.171  36.958  1.00  0.00    -0.744 OA
ENDBRANCH  73  74
ENDBRANCH  52  66
BRANCH  53  78
ATOM     78  C   UNL A   1      37.043  32.824  30.863  1.00  0.00     0.058 A 
ATOM     79  C   UNL A   1      35.730  32.419  31.145  1.00  0.00     0.135 A 
ATOM     80  C   UNL A   1      37.223  33.831  29.901  1.00  0.00     0.135 A 
ATOM     81  F   UNL A   1      35.506  31.455  32.052  1.00  0.00    -0.206 F 
ATOM     82  C   UNL A   1      34.638  32.974  30.487  1.00  0.00     0.059 A 
ATOM     83  C   UNL A   1      36.145  34.421  29.249  1.00  0.00     0.059 A 
ATOM     84  F   UNL A   1      38.458  34.266  29.606  1.00  0.00    -0.206 F 
ATOM     85  C   UNL A   1      34.856  33.979  29.542  1.00  0.00     0.060 A 
BRANCH  85  86
ATOM     86  S   UNL A   1      33.427  34.727  28.729  1.00  0.00     0.124 S 
ATOM     87  O   UNL A   1      32.509  34.899  29.850  1.00  0.00    -0.237 OA
ATOM     88  O   UNL A   1      33.996  35.952  28.177  1.00  0.00    -0.237 OA
ATOM     89  O   UNL A   1      33.039  33.724  27.743  1.00  0.00    -0.744 OA
ENDBRANCH  85  86
ENDBRANCH  53  78
BRANCH  65  90
ATOM     90  C   UNL A   1      39.796  33.708  37.218  1.00  0.00     0.058 A 
ATOM     91  C   UNL A   1      38.984  33.298  38.286  1.00  0.00     0.135 A 
ATOM     92  C   UNL A   1      40.339  35.002  37.266  1.00  0.00     0.135 A 
ATOM     93  F   UNL A   1      38.435  32.072  38.287  1.00  0.00    -0.206 F 
ATOM     94  C   UNL A   1      38.701  34.148  39.351  1.00  0.00     0.059 A 
ATOM     95  C   UNL A   1      40.093  35.858  38.335  1.00  0.00     0.059 A 
ATOM     96  F   UNL A   1      41.132  35.441  36.275  1.00  0.00    -0.206 F 
ATOM     97  C   UNL A   1      39.262  35.427  39.367  1.00  0.00     0.060 A 
BRANCH  97  98
ATOM     98  S   UNL A   1      38.914  36.507  40.770  1.00  0.00     0.124 S 
ATOM     99  O   UNL A   1      40.208  36.543  41.442  1.00  0.00    -0.237 OA
ATOM    100  O   UNL A   1      38.504  37.746  40.117  1.00  0.00    -0.237 OA
ATOM    101  O   UNL A   1      37.854  35.803  41.486  1.00  0.00    -0.744 OA
ENDBRANCH  97  98
ENDBRANCH  65  90
ENDBRANCH  39  40
ENDBRANCH  31  34
ENDBRANCH  29  30
ENDBRANCH  28  29
ENDBRANCH  27  28
ENDBRANCH   1  27
TORSDOF 21
ENDMDL
MODEL 2
REMARK VINA RESULT:     -10.7      6.370     12.701
REMARK SMILES COc1ccc(OCc2nc(N)cc(SCC(=O)NCCCCNC(=O)c3ccc(-c4c5nc(c(-c6c(F)cc(S(=O)(=O)[O-])cc6F)c6ccc([nH]6)c(-c6c(F)cc(S(=O)(=O)[O-])cc6F)c6nc(c(-c7c(F)cc(S(=O)(=O)[O-])cc7F)c7ccc4[nH]7)C=C6)C=C5)cc3)n2)cc1
REMARK SMILES IDX 20 1 19 2 17 3 18 4 16 6 15 7 14 8 9 9 10 10 93 11 11 12
REMARK SMILES IDX 13 13 8 14 7 15 6 16 3 17 4 18 95 19 5 20 94 21 2 22 1 23
REMARK SMILES IDX 12 24 21 27 22 28 23 29 24 30 25 31 26 33 27 34 28 35 92 36
REMARK SMILES IDX 29 37 91 38 30 39 31 40 32 41 85 42 33 43 90 44 84 45 86 46
REMARK SMILES IDX 34 47 89 48 83 49 82 50 35 52 69 53 48 54 68 55 49 56 52 57
REMARK SMILES IDX 67 58 87 59 50 60 51 61 66 63 88 64 53 65 36 66 37 67 46 68
REMARK SMILES IDX 38 69 39 70 45 71 47 72 40 73 41 74 42 75 43 76 44 77 70 78
REMARK SMILES IDX 71 79 80 80 72 81 73 82 79 83 81 84 74 85 75 86 76 87 77 88
REMARK SMILES IDX 78 89 54 90 55 91 64 92 56 93 57 94 63 95 65 96 58 97 59 98
REMARK SMILES IDX 60 99 61 100 62 101
REMARK H PARENT 19 5 12 25 12 26 24 32 86 51 52 62
REMARK Flexibility Score: inf
ROOT
ATOM      1  C   UNL A   1      32.397  30.165  25.888  1.00  0.00     0.116 C 
ENDROOT
BRANCH   1   2
ATOM      2  N   UNL A   1      33.270  29.699  24.827  1.00  0.00    -0.355 N 
ATOM      3  C   UNL A   1      32.959  28.975  23.718  1.00  0.00     0.230 C 
ATOM      4  O   UNL A   1      33.877  28.609  22.980  1.00  0.00    -0.274 OA
ATOM      5  H   UNL A   1      34.220  29.941  24.924  1.00  0.00     0.163 HD
BRANCH   3   6
ATOM      6  C   UNL A   1      31.514  28.693  23.353  1.00  0.00     0.176 C 
BRANCH   6   7
ATOM      7  S   UNL A   1      31.268  27.178  22.375  1.00  0.00    -0.096 SA
BRANCH   7   8
ATOM      8  C   UNL A   1      31.123  25.882  23.588  1.00  0.00     0.102 A 
ATOM      9  C   UNL A   1      31.954  23.859  24.286  1.00  0.00     0.169 A 
ATOM     10  N   UNL A   1      31.200  23.881  25.399  1.00  0.00    -0.213 NA
ATOM     11  N   UNL A   1      31.952  24.840  23.368  1.00  0.00    -0.223 NA
ATOM     12  C   UNL A   1      30.337  24.882  25.547  1.00  0.00     0.128 A 
ATOM     13  C   UNL A   1      30.290  25.943  24.682  1.00  0.00     0.082 A 
BRANCH   9  14
ATOM     14  C   UNL A   1      32.876  22.666  24.091  1.00  0.00     0.306 C 
BRANCH  14  15
ATOM     15  O   UNL A   1      34.103  22.937  23.390  1.00  0.00    -0.486 OA
BRANCH  15  16
ATOM     16  C   UNL A   1      35.248  23.092  24.122  1.00  0.00     0.120 A 
ATOM     17  C   UNL A   1      37.535  23.050  25.732  1.00  0.00     0.119 A 
ATOM     18  C   UNL A   1      37.319  22.031  24.809  1.00  0.00     0.050 A 
ATOM     19  C   UNL A   1      36.674  24.142  25.776  1.00  0.00     0.050 A 
ATOM     20  C   UNL A   1      36.170  22.048  24.012  1.00  0.00     0.050 A 
ATOM     21  C   UNL A   1      35.545  24.172  24.954  1.00  0.00     0.050 A 
BRANCH  17  22
ATOM     22  O   UNL A   1      38.646  22.967  26.527  1.00  0.00    -0.497 OA
ATOM     23  C   UNL A   1      39.515  21.909  26.120  1.00  0.00     0.278 C 
ENDBRANCH  17  22
ENDBRANCH  15  16
ENDBRANCH  14  15
ENDBRANCH   9  14
BRANCH  12  24
ATOM     24  N   UNL A   1      29.515  24.824  26.657  1.00  0.00    -0.384 N 
ATOM     25  H   UNL A   1      28.686  25.353  26.683  1.00  0.00     0.158 HD
ATOM     26  H   UNL A   1      29.760  24.254  27.422  1.00  0.00     0.158 HD
ENDBRANCH  12  24
ENDBRANCH   7   8
ENDBRANCH   6   7
ENDBRANCH   3   6
ENDBRANCH   1   2
BRANCH   1  27
ATOM     27  C   UNL A   1      33.196  30.576  27.125  1.00  0.00     0.023 C 
BRANCH  27  28
ATOM     28  C   UNL A   1      34.527  29.837  27.297  1.00  0.00     0.023 C 
BRANCH  28  29
ATOM     29  C   UNL A   1      35.637  30.639  27.968  1.00  0.00     0.116 C 
BRANCH  29  30
ATOM     30  N   UNL A   1      35.521  30.663  29.418  1.00  0.00    -0.352 N 
ATOM     31  C   UNL A   1      36.397  30.191  30.363  1.00  0.00     0.251 C 
ATOM     32  H   UNL A   1      34.699  31.078  29.770  1.00  0.00     0.163 HD
ATOM     33  O   UNL A   1      36.069  30.178  31.548  1.00  0.00    -0.269 OA
BRANCH  31  34
ATOM     34  C   UNL A   1      37.717  29.668  29.950  1.00  0.00     0.039 A 
ATOM     35  C   UNL A   1      38.089  29.765  28.607  1.00  0.00     0.014 A 
ATOM     36  C   UNL A   1      38.589  29.098  30.881  1.00  0.00     0.014 A 
ATOM     37  C   UNL A   1      39.362  29.350  28.210  1.00  0.00     0.010 A 
ATOM     38  C   UNL A   1      39.883  28.754  30.497  1.00  0.00     0.010 A 
ATOM     39  C   UNL A   1      40.284  28.876  29.158  1.00  0.00    -0.014 A 
BRANCH  39  40
ATOM     40  C   UNL A   1      41.672  28.514  28.768  1.00  0.00     0.031 A 
ATOM     41  C   UNL A   1      42.746  29.567  28.721  1.00  0.00     0.074 A 
ATOM     42  C   UNL A   1      41.950  27.249  28.396  1.00  0.00     0.049 A 
ATOM     43  N   UNL A   1      43.994  29.457  28.344  1.00  0.00    -0.248 NA
ATOM     44  C   UNL A   1      42.361  30.929  29.124  1.00  0.00     0.031 C 
ATOM     45  C   UNL A   1      40.984  26.149  28.348  1.00  0.00     0.029 A 
ATOM     46  N   UNL A   1      43.124  26.674  27.974  1.00  0.00    -0.354 N 
ATOM     47  C   UNL A   1      44.538  30.731  28.451  1.00  0.00     0.074 A 
ATOM     48  C   UNL A   1      43.471  31.610  28.877  1.00  0.00     0.031 C 
ATOM     49  C   UNL A   1      41.607  25.030  27.943  1.00  0.00     0.029 A 
ATOM     50  C   UNL A   1      43.006  25.340  27.661  1.00  0.00     0.049 A 
ATOM     51  H   UNL A   1      43.971  27.171  27.902  1.00  0.00     0.167 HD
ATOM     52  C   UNL A   1      45.815  31.129  28.236  1.00  0.00     0.037 A 
ATOM     53  C   UNL A   1      43.917  24.464  27.191  1.00  0.00     0.037 A 
ATOM     54  C   UNL A   1      46.878  30.243  27.836  1.00  0.00     0.049 A 
ATOM     55  C   UNL A   1      45.331  24.930  26.963  1.00  0.00     0.074 A 
ATOM     56  C   UNL A   1      48.219  30.538  27.654  1.00  0.00     0.029 A 
ATOM     57  N   UNL A   1      46.725  28.894  27.553  1.00  0.00    -0.354 N 
ATOM     58  N   UNL A   1      45.843  26.124  27.135  1.00  0.00    -0.248 NA
ATOM     59  C   UNL A   1      46.292  23.926  26.487  1.00  0.00     0.031 C 
ATOM     60  C   UNL A   1      48.865  29.379  27.212  1.00  0.00     0.029 A 
ATOM     61  C   UNL A   1      47.940  28.347  27.176  1.00  0.00     0.049 A 
ATOM     62  H   UNL A   1      45.877  28.397  27.613  1.00  0.00     0.167 HD
ATOM     63  C   UNL A   1      47.191  26.011  26.814  1.00  0.00     0.074 A 
ATOM     64  C   UNL A   1      47.417  24.627  26.451  1.00  0.00     0.031 C 
ATOM     65  C   UNL A   1      48.154  26.966  26.821  1.00  0.00     0.037 A 
BRANCH  52  66
ATOM     66  C   UNL A   1      46.138  32.586  28.430  1.00  0.00     0.058 A 
ATOM     67  C   UNL A   1      46.539  33.094  29.676  1.00  0.00     0.135 A 
ATOM     68  C   UNL A   1      46.093  33.478  27.345  1.00  0.00     0.135 A 
ATOM     69  F   UNL A   1      46.586  32.290  30.751  1.00  0.00    -0.206 F 
ATOM     70  C   UNL A   1      46.858  34.436  29.847  1.00  0.00     0.059 A 
ATOM     71  C   UNL A   1      46.437  34.819  27.487  1.00  0.00     0.059 A 
ATOM     72  F   UNL A   1      45.716  33.047  26.131  1.00  0.00    -0.206 F 
ATOM     73  C   UNL A   1      46.806  35.292  28.745  1.00  0.00     0.060 A 
BRANCH  73  74
ATOM     74  S   UNL A   1      47.235  37.029  28.982  1.00  0.00     0.124 S 
ATOM     75  O   UNL A   1      45.931  37.672  28.858  1.00  0.00    -0.237 OA
ATOM     76  O   UNL A   1      47.815  37.026  30.322  1.00  0.00    -0.237 OA
ATOM     77  O   UNL A   1      48.174  37.299  27.897  1.00  0.00    -0.744 OA
ENDBRANCH  73  74
ENDBRANCH  52  66
BRANCH  53  78
ATOM     78  C   UNL A   1      43.523  23.056  26.922  1.00  0.00     0.058 A 
ATOM     79  C   UNL A   1      43.455  22.561  25.611  1.00  0.00     0.135 A 
ATOM     80  C   UNL A   1      43.222  22.171  27.969  1.00  0.00     0.135 A 
ATOM     81  F   UNL A   1      43.727  23.370  24.575  1.00  0.00    -0.206 F 
ATOM     82  C   UNL A   1      43.086  21.247  25.344  1.00  0.00     0.059 A 
ATOM     83  C   UNL A   1      42.877  20.844  27.730  1.00  0.00     0.059 A 
ATOM     84  F   UNL A   1      43.288  22.589  29.243  1.00  0.00    -0.206 F 
ATOM     85  C   UNL A   1      42.802  20.395  26.413  1.00  0.00     0.060 A 
BRANCH  85  86
ATOM     86  S   UNL A   1      42.371  18.677  26.058  1.00  0.00     0.124 S 
ATOM     87  O   UNL A   1      43.286  18.366  24.964  1.00  0.00    -0.237 OA
ATOM     88  O   UNL A   1      42.651  18.021  27.331  1.00  0.00    -0.237 OA
ATOM     89  O   UNL A   1      40.959  18.753  25.697  1.00  0.00    -0.744 OA
ENDBRANCH  85  86
ENDBRANCH  53  78
BRANCH  65  90
ATOM     90  C   UNL A   1      49.553  26.544  26.460  1.00  0.00     0.058 A 
ATOM     91  C   UNL A   1      50.057  26.688  25.159  1.00  0.00     0.135 A 
ATOM     92  C   UNL A   1      50.417  26.039  27.446  1.00  0.00     0.135 A 
ATOM     93  F   UNL A   1      49.271  27.160  24.178  1.00  0.00    -0.206 F 
ATOM     94  C   UNL A   1      51.361  26.323  24.840  1.00  0.00     0.059 A 
ATOM     95  C   UNL A   1      51.734  25.695  27.156  1.00  0.00     0.059 A 
ATOM     96  F   UNL A   1      49.990  25.892  28.710  1.00  0.00    -0.206 F 
ATOM     97  C   UNL A   1      52.193  25.829  25.847  1.00  0.00     0.060 A 
BRANCH  97  98
ATOM     98  S   UNL A   1      53.893  25.390  25.427  1.00  0.00     0.124 S 
ATOM     99  O   UNL A   1      53.701  24.150  24.683  1.00  0.00    -0.237 OA
ATOM    100  O   UNL A   1      54.328  26.540  24.640  1.00  0.00    -0.237 OA
ATOM    101  O   UNL A   1      54.539  25.248  26.728  1.00  0.00    -0.744 OA
ENDBRANCH  97  98
ENDBRANCH  65  90
ENDBRANCH  39  40
ENDBRANCH  31  34
ENDBRANCH  29  30
ENDBRANCH  28  29
ENDBRANCH  27  28
ENDBRANCH   1  27
TORSDOF 21
ENDMDL
MODEL 3
REMARK VINA RESULT:     -10.6      4.095     10.351
REMARK SMILES COc1ccc(OCc2nc(N)cc(SCC(=O)NCCCCNC(=O)c3ccc(-c4c5nc(c(-c6c(F)cc(S(=O)(=O)[O-])cc6F)c6ccc([nH]6)c(-c6c(F)cc(S(=O)(=O)[O-])cc6F)c6nc(c(-c7c(F)cc(S(=O)(=O)[O-])cc7F)c7ccc4[nH]7)C=C6)C=C5)cc3)n2)cc1
REMARK SMILES IDX 20 1 19 2 17 3 18 4 16 6 15 7 14 8 9 9 10 10 93 11 11 12
REMARK SMILES IDX 13 13 8 14 7 15 6 16 3 17 4 18 95 19 5 20 94 21 2 22 1 23
REMARK SMILES IDX 12 24 21 27 22 28 23 29 24 30 25 31 26 33 27 34 28 35 92 36
REMARK SMILES IDX 29 37 91 38 30 39 31 40 32 41 85 42 33 43 90 44 84 45 86 46
REMARK SMILES IDX 34 47 89 48 83 49 82 50 35 52 69 53 48 54 68 55 49 56 52 57
REMARK SMILES IDX 67 58 87 59 50 60 51 61 66 63 88 64 53 65 36 66 37 67 46 68
REMARK SMILES IDX 38 69 39 70 45 71 47 72 40 73 41 74 42 75 43 76 44 77 70 78
REMARK SMILES IDX 71 79 80 80 72 81 73 82 79 83 81 84 74 85 75 86 76 87 77 88
REMARK SMILES IDX 78 89 54 90 55 91 64 92 56 93 57 94 63 95 65 96 58 97 59 98
REMARK SMILES IDX 60 99 61 100 62 101
REMARK H PARENT 19 5 12 25 12 26 24 32 86 51 52 62
REMARK Flexibility Score: inf
ROOT
ATOM      1  C   UNL A   1      31.207  28.748  24.021  1.00  0.00     0.116 C 
ENDROOT
BRANCH   1   2
ATOM      2  N   UNL A   1      32.407  28.726  23.207  1.00  0.00    -0.355 N 
ATOM      3  C   UNL A   1      32.889  27.728  22.417  1.00  0.00     0.230 C 
ATOM      4  O   UNL A   1      33.983  27.888  21.870  1.00  0.00    -0.274 OA
ATOM      5  H   UNL A   1      32.949  29.549  23.229  1.00  0.00     0.163 HD
BRANCH   3   6
ATOM      6  C   UNL A   1      32.065  26.482  22.150  1.00  0.00     0.176 C 
BRANCH   6   7
ATOM      7  S   UNL A   1      32.956  24.920  22.428  1.00  0.00    -0.096 SA
BRANCH   7   8
ATOM      8  C   UNL A   1      32.236  24.253  23.914  1.00  0.00     0.102 A 
ATOM      9  C   UNL A   1      32.454  22.672  25.564  1.00  0.00     0.169 A 
ATOM     10  N   UNL A   1      31.424  23.187  26.259  1.00  0.00    -0.213 NA
ATOM     11  N   UNL A   1      32.894  23.181  24.401  1.00  0.00    -0.223 NA
ATOM     12  C   UNL A   1      30.748  24.193  25.714  1.00  0.00     0.128 A 
ATOM     13  C   UNL A   1      31.144  24.800  24.551  1.00  0.00     0.082 A 
BRANCH   9  14
ATOM     14  C   UNL A   1      33.167  21.468  26.161  1.00  0.00     0.306 C 
BRANCH  14  15
ATOM     15  O   UNL A   1      34.155  20.850  25.318  1.00  0.00    -0.486 OA
BRANCH  15  16
ATOM     16  C   UNL A   1      34.009  19.525  25.012  1.00  0.00     0.120 A 
ATOM     17  C   UNL A   1      33.550  16.780  24.728  1.00  0.00     0.119 A 
ATOM     18  C   UNL A   1      32.514  17.618  25.129  1.00  0.00     0.050 A 
ATOM     19  C   UNL A   1      34.779  17.320  24.363  1.00  0.00     0.050 A 
ATOM     20  C   UNL A   1      32.747  18.988  25.280  1.00  0.00     0.050 A 
ATOM     21  C   UNL A   1      34.998  18.695  24.482  1.00  0.00     0.050 A 
BRANCH  17  22
ATOM     22  O   UNL A   1      33.291  15.439  24.642  1.00  0.00    -0.497 OA
ATOM     23  C   UNL A   1      32.381  15.006  25.655  1.00  0.00     0.278 C 
ENDBRANCH  17  22
ENDBRANCH  15  16
ENDBRANCH  14  15
ENDBRANCH   9  14
BRANCH  12  24
ATOM     24  N   UNL A   1      29.641  24.638  26.413  1.00  0.00    -0.384 N 
ATOM     25  H   UNL A   1      28.964  23.995  26.723  1.00  0.00     0.158 HD
ATOM     26  H   UNL A   1      29.530  25.598  26.601  1.00  0.00     0.158 HD
ENDBRANCH  12  24
ENDBRANCH   7   8
ENDBRANCH   6   7
ENDBRANCH   3   6
ENDBRANCH   1   2
BRANCH   1  27
ATOM     27  C   UNL A   1      31.545  28.865  25.507  1.00  0.00     0.023 C 
BRANCH  27  28
ATOM     28  C   UNL A   1      32.653  27.920  25.983  1.00  0.00     0.023 C 
BRANCH  28  29
ATOM     29  C   UNL A   1      33.967  28.593  26.363  1.00  0.00     0.116 C 
BRANCH  29  30
ATOM     30  N   UNL A   1      33.816  30.010  26.654  1.00  0.00    -0.352 N 
ATOM     31  C   UNL A   1      34.583  30.815  27.459  1.00  0.00     0.251 C 
ATOM     32  H   UNL A   1      33.056  30.454  26.210  1.00  0.00     0.163 HD
ATOM     33  O   UNL A   1      34.224  31.967  27.692  1.00  0.00    -0.269 OA
BRANCH  31  34
ATOM     34  C   UNL A   1      35.821  30.282  28.068  1.00  0.00     0.039 A 
ATOM     35  C   UNL A   1      37.024  30.406  27.369  1.00  0.00     0.014 A 
ATOM     36  C   UNL A   1      35.800  29.676  29.327  1.00  0.00     0.014 A 
ATOM     37  C   UNL A   1      38.215  29.982  27.961  1.00  0.00     0.010 A 
ATOM     38  C   UNL A   1      36.997  29.321  29.945  1.00  0.00     0.010 A 
ATOM     39  C   UNL A   1      38.217  29.470  29.269  1.00  0.00    -0.014 A 
BRANCH  39  40
ATOM     40  C   UNL A   1      39.486  29.096  29.947  1.00  0.00     0.031 A 
ATOM     41  C   UNL A   1      39.966  29.877  31.141  1.00  0.00     0.074 A 
ATOM     42  C   UNL A   1      40.236  28.093  29.451  1.00  0.00     0.049 A 
ATOM     43  N   UNL A   1      41.075  29.743  31.823  1.00  0.00    -0.248 NA
ATOM     44  C   UNL A   1      39.102  30.970  31.614  1.00  0.00     0.031 C 
ATOM     45  C   UNL A   1      39.905  27.294  28.268  1.00  0.00     0.029 A 
ATOM     46  N   UNL A   1      41.439  27.579  29.867  1.00  0.00    -0.354 N 
ATOM     47  C   UNL A   1      41.048  30.737  32.793  1.00  0.00     0.074 A 
ATOM     48  C   UNL A   1      39.838  31.502  32.578  1.00  0.00     0.031 C 
ATOM     49  C   UNL A   1      40.868  26.381  28.067  1.00  0.00     0.029 A 
ATOM     50  C   UNL A   1      41.907  26.552  29.080  1.00  0.00     0.049 A 
ATOM     51  H   UNL A   1      41.923  27.914  30.657  1.00  0.00     0.167 HD
ATOM     52  C   UNL A   1      41.937  30.979  33.786  1.00  0.00     0.037 A 
ATOM     53  C   UNL A   1      43.045  25.836  29.157  1.00  0.00     0.037 A 
ATOM     54  C   UNL A   1      43.127  30.197  34.009  1.00  0.00     0.049 A 
ATOM     55  C   UNL A   1      44.017  26.120  30.271  1.00  0.00     0.074 A 
ATOM     56  C   UNL A   1      44.059  30.322  35.025  1.00  0.00     0.029 A 
ATOM     57  N   UNL A   1      43.553  29.150  33.205  1.00  0.00    -0.354 N 
ATOM     58  N   UNL A   1      43.941  27.021  31.220  1.00  0.00    -0.248 NA
ATOM     59  C   UNL A   1      45.224  25.284  30.330  1.00  0.00     0.031 C 
ATOM     60  C   UNL A   1      45.073  29.385  34.807  1.00  0.00     0.029 A 
ATOM     61  C   UNL A   1      44.744  28.635  33.688  1.00  0.00     0.049 A 
ATOM     62  H   UNL A   1      43.077  28.820  32.408  1.00  0.00     0.167 HD
ATOM     63  C   UNL A   1      45.074  26.844  32.005  1.00  0.00     0.074 A 
ATOM     64  C   UNL A   1      45.813  25.740  31.427  1.00  0.00     0.031 C 
ATOM     65  C   UNL A   1      45.468  27.531  33.106  1.00  0.00     0.037 A 
BRANCH  52  66
ATOM     66  C   UNL A   1      41.660  32.132  34.711  1.00  0.00     0.058 A 
ATOM     67  C   UNL A   1      40.883  31.979  35.871  1.00  0.00     0.135 A 
ATOM     68  C   UNL A   1      42.219  33.397  34.462  1.00  0.00     0.135 A 
ATOM     69  F   UNL A   1      40.312  30.797  36.151  1.00  0.00    -0.206 F 
ATOM     70  C   UNL A   1      40.647  33.043  36.735  1.00  0.00     0.059 A 
ATOM     71  C   UNL A   1      42.021  34.468  35.330  1.00  0.00     0.059 A 
ATOM     72  F   UNL A   1      42.970  33.601  33.369  1.00  0.00    -0.206 F 
ATOM     73  C   UNL A   1      41.223  34.284  36.457  1.00  0.00     0.060 A 
BRANCH  73  74
ATOM     74  S   UNL A   1      40.916  35.650  37.597  1.00  0.00     0.124 S 
ATOM     75  O   UNL A   1      40.334  34.951  38.739  1.00  0.00    -0.237 OA
ATOM     76  O   UNL A   1      42.256  36.192  37.801  1.00  0.00    -0.237 OA
ATOM     77  O   UNL A   1      40.001  36.513  36.856  1.00  0.00    -0.744 OA
ENDBRANCH  73  74
ENDBRANCH  52  66
BRANCH  53  78
ATOM     78  C   UNL A   1      43.319  24.768  28.157  1.00  0.00     0.058 A 
ATOM     79  C   UNL A   1      43.989  25.055  26.958  1.00  0.00     0.135 A 
ATOM     80  C   UNL A   1      42.932  23.439  28.387  1.00  0.00     0.135 A 
ATOM     81  F   UNL A   1      44.374  26.312  26.689  1.00  0.00    -0.206 F 
ATOM     82  C   UNL A   1      44.249  24.067  26.014  1.00  0.00     0.059 A 
ATOM     83  C   UNL A   1      43.206  22.428  27.470  1.00  0.00     0.059 A 
ATOM     84  F   UNL A   1      42.303  23.108  29.526  1.00  0.00    -0.206 F 
ATOM     85  C   UNL A   1      43.856  22.755  26.282  1.00  0.00     0.060 A 
BRANCH  85  86
ATOM     86  S   UNL A   1      44.243  21.472  25.071  1.00  0.00     0.124 S 
ATOM     87  O   UNL A   1      43.206  20.484  25.349  1.00  0.00    -0.237 OA
ATOM     88  O   UNL A   1      44.115  22.193  23.809  1.00  0.00    -0.237 OA
ATOM     89  O   UNL A   1      45.602  21.076  25.424  1.00  0.00    -0.744 OA
ENDBRANCH  85  86
ENDBRANCH  53  78
BRANCH  65  90
ATOM     90  C   UNL A   1      46.737  27.091  33.785  1.00  0.00     0.058 A 
ATOM     91  C   UNL A   1      47.983  27.644  33.455  1.00  0.00     0.135 A 
ATOM     92  C   UNL A   1      46.694  26.140  34.818  1.00  0.00     0.135 A 
ATOM     93  F   UNL A   1      48.080  28.553  32.471  1.00  0.00    -0.206 F 
ATOM     94  C   UNL A   1      49.148  27.251  34.107  1.00  0.00     0.059 A 
ATOM     95  C   UNL A   1      47.842  25.755  35.504  1.00  0.00     0.059 A 
ATOM     96  F   UNL A   1      45.526  25.587  35.182  1.00  0.00    -0.206 F 
ATOM     97  C   UNL A   1      49.066  26.307  35.133  1.00  0.00     0.060 A 
BRANCH  97  98
ATOM     98  S   UNL A   1      50.580  25.831  35.993  1.00  0.00     0.124 S 
ATOM     99  O   UNL A   1      50.642  26.832  37.053  1.00  0.00    -0.237 OA
ATOM    100  O   UNL A   1      50.280  24.469  36.425  1.00  0.00    -0.237 OA
ATOM    101  O   UNL A   1      51.608  25.944  34.962  1.00  0.00    -0.744 OA
ENDBRANCH  97  98
ENDBRANCH  65  90
ENDBRANCH  39  40
ENDBRANCH  31  34
ENDBRANCH  29  30
ENDBRANCH  28  29
ENDBRANCH  27  28
ENDBRANCH   1  27
TORSDOF 21
ENDMDL
