MODEL 1
REMARK VINA RESULT:     -11.3      0.000      0.000
REMARK SMILES O=C(NCCCCNC(=O)c1c(S(=O)(=O)N2CCO[C@@H](CCO)C2)sc2c1CC[NH2+]C2)c1ccc(-c2c3nc(c(-c4c(F)cc(S(=O)(=O)[O-])cc4F)c4ccc([nH]4)c(-c4c(F)cc(S(=O)(=O)[O-])cc4F)c4nc(c(-c5c(F)cc(S(=O)(=O)[O-])cc5F)c5ccc2[nH]5)C=C4)C=C3)cc1
REMARK SMILES IDX 6 1 5 2 4 3 3 4 1 5 2 6 32 8 33 9 97 10 34 11 96 12 35 13
REMARK SMILES IDX 36 14 37 15 90 16 38 17 95 18 89 19 91 20 39 21 94 22 88 23
REMARK SMILES IDX 87 24 40 26 74 27 53 28 73 29 54 30 57 31 72 32 92 33 55 34
REMARK SMILES IDX 56 35 71 37 93 38 58 39 41 40 42 41 51 42 43 43 44 44 50 45
REMARK SMILES IDX 52 46 45 47 46 48 47 49 48 50 49 51 75 52 76 53 85 54 77 55
REMARK SMILES IDX 78 56 84 57 86 58 79 59 80 60 81 61 82 62 83 63 59 64 60 65
REMARK SMILES IDX 69 66 61 67 62 68 68 69 70 70 63 71 64 72 65 73 66 74 67 75
REMARK SMILES IDX 7 76 8 77 9 78 10 80 11 81 12 82 27 83 25 84 26 85 28 86
REMARK SMILES IDX 31 87 29 88 30 89 13 92 14 93 15 94 16 95 17 96 24 97 18 98
REMARK SMILES IDX 20 99 19 100 21 101 22 102 23 103
REMARK H PARENT 3 7 91 25 57 36 8 79 30 90 30 91 23 104
REMARK Flexibility Score: inf
ROOT
ATOM      1  C   UNL A   1      35.414  24.008  26.217  1.00  0.00     0.023 C 
ENDROOT
BRANCH   1   2
ATOM      2  C   UNL A   1      36.667  23.167  26.443  1.00  0.00     0.023 C 
BRANCH   2   3
ATOM      3  C   UNL A   1      37.502  22.829  25.204  1.00  0.00     0.116 C 
BRANCH   3   4
ATOM      4  N   UNL A   1      38.747  22.123  25.449  1.00  0.00    -0.352 N 
ATOM      5  O   UNL A   1      40.634  21.381  26.325  1.00  0.00    -0.269 OA
ATOM      6  C   UNL A   1      39.857  22.336  26.225  1.00  0.00     0.251 C 
ATOM      7  H   UNL A   1      38.809  21.287  24.931  1.00  0.00     0.163 HD
BRANCH   6   8
ATOM      8  C   UNL A   1      40.205  23.612  26.913  1.00  0.00     0.039 A 
ATOM      9  C   UNL A   1      41.127  23.742  27.946  1.00  0.00     0.014 A 
ATOM     10  C   UNL A   1      39.515  24.770  26.495  1.00  0.00     0.014 A 
ATOM     11  C   UNL A   1      41.314  24.968  28.584  1.00  0.00     0.010 A 
ATOM     12  C   UNL A   1      39.718  26.009  27.114  1.00  0.00     0.010 A 
ATOM     13  C   UNL A   1      40.609  26.106  28.178  1.00  0.00    -0.014 A 
BRANCH  13  14
ATOM     14  C   UNL A   1      40.932  27.361  28.860  1.00  0.00     0.031 A 
ATOM     15  C   UNL A   1      42.148  28.086  28.388  1.00  0.00     0.074 A 
ATOM     16  C   UNL A   1      40.190  27.971  29.805  1.00  0.00     0.049 A 
ATOM     17  N   UNL A   1      43.247  28.319  29.032  1.00  0.00    -0.248 NA
ATOM     18  C   UNL A   1      42.134  28.602  27.013  1.00  0.00     0.031 C 
ATOM     19  C   UNL A   1      38.813  27.688  30.201  1.00  0.00     0.029 A 
ATOM     20  N   UNL A   1      40.523  29.063  30.560  1.00  0.00    -0.354 N 
ATOM     21  C   UNL A   1      44.002  29.159  28.217  1.00  0.00     0.074 A 
ATOM     22  C   UNL A   1      43.311  29.228  26.952  1.00  0.00     0.031 C 
ATOM     23  C   UNL A   1      38.364  28.702  30.975  1.00  0.00     0.029 A 
ATOM     24  C   UNL A   1      39.456  29.629  31.236  1.00  0.00     0.049 A 
ATOM     25  H   UNL A   1      41.441  29.414  30.617  1.00  0.00     0.167 HD
ATOM     26  C   UNL A   1      45.071  29.869  28.672  1.00  0.00     0.037 A 
ATOM     27  C   UNL A   1      39.454  30.803  31.912  1.00  0.00     0.037 A 
ATOM     28  C   UNL A   1      45.529  29.428  29.961  1.00  0.00     0.049 A 
ATOM     29  C   UNL A   1      40.853  31.155  32.263  1.00  0.00     0.074 A 
ATOM     30  C   UNL A   1      45.999  28.240  30.483  1.00  0.00     0.029 A 
ATOM     31  N   UNL A   1      45.300  30.242  31.043  1.00  0.00    -0.354 N 
ATOM     32  N   UNL A   1      41.578  30.542  33.156  1.00  0.00    -0.248 NA
ATOM     33  C   UNL A   1      41.581  32.071  31.396  1.00  0.00     0.031 C 
ATOM     34  C   UNL A   1      45.601  28.242  31.852  1.00  0.00     0.029 A 
ATOM     35  C   UNL A   1      44.903  29.429  32.074  1.00  0.00     0.049 A 
ATOM     36  H   UNL A   1      45.402  31.220  31.072  1.00  0.00     0.167 HD
ATOM     37  C   UNL A   1      42.885  30.693  32.722  1.00  0.00     0.074 A 
ATOM     38  C   UNL A   1      42.833  31.755  31.728  1.00  0.00     0.031 C 
ATOM     39  C   UNL A   1      43.839  29.756  32.998  1.00  0.00     0.037 A 
BRANCH  26  40
ATOM     40  C   UNL A   1      45.552  31.163  28.068  1.00  0.00     0.058 A 
ATOM     41  C   UNL A   1      44.689  32.275  28.001  1.00  0.00     0.135 A 
ATOM     42  C   UNL A   1      46.741  31.256  27.313  1.00  0.00     0.135 A 
ATOM     43  F   UNL A   1      43.522  32.273  28.666  1.00  0.00    -0.206 F 
ATOM     44  C   UNL A   1      44.963  33.383  27.200  1.00  0.00     0.059 A 
ATOM     45  C   UNL A   1      47.057  32.372  26.545  1.00  0.00     0.059 A 
ATOM     46  F   UNL A   1      47.594  30.226  27.223  1.00  0.00    -0.206 F 
ATOM     47  C   UNL A   1      46.142  33.414  26.460  1.00  0.00     0.060 A 
BRANCH  47  48
ATOM     48  S   UNL A   1      46.450  34.792  25.339  1.00  0.00     0.124 S 
ATOM     49  O   UNL A   1      46.127  35.931  26.191  1.00  0.00    -0.237 OA
ATOM     50  O   UNL A   1      47.864  34.619  25.014  1.00  0.00    -0.237 OA
ATOM     51  O   UNL A   1      45.527  34.539  24.239  1.00  0.00    -0.744 OA
ENDBRANCH  47  48
ENDBRANCH  26  40
BRANCH  27  52
ATOM     52  C   UNL A   1      38.336  31.760  32.101  1.00  0.00     0.058 A 
ATOM     53  C   UNL A   1      37.942  32.633  31.070  1.00  0.00     0.135 A 
ATOM     54  C   UNL A   1      37.458  31.655  33.198  1.00  0.00     0.135 A 
ATOM     55  F   UNL A   1      38.701  32.771  29.973  1.00  0.00    -0.206 F 
ATOM     56  C   UNL A   1      36.730  33.327  31.106  1.00  0.00     0.059 A 
ATOM     57  C   UNL A   1      36.254  32.352  33.265  1.00  0.00     0.059 A 
ATOM     58  F   UNL A   1      37.698  30.795  34.199  1.00  0.00    -0.206 F 
ATOM     59  C   UNL A   1      35.884  33.168  32.202  1.00  0.00     0.060 A 
BRANCH  59  60
ATOM     60  S   UNL A   1      34.245  33.926  32.172  1.00  0.00     0.124 S 
ATOM     61  O   UNL A   1      34.512  35.242  32.740  1.00  0.00    -0.237 OA
ATOM     62  O   UNL A   1      33.918  33.898  30.751  1.00  0.00    -0.237 OA
ATOM     63  O   UNL A   1      33.445  33.035  33.009  1.00  0.00    -0.744 OA
ENDBRANCH  59  60
ENDBRANCH  27  52
BRANCH  39  64
ATOM     64  C   UNL A   1      43.603  28.805  34.138  1.00  0.00     0.058 A 
ATOM     65  C   UNL A   1      43.978  29.058  35.468  1.00  0.00     0.135 A 
ATOM     66  C   UNL A   1      42.848  27.646  33.892  1.00  0.00     0.135 A 
ATOM     67  F   UNL A   1      44.598  30.198  35.806  1.00  0.00    -0.206 F 
ATOM     68  C   UNL A   1      43.663  28.171  36.499  1.00  0.00     0.059 A 
ATOM     69  C   UNL A   1      42.493  26.765  34.911  1.00  0.00     0.059 A 
ATOM     70  F   UNL A   1      42.403  27.382  32.652  1.00  0.00    -0.206 F 
ATOM     71  C   UNL A   1      42.919  27.025  36.212  1.00  0.00     0.060 A 
BRANCH  71  72
ATOM     72  S   UNL A   1      42.428  25.932  37.562  1.00  0.00     0.124 S 
ATOM     73  O   UNL A   1      43.297  26.375  38.647  1.00  0.00    -0.237 OA
ATOM     74  O   UNL A   1      41.009  26.235  37.724  1.00  0.00    -0.237 OA
ATOM     75  O   UNL A   1      42.710  24.597  37.038  1.00  0.00    -0.744 OA
ENDBRANCH  71  72
ENDBRANCH  39  64
ENDBRANCH  13  14
ENDBRANCH   6   8
ENDBRANCH   3   4
ENDBRANCH   2   3
ENDBRANCH   1   2
BRANCH   1  76
ATOM     76  C   UNL A   1      34.084  23.345  26.537  1.00  0.00     0.116 C 
BRANCH  76  77
ATOM     77  N   UNL A   1      33.067  24.226  27.083  1.00  0.00    -0.352 N 
ATOM     78  C   UNL A   1      32.298  25.176  26.449  1.00  0.00     0.253 C 
ATOM     79  H   UNL A   1      32.904  24.129  28.050  1.00  0.00     0.163 HD
ATOM     80  O   UNL A   1      31.473  25.807  27.106  1.00  0.00    -0.269 OA
BRANCH  78  81
ATOM     81  C   UNL A   1      32.565  25.496  25.049  1.00  0.00     0.074 A 
ATOM     82  C   UNL A   1      32.324  24.648  23.967  1.00  0.00     0.148 A 
ATOM     83  C   UNL A   1      32.970  26.798  24.557  1.00  0.00    -0.009 A 
ATOM     84  S   UNL A   1      33.204  25.195  22.604  1.00  0.00    -0.120 S 
ATOM     85  C   UNL A   1      33.220  26.773  23.201  1.00  0.00     0.064 A 
ATOM     86  C   UNL A   1      33.146  28.082  25.318  1.00  0.00     0.099 C 
ATOM     87  C   UNL A   1      33.499  27.967  22.347  1.00  0.00     0.308 C 
ATOM     88  C   UNL A   1      33.206  29.297  24.355  1.00  0.00     0.265 C 
ATOM     89  N   UNL A   1      34.043  29.071  23.155  1.00  0.00    -0.342 N 
ATOM     90  H   UNL A   1      34.991  28.838  23.448  1.00  0.00     0.346 HD
ATOM     91  H   UNL A   1      34.047  29.921  22.592  1.00  0.00     0.346 HD
BRANCH  82  92
ATOM     92  S   UNL A   1      31.431  23.118  23.768  1.00  0.00     0.253 S 
ATOM     93  O   UNL A   1      31.038  22.727  25.102  1.00  0.00    -0.206 OA
ATOM     94  O   UNL A   1      30.438  23.432  22.758  1.00  0.00    -0.206 OA
BRANCH  92  95
ATOM     95  N   UNL A   1      32.410  21.896  23.147  1.00  0.00    -0.192 NA
ATOM     96  C   UNL A   1      32.164  21.309  21.810  1.00  0.00     0.131 C 
ATOM     97  C   UNL A   1      33.157  21.007  24.058  1.00  0.00     0.134 C 
ATOM     98  C   UNL A   1      31.759  19.825  21.860  1.00  0.00     0.177 C 
ATOM     99  C   UNL A   1      32.455  19.645  24.130  1.00  0.00     0.135 C 
ATOM    100  O   UNL A   1      32.488  19.041  22.819  1.00  0.00    -0.375 OA
BRANCH  99 101
ATOM    101  C   UNL A   1      33.070  18.663  25.130  1.00  0.00     0.061 C 
BRANCH 101 102
ATOM    102  C   UNL A   1      32.306  17.352  25.268  1.00  0.00     0.159 C 
BRANCH 102 103
ATOM    103  O   UNL A   1      32.795  16.405  24.331  1.00  0.00    -0.396 OA
ATOM    104  H   UNL A   1      32.860  16.818  23.455  1.00  0.00     0.210 HD
ENDBRANCH 102 103
ENDBRANCH 101 102
ENDBRANCH  99 101
ENDBRANCH  92  95
ENDBRANCH  82  92
ENDBRANCH  78  81
ENDBRANCH  76  77
ENDBRANCH   1  76
TORSDOF 19
ENDMDL
MODEL 2
REMARK VINA RESULT:     -11.2      5.655     12.654
REMARK SMILES O=C(NCCCCNC(=O)c1c(S(=O)(=O)N2CCO[C@@H](CCO)C2)sc2c1CC[NH2+]C2)c1ccc(-c2c3nc(c(-c4c(F)cc(S(=O)(=O)[O-])cc4F)c4ccc([nH]4)c(-c4c(F)cc(S(=O)(=O)[O-])cc4F)c4nc(c(-c5c(F)cc(S(=O)(=O)[O-])cc5F)c5ccc2[nH]5)C=C4)C=C3)cc1
REMARK SMILES IDX 6 1 5 2 4 3 3 4 1 5 2 6 32 8 33 9 97 10 34 11 96 12 35 13
REMARK SMILES IDX 36 14 37 15 90 16 38 17 95 18 89 19 91 20 39 21 94 22 88 23
REMARK SMILES IDX 87 24 40 26 74 27 53 28 73 29 54 30 57 31 72 32 92 33 55 34
REMARK SMILES IDX 56 35 71 37 93 38 58 39 41 40 42 41 51 42 43 43 44 44 50 45
REMARK SMILES IDX 52 46 45 47 46 48 47 49 48 50 49 51 75 52 76 53 85 54 77 55
REMARK SMILES IDX 78 56 84 57 86 58 79 59 80 60 81 61 82 62 83 63 59 64 60 65
REMARK SMILES IDX 69 66 61 67 62 68 68 69 70 70 63 71 64 72 65 73 66 74 67 75
REMARK SMILES IDX 7 76 8 77 9 78 10 80 11 81 12 82 27 83 25 84 26 85 28 86
REMARK SMILES IDX 31 87 29 88 30 89 13 92 14 93 15 94 16 95 17 96 24 97 18 98
REMARK SMILES IDX 20 99 19 100 21 101 22 102 23 103
REMARK H PARENT 3 7 91 25 57 36 8 79 30 90 30 91 23 104
REMARK Flexibility Score: inf
ROOT
ATOM      1  C   UNL A   1      35.385  34.365  34.076  1.00  0.00     0.023 C 
ENDROOT
BRANCH   1   2
ATOM      2  C   UNL A   1      35.622  33.775  32.689  1.00  0.00     0.023 C 
BRANCH   2   3
ATOM      3  C   UNL A   1      34.577  32.779  32.176  1.00  0.00     0.116 C 
BRANCH   3   4
ATOM      4  N   UNL A   1      34.358  32.767  30.741  1.00  0.00    -0.352 N 
ATOM      5  O   UNL A   1      34.319  32.222  28.601  1.00  0.00    -0.269 OA
ATOM      6  C   UNL A   1      34.933  32.133  29.669  1.00  0.00     0.251 C 
ATOM      7  H   UNL A   1      33.618  33.357  30.472  1.00  0.00     0.163 HD
BRANCH   6   8
ATOM      8  C   UNL A   1      36.227  31.393  29.688  1.00  0.00     0.039 A 
ATOM      9  C   UNL A   1      36.360  30.009  29.731  1.00  0.00     0.014 A 
ATOM     10  C   UNL A   1      37.405  32.170  29.691  1.00  0.00     0.014 A 
ATOM     11  C   UNL A   1      37.618  29.418  29.836  1.00  0.00     0.010 A 
ATOM     12  C   UNL A   1      38.672  31.581  29.770  1.00  0.00     0.010 A 
ATOM     13  C   UNL A   1      38.780  30.196  29.862  1.00  0.00    -0.014 A 
BRANCH  13  14
ATOM     14  C   UNL A   1      40.056  29.478  29.898  1.00  0.00     0.031 A 
ATOM     15  C   UNL A   1      40.661  29.254  31.244  1.00  0.00     0.074 A 
ATOM     16  C   UNL A   1      40.688  28.917  28.849  1.00  0.00     0.049 A 
ATOM     17  N   UNL A   1      41.767  29.731  31.718  1.00  0.00    -0.248 NA
ATOM     18  C   UNL A   1      39.921  28.401  32.183  1.00  0.00     0.031 C 
ATOM     19  C   UNL A   1      40.173  28.672  27.504  1.00  0.00     0.029 A 
ATOM     20  N   UNL A   1      41.939  28.363  28.819  1.00  0.00    -0.354 N 
ATOM     21  C   UNL A   1      41.962  29.107  32.948  1.00  0.00     0.074 A 
ATOM     22  C   UNL A   1      40.754  28.367  33.225  1.00  0.00     0.031 C 
ATOM     23  C   UNL A   1      41.024  27.846  26.853  1.00  0.00     0.029 A 
ATOM     24  C   UNL A   1      42.200  27.618  27.682  1.00  0.00     0.049 A 
ATOM     25  H   UNL A   1      42.596  28.485  29.542  1.00  0.00     0.167 HD
ATOM     26  C   UNL A   1      43.157  29.109  33.600  1.00  0.00     0.037 A 
ATOM     27  C   UNL A   1      43.274  26.823  27.461  1.00  0.00     0.037 A 
ATOM     28  C   UNL A   1      44.085  30.069  33.066  1.00  0.00     0.049 A 
ATOM     29  C   UNL A   1      44.373  27.243  28.367  1.00  0.00     0.074 A 
ATOM     30  C   UNL A   1      44.091  31.438  32.891  1.00  0.00     0.029 A 
ATOM     31  N   UNL A   1      45.163  29.601  32.356  1.00  0.00    -0.354 N 
ATOM     32  N   UNL A   1      45.056  28.348  28.254  1.00  0.00    -0.248 NA
ATOM     33  C   UNL A   1      44.556  26.526  29.622  1.00  0.00     0.031 C 
ATOM     34  C   UNL A   1      44.889  31.671  31.733  1.00  0.00     0.029 A 
ATOM     35  C   UNL A   1      45.309  30.425  31.268  1.00  0.00     0.049 A 
ATOM     36  H   UNL A   1      45.723  28.825  32.584  1.00  0.00     0.167 HD
ATOM     37  C   UNL A   1      45.444  28.663  29.546  1.00  0.00     0.074 A 
ATOM     38  C   UNL A   1      45.236  27.442  30.312  1.00  0.00     0.031 C 
ATOM     39  C   UNL A   1      45.631  29.957  29.937  1.00  0.00     0.037 A 
BRANCH  26  40
ATOM     40  C   UNL A   1      43.601  28.043  34.567  1.00  0.00     0.058 A 
ATOM     41  C   UNL A   1      44.029  28.398  35.862  1.00  0.00     0.135 A 
ATOM     42  C   UNL A   1      43.872  26.716  34.168  1.00  0.00     0.135 A 
ATOM     43  F   UNL A   1      43.838  29.644  36.325  1.00  0.00    -0.206 F 
ATOM     44  C   UNL A   1      44.723  27.513  36.686  1.00  0.00     0.059 A 
ATOM     45  C   UNL A   1      44.521  25.802  34.992  1.00  0.00     0.059 A 
ATOM     46  F   UNL A   1      43.597  26.290  32.928  1.00  0.00    -0.206 F 
ATOM     47  C   UNL A   1      44.981  26.222  36.234  1.00  0.00     0.060 A 
BRANCH  47  48
ATOM     48  S   UNL A   1      45.972  25.108  37.248  1.00  0.00     0.124 S 
ATOM     49  O   UNL A   1      46.956  24.639  36.278  1.00  0.00    -0.237 OA
ATOM     50  O   UNL A   1      46.477  25.999  38.289  1.00  0.00    -0.237 OA
ATOM     51  O   UNL A   1      45.001  24.117  37.699  1.00  0.00    -0.744 OA
ENDBRANCH  47  48
ENDBRANCH  26  40
BRANCH  27  52
ATOM     52  C   UNL A   1      43.356  25.579  26.657  1.00  0.00     0.058 A 
ATOM     53  C   UNL A   1      44.173  25.502  25.515  1.00  0.00     0.135 A 
ATOM     54  C   UNL A   1      42.845  24.358  27.141  1.00  0.00     0.135 A 
ATOM     55  F   UNL A   1      44.728  26.611  25.004  1.00  0.00    -0.206 F 
ATOM     56  C   UNL A   1      44.499  24.284  24.913  1.00  0.00     0.059 A 
ATOM     57  C   UNL A   1      43.140  23.133  26.546  1.00  0.00     0.059 A 
ATOM     58  F   UNL A   1      42.118  24.308  28.267  1.00  0.00    -0.206 F 
ATOM     59  C   UNL A   1      43.989  23.102  25.447  1.00  0.00     0.060 A 
BRANCH  59  60
ATOM     60  S   UNL A   1      44.545  21.518  24.780  1.00  0.00     0.124 S 
ATOM     61  O   UNL A   1      43.499  20.612  25.244  1.00  0.00    -0.237 OA
ATOM     62  O   UNL A   1      44.573  21.779  23.345  1.00  0.00    -0.237 OA
ATOM     63  O   UNL A   1      45.854  21.330  25.401  1.00  0.00    -0.744 OA
ENDBRANCH  59  60
ENDBRANCH  27  52
BRANCH  39  64
ATOM     64  C   UNL A   1      45.863  31.000  28.881  1.00  0.00     0.058 A 
ATOM     65  C   UNL A   1      44.873  31.466  27.999  1.00  0.00     0.135 A 
ATOM     66  C   UNL A   1      47.109  31.648  28.848  1.00  0.00     0.135 A 
ATOM     67  F   UNL A   1      43.623  30.982  28.046  1.00  0.00    -0.206 F 
ATOM     68  C   UNL A   1      45.128  32.494  27.089  1.00  0.00     0.059 A 
ATOM     69  C   UNL A   1      47.374  32.699  27.972  1.00  0.00     0.059 A 
ATOM     70  F   UNL A   1      48.076  31.294  29.711  1.00  0.00    -0.206 F 
ATOM     71  C   UNL A   1      46.382  33.106  27.082  1.00  0.00     0.060 A 
BRANCH  71  72
ATOM     72  S   UNL A   1      46.677  34.500  25.974  1.00  0.00     0.124 S 
ATOM     73  O   UNL A   1      46.520  35.642  26.869  1.00  0.00    -0.237 OA
ATOM     74  O   UNL A   1      48.035  34.252  25.496  1.00  0.00    -0.237 OA
ATOM     75  O   UNL A   1      45.637  34.352  24.958  1.00  0.00    -0.744 OA
ENDBRANCH  71  72
ENDBRANCH  39  64
ENDBRANCH  13  14
ENDBRANCH   6   8
ENDBRANCH   3   4
ENDBRANCH   2   3
ENDBRANCH   1   2
BRANCH   1  76
ATOM     76  C   UNL A   1      36.222  33.793  35.209  1.00  0.00     0.116 C 
BRANCH  76  77
ATOM     77  N   UNL A   1      37.134  32.728  34.830  1.00  0.00    -0.352 N 
ATOM     78  C   UNL A   1      38.231  32.235  35.500  1.00  0.00     0.253 C 
ATOM     79  H   UNL A   1      36.939  32.296  33.967  1.00  0.00     0.163 HD
ATOM     80  O   UNL A   1      38.863  31.306  35.001  1.00  0.00    -0.269 OA
BRANCH  78  81
ATOM     81  C   UNL A   1      38.688  32.903  36.716  1.00  0.00     0.074 A 
ATOM     82  C   UNL A   1      39.561  33.992  36.759  1.00  0.00     0.148 A 
ATOM     83  C   UNL A   1      38.183  32.641  38.048  1.00  0.00    -0.009 A 
ATOM     84  S   UNL A   1      40.203  34.148  38.337  1.00  0.00    -0.120 S 
ATOM     85  C   UNL A   1      38.860  33.373  39.002  1.00  0.00     0.064 A 
ATOM     86  C   UNL A   1      37.082  31.711  38.475  1.00  0.00     0.099 C 
ATOM     87  C   UNL A   1      38.494  33.466  40.447  1.00  0.00     0.308 C 
ATOM     88  C   UNL A   1      36.613  32.028  39.919  1.00  0.00     0.265 C 
ATOM     89  N   UNL A   1      37.720  32.286  40.867  1.00  0.00    -0.342 N 
ATOM     90  H   UNL A   1      38.335  31.473  40.893  1.00  0.00     0.346 HD
ATOM     91  H   UNL A   1      37.328  32.459  41.792  1.00  0.00     0.346 HD
BRANCH  82  92
ATOM     92  S   UNL A   1      40.203  35.113  35.531  1.00  0.00     0.253 S 
ATOM     93  O   UNL A   1      39.077  35.444  34.688  1.00  0.00    -0.206 OA
ATOM     94  O   UNL A   1      40.873  36.131  36.317  1.00  0.00    -0.206 OA
BRANCH  92  95
ATOM     95  N   UNL A   1      41.367  34.381  34.559  1.00  0.00    -0.192 NA
ATOM     96  C   UNL A   1      42.801  34.734  34.667  1.00  0.00     0.131 C 
ATOM     97  C   UNL A   1      40.992  33.811  33.250  1.00  0.00     0.134 C 
ATOM     98  C   UNL A   1      43.360  35.409  33.401  1.00  0.00     0.177 C 
ATOM     99  C   UNL A   1      41.454  34.753  32.132  1.00  0.00     0.135 C 
ATOM    100  O   UNL A   1      42.895  34.836  32.167  1.00  0.00    -0.375 OA
BRANCH  99 101
ATOM    101  C   UNL A   1      41.028  34.331  30.724  1.00  0.00     0.061 C 
BRANCH 101 102
ATOM    102  C   UNL A   1      42.128  33.659  29.914  1.00  0.00     0.159 C 
BRANCH 102 103
ATOM    103  O   UNL A   1      42.015  32.248  30.018  1.00  0.00    -0.396 OA
ATOM    104  H   UNL A   1      42.445  31.831  29.254  1.00  0.00     0.210 HD
ENDBRANCH 102 103
ENDBRANCH 101 102
ENDBRANCH  99 101
ENDBRANCH  92  95
ENDBRANCH  82  92
ENDBRANCH  78  81
ENDBRANCH  76  77
ENDBRANCH   1  76
TORSDOF 19
ENDMDL
MODEL 3
REMARK VINA RESULT:     -11.0      7.882     15.328
REMARK SMILES O=C(NCCCCNC(=O)c1c(S(=O)(=O)N2CCO[C@@H](CCO)C2)sc2c1CC[NH2+]C2)c1ccc(-c2c3nc(c(-c4c(F)cc(S(=O)(=O)[O-])cc4F)c4ccc([nH]4)c(-c4c(F)cc(S(=O)(=O)[O-])cc4F)c4nc(c(-c5c(F)cc(S(=O)(=O)[O-])cc5F)c5ccc2[nH]5)C=C4)C=C3)cc1
REMARK SMILES IDX 6 1 5 2 4 3 3 4 1 5 2 6 32 8 33 9 97 10 34 11 96 12 35 13
REMARK SMILES IDX 36 14 37 15 90 16 38 17 95 18 89 19 91 20 39 21 94 22 88 23
REMARK SMILES IDX 87 24 40 26 74 27 53 28 73 29 54 30 57 31 72 32 92 33 55 34
REMARK SMILES IDX 56 35 71 37 93 38 58 39 41 40 42 41 51 42 43 43 44 44 50 45
REMARK SMILES IDX 52 46 45 47 46 48 47 49 48 50 49 51 75 52 76 53 85 54 77 55
REMARK SMILES IDX 78 56 84 57 86 58 79 59 80 60 81 61 82 62 83 63 59 64 60 65
REMARK SMILES IDX 69 66 61 67 62 68 68 69 70 70 63 71 64 72 65 73 66 74 67 75
REMARK SMILES IDX 7 76 8 77 9 78 10 80 11 81 12 82 27 83 25 84 26 85 28 86
REMARK SMILES IDX 31 87 29 88 30 89 13 92 14 93 15 94 16 95 17 96 24 97 18 98
REMARK SMILES IDX 20 99 19 100 21 101 22 102 23 103
REMARK H PARENT 3 7 91 25 57 36 8 79 30 90 30 91 23 104
REMARK Flexibility Score: inf
ROOT
ATOM      1  C   UNL A   1      44.114  40.830  29.129  1.00  0.00     0.023 C 
ENDROOT
BRANCH   1   2
ATOM      2  C   UNL A   1      43.065  40.544  30.199  1.00  0.00     0.023 C 
BRANCH   2   3
ATOM      3  C   UNL A   1      43.301  41.165  31.579  1.00  0.00     0.116 C 
BRANCH   3   4
ATOM      4  N   UNL A   1      44.542  40.800  32.239  1.00  0.00    -0.352 N 
ATOM      5  O   UNL A   1      46.241  39.687  33.106  1.00  0.00    -0.269 OA
ATOM      6  C   UNL A   1      45.035  39.670  32.838  1.00  0.00     0.251 C 
ATOM      7  H   UNL A   1      45.186  41.545  32.262  1.00  0.00     0.163 HD
BRANCH   6   8
ATOM      8  C   UNL A   1      44.239  38.467  33.214  1.00  0.00     0.039 A 
ATOM      9  C   UNL A   1      43.874  37.443  32.345  1.00  0.00     0.014 A 
ATOM     10  C   UNL A   1      43.801  38.384  34.553  1.00  0.00     0.014 A 
ATOM     11  C   UNL A   1      43.050  36.404  32.776  1.00  0.00     0.010 A 
ATOM     12  C   UNL A   1      42.996  37.329  34.997  1.00  0.00     0.010 A 
ATOM     13  C   UNL A   1      42.602  36.342  34.100  1.00  0.00    -0.014 A 
BRANCH  13  14
ATOM     14  C   UNL A   1      41.804  35.171  34.472  1.00  0.00     0.031 A 
ATOM     15  C   UNL A   1      42.185  33.874  33.842  1.00  0.00     0.074 A 
ATOM     16  C   UNL A   1      40.825  35.132  35.397  1.00  0.00     0.049 A 
ATOM     17  N   UNL A   1      41.500  33.149  33.015  1.00  0.00    -0.248 NA
ATOM     18  C   UNL A   1      43.509  33.328  34.167  1.00  0.00     0.031 C 
ATOM     19  C   UNL A   1      40.484  36.137  36.401  1.00  0.00     0.029 A 
ATOM     20  N   UNL A   1      39.970  34.100  35.673  1.00  0.00    -0.354 N 
ATOM     21  C   UNL A   1      42.222  31.970  32.845  1.00  0.00     0.074 A 
ATOM     22  C   UNL A   1      43.490  32.170  33.505  1.00  0.00     0.031 C 
ATOM     23  C   UNL A   1      39.633  35.587  37.298  1.00  0.00     0.029 A 
ATOM     24  C   UNL A   1      39.268  34.248  36.856  1.00  0.00     0.049 A 
ATOM     25  H   UNL A   1      39.862  33.321  35.080  1.00  0.00     0.167 HD
ATOM     26  C   UNL A   1      41.684  30.843  32.304  1.00  0.00     0.037 A 
ATOM     27  C   UNL A   1      38.492  33.318  37.462  1.00  0.00     0.037 A 
ATOM     28  C   UNL A   1      40.430  31.082  31.644  1.00  0.00     0.049 A 
ATOM     29  C   UNL A   1      38.082  32.308  36.453  1.00  0.00     0.074 A 
ATOM     30  C   UNL A   1      40.004  31.878  30.600  1.00  0.00     0.029 A 
ATOM     31  N   UNL A   1      39.285  30.610  32.239  1.00  0.00    -0.354 N 
ATOM     32  N   UNL A   1      37.231  32.517  35.487  1.00  0.00    -0.248 NA
ATOM     33  C   UNL A   1      38.849  31.074  36.349  1.00  0.00     0.031 C 
ATOM     34  C   UNL A   1      38.649  32.205  30.898  1.00  0.00     0.029 A 
ATOM     35  C   UNL A   1      38.338  31.595  32.112  1.00  0.00     0.049 A 
ATOM     36  H   UNL A   1      39.167  29.734  32.671  1.00  0.00     0.167 HD
ATOM     37  C   UNL A   1      37.623  31.658  34.474  1.00  0.00     0.074 A 
ATOM     38  C   UNL A   1      38.520  30.704  35.111  1.00  0.00     0.031 C 
ATOM     39  C   UNL A   1      37.411  31.964  33.160  1.00  0.00     0.037 A 
BRANCH  26  40
ATOM     40  C   UNL A   1      42.161  29.444  32.601  1.00  0.00     0.058 A 
ATOM     41  C   UNL A   1      42.131  28.954  33.922  1.00  0.00     0.135 A 
ATOM     42  C   UNL A   1      42.893  28.675  31.672  1.00  0.00     0.135 A 
ATOM     43  F   UNL A   1      41.480  29.627  34.884  1.00  0.00    -0.206 F 
ATOM     44  C   UNL A   1      42.823  27.806  34.306  1.00  0.00     0.059 A 
ATOM     45  C   UNL A   1      43.552  27.500  32.023  1.00  0.00     0.059 A 
ATOM     46  F   UNL A   1      43.072  29.088  30.410  1.00  0.00    -0.206 F 
ATOM     47  C   UNL A   1      43.547  27.096  33.352  1.00  0.00     0.060 A 
BRANCH  47  48
ATOM     48  S   UNL A   1      44.532  25.674  33.861  1.00  0.00     0.124 S 
ATOM     49  O   UNL A   1      45.175  25.307  32.604  1.00  0.00    -0.237 OA
ATOM     50  O   UNL A   1      45.406  26.249  34.881  1.00  0.00    -0.237 OA
ATOM     51  O   UNL A   1      43.531  24.738  34.361  1.00  0.00    -0.744 OA
ENDBRANCH  47  48
ENDBRANCH  26  40
BRANCH  27  52
ATOM     52  C   UNL A   1      38.242  33.122  38.911  1.00  0.00     0.058 A 
ATOM     53  C   UNL A   1      39.278  33.257  39.853  1.00  0.00     0.135 A 
ATOM     54  C   UNL A   1      36.933  33.063  39.429  1.00  0.00     0.135 A 
ATOM     55  F   UNL A   1      40.553  33.354  39.449  1.00  0.00    -0.206 F 
ATOM     56  C   UNL A   1      39.027  33.369  41.224  1.00  0.00     0.059 A 
ATOM     57  C   UNL A   1      36.660  33.152  40.792  1.00  0.00     0.059 A 
ATOM     58  F   UNL A   1      35.867  33.010  38.616  1.00  0.00    -0.206 F 
ATOM     59  C   UNL A   1      37.712  33.332  41.682  1.00  0.00     0.060 A 
BRANCH  59  60
ATOM     60  S   UNL A   1      37.374  33.649  43.428  1.00  0.00     0.124 S 
ATOM     61  O   UNL A   1      38.589  33.154  44.064  1.00  0.00    -0.237 OA
ATOM     62  O   UNL A   1      37.186  35.095  43.448  1.00  0.00    -0.237 OA
ATOM     63  O   UNL A   1      36.169  32.865  43.687  1.00  0.00    -0.744 OA
ENDBRANCH  59  60
ENDBRANCH  27  52
BRANCH  39  64
ATOM     64  C   UNL A   1      36.365  32.989  32.822  1.00  0.00     0.058 A 
ATOM     65  C   UNL A   1      36.511  34.369  33.038  1.00  0.00     0.135 A 
ATOM     66  C   UNL A   1      35.218  32.565  32.128  1.00  0.00     0.135 A 
ATOM     67  F   UNL A   1      37.629  34.867  33.588  1.00  0.00    -0.206 F 
ATOM     68  C   UNL A   1      35.537  35.282  32.631  1.00  0.00     0.059 A 
ATOM     69  C   UNL A   1      34.250  33.462  31.682  1.00  0.00     0.059 A 
ATOM     70  F   UNL A   1      35.052  31.265  31.831  1.00  0.00    -0.206 F 
ATOM     71  C   UNL A   1      34.408  34.820  31.953  1.00  0.00     0.060 A 
BRANCH  71  72
ATOM     72  S   UNL A   1      33.198  36.012  31.340  1.00  0.00     0.124 S 
ATOM     73  O   UNL A   1      33.307  35.844  29.895  1.00  0.00    -0.237 OA
ATOM     74  O   UNL A   1      31.951  35.544  31.940  1.00  0.00    -0.237 OA
ATOM     75  O   UNL A   1      33.684  37.287  31.861  1.00  0.00    -0.744 OA
ENDBRANCH  71  72
ENDBRANCH  39  64
ENDBRANCH  13  14
ENDBRANCH   6   8
ENDBRANCH   3   4
ENDBRANCH   2   3
ENDBRANCH   1   2
BRANCH   1  76
ATOM     76  C   UNL A   1      43.600  41.047  27.715  1.00  0.00     0.116 C 
BRANCH  76  77
ATOM     77  N   UNL A   1      44.434  40.498  26.661  1.00  0.00    -0.352 N 
ATOM     78  C   UNL A   1      45.229  41.148  25.744  1.00  0.00     0.253 C 
ATOM     79  H   UNL A   1      44.429  39.516  26.592  1.00  0.00     0.163 HD
ATOM     80  O   UNL A   1      45.874  40.480  24.938  1.00  0.00    -0.269 OA
BRANCH  78  81
ATOM     81  C   UNL A   1      45.192  42.606  25.670  1.00  0.00     0.074 A 
ATOM     82  C   UNL A   1      44.445  43.349  24.754  1.00  0.00     0.148 A 
ATOM     83  C   UNL A   1      45.796  43.503  26.634  1.00  0.00    -0.009 A 
ATOM     84  S   UNL A   1      45.045  44.950  24.690  1.00  0.00    -0.120 S 
ATOM     85  C   UNL A   1      45.658  44.823  26.257  1.00  0.00     0.064 A 
ATOM     86  C   UNL A   1      46.519  43.170  27.909  1.00  0.00     0.099 C 
ATOM     87  C   UNL A   1      46.021  46.007  27.092  1.00  0.00     0.308 C 
ATOM     88  C   UNL A   1      46.655  44.422  28.816  1.00  0.00     0.265 C 
ATOM     89  N   UNL A   1      47.045  45.651  28.088  1.00  0.00    -0.342 N 
ATOM     90  H   UNL A   1      47.934  45.491  27.613  1.00  0.00     0.346 HD
ATOM     91  H   UNL A   1      47.136  46.415  28.756  1.00  0.00     0.346 HD
BRANCH  82  92
ATOM     92  S   UNL A   1      43.142  42.949  23.605  1.00  0.00     0.253 S 
ATOM     93  O   UNL A   1      42.441  41.832  24.195  1.00  0.00    -0.206 OA
ATOM     94  O   UNL A   1      42.476  44.219  23.389  1.00  0.00    -0.206 OA
BRANCH  92  95
ATOM     95  N   UNL A   1      43.749  42.440  22.119  1.00  0.00    -0.192 NA
ATOM     96  C   UNL A   1      45.172  42.632  21.756  1.00  0.00     0.131 C 
ATOM     97  C   UNL A   1      42.851  42.306  20.955  1.00  0.00     0.134 C 
ATOM     98  C   UNL A   1      45.374  43.598  20.575  1.00  0.00     0.177 C 
ATOM     99  C   UNL A   1      43.064  43.493  20.008  1.00  0.00     0.135 C 
ATOM    100  O   UNL A   1      44.419  43.447  19.511  1.00  0.00    -0.375 OA
BRANCH  99 101
ATOM    101  C   UNL A   1      42.112  43.532  18.810  1.00  0.00     0.061 C 
BRANCH 101 102
ATOM    102  C   UNL A   1      42.766  43.973  17.507  1.00  0.00     0.159 C 
BRANCH 102 103
ATOM    103  O   UNL A   1      43.473  42.887  16.927  1.00  0.00    -0.396 OA
ATOM    104  H   UNL A   1      44.428  43.043  17.006  1.00  0.00     0.210 HD
ENDBRANCH 102 103
ENDBRANCH 101 102
ENDBRANCH  99 101
ENDBRANCH  92  95
ENDBRANCH  82  92
ENDBRANCH  78  81
ENDBRANCH  76  77
ENDBRANCH   1  76
TORSDOF 19
ENDMDL
