MODEL 1
REMARK VINA RESULT:     -11.0      0.000      0.000
REMARK SMILES C=CCN(CC(=O)NCCCCNC(=O)c1ccc(-c2c3nc(c(-c4c(F)cc(S(=O)(=O)[O-])cc4F)c4ccc([nH]4)c(-c4c(F)cc(S(=O)(=O)[O-])cc4F)c4nc(c(-c5c(F)cc(S(=O)(=O)[O-])cc5F)c5ccc2[nH]5)C=C4)C=C3)cc1)c1ccc([N+](=O)[O-])cc1Br
REMARK SMILES IDX 10 1 9 2 8 3 6 4 7 5 5 7 4 8 3 9 2 10 1 11 82 12 83 13 90 14
REMARK SMILES IDX 84 15 89 16 91 17 85 18 86 19 87 20 88 21 11 22 12 23 13 24
REMARK SMILES IDX 14 25 15 27 16 28 17 29 81 30 18 31 80 32 19 33 20 34 21 35
REMARK SMILES IDX 74 36 22 37 79 38 73 39 75 40 23 41 78 42 72 43 71 44 24 46
REMARK SMILES IDX 58 47 37 48 57 49 38 50 41 51 56 52 76 53 39 54 40 55 55 57
REMARK SMILES IDX 77 58 42 59 25 60 26 61 35 62 27 63 28 64 34 65 36 66 29 67
REMARK SMILES IDX 30 68 31 69 32 70 33 71 59 72 60 73 69 74 61 75 62 76 68 77
REMARK SMILES IDX 70 78 63 79 64 80 65 81 66 82 67 83 43 84 44 85 53 86 45 87
REMARK SMILES IDX 46 88 52 89 54 90 47 91 48 92 49 93 50 94 51 95
REMARK H PARENT 8 6 13 26 75 45 41 56
REMARK Flexibility Score: inf
ROOT
ATOM      1  C   UNL A   1      33.674  31.169  27.554  1.00  0.00     0.023 C 
ENDROOT
BRANCH   1   2
ATOM      2  C   UNL A   1      32.824  30.140  26.807  1.00  0.00     0.116 C 
BRANCH   2   3
ATOM      3  N   UNL A   1      33.565  29.468  25.762  1.00  0.00    -0.355 N 
ATOM      4  C   UNL A   1      33.160  28.997  24.547  1.00  0.00     0.239 C 
ATOM      5  O   UNL A   1      34.024  28.466  23.840  1.00  0.00    -0.273 OA
ATOM      6  H   UNL A   1      34.519  29.328  25.961  1.00  0.00     0.163 HD
BRANCH   4   7
ATOM      7  C   UNL A   1      31.714  29.145  24.039  1.00  0.00     0.216 C 
BRANCH   7   8
ATOM      8  N   UNL A   1      31.072  27.940  23.464  1.00  0.00    -0.358 N 
BRANCH   8   9
ATOM      9  C   UNL A   1      30.107  28.117  22.377  1.00  0.00     0.144 C 
BRANCH   9  10
ATOM     10  C   UNL A   1      29.221  29.305  22.566  1.00  0.00    -0.014 C 
ATOM     11  C   UNL A   1      27.892  29.231  22.728  1.00  0.00     0.006 C 
ENDBRANCH   9  10
ENDBRANCH   8   9
BRANCH   8  12
ATOM     12  C   UNL A   1      31.062  26.745  24.186  1.00  0.00     0.052 A 
ATOM     13  C   UNL A   1      30.369  26.664  25.411  1.00  0.00     0.034 A 
ATOM     14  C   UNL A   1      31.689  25.557  23.742  1.00  0.00     0.048 A 
ATOM     15  C   UNL A   1      30.256  25.473  26.137  1.00  0.00     0.088 A 
ATOM     16  C   UNL A   1      31.534  24.341  24.426  1.00  0.00     0.103 A 
ATOM     17  Br  UNL A   1      32.918  25.516  22.286  1.00  0.00    -0.048 Br
ATOM     18  C   UNL A   1      30.815  24.309  25.621  1.00  0.00     0.270 A 
BRANCH  18  19
ATOM     19  N   UNL A   1      30.666  23.045  26.345  1.00  0.00     0.062 N 
ATOM     20  O   UNL A   1      30.391  23.102  27.551  1.00  0.00    -0.258 OA
ATOM     21  O   UNL A   1      30.826  21.996  25.704  1.00  0.00    -0.258 OA
ENDBRANCH  18  19
ENDBRANCH   8  12
ENDBRANCH   7   8
ENDBRANCH   4   7
ENDBRANCH   2   3
ENDBRANCH   1   2
BRANCH   1  22
ATOM     22  C   UNL A   1      35.118  30.744  27.830  1.00  0.00     0.023 C 
BRANCH  22  23
ATOM     23  C   UNL A   1      35.853  31.581  28.869  1.00  0.00     0.116 C 
BRANCH  23  24
ATOM     24  N   UNL A   1      35.692  31.082  30.226  1.00  0.00    -0.352 N 
ATOM     25  C   UNL A   1      36.602  30.414  31.012  1.00  0.00     0.251 C 
ATOM     26  H   UNL A   1      34.813  31.246  30.637  1.00  0.00     0.163 HD
ATOM     27  O   UNL A   1      36.259  29.967  32.099  1.00  0.00    -0.269 OA
BRANCH  25  28
ATOM     28  C   UNL A   1      37.981  30.206  30.517  1.00  0.00     0.039 A 
ATOM     29  C   UNL A   1      38.989  29.907  31.436  1.00  0.00     0.014 A 
ATOM     30  C   UNL A   1      38.271  30.274  29.151  1.00  0.00     0.014 A 
ATOM     31  C   UNL A   1      40.273  29.602  30.978  1.00  0.00     0.010 A 
ATOM     32  C   UNL A   1      39.531  29.900  28.693  1.00  0.00     0.010 A 
ATOM     33  C   UNL A   1      40.544  29.557  29.600  1.00  0.00    -0.014 A 
BRANCH  33  34
ATOM     34  C   UNL A   1      41.874  29.139  29.089  1.00  0.00     0.031 A 
ATOM     35  C   UNL A   1      42.985  30.145  28.953  1.00  0.00     0.074 A 
ATOM     36  C   UNL A   1      42.059  27.868  28.676  1.00  0.00     0.049 A 
ATOM     37  N   UNL A   1      44.184  29.989  28.458  1.00  0.00    -0.248 NA
ATOM     38  C   UNL A   1      42.696  31.515  29.407  1.00  0.00     0.031 C 
ATOM     39  C   UNL A   1      41.043  26.813  28.704  1.00  0.00     0.029 A 
ATOM     40  N   UNL A   1      43.160  27.252  28.138  1.00  0.00    -0.354 N 
ATOM     41  C   UNL A   1      44.789  31.237  28.527  1.00  0.00     0.074 A 
ATOM     42  C   UNL A   1      43.806  32.153  29.063  1.00  0.00     0.031 C 
ATOM     43  C   UNL A   1      41.574  25.678  28.224  1.00  0.00     0.029 A 
ATOM     44  C   UNL A   1      42.953  25.930  27.818  1.00  0.00     0.049 A 
ATOM     45  H   UNL A   1      44.018  27.712  27.993  1.00  0.00     0.167 HD
ATOM     46  C   UNL A   1      46.055  31.585  28.193  1.00  0.00     0.037 A 
ATOM     47  C   UNL A   1      43.778  25.025  27.255  1.00  0.00     0.037 A 
ATOM     48  C   UNL A   1      47.038  30.662  27.685  1.00  0.00     0.049 A 
ATOM     49  C   UNL A   1      45.182  25.432  26.901  1.00  0.00     0.074 A 
ATOM     50  C   UNL A   1      48.366  30.903  27.381  1.00  0.00     0.029 A 
ATOM     51  N   UNL A   1      46.799  29.325  27.403  1.00  0.00    -0.354 N 
ATOM     52  N   UNL A   1      45.759  26.602  27.039  1.00  0.00    -0.248 NA
ATOM     53  C   UNL A   1      46.049  24.398  26.322  1.00  0.00     0.031 C 
ATOM     54  C   UNL A   1      48.919  29.722  26.874  1.00  0.00     0.029 A 
ATOM     55  C   UNL A   1      47.949  28.732  26.909  1.00  0.00     0.049 A 
ATOM     56  H   UNL A   1      45.938  28.866  27.535  1.00  0.00     0.167 HD
ATOM     57  C   UNL A   1      47.065  26.437  26.589  1.00  0.00     0.074 A 
ATOM     58  C   UNL A   1      47.194  25.052  26.185  1.00  0.00     0.031 C 
ATOM     59  C   UNL A   1      48.065  27.350  26.517  1.00  0.00     0.037 A 
BRANCH  46  60
ATOM     60  C   UNL A   1      46.453  33.025  28.372  1.00  0.00     0.058 A 
ATOM     61  C   UNL A   1      47.004  33.493  29.576  1.00  0.00     0.135 A 
ATOM     62  C   UNL A   1      46.314  33.941  27.317  1.00  0.00     0.135 A 
ATOM     63  F   UNL A   1      47.146  32.664  30.622  1.00  0.00    -0.206 F 
ATOM     64  C   UNL A   1      47.372  34.825  29.739  1.00  0.00     0.059 A 
ATOM     65  C   UNL A   1      46.702  35.271  27.448  1.00  0.00     0.059 A 
ATOM     66  F   UNL A   1      45.793  33.548  26.144  1.00  0.00    -0.206 F 
ATOM     67  C   UNL A   1      47.216  35.707  28.668  1.00  0.00     0.060 A 
BRANCH  67  68
ATOM     68  S   UNL A   1      47.697  37.432  28.897  1.00  0.00     0.124 S 
ATOM     69  O   UNL A   1      46.941  37.788  30.094  1.00  0.00    -0.237 OA
ATOM     70  O   UNL A   1      49.143  37.333  29.068  1.00  0.00    -0.237 OA
ATOM     71  O   UNL A   1      47.258  38.074  27.662  1.00  0.00    -0.744 OA
ENDBRANCH  67  68
ENDBRANCH  46  60
BRANCH  47  72
ATOM     72  C   UNL A   1      43.301  23.637  27.012  1.00  0.00     0.058 A 
ATOM     73  C   UNL A   1      42.999  23.196  25.715  1.00  0.00     0.135 A 
ATOM     74  C   UNL A   1      43.154  22.722  28.065  1.00  0.00     0.135 A 
ATOM     75  F   UNL A   1      43.120  24.036  24.676  1.00  0.00    -0.206 F 
ATOM     76  C   UNL A   1      42.553  21.901  25.471  1.00  0.00     0.059 A 
ATOM     77  C   UNL A   1      42.734  21.414  27.843  1.00  0.00     0.059 A 
ATOM     78  F   UNL A   1      43.447  23.089  29.323  1.00  0.00    -0.206 F 
ATOM     79  C   UNL A   1      42.426  21.016  26.544  1.00  0.00     0.060 A 
BRANCH  79  80
ATOM     80  S   UNL A   1      41.896  19.322  26.208  1.00  0.00     0.124 S 
ATOM     81  O   UNL A   1      40.458  19.493  26.037  1.00  0.00    -0.237 OA
ATOM     82  O   UNL A   1      42.649  18.999  25.001  1.00  0.00    -0.237 OA
ATOM     83  O   UNL A   1      42.310  18.600  27.408  1.00  0.00    -0.744 OA
ENDBRANCH  79  80
ENDBRANCH  47  72
BRANCH  59  84
ATOM     84  C   UNL A   1      49.399  26.876  26.012  1.00  0.00     0.058 A 
ATOM     85  C   UNL A   1      49.774  27.017  24.667  1.00  0.00     0.135 A 
ATOM     86  C   UNL A   1      50.337  26.322  26.900  1.00  0.00     0.135 A 
ATOM     87  F   UNL A   1      48.912  27.534  23.777  1.00  0.00    -0.206 F 
ATOM     88  C   UNL A   1      51.023  26.605  24.214  1.00  0.00     0.059 A 
ATOM     89  C   UNL A   1      51.602  25.928  26.474  1.00  0.00     0.059 A 
ATOM     90  F   UNL A   1      50.033  26.174  28.200  1.00  0.00    -0.206 F 
ATOM     91  C   UNL A   1      51.932  26.064  25.126  1.00  0.00     0.060 A 
BRANCH  91  92
ATOM     92  S   UNL A   1      53.563  25.567  24.533  1.00  0.00     0.124 S 
ATOM     93  O   UNL A   1      53.548  24.132  24.800  1.00  0.00    -0.237 OA
ATOM     94  O   UNL A   1      53.513  25.950  23.125  1.00  0.00    -0.237 OA
ATOM     95  O   UNL A   1      54.478  26.351  25.358  1.00  0.00    -0.744 OA
ENDBRANCH  91  92
ENDBRANCH  59  84
ENDBRANCH  33  34
ENDBRANCH  25  28
ENDBRANCH  23  24
ENDBRANCH  22  23
ENDBRANCH   1  22
TORSDOF 19
ENDMDL
MODEL 2
REMARK VINA RESULT:     -10.8      1.461      2.602
REMARK SMILES C=CCN(CC(=O)NCCCCNC(=O)c1ccc(-c2c3nc(c(-c4c(F)cc(S(=O)(=O)[O-])cc4F)c4ccc([nH]4)c(-c4c(F)cc(S(=O)(=O)[O-])cc4F)c4nc(c(-c5c(F)cc(S(=O)(=O)[O-])cc5F)c5ccc2[nH]5)C=C4)C=C3)cc1)c1ccc([N+](=O)[O-])cc1Br
REMARK SMILES IDX 10 1 9 2 8 3 6 4 7 5 5 7 4 8 3 9 2 10 1 11 82 12 83 13 90 14
REMARK SMILES IDX 84 15 89 16 91 17 85 18 86 19 87 20 88 21 11 22 12 23 13 24
REMARK SMILES IDX 14 25 15 27 16 28 17 29 81 30 18 31 80 32 19 33 20 34 21 35
REMARK SMILES IDX 74 36 22 37 79 38 73 39 75 40 23 41 78 42 72 43 71 44 24 46
REMARK SMILES IDX 58 47 37 48 57 49 38 50 41 51 56 52 76 53 39 54 40 55 55 57
REMARK SMILES IDX 77 58 42 59 25 60 26 61 35 62 27 63 28 64 34 65 36 66 29 67
REMARK SMILES IDX 30 68 31 69 32 70 33 71 59 72 60 73 69 74 61 75 62 76 68 77
REMARK SMILES IDX 70 78 63 79 64 80 65 81 66 82 67 83 43 84 44 85 53 86 45 87
REMARK SMILES IDX 46 88 52 89 54 90 47 91 48 92 49 93 50 94 51 95
REMARK H PARENT 8 6 13 26 75 45 41 56
REMARK Flexibility Score: inf
ROOT
ATOM      1  C   UNL A   1      33.503  30.212  26.781  1.00  0.00     0.023 C 
ENDROOT
BRANCH   1   2
ATOM      2  C   UNL A   1      32.263  29.583  26.145  1.00  0.00     0.116 C 
BRANCH   2   3
ATOM      3  N   UNL A   1      31.836  28.386  26.837  1.00  0.00    -0.355 N 
ATOM      4  C   UNL A   1      32.029  27.068  26.535  1.00  0.00     0.239 C 
ATOM      5  O   UNL A   1      31.554  26.244  27.323  1.00  0.00    -0.273 OA
ATOM      6  H   UNL A   1      31.323  28.550  27.661  1.00  0.00     0.163 HD
BRANCH   4   7
ATOM      7  C   UNL A   1      32.831  26.607  25.304  1.00  0.00     0.216 C 
BRANCH   7   8
ATOM      8  N   UNL A   1      32.058  26.203  24.107  1.00  0.00    -0.358 N 
BRANCH   8   9
ATOM      9  C   UNL A   1      32.594  25.133  23.263  1.00  0.00     0.144 C 
BRANCH   9  10
ATOM     10  C   UNL A   1      33.935  24.648  23.707  1.00  0.00    -0.014 C 
ATOM     11  C   UNL A   1      34.191  23.384  24.074  1.00  0.00     0.006 C 
ENDBRANCH   9  10
ENDBRANCH   8   9
BRANCH   8  12
ATOM     12  C   UNL A   1      31.097  27.064  23.575  1.00  0.00     0.052 A 
ATOM     13  C   UNL A   1      29.729  26.726  23.645  1.00  0.00     0.034 A 
ATOM     14  C   UNL A   1      31.403  28.311  22.983  1.00  0.00     0.048 A 
ATOM     15  C   UNL A   1      28.716  27.585  23.204  1.00  0.00     0.088 A 
ATOM     16  C   UNL A   1      30.398  29.209  22.591  1.00  0.00     0.103 A 
ATOM     17  Br  UNL A   1      33.178  28.826  22.515  1.00  0.00    -0.048 Br
ATOM     18  C   UNL A   1      29.059  28.838  22.708  1.00  0.00     0.270 A 
BRANCH  18  19
ATOM     19  N   UNL A   1      28.009  29.766  22.285  1.00  0.00     0.062 N 
ATOM     20  O   UNL A   1      27.987  30.107  21.095  1.00  0.00    -0.258 OA
ATOM     21  O   UNL A   1      27.207  30.154  23.147  1.00  0.00    -0.258 OA
ENDBRANCH  18  19
ENDBRANCH   8  12
ENDBRANCH   7   8
ENDBRANCH   4   7
ENDBRANCH   2   3
ENDBRANCH   1   2
BRANCH   1  22
ATOM     22  C   UNL A   1      34.416  29.238  27.530  1.00  0.00     0.023 C 
BRANCH  22  23
ATOM     23  C   UNL A   1      35.660  29.862  28.149  1.00  0.00     0.116 C 
BRANCH  23  24
ATOM     24  N   UNL A   1      35.542  30.077  29.583  1.00  0.00    -0.352 N 
ATOM     25  C   UNL A   1      36.525  30.041  30.544  1.00  0.00     0.251 C 
ATOM     26  H   UNL A   1      34.634  30.275  29.909  1.00  0.00     0.163 HD
ATOM     27  O   UNL A   1      36.227  30.137  31.727  1.00  0.00    -0.269 OA
BRANCH  25  28
ATOM     28  C   UNL A   1      37.935  29.845  30.139  1.00  0.00     0.039 A 
ATOM     29  C   UNL A   1      38.857  29.415  31.096  1.00  0.00     0.014 A 
ATOM     30  C   UNL A   1      38.337  30.053  28.817  1.00  0.00     0.014 A 
ATOM     31  C   UNL A   1      40.167  29.121  30.709  1.00  0.00     0.010 A 
ATOM     32  C   UNL A   1      39.621  29.692  28.420  1.00  0.00     0.010 A 
ATOM     33  C   UNL A   1      40.549  29.220  29.361  1.00  0.00    -0.014 A 
BRANCH  33  34
ATOM     34  C   UNL A   1      41.906  28.818  28.913  1.00  0.00     0.031 A 
ATOM     35  C   UNL A   1      43.006  29.840  28.817  1.00  0.00     0.074 A 
ATOM     36  C   UNL A   1      42.128  27.547  28.519  1.00  0.00     0.049 A 
ATOM     37  N   UNL A   1      44.229  29.698  28.377  1.00  0.00    -0.248 NA
ATOM     38  C   UNL A   1      42.678  31.209  29.246  1.00  0.00     0.031 C 
ATOM     39  C   UNL A   1      41.129  26.476  28.512  1.00  0.00     0.029 A 
ATOM     40  N   UNL A   1      43.261  26.943  28.035  1.00  0.00    -0.354 N 
ATOM     41  C   UNL A   1      44.811  30.956  28.461  1.00  0.00     0.074 A 
ATOM     42  C   UNL A   1      43.792  31.861  28.945  1.00  0.00     0.031 C 
ATOM     43  C   UNL A   1      41.697  25.345  28.066  1.00  0.00     0.029 A 
ATOM     44  C   UNL A   1      43.089  25.616  27.719  1.00  0.00     0.049 A 
ATOM     45  H   UNL A   1      44.118  27.416  27.925  1.00  0.00     0.167 HD
ATOM     46  C   UNL A   1      46.086  31.321  28.180  1.00  0.00     0.037 A 
ATOM     47  C   UNL A   1      43.951  24.719  27.201  1.00  0.00     0.037 A 
ATOM     48  C   UNL A   1      47.104  30.409  27.724  1.00  0.00     0.049 A 
ATOM     49  C   UNL A   1      45.363  25.145  26.905  1.00  0.00     0.074 A 
ATOM     50  C   UNL A   1      48.440  30.668  27.477  1.00  0.00     0.029 A 
ATOM     51  N   UNL A   1      46.897  29.066  27.443  1.00  0.00    -0.354 N 
ATOM     52  N   UNL A   1      45.916  26.325  27.058  1.00  0.00    -0.248 NA
ATOM     53  C   UNL A   1      46.271  24.119  26.374  1.00  0.00     0.031 C 
ATOM     54  C   UNL A   1      49.033  29.491  27.005  1.00  0.00     0.029 A 
ATOM     55  C   UNL A   1      48.077  28.487  27.005  1.00  0.00     0.049 A 
ATOM     56  H   UNL A   1      46.039  28.595  27.541  1.00  0.00     0.167 HD
ATOM     57  C   UNL A   1      47.243  26.176  26.667  1.00  0.00     0.074 A 
ATOM     58  C   UNL A   1      47.411  24.790  26.282  1.00  0.00     0.031 C 
ATOM     59  C   UNL A   1      48.232  27.104  26.631  1.00  0.00     0.037 A 
BRANCH  46  60
ATOM     60  C   UNL A   1      46.453  32.768  28.364  1.00  0.00     0.058 A 
ATOM     61  C   UNL A   1      46.961  33.251  29.581  1.00  0.00     0.135 A 
ATOM     62  C   UNL A   1      46.329  33.678  27.301  1.00  0.00     0.135 A 
ATOM     63  F   UNL A   1      47.087  32.429  30.634  1.00  0.00    -0.206 F 
ATOM     64  C   UNL A   1      47.301  34.590  29.748  1.00  0.00     0.059 A 
ATOM     65  C   UNL A   1      46.690  35.014  27.437  1.00  0.00     0.059 A 
ATOM     66  F   UNL A   1      45.849  33.271  26.115  1.00  0.00    -0.206 F 
ATOM     67  C   UNL A   1      47.161  35.464  28.670  1.00  0.00     0.060 A 
BRANCH  67  68
ATOM     68  S   UNL A   1      47.606  37.198  28.903  1.00  0.00     0.124 S 
ATOM     69  O   UNL A   1      48.992  37.206  28.442  1.00  0.00    -0.237 OA
ATOM     70  O   UNL A   1      46.649  37.886  28.043  1.00  0.00    -0.237 OA
ATOM     71  O   UNL A   1      47.421  37.407  30.335  1.00  0.00    -0.744 OA
ENDBRANCH  67  68
ENDBRANCH  46  60
BRANCH  47  72
ATOM     72  C   UNL A   1      43.506  23.322  26.949  1.00  0.00     0.058 A 
ATOM     73  C   UNL A   1      43.250  22.872  25.646  1.00  0.00     0.135 A 
ATOM     74  C   UNL A   1      43.346  22.407  28.001  1.00  0.00     0.135 A 
ATOM     75  F   UNL A   1      43.385  23.711  24.607  1.00  0.00    -0.206 F 
ATOM     76  C   UNL A   1      42.834  21.568  25.394  1.00  0.00     0.059 A 
ATOM     77  C   UNL A   1      42.956  21.091  27.772  1.00  0.00     0.059 A 
ATOM     78  F   UNL A   1      43.596  22.783  29.265  1.00  0.00    -0.206 F 
ATOM     79  C   UNL A   1      42.693  20.684  26.465  1.00  0.00     0.060 A 
BRANCH  79  80
ATOM     80  S   UNL A   1      42.203  18.980  26.120  1.00  0.00     0.124 S 
ATOM     81  O   UNL A   1      43.113  18.626  25.038  1.00  0.00    -0.237 OA
ATOM     82  O   UNL A   1      42.448  18.326  27.401  1.00  0.00    -0.237 OA
ATOM     83  O   UNL A   1      40.797  19.106  25.748  1.00  0.00    -0.744 OA
ENDBRANCH  79  80
ENDBRANCH  47  72
BRANCH  59  84
ATOM     84  C   UNL A   1      49.594  26.646  26.190  1.00  0.00     0.058 A 
ATOM     85  C   UNL A   1      50.075  26.898  24.896  1.00  0.00     0.135 A 
ATOM     86  C   UNL A   1      50.450  25.995  27.094  1.00  0.00     0.135 A 
ATOM     87  F   UNL A   1      49.294  27.511  23.993  1.00  0.00    -0.206 F 
ATOM     88  C   UNL A   1      51.349  26.499  24.506  1.00  0.00     0.059 A 
ATOM     89  C   UNL A   1      51.738  25.612  26.733  1.00  0.00     0.059 A 
ATOM     90  F   UNL A   1      50.042  25.739  28.348  1.00  0.00    -0.206 F 
ATOM     91  C   UNL A   1      52.175  25.859  25.433  1.00  0.00     0.060 A 
BRANCH  91  92
ATOM     92  S   UNL A   1      53.840  25.380  24.924  1.00  0.00     0.124 S 
ATOM     93  O   UNL A   1      54.645  25.902  26.023  1.00  0.00    -0.237 OA
ATOM     94  O   UNL A   1      53.737  23.926  24.848  1.00  0.00    -0.237 OA
ATOM     95  O   UNL A   1      54.011  26.058  23.642  1.00  0.00    -0.744 OA
ENDBRANCH  91  92
ENDBRANCH  59  84
ENDBRANCH  33  34
ENDBRANCH  25  28
ENDBRANCH  23  24
ENDBRANCH  22  23
ENDBRANCH   1  22
TORSDOF 19
ENDMDL
MODEL 3
REMARK VINA RESULT:     -10.5      5.617     11.913
REMARK SMILES C=CCN(CC(=O)NCCCCNC(=O)c1ccc(-c2c3nc(c(-c4c(F)cc(S(=O)(=O)[O-])cc4F)c4ccc([nH]4)c(-c4c(F)cc(S(=O)(=O)[O-])cc4F)c4nc(c(-c5c(F)cc(S(=O)(=O)[O-])cc5F)c5ccc2[nH]5)C=C4)C=C3)cc1)c1ccc([N+](=O)[O-])cc1Br
REMARK SMILES IDX 10 1 9 2 8 3 6 4 7 5 5 7 4 8 3 9 2 10 1 11 82 12 83 13 90 14
REMARK SMILES IDX 84 15 89 16 91 17 85 18 86 19 87 20 88 21 11 22 12 23 13 24
REMARK SMILES IDX 14 25 15 27 16 28 17 29 81 30 18 31 80 32 19 33 20 34 21 35
REMARK SMILES IDX 74 36 22 37 79 38 73 39 75 40 23 41 78 42 72 43 71 44 24 46
REMARK SMILES IDX 58 47 37 48 57 49 38 50 41 51 56 52 76 53 39 54 40 55 55 57
REMARK SMILES IDX 77 58 42 59 25 60 26 61 35 62 27 63 28 64 34 65 36 66 29 67
REMARK SMILES IDX 30 68 31 69 32 70 33 71 59 72 60 73 69 74 61 75 62 76 68 77
REMARK SMILES IDX 70 78 63 79 64 80 65 81 66 82 67 83 43 84 44 85 53 86 45 87
REMARK SMILES IDX 46 88 52 89 54 90 47 91 48 92 49 93 50 94 51 95
REMARK H PARENT 8 6 13 26 75 45 41 56
REMARK Flexibility Score: inf
ROOT
ATOM      1  C   UNL A   1      42.604  22.572  28.816  1.00  0.00     0.023 C 
ENDROOT
BRANCH   1   2
ATOM      2  C   UNL A   1      43.639  23.399  28.051  1.00  0.00     0.116 C 
BRANCH   2   3
ATOM      3  N   UNL A   1      44.441  22.588  27.161  1.00  0.00    -0.355 N 
ATOM      4  C   UNL A   1      45.685  22.803  26.641  1.00  0.00     0.239 C 
ATOM      5  O   UNL A   1      46.139  21.921  25.904  1.00  0.00    -0.273 OA
ATOM      6  H   UNL A   1      44.019  21.742  26.885  1.00  0.00     0.163 HD
BRANCH   4   7
ATOM      7  C   UNL A   1      46.520  24.053  26.976  1.00  0.00     0.216 C 
BRANCH   7   8
ATOM      8  N   UNL A   1      46.446  25.190  26.029  1.00  0.00    -0.358 N 
BRANCH   8   9
ATOM      9  C   UNL A   1      47.438  25.267  24.956  1.00  0.00     0.144 C 
BRANCH   9  10
ATOM     10  C   UNL A   1      48.494  26.294  25.204  1.00  0.00    -0.014 C 
ATOM     11  C   UNL A   1      49.530  26.519  24.383  1.00  0.00     0.006 C 
ENDBRANCH   9  10
ENDBRANCH   8   9
BRANCH   8  12
ATOM     12  C   UNL A   1      45.740  26.343  26.379  1.00  0.00     0.052 A 
ATOM     13  C   UNL A   1      46.324  27.296  27.238  1.00  0.00     0.034 A 
ATOM     14  C   UNL A   1      44.450  26.651  25.887  1.00  0.00     0.048 A 
ATOM     15  C   UNL A   1      45.699  28.507  27.558  1.00  0.00     0.088 A 
ATOM     16  C   UNL A   1      43.836  27.886  26.148  1.00  0.00     0.103 A 
ATOM     17  Br  UNL A   1      43.363  25.384  24.967  1.00  0.00    -0.048 Br
ATOM     18  C   UNL A   1      44.469  28.807  26.983  1.00  0.00     0.270 A 
BRANCH  18  19
ATOM     19  N   UNL A   1      43.823  30.089  27.271  1.00  0.00     0.062 N 
ATOM     20  O   UNL A   1      43.111  30.586  26.389  1.00  0.00    -0.258 OA
ATOM     21  O   UNL A   1      44.031  30.597  28.383  1.00  0.00    -0.258 OA
ENDBRANCH  18  19
ENDBRANCH   8  12
ENDBRANCH   7   8
ENDBRANCH   4   7
ENDBRANCH   2   3
ENDBRANCH   1   2
BRANCH   1  22
ATOM     22  C   UNL A   1      41.490  21.968  27.958  1.00  0.00     0.023 C 
BRANCH  22  23
ATOM     23  C   UNL A   1      41.430  22.473  26.522  1.00  0.00     0.116 C 
BRANCH  23  24
ATOM     24  N   UNL A   1      40.081  22.498  25.978  1.00  0.00    -0.352 N 
ATOM     25  C   UNL A   1      39.094  23.437  26.165  1.00  0.00     0.251 C 
ATOM     26  H   UNL A   1      39.844  21.740  25.396  1.00  0.00     0.163 HD
ATOM     27  O   UNL A   1      37.972  23.242  25.715  1.00  0.00    -0.269 OA
BRANCH  25  28
ATOM     28  C   UNL A   1      39.388  24.660  26.945  1.00  0.00     0.039 A 
ATOM     29  C   UNL A   1      38.962  24.730  28.273  1.00  0.00     0.014 A 
ATOM     30  C   UNL A   1      40.107  25.717  26.380  1.00  0.00     0.014 A 
ATOM     31  C   UNL A   1      39.322  25.829  29.057  1.00  0.00     0.010 A 
ATOM     32  C   UNL A   1      40.526  26.774  27.181  1.00  0.00     0.010 A 
ATOM     33  C   UNL A   1      40.141  26.841  28.528  1.00  0.00    -0.014 A 
BRANCH  33  34
ATOM     34  C   UNL A   1      40.618  27.966  29.372  1.00  0.00     0.031 A 
ATOM     35  C   UNL A   1      39.747  29.174  29.586  1.00  0.00     0.074 A 
ATOM     36  C   UNL A   1      41.865  27.932  29.882  1.00  0.00     0.049 A 
ATOM     37  N   UNL A   1      40.017  30.283  30.224  1.00  0.00    -0.248 NA
ATOM     38  C   UNL A   1      38.407  29.142  28.979  1.00  0.00     0.031 C 
ATOM     39  C   UNL A   1      42.827  26.842  29.698  1.00  0.00     0.029 A 
ATOM     40  N   UNL A   1      42.546  28.846  30.648  1.00  0.00    -0.354 N 
ATOM     41  C   UNL A   1      38.891  31.085  30.083  1.00  0.00     0.074 A 
ATOM     42  C   UNL A   1      37.955  30.357  29.256  1.00  0.00     0.031 C 
ATOM     43  C   UNL A   1      43.962  27.141  30.348  1.00  0.00     0.029 A 
ATOM     44  C   UNL A   1      43.828  28.459  30.962  1.00  0.00     0.049 A 
ATOM     45  H   UNL A   1      42.154  29.699  30.943  1.00  0.00     0.167 HD
ATOM     46  C   UNL A   1      38.651  32.309  30.613  1.00  0.00     0.037 A 
ATOM     47  C   UNL A   1      44.789  29.095  31.660  1.00  0.00     0.037 A 
ATOM     48  C   UNL A   1      39.577  33.018  31.458  1.00  0.00     0.049 A 
ATOM     49  C   UNL A   1      44.496  30.449  32.246  1.00  0.00     0.074 A 
ATOM     50  C   UNL A   1      39.400  34.232  32.099  1.00  0.00     0.029 A 
ATOM     51  N   UNL A   1      40.854  32.579  31.778  1.00  0.00    -0.354 N 
ATOM     52  N   UNL A   1      43.398  31.162  32.161  1.00  0.00    -0.248 NA
ATOM     53  C   UNL A   1      45.567  31.083  33.027  1.00  0.00     0.031 C 
ATOM     54  C   UNL A   1      40.586  34.548  32.771  1.00  0.00     0.029 A 
ATOM     55  C   UNL A   1      41.484  33.509  32.590  1.00  0.00     0.049 A 
ATOM     56  H   UNL A   1      41.253  31.733  31.474  1.00  0.00     0.167 HD
ATOM     57  C   UNL A   1      43.638  32.316  32.901  1.00  0.00     0.074 A 
ATOM     58  C   UNL A   1      44.980  32.200  33.433  1.00  0.00     0.031 C 
ATOM     59  C   UNL A   1      42.819  33.376  33.118  1.00  0.00     0.037 A 
BRANCH  46  60
ATOM     60  C   UNL A   1      37.331  32.958  30.298  1.00  0.00     0.058 A 
ATOM     61  C   UNL A   1      36.226  32.837  31.156  1.00  0.00     0.135 A 
ATOM     62  C   UNL A   1      37.177  33.740  29.141  1.00  0.00     0.135 A 
ATOM     63  F   UNL A   1      36.313  32.090  32.268  1.00  0.00    -0.206 F 
ATOM     64  C   UNL A   1      35.007  33.439  30.863  1.00  0.00     0.059 A 
ATOM     65  C   UNL A   1      35.975  34.374  28.843  1.00  0.00     0.059 A 
ATOM     66  F   UNL A   1      38.200  33.890  28.285  1.00  0.00    -0.206 F 
ATOM     67  C   UNL A   1      34.891  34.205  29.703  1.00  0.00     0.060 A 
BRANCH  67  68
ATOM     68  S   UNL A   1      33.302  34.979  29.337  1.00  0.00     0.124 S 
ATOM     69  O   UNL A   1      33.724  36.281  28.828  1.00  0.00    -0.237 OA
ATOM     70  O   UNL A   1      32.730  34.069  28.349  1.00  0.00    -0.237 OA
ATOM     71  O   UNL A   1      32.627  35.000  30.631  1.00  0.00    -0.744 OA
ENDBRANCH  67  68
ENDBRANCH  46  60
BRANCH  47  72
ATOM     72  C   UNL A   1      46.113  28.446  31.861  1.00  0.00     0.058 A 
ATOM     73  C   UNL A   1      46.303  27.495  32.874  1.00  0.00     0.135 A 
ATOM     74  C   UNL A   1      47.206  28.751  31.036  1.00  0.00     0.135 A 
ATOM     75  F   UNL A   1      45.288  27.174  33.691  1.00  0.00    -0.206 F 
ATOM     76  C   UNL A   1      47.534  26.879  33.073  1.00  0.00     0.059 A 
ATOM     77  C   UNL A   1      48.440  28.130  31.200  1.00  0.00     0.059 A 
ATOM     78  F   UNL A   1      47.072  29.641  30.040  1.00  0.00    -0.206 F 
ATOM     79  C   UNL A   1      48.597  27.202  32.228  1.00  0.00     0.060 A 
BRANCH  79  80
ATOM     80  S   UNL A   1      50.176  26.357  32.464  1.00  0.00     0.124 S 
ATOM     81  O   UNL A   1      49.898  25.049  31.884  1.00  0.00    -0.237 OA
ATOM     82  O   UNL A   1      51.094  27.208  31.713  1.00  0.00    -0.237 OA
ATOM     83  O   UNL A   1      50.354  26.382  33.913  1.00  0.00    -0.744 OA
ENDBRANCH  79  80
ENDBRANCH  47  72
BRANCH  59  84
ATOM     84  C   UNL A   1      43.337  34.482  33.995  1.00  0.00     0.058 A 
ATOM     85  C   UNL A   1      43.188  34.451  35.390  1.00  0.00     0.135 A 
ATOM     86  C   UNL A   1      44.041  35.560  33.433  1.00  0.00     0.135 A 
ATOM     87  F   UNL A   1      42.518  33.445  35.975  1.00  0.00    -0.206 F 
ATOM     88  C   UNL A   1      43.699  35.462  36.197  1.00  0.00     0.059 A 
ATOM     89  C   UNL A   1      44.584  36.568  34.225  1.00  0.00     0.059 A 
ATOM     90  F   UNL A   1      44.221  35.633  32.105  1.00  0.00    -0.206 F 
ATOM     91  C   UNL A   1      44.399  36.516  35.605  1.00  0.00     0.060 A 
BRANCH  91  92
ATOM     92  S   UNL A   1      45.088  37.803  36.667  1.00  0.00     0.124 S 
ATOM     93  O   UNL A   1      45.964  37.026  37.538  1.00  0.00    -0.237 OA
ATOM     94  O   UNL A   1      45.758  38.674  35.707  1.00  0.00    -0.237 OA
ATOM     95  O   UNL A   1      43.910  38.378  37.311  1.00  0.00    -0.744 OA
ENDBRANCH  91  92
ENDBRANCH  59  84
ENDBRANCH  33  34
ENDBRANCH  25  28
ENDBRANCH  23  24
ENDBRANCH  22  23
ENDBRANCH   1  22
TORSDOF 19
ENDMDL
