MODEL 1
REMARK VINA RESULT:     -11.4      0.000      0.000
REMARK SMILES COc1ccc([C@H]2CC(c3ccccc3)=NN2C(=O)CCCC(=O)NCCCCNC(=O)c2ccc(-c3c4nc(c(-c5c(F)cc(S(=O)(=O)[O-])cc5F)c5ccc([nH]5)c(-c5c(F)cc(S(=O)(=O)[O-])cc5F)c5nc(c(-c6c(F)cc(S(=O)(=O)[O-])cc6F)c6ccc3[nH]6)C=C5)C=C4)cc2)cc1
REMARK SMILES IDX 26 1 25 2 23 3 24 4 22 6 21 7 20 8 18 9 19 10 17 11 7 12
REMARK SMILES IDX 8 13 9 14 16 15 6 16 3 17 4 18 100 19 5 20 99 21 2 22 1 23
REMARK SMILES IDX 10 24 11 25 15 26 12 27 14 28 13 29 27 30 28 31 29 32 30 33
REMARK SMILES IDX 31 34 32 36 33 37 34 38 98 39 35 40 97 41 36 42 37 43 38 44
REMARK SMILES IDX 91 45 39 46 96 47 90 48 92 49 40 50 95 51 89 52 88 53 41 55
REMARK SMILES IDX 75 56 54 57 74 58 55 59 58 60 73 61 93 62 56 63 57 64 72 66
REMARK SMILES IDX 94 67 59 68 42 69 43 70 52 71 44 72 45 73 51 74 53 75 46 76
REMARK SMILES IDX 47 77 48 78 49 79 50 80 76 81 77 82 86 83 78 84 79 85 85 86
REMARK SMILES IDX 87 87 80 88 81 89 82 90 83 91 84 92 60 93 61 94 70 95 62 96
REMARK SMILES IDX 63 97 69 98 71 99 64 100 65 101 66 102 67 103 68 104
REMARK H PARENT 25 5 30 35 92 54 58 65
REMARK Flexibility Score: inf
ROOT
ATOM      1  C   UNL A   1      38.317  22.088  25.867  1.00  0.00     0.116 C 
ENDROOT
BRANCH   1   2
ATOM      2  N   UNL A   1      37.886  22.559  24.577  1.00  0.00    -0.356 N 
ATOM      3  C   UNL A   1      36.682  23.038  24.174  1.00  0.00     0.220 C 
ATOM      4  O   UNL A   1      36.505  23.138  22.957  1.00  0.00    -0.275 OA
ATOM      5  H   UNL A   1      38.575  22.529  23.875  1.00  0.00     0.163 HD
BRANCH   3   6
ATOM      6  C   UNL A   1      35.663  23.618  25.141  1.00  0.00     0.100 C 
BRANCH   6   7
ATOM      7  C   UNL A   1      35.370  23.085  26.528  1.00  0.00     0.020 C 
BRANCH   7   8
ATOM      8  C   UNL A   1      34.065  23.433  27.247  1.00  0.00     0.103 C 
BRANCH   8   9
ATOM      9  C   UNL A   1      32.695  22.782  26.982  1.00  0.00     0.243 C 
ATOM     10  O   UNL A   1      31.724  23.275  27.579  1.00  0.00    -0.273 OA
BRANCH   9  11
ATOM     11  N   UNL A   1      32.498  21.865  25.952  1.00  0.00    -0.225 N 
ATOM     12  C   UNL A   1      31.882  21.992  24.608  1.00  0.00     0.147 C 
ATOM     13  C   UNL A   1      32.041  20.617  23.970  1.00  0.00     0.091 C 
ATOM     14  C   UNL A   1      32.869  19.948  25.017  1.00  0.00     0.071 C 
ATOM     15  N   UNL A   1      33.113  20.629  26.090  1.00  0.00    -0.174 NA
BRANCH  12  16
ATOM     16  C   UNL A   1      32.491  23.073  23.722  1.00  0.00    -0.023 A 
ATOM     17  C   UNL A   1      33.085  24.978  21.768  1.00  0.00     0.118 A 
ATOM     18  C   UNL A   1      33.335  23.635  21.509  1.00  0.00     0.047 A 
ATOM     19  C   UNL A   1      32.627  25.389  23.018  1.00  0.00     0.047 A 
ATOM     20  C   UNL A   1      33.077  22.687  22.498  1.00  0.00     0.010 A 
ATOM     21  C   UNL A   1      32.344  24.439  24.001  1.00  0.00     0.010 A 
BRANCH  17  22
ATOM     22  O   UNL A   1      33.143  25.867  20.731  1.00  0.00    -0.497 OA
ATOM     23  C   UNL A   1      32.451  25.365  19.595  1.00  0.00     0.278 C 
ENDBRANCH  17  22
ENDBRANCH  12  16
BRANCH  14  24
ATOM     24  C   UNL A   1      33.338  18.578  24.806  1.00  0.00    -0.002 A 
ATOM     25  C   UNL A   1      34.688  18.344  24.543  1.00  0.00     0.010 A 
ATOM     26  C   UNL A   1      32.422  17.527  24.870  1.00  0.00     0.010 A 
ATOM     27  C   UNL A   1      35.126  17.034  24.343  1.00  0.00     0.001 A 
ATOM     28  C   UNL A   1      32.865  16.223  24.656  1.00  0.00     0.001 A 
ATOM     29  C   UNL A   1      34.214  15.978  24.395  1.00  0.00     0.000 A 
ENDBRANCH  14  24
ENDBRANCH   9  11
ENDBRANCH   8   9
ENDBRANCH   7   8
ENDBRANCH   6   7
ENDBRANCH   3   6
ENDBRANCH   1   2
BRANCH   1  30
ATOM     30  C   UNL A   1      39.414  22.993  26.419  1.00  0.00     0.023 C 
BRANCH  30  31
ATOM     31  C   UNL A   1      38.933  24.425  26.633  1.00  0.00     0.023 C 
BRANCH  31  32
ATOM     32  C   UNL A   1      39.940  25.478  26.195  1.00  0.00     0.116 C 
BRANCH  32  33
ATOM     33  N   UNL A   1      41.240  24.915  25.850  1.00  0.00    -0.352 N 
ATOM     34  C   UNL A   1      42.443  25.187  26.455  1.00  0.00     0.251 C 
ATOM     35  H   UNL A   1      41.257  24.271  25.105  1.00  0.00     0.163 HD
ATOM     36  O   UNL A   1      43.497  24.742  26.018  1.00  0.00    -0.269 OA
BRANCH  34  37
ATOM     37  C   UNL A   1      42.415  26.064  27.636  1.00  0.00     0.039 A 
ATOM     38  C   UNL A   1      42.955  27.346  27.541  1.00  0.00     0.014 A 
ATOM     39  C   UNL A   1      41.704  25.654  28.768  1.00  0.00     0.014 A 
ATOM     40  C   UNL A   1      42.732  28.251  28.578  1.00  0.00     0.010 A 
ATOM     41  C   UNL A   1      41.425  26.580  29.762  1.00  0.00     0.010 A 
ATOM     42  C   UNL A   1      41.939  27.884  29.678  1.00  0.00    -0.014 A 
BRANCH  42  43
ATOM     43  C   UNL A   1      41.649  28.841  30.773  1.00  0.00     0.031 A 
ATOM     44  C   UNL A   1      42.481  28.796  32.024  1.00  0.00     0.074 A 
ATOM     45  C   UNL A   1      40.605  29.685  30.671  1.00  0.00     0.049 A 
ATOM     46  N   UNL A   1      42.337  29.466  33.135  1.00  0.00    -0.248 NA
ATOM     47  C   UNL A   1      43.601  27.839  32.039  1.00  0.00     0.031 C 
ATOM     48  C   UNL A   1      39.693  29.776  29.528  1.00  0.00     0.029 A 
ATOM     49  N   UNL A   1      40.125  30.622  31.552  1.00  0.00    -0.354 N 
ATOM     50  C   UNL A   1      43.329  28.998  33.987  1.00  0.00     0.074 A 
ATOM     51  C   UNL A   1      44.032  27.947  33.286  1.00  0.00     0.031 C 
ATOM     52  C   UNL A   1      38.779  30.732  29.769  1.00  0.00     0.029 A 
ATOM     53  C   UNL A   1      39.020  31.299  31.091  1.00  0.00     0.049 A 
ATOM     54  H   UNL A   1      40.534  30.794  32.430  1.00  0.00     0.167 HD
ATOM     55  C   UNL A   1      43.645  29.426  35.232  1.00  0.00     0.037 A 
ATOM     56  C   UNL A   1      38.287  32.267  31.676  1.00  0.00     0.037 A 
ATOM     57  C   UNL A   1      42.971  30.504  35.900  1.00  0.00     0.049 A 
ATOM     58  C   UNL A   1      38.681  32.752  33.045  1.00  0.00     0.074 A 
ATOM     59  C   UNL A   1      43.251  31.061  37.136  1.00  0.00     0.029 A 
ATOM     60  N   UNL A   1      41.889  31.201  35.382  1.00  0.00    -0.354 N 
ATOM     61  N   UNL A   1      39.658  32.337  33.816  1.00  0.00    -0.248 NA
ATOM     62  C   UNL A   1      37.881  33.841  33.622  1.00  0.00     0.031 C 
ATOM     63  C   UNL A   1      42.320  32.077  37.376  1.00  0.00     0.029 A 
ATOM     64  C   UNL A   1      41.485  32.177  36.274  1.00  0.00     0.049 A 
ATOM     65  H   UNL A   1      41.471  31.025  34.508  1.00  0.00     0.167 HD
ATOM     66  C   UNL A   1      39.608  33.131  34.956  1.00  0.00     0.074 A 
ATOM     67  C   UNL A   1      38.510  34.059  34.769  1.00  0.00     0.031 C 
ATOM     68  C   UNL A   1      40.398  33.099  36.057  1.00  0.00     0.037 A 
BRANCH  55  69
ATOM     69  C   UNL A   1      44.778  28.735  35.935  1.00  0.00     0.058 A 
ATOM     70  C   UNL A   1      44.555  27.640  36.787  1.00  0.00     0.135 A 
ATOM     71  C   UNL A   1      46.103  29.157  35.746  1.00  0.00     0.135 A 
ATOM     72  F   UNL A   1      43.305  27.209  37.020  1.00  0.00    -0.206 F 
ATOM     73  C   UNL A   1      45.601  27.011  37.452  1.00  0.00     0.059 A 
ATOM     74  C   UNL A   1      47.168  28.524  36.379  1.00  0.00     0.059 A 
ATOM     75  F   UNL A   1      46.373  30.201  34.945  1.00  0.00    -0.206 F 
ATOM     76  C   UNL A   1      46.905  27.462  37.243  1.00  0.00     0.060 A 
BRANCH  76  77
ATOM     77  S   UNL A   1      48.253  26.634  38.113  1.00  0.00     0.124 S 
ATOM     78  O   UNL A   1      48.971  27.771  38.682  1.00  0.00    -0.237 OA
ATOM     79  O   UNL A   1      47.540  25.792  39.069  1.00  0.00    -0.237 OA
ATOM     80  O   UNL A   1      48.952  25.919  37.051  1.00  0.00    -0.744 OA
ENDBRANCH  76  77
ENDBRANCH  55  69
BRANCH  56  81
ATOM     81  C   UNL A   1      37.130  32.865  30.957  1.00  0.00     0.058 A 
ATOM     82  C   UNL A   1      35.814  32.561  31.337  1.00  0.00     0.135 A 
ATOM     83  C   UNL A   1      37.313  33.750  29.885  1.00  0.00     0.135 A 
ATOM     84  F   UNL A   1      35.588  31.715  32.355  1.00  0.00    -0.206 F 
ATOM     85  C   UNL A   1      34.720  33.098  30.668  1.00  0.00     0.059 A 
ATOM     86  C   UNL A   1      36.234  34.318  29.214  1.00  0.00     0.059 A 
ATOM     87  F   UNL A   1      38.553  34.088  29.496  1.00  0.00    -0.206 F 
ATOM     88  C   UNL A   1      34.940  33.976  29.606  1.00  0.00     0.060 A 
BRANCH  88  89
ATOM     89  S   UNL A   1      33.513  34.699  28.768  1.00  0.00     0.124 S 
ATOM     90  O   UNL A   1      32.609  34.942  29.886  1.00  0.00    -0.237 OA
ATOM     91  O   UNL A   1      34.091  35.885  28.144  1.00  0.00    -0.237 OA
ATOM     92  O   UNL A   1      33.104  33.649  27.840  1.00  0.00    -0.744 OA
ENDBRANCH  88  89
ENDBRANCH  56  81
BRANCH  68  93
ATOM     93  C   UNL A   1      40.132  34.116  37.129  1.00  0.00     0.058 A 
ATOM     94  C   UNL A   1      40.619  35.427  37.035  1.00  0.00     0.135 A 
ATOM     95  C   UNL A   1      39.322  33.789  38.228  1.00  0.00     0.135 A 
ATOM     96  F   UNL A   1      41.403  35.786  36.006  1.00  0.00    -0.206 F 
ATOM     97  C   UNL A   1      40.324  36.380  38.005  1.00  0.00     0.059 A 
ATOM     98  C   UNL A   1      38.994  34.732  39.196  1.00  0.00     0.059 A 
ATOM     99  F   UNL A   1      38.823  32.549  38.356  1.00  0.00    -0.206 F 
ATOM    100  C   UNL A   1      39.508  36.023  39.080  1.00  0.00     0.060 A 
BRANCH 100 101
ATOM    101  S   UNL A   1      39.091  37.280  40.306  1.00  0.00     0.124 S 
ATOM    102  O   UNL A   1      38.344  38.240  39.500  1.00  0.00    -0.237 OA
ATOM    103  O   UNL A   1      38.307  36.524  41.278  1.00  0.00    -0.237 OA
ATOM    104  O   UNL A   1      40.393  37.736  40.782  1.00  0.00    -0.744 OA
ENDBRANCH 100 101
ENDBRANCH  68  93
ENDBRANCH  42  43
ENDBRANCH  34  37
ENDBRANCH  32  33
ENDBRANCH  31  32
ENDBRANCH  30  31
ENDBRANCH   1  30
TORSDOF 21
ENDMDL
MODEL 2
REMARK VINA RESULT:     -11.4      6.358     11.465
REMARK SMILES COc1ccc([C@H]2CC(c3ccccc3)=NN2C(=O)CCCC(=O)NCCCCNC(=O)c2ccc(-c3c4nc(c(-c5c(F)cc(S(=O)(=O)[O-])cc5F)c5ccc([nH]5)c(-c5c(F)cc(S(=O)(=O)[O-])cc5F)c5nc(c(-c6c(F)cc(S(=O)(=O)[O-])cc6F)c6ccc3[nH]6)C=C5)C=C4)cc2)cc1
REMARK SMILES IDX 26 1 25 2 23 3 24 4 22 6 21 7 20 8 18 9 19 10 17 11 7 12
REMARK SMILES IDX 8 13 9 14 16 15 6 16 3 17 4 18 100 19 5 20 99 21 2 22 1 23
REMARK SMILES IDX 10 24 11 25 15 26 12 27 14 28 13 29 27 30 28 31 29 32 30 33
REMARK SMILES IDX 31 34 32 36 33 37 34 38 98 39 35 40 97 41 36 42 37 43 38 44
REMARK SMILES IDX 91 45 39 46 96 47 90 48 92 49 40 50 95 51 89 52 88 53 41 55
REMARK SMILES IDX 75 56 54 57 74 58 55 59 58 60 73 61 93 62 56 63 57 64 72 66
REMARK SMILES IDX 94 67 59 68 42 69 43 70 52 71 44 72 45 73 51 74 53 75 46 76
REMARK SMILES IDX 47 77 48 78 49 79 50 80 76 81 77 82 86 83 78 84 79 85 85 86
REMARK SMILES IDX 87 87 80 88 81 89 82 90 83 91 84 92 60 93 61 94 70 95 62 96
REMARK SMILES IDX 63 97 69 98 71 99 64 100 65 101 66 102 67 103 68 104
REMARK H PARENT 25 5 30 35 92 54 58 65
REMARK Flexibility Score: inf
ROOT
ATOM      1  C   UNL A   1      35.139  32.991  28.010  1.00  0.00     0.116 C 
ENDROOT
BRANCH   1   2
ATOM      2  N   UNL A   1      35.616  31.702  27.584  1.00  0.00    -0.356 N 
ATOM      3  C   UNL A   1      34.969  30.512  27.492  1.00  0.00     0.220 C 
ATOM      4  O   UNL A   1      35.672  29.510  27.339  1.00  0.00    -0.275 OA
ATOM      5  H   UNL A   1      36.563  31.679  27.317  1.00  0.00     0.163 HD
BRANCH   3   6
ATOM      6  C   UNL A   1      33.457  30.406  27.378  1.00  0.00     0.100 C 
BRANCH   6   7
ATOM      7  C   UNL A   1      32.707  29.282  26.696  1.00  0.00     0.020 C 
BRANCH   7   8
ATOM      8  C   UNL A   1      32.798  27.844  27.212  1.00  0.00     0.103 C 
BRANCH   8   9
ATOM      9  C   UNL A   1      31.824  26.704  26.864  1.00  0.00     0.243 C 
ATOM     10  O   UNL A   1      30.658  26.829  27.269  1.00  0.00    -0.273 OA
BRANCH   9  11
ATOM     11  N   UNL A   1      32.147  25.711  25.941  1.00  0.00    -0.225 N 
ATOM     12  C   UNL A   1      31.429  25.179  24.756  1.00  0.00     0.147 C 
ATOM     13  C   UNL A   1      32.369  24.139  24.159  1.00  0.00     0.091 C 
ATOM     14  C   UNL A   1      33.563  24.349  25.031  1.00  0.00     0.071 C 
ATOM     15  N   UNL A   1      33.436  25.202  25.996  1.00  0.00    -0.174 NA
BRANCH  12  16
ATOM     16  C   UNL A   1      31.045  26.224  23.715  1.00  0.00    -0.023 A 
ATOM     17  C   UNL A   1      30.316  28.518  22.300  1.00  0.00     0.118 A 
ATOM     18  C   UNL A   1      29.333  27.770  22.938  1.00  0.00     0.047 A 
ATOM     19  C   UNL A   1      31.641  28.089  22.285  1.00  0.00     0.047 A 
ATOM     20  C   UNL A   1      29.690  26.602  23.611  1.00  0.00     0.010 A 
ATOM     21  C   UNL A   1      32.005  26.934  22.979  1.00  0.00     0.010 A 
BRANCH  17  22
ATOM     22  O   UNL A   1      29.990  29.759  21.825  1.00  0.00    -0.497 OA
ATOM     23  C   UNL A   1      28.587  29.978  21.903  1.00  0.00     0.278 C 
ENDBRANCH  17  22
ENDBRANCH  12  16
BRANCH  14  24
ATOM     24  C   UNL A   1      34.787  23.585  24.783  1.00  0.00    -0.002 A 
ATOM     25  C   UNL A   1      35.365  23.602  23.514  1.00  0.00     0.010 A 
ATOM     26  C   UNL A   1      35.353  22.850  25.826  1.00  0.00     0.010 A 
ATOM     27  C   UNL A   1      36.531  22.870  23.287  1.00  0.00     0.001 A 
ATOM     28  C   UNL A   1      36.511  22.112  25.588  1.00  0.00     0.001 A 
ATOM     29  C   UNL A   1      37.099  22.123  24.321  1.00  0.00     0.000 A 
ENDBRANCH  14  24
ENDBRANCH   9  11
ENDBRANCH   8   9
ENDBRANCH   7   8
ENDBRANCH   6   7
ENDBRANCH   3   6
ENDBRANCH   1   2
BRANCH   1  30
ATOM     30  C   UNL A   1      36.265  33.775  28.677  1.00  0.00     0.023 C 
BRANCH  30  31
ATOM     31  C   UNL A   1      36.099  33.858  30.191  1.00  0.00     0.023 C 
BRANCH  31  32
ATOM     32  C   UNL A   1      36.976  32.876  30.954  1.00  0.00     0.116 C 
BRANCH  32  33
ATOM     33  N   UNL A   1      36.330  31.589  31.178  1.00  0.00    -0.352 N 
ATOM     34  C   UNL A   1      36.850  30.347  30.907  1.00  0.00     0.251 C 
ATOM     35  H   UNL A   1      35.424  31.613  31.564  1.00  0.00     0.163 HD
ATOM     36  O   UNL A   1      36.181  29.329  31.031  1.00  0.00    -0.269 OA
BRANCH  34  37
ATOM     37  C   UNL A   1      38.241  30.294  30.428  1.00  0.00     0.039 A 
ATOM     38  C   UNL A   1      39.256  29.971  31.329  1.00  0.00     0.014 A 
ATOM     39  C   UNL A   1      38.490  30.406  29.057  1.00  0.00     0.014 A 
ATOM     40  C   UNL A   1      40.533  29.702  30.838  1.00  0.00     0.010 A 
ATOM     41  C   UNL A   1      39.743  30.068  28.569  1.00  0.00     0.010 A 
ATOM     42  C   UNL A   1      40.775  29.717  29.454  1.00  0.00    -0.014 A 
BRANCH  42  43
ATOM     43  C   UNL A   1      42.113  29.392  28.903  1.00  0.00     0.031 A 
ATOM     44  C   UNL A   1      42.386  27.998  28.414  1.00  0.00     0.074 A 
ATOM     45  C   UNL A   1      43.089  30.320  28.914  1.00  0.00     0.049 A 
ATOM     46  N   UNL A   1      43.505  27.475  27.992  1.00  0.00    -0.248 NA
ATOM     47  C   UNL A   1      41.253  27.054  28.441  1.00  0.00     0.031 C 
ATOM     48  C   UNL A   1      42.955  31.689  29.420  1.00  0.00     0.029 A 
ATOM     49  N   UNL A   1      44.395  30.248  28.499  1.00  0.00    -0.354 N 
ATOM     50  C   UNL A   1      43.221  26.142  27.727  1.00  0.00     0.074 A 
ATOM     51  C   UNL A   1      41.839  25.920  28.089  1.00  0.00     0.031 C 
ATOM     52  C   UNL A   1      44.125  32.332  29.263  1.00  0.00     0.029 A 
ATOM     53  C   UNL A   1      45.097  31.416  28.677  1.00  0.00     0.049 A 
ATOM     54  H   UNL A   1      44.791  29.435  28.110  1.00  0.00     0.167 HD
ATOM     55  C   UNL A   1      44.031  25.194  27.200  1.00  0.00     0.037 A 
ATOM     56  C   UNL A   1      46.383  31.710  28.398  1.00  0.00     0.037 A 
ATOM     57  C   UNL A   1      45.389  25.437  26.798  1.00  0.00     0.049 A 
ATOM     58  C   UNL A   1      47.253  30.650  27.778  1.00  0.00     0.074 A 
ATOM     59  C   UNL A   1      46.278  24.565  26.195  1.00  0.00     0.029 A 
ATOM     60  N   UNL A   1      46.050  26.648  26.946  1.00  0.00    -0.354 N 
ATOM     61  N   UNL A   1      46.953  29.408  27.480  1.00  0.00    -0.248 NA
ATOM     62  C   UNL A   1      48.633  31.030  27.447  1.00  0.00     0.031 C 
ATOM     63  C   UNL A   1      47.487  25.242  26.002  1.00  0.00     0.029 A 
ATOM     64  C   UNL A   1      47.338  26.544  26.452  1.00  0.00     0.049 A 
ATOM     65  H   UNL A   1      45.661  27.459  27.344  1.00  0.00     0.167 HD
ATOM     66  C   UNL A   1      48.096  28.867  26.903  1.00  0.00     0.074 A 
ATOM     67  C   UNL A   1      49.091  29.921  26.884  1.00  0.00     0.031 C 
ATOM     68  C   UNL A   1      48.305  27.614  26.430  1.00  0.00     0.037 A 
BRANCH  55  69
ATOM     69  C   UNL A   1      43.458  23.817  27.016  1.00  0.00     0.058 A 
ATOM     70  C   UNL A   1      43.286  22.943  28.102  1.00  0.00     0.135 A 
ATOM     71  C   UNL A   1      43.061  23.370  25.747  1.00  0.00     0.135 A 
ATOM     72  F   UNL A   1      43.669  23.312  29.335  1.00  0.00    -0.206 F 
ATOM     73  C   UNL A   1      42.773  21.662  27.931  1.00  0.00     0.059 A 
ATOM     74  C   UNL A   1      42.518  22.103  25.556  1.00  0.00     0.059 A 
ATOM     75  F   UNL A   1      43.207  24.164  24.673  1.00  0.00    -0.206 F 
ATOM     76  C   UNL A   1      42.393  21.251  26.652  1.00  0.00     0.060 A 
BRANCH  76  77
ATOM     77  S   UNL A   1      41.727  19.585  26.446  1.00  0.00     0.124 S 
ATOM     78  O   UNL A   1      40.298  19.858  26.328  1.00  0.00    -0.237 OA
ATOM     79  O   UNL A   1      42.389  19.131  25.227  1.00  0.00    -0.237 OA
ATOM     80  O   UNL A   1      42.136  18.904  27.669  1.00  0.00    -0.744 OA
ENDBRANCH  76  77
ENDBRANCH  55  69
BRANCH  56  81
ATOM     81  C   UNL A   1      46.914  33.072  28.668  1.00  0.00     0.058 A 
ATOM     82  C   UNL A   1      46.857  34.073  27.686  1.00  0.00     0.135 A 
ATOM     83  C   UNL A   1      47.482  33.403  29.907  1.00  0.00     0.135 A 
ATOM     84  F   UNL A   1      46.326  33.803  26.484  1.00  0.00    -0.206 F 
ATOM     85  C   UNL A   1      47.362  35.348  27.914  1.00  0.00     0.059 A 
ATOM     86  C   UNL A   1      47.975  34.679  30.167  1.00  0.00     0.059 A 
ATOM     87  F   UNL A   1      47.543  32.487  30.886  1.00  0.00    -0.206 F 
ATOM     88  C   UNL A   1      47.921  35.642  29.160  1.00  0.00     0.060 A 
BRANCH  88  89
ATOM     89  S   UNL A   1      48.538  37.313  29.461  1.00  0.00     0.124 S 
ATOM     90  O   UNL A   1      47.376  37.949  30.068  1.00  0.00    -0.237 OA
ATOM     91  O   UNL A   1      49.670  37.067  30.349  1.00  0.00    -0.237 OA
ATOM     92  O   UNL A   1      48.892  37.782  28.125  1.00  0.00    -0.744 OA
ENDBRANCH  88  89
ENDBRANCH  56  81
BRANCH  68  93
ATOM     93  C   UNL A   1      49.644  27.320  25.818  1.00  0.00     0.058 A 
ATOM     94  C   UNL A   1      50.732  26.903  26.598  1.00  0.00     0.135 A 
ATOM     95  C   UNL A   1      49.818  27.392  24.427  1.00  0.00     0.135 A 
ATOM     96  F   UNL A   1      50.616  26.825  27.934  1.00  0.00    -0.206 F 
ATOM     97  C   UNL A   1      51.955  26.580  26.021  1.00  0.00     0.059 A 
ATOM     98  C   UNL A   1      51.025  27.051  23.826  1.00  0.00     0.059 A 
ATOM     99  F   UNL A   1      48.802  27.776  23.637  1.00  0.00    -0.206 F 
ATOM    100  C   UNL A   1      52.091  26.655  24.633  1.00  0.00     0.060 A 
BRANCH 100 101
ATOM    101  S   UNL A   1      53.668  26.186  23.890  1.00  0.00     0.124 S 
ATOM    102  O   UNL A   1      54.492  27.350  24.193  1.00  0.00    -0.237 OA
ATOM    103  O   UNL A   1      54.006  24.964  24.615  1.00  0.00    -0.237 OA
ATOM    104  O   UNL A   1      53.336  25.998  22.481  1.00  0.00    -0.744 OA
ENDBRANCH 100 101
ENDBRANCH  68  93
ENDBRANCH  42  43
ENDBRANCH  34  37
ENDBRANCH  32  33
ENDBRANCH  31  32
ENDBRANCH  30  31
ENDBRANCH   1  30
TORSDOF 21
ENDMDL
MODEL 3
REMARK VINA RESULT:     -11.3      6.247     12.111
REMARK SMILES COc1ccc([C@H]2CC(c3ccccc3)=NN2C(=O)CCCC(=O)NCCCCNC(=O)c2ccc(-c3c4nc(c(-c5c(F)cc(S(=O)(=O)[O-])cc5F)c5ccc([nH]5)c(-c5c(F)cc(S(=O)(=O)[O-])cc5F)c5nc(c(-c6c(F)cc(S(=O)(=O)[O-])cc6F)c6ccc3[nH]6)C=C5)C=C4)cc2)cc1
REMARK SMILES IDX 26 1 25 2 23 3 24 4 22 6 21 7 20 8 18 9 19 10 17 11 7 12
REMARK SMILES IDX 8 13 9 14 16 15 6 16 3 17 4 18 100 19 5 20 99 21 2 22 1 23
REMARK SMILES IDX 10 24 11 25 15 26 12 27 14 28 13 29 27 30 28 31 29 32 30 33
REMARK SMILES IDX 31 34 32 36 33 37 34 38 98 39 35 40 97 41 36 42 37 43 38 44
REMARK SMILES IDX 91 45 39 46 96 47 90 48 92 49 40 50 95 51 89 52 88 53 41 55
REMARK SMILES IDX 75 56 54 57 74 58 55 59 58 60 73 61 93 62 56 63 57 64 72 66
REMARK SMILES IDX 94 67 59 68 42 69 43 70 52 71 44 72 45 73 51 74 53 75 46 76
REMARK SMILES IDX 47 77 48 78 49 79 50 80 76 81 77 82 86 83 78 84 79 85 85 86
REMARK SMILES IDX 87 87 80 88 81 89 82 90 83 91 84 92 60 93 61 94 70 95 62 96
REMARK SMILES IDX 63 97 69 98 71 99 64 100 65 101 66 102 67 103 68 104
REMARK H PARENT 25 5 30 35 92 54 58 65
REMARK Flexibility Score: inf
ROOT
ATOM      1  C   UNL A   1      36.107  34.009  29.505  1.00  0.00     0.116 C 
ENDROOT
BRANCH   1   2
ATOM      2  N   UNL A   1      34.794  34.025  28.915  1.00  0.00    -0.356 N 
ATOM      3  C   UNL A   1      34.104  33.045  28.279  1.00  0.00     0.220 C 
ATOM      4  O   UNL A   1      33.102  33.393  27.649  1.00  0.00    -0.275 OA
ATOM      5  H   UNL A   1      34.321  34.886  28.984  1.00  0.00     0.163 HD
BRANCH   3   6
ATOM      6  C   UNL A   1      34.404  31.568  28.477  1.00  0.00     0.100 C 
BRANCH   6   7
ATOM      7  C   UNL A   1      34.772  30.594  27.379  1.00  0.00     0.020 C 
BRANCH   7   8
ATOM      8  C   UNL A   1      34.402  29.112  27.481  1.00  0.00     0.103 C 
BRANCH   8   9
ATOM      9  C   UNL A   1      33.118  28.469  26.927  1.00  0.00     0.243 C 
ATOM     10  O   UNL A   1      32.352  27.959  27.760  1.00  0.00    -0.273 OA
BRANCH   9  11
ATOM     11  N   UNL A   1      32.702  28.661  25.611  1.00  0.00    -0.225 N 
ATOM     12  C   UNL A   1      33.279  28.237  24.311  1.00  0.00     0.147 C 
ATOM     13  C   UNL A   1      32.291  28.730  23.262  1.00  0.00     0.091 C 
ATOM     14  C   UNL A   1      31.209  29.241  24.155  1.00  0.00     0.071 C 
ATOM     15  N   UNL A   1      31.438  29.202  25.428  1.00  0.00    -0.174 NA
BRANCH  12  16
ATOM     16  C   UNL A   1      33.515  26.738  24.171  1.00  0.00    -0.023 A 
ATOM     17  C   UNL A   1      33.416  23.948  24.239  1.00  0.00     0.118 A 
ATOM     18  C   UNL A   1      33.923  24.639  25.333  1.00  0.00     0.047 A 
ATOM     19  C   UNL A   1      33.041  24.625  23.080  1.00  0.00     0.047 A 
ATOM     20  C   UNL A   1      34.011  26.029  25.286  1.00  0.00     0.010 A 
ATOM     21  C   UNL A   1      33.105  26.019  23.040  1.00  0.00     0.010 A 
BRANCH  17  22
ATOM     22  O   UNL A   1      33.142  22.615  24.374  1.00  0.00    -0.497 OA
ATOM     23  C   UNL A   1      32.262  22.388  25.467  1.00  0.00     0.278 C 
ENDBRANCH  17  22
ENDBRANCH  12  16
BRANCH  14  24
ATOM     24  C   UNL A   1      29.977  29.775  23.572  1.00  0.00    -0.002 A 
ATOM     25  C   UNL A   1      29.324  29.063  22.566  1.00  0.00     0.010 A 
ATOM     26  C   UNL A   1      29.478  30.994  24.034  1.00  0.00     0.010 A 
ATOM     27  C   UNL A   1      28.151  29.580  22.016  1.00  0.00     0.001 A 
ATOM     28  C   UNL A   1      28.312  31.511  23.471  1.00  0.00     0.001 A 
ATOM     29  C   UNL A   1      27.650  30.804  22.465  1.00  0.00     0.000 A 
ENDBRANCH  14  24
ENDBRANCH   9  11
ENDBRANCH   8   9
ENDBRANCH   7   8
ENDBRANCH   6   7
ENDBRANCH   3   6
ENDBRANCH   1   2
BRANCH   1  30
ATOM     30  C   UNL A   1      36.001  33.893  31.022  1.00  0.00     0.023 C 
BRANCH  30  31
ATOM     31  C   UNL A   1      37.353  33.647  31.683  1.00  0.00     0.023 C 
BRANCH  31  32
ATOM     32  C   UNL A   1      37.364  32.450  32.623  1.00  0.00     0.116 C 
BRANCH  32  33
ATOM     33  N   UNL A   1      36.449  31.393  32.209  1.00  0.00    -0.352 N 
ATOM     34  C   UNL A   1      36.733  30.335  31.381  1.00  0.00     0.251 C 
ATOM     35  H   UNL A   1      35.530  31.444  32.560  1.00  0.00     0.163 HD
ATOM     36  O   UNL A   1      35.862  29.559  31.008  1.00  0.00    -0.269 OA
BRANCH  34  37
ATOM     37  C   UNL A   1      38.128  30.189  30.935  1.00  0.00     0.039 A 
ATOM     38  C   UNL A   1      39.068  29.648  31.812  1.00  0.00     0.014 A 
ATOM     39  C   UNL A   1      38.441  30.443  29.597  1.00  0.00     0.014 A 
ATOM     40  C   UNL A   1      40.327  29.304  31.323  1.00  0.00     0.010 A 
ATOM     41  C   UNL A   1      39.670  30.033  29.101  1.00  0.00     0.010 A 
ATOM     42  C   UNL A   1      40.623  29.463  29.960  1.00  0.00    -0.014 A 
BRANCH  42  43
ATOM     43  C   UNL A   1      41.940  29.065  29.406  1.00  0.00     0.031 A 
ATOM     44  C   UNL A   1      43.040  30.086  29.325  1.00  0.00     0.074 A 
ATOM     45  C   UNL A   1      42.116  27.823  28.914  1.00  0.00     0.049 A 
ATOM     46  N   UNL A   1      44.225  29.981  28.787  1.00  0.00    -0.248 NA
ATOM     47  C   UNL A   1      42.751  31.415  29.891  1.00  0.00     0.031 C 
ATOM     48  C   UNL A   1      41.100  26.768  28.886  1.00  0.00     0.029 A 
ATOM     49  N   UNL A   1      43.212  27.242  28.329  1.00  0.00    -0.354 N 
ATOM     50  C   UNL A   1      44.813  31.231  28.928  1.00  0.00     0.074 A 
ATOM     51  C   UNL A   1      43.835  32.096  29.549  1.00  0.00     0.031 C 
ATOM     52  C   UNL A   1      41.630  25.662  28.334  1.00  0.00     0.029 A 
ATOM     53  C   UNL A   1      43.007  25.939  27.942  1.00  0.00     0.049 A 
ATOM     54  H   UNL A   1      44.067  27.714  28.198  1.00  0.00     0.167 HD
ATOM     55  C   UNL A   1      46.068  31.617  28.596  1.00  0.00     0.037 A 
ATOM     56  C   UNL A   1      43.841  25.068  27.339  1.00  0.00     0.037 A 
ATOM     57  C   UNL A   1      47.049  30.737  28.024  1.00  0.00     0.049 A 
ATOM     58  C   UNL A   1      45.243  25.510  27.014  1.00  0.00     0.074 A 
ATOM     59  C   UNL A   1      48.369  31.007  27.708  1.00  0.00     0.029 A 
ATOM     60  N   UNL A   1      46.820  29.409  27.694  1.00  0.00    -0.354 N 
ATOM     61  N   UNL A   1      45.802  26.681  27.205  1.00  0.00    -0.248 NA
ATOM     62  C   UNL A   1      46.130  24.512  26.400  1.00  0.00     0.031 C 
ATOM     63  C   UNL A   1      48.931  29.849  27.162  1.00  0.00     0.029 A 
ATOM     64  C   UNL A   1      47.972  28.848  27.172  1.00  0.00     0.049 A 
ATOM     65  H   UNL A   1      45.965  28.936  27.813  1.00  0.00     0.167 HD
ATOM     66  C   UNL A   1      47.114  26.553  26.761  1.00  0.00     0.074 A 
ATOM     67  C   UNL A   1      47.267  25.187  26.300  1.00  0.00     0.031 C 
ATOM     68  C   UNL A   1      48.103  27.480  26.736  1.00  0.00     0.037 A 
BRANCH  55  69
ATOM     69  C   UNL A   1      46.446  33.046  28.863  1.00  0.00     0.058 A 
ATOM     70  C   UNL A   1      46.996  33.443  30.093  1.00  0.00     0.135 A 
ATOM     71  C   UNL A   1      46.273  34.029  27.876  1.00  0.00     0.135 A 
ATOM     72  F   UNL A   1      47.163  32.548  31.079  1.00  0.00    -0.206 F 
ATOM     73  C   UNL A   1      47.330  34.769  30.347  1.00  0.00     0.059 A 
ATOM     74  C   UNL A   1      46.627  35.356  28.098  1.00  0.00     0.059 A 
ATOM     75  F   UNL A   1      45.748  33.705  26.683  1.00  0.00    -0.206 F 
ATOM     76  C   UNL A   1      47.139  35.719  29.342  1.00  0.00     0.060 A 
BRANCH  76  77
ATOM     77  S   UNL A   1      47.578  37.436  29.687  1.00  0.00     0.124 S 
ATOM     78  O   UNL A   1      46.267  38.023  29.948  1.00  0.00    -0.237 OA
ATOM     79  O   UNL A   1      48.458  37.309  30.844  1.00  0.00    -0.237 OA
ATOM     80  O   UNL A   1      48.226  37.873  28.454  1.00  0.00    -0.744 OA
ENDBRANCH  76  77
ENDBRANCH  55  69
BRANCH  56  81
ATOM     81  C   UNL A   1      43.386  23.685  27.035  1.00  0.00     0.058 A 
ATOM     82  C   UNL A   1      43.264  22.729  28.055  1.00  0.00     0.135 A 
ATOM     83  C   UNL A   1      43.061  23.293  25.729  1.00  0.00     0.135 A 
ATOM     84  F   UNL A   1      43.568  23.057  29.321  1.00  0.00    -0.206 F 
ATOM     85  C   UNL A   1      42.855  21.427  27.790  1.00  0.00     0.059 A 
ATOM     86  C   UNL A   1      42.628  22.001  25.441  1.00  0.00     0.059 A 
ATOM     87  F   UNL A   1      43.142  24.175  24.721  1.00  0.00    -0.206 F 
ATOM     88  C   UNL A   1      42.539  21.072  26.477  1.00  0.00     0.060 A 
BRANCH  88  89
ATOM     89  S   UNL A   1      41.970  19.390  26.147  1.00  0.00     0.124 S 
ATOM     90  O   UNL A   1      40.560  19.610  25.852  1.00  0.00    -0.237 OA
ATOM     91  O   UNL A   1      42.807  18.999  25.017  1.00  0.00    -0.237 OA
ATOM     92  O   UNL A   1      42.254  18.692  27.397  1.00  0.00    -0.744 OA
ENDBRANCH  88  89
ENDBRANCH  56  81
BRANCH  68  93
ATOM     93  C   UNL A   1      49.447  27.043  26.231  1.00  0.00     0.058 A 
ATOM     94  C   UNL A   1      50.375  26.406  27.067  1.00  0.00     0.135 A 
ATOM     95  C   UNL A   1      49.780  27.204  24.877  1.00  0.00     0.135 A 
ATOM     96  F   UNL A   1      50.105  26.235  28.371  1.00  0.00    -0.206 F 
ATOM     97  C   UNL A   1      51.597  25.955  26.580  1.00  0.00     0.059 A 
ATOM     98  C   UNL A   1      50.986  26.739  24.363  1.00  0.00     0.059 A 
ATOM     99  F   UNL A   1      48.920  27.798  24.034  1.00  0.00    -0.206 F 
ATOM    100  C   UNL A   1      51.892  26.124  25.226  1.00  0.00     0.060 A 
BRANCH 100 101
ATOM    101  S   UNL A   1      53.461  25.490  24.595  1.00  0.00     0.124 S 
ATOM    102  O   UNL A   1      54.411  26.440  25.164  1.00  0.00    -0.237 OA
ATOM    103  O   UNL A   1      53.502  24.142  25.154  1.00  0.00    -0.237 OA
ATOM    104  O   UNL A   1      53.295  25.556  23.146  1.00  0.00    -0.744 OA
ENDBRANCH 100 101
ENDBRANCH  68  93
ENDBRANCH  42  43
ENDBRANCH  34  37
ENDBRANCH  32  33
ENDBRANCH  31  32
ENDBRANCH  30  31
ENDBRANCH   1  30
TORSDOF 21
ENDMDL
