MODEL 1
REMARK VINA RESULT:     -12.1      0.000      0.000
REMARK SMILES COc1cccc(NC(=O)[C@@H]2[C@@H](C(=O)NCCCCNC(=O)c3ccc(-c4c5nc(c(-c6c(F)cc(S(=O)(=O)[O-])cc6F)c6ccc([nH]6)c(-c6c(F)cc(S(=O)(=O)[O-])cc6F)c6nc(c(-c7c(F)cc(S(=O)(=O)[O-])cc7F)c7ccc4[nH]7)C=C6)C=C5)cc3)[C@H]3C=C[C@@H]2C3)c1
REMARK SMILES IDX 17 1 16 2 15 3 13 4 14 5 12 7 11 8 92 9 89 10 91 11 93 12
REMARK SMILES IDX 90 13 9 14 8 15 10 17 7 18 3 19 4 20 94 21 5 22 6 23 2 24
REMARK SMILES IDX 1 25 18 26 19 27 20 28 21 29 22 31 23 32 24 33 88 34 25 35
REMARK SMILES IDX 87 36 26 37 27 38 28 39 81 40 29 41 86 42 80 43 82 44 30 45
REMARK SMILES IDX 85 46 79 47 78 48 31 50 65 51 44 52 64 53 45 54 48 55 63 56
REMARK SMILES IDX 83 57 46 58 47 59 62 61 84 62 49 63 32 64 33 65 42 66 34 67
REMARK SMILES IDX 35 68 41 69 43 70 36 71 37 72 38 73 39 74 40 75 66 76 67 77
REMARK SMILES IDX 76 78 68 79 69 80 75 81 77 82 70 83 71 84 72 85 73 86 74 87
REMARK SMILES IDX 50 88 51 89 60 90 52 91 53 92 59 93 61 94 54 95 55 96 56 97
REMARK SMILES IDX 57 98 58 99
REMARK H PARENT 15 6 8 16 20 30 82 49 48 60
REMARK Flexibility Score: inf
ROOT
ATOM      1  C   UNL A   1      36.701  23.127  24.797  1.00  0.00     0.023 C 
ENDROOT
BRANCH   1   2
ATOM      2  C   UNL A   1      35.399  23.838  25.168  1.00  0.00     0.116 C 
BRANCH   2   3
ATOM      3  N   UNL A   1      34.875  24.609  24.054  1.00  0.00    -0.356 N 
ATOM      4  C   UNL A   1      33.787  25.440  24.021  1.00  0.00     0.224 C 
ATOM      5  O   UNL A   1      33.431  25.900  22.939  1.00  0.00    -0.275 OA
ATOM      6  H   UNL A   1      35.370  24.524  23.208  1.00  0.00     0.163 HD
BRANCH   4   7
ATOM      7  C   UNL A   1      33.083  25.745  25.340  1.00  0.00     0.098 C 
ATOM      8  C   UNL A   1      31.584  26.045  25.224  1.00  0.00     0.099 C 
ATOM      9  C   UNL A   1      31.480  27.535  25.676  1.00  0.00     0.025 C 
ATOM     10  C   UNL A   1      33.618  27.013  26.068  1.00  0.00     0.025 C 
ATOM     11  C   UNL A   1      32.343  28.434  24.808  1.00  0.00    -0.027 C 
ATOM     12  C   UNL A   1      32.408  27.520  26.883  1.00  0.00     0.017 C 
ATOM     13  C   UNL A   1      33.628  28.147  25.073  1.00  0.00    -0.027 C 
BRANCH   8  14
ATOM     14  C   UNL A   1      30.617  25.124  26.007  1.00  0.00     0.228 C 
ATOM     15  N   UNL A   1      30.719  23.778  26.247  1.00  0.00    -0.326 N 
ATOM     16  H   UNL A   1      29.826  23.382  26.365  1.00  0.00     0.169 HD
ATOM     17  O   UNL A   1      29.542  25.629  26.375  1.00  0.00    -0.274 OA
BRANCH  15  18
ATOM     18  C   UNL A   1      31.724  22.783  26.377  1.00  0.00     0.044 A 
ATOM     19  C   UNL A   1      32.776  20.771  25.466  1.00  0.00     0.120 A 
ATOM     20  C   UNL A   1      33.705  20.769  26.505  1.00  0.00     0.046 A 
ATOM     21  C   UNL A   1      31.790  21.772  25.400  1.00  0.00     0.072 A 
ATOM     22  C   UNL A   1      33.617  21.718  27.505  1.00  0.00     0.006 A 
ATOM     23  C   UNL A   1      32.606  22.677  27.452  1.00  0.00     0.026 A 
BRANCH  19  24
ATOM     24  O   UNL A   1      32.911  19.704  24.625  1.00  0.00    -0.497 OA
ATOM     25  C   UNL A   1      32.850  18.412  25.206  1.00  0.00     0.278 C 
ENDBRANCH  19  24
ENDBRANCH  15  18
ENDBRANCH   8  14
ENDBRANCH   4   7
ENDBRANCH   2   3
ENDBRANCH   1   2
BRANCH   1  26
ATOM     26  C   UNL A   1      37.634  22.883  25.984  1.00  0.00     0.023 C 
BRANCH  26  27
ATOM     27  C   UNL A   1      38.463  24.092  26.406  1.00  0.00     0.116 C 
BRANCH  27  28
ATOM     28  N   UNL A   1      39.871  23.974  26.062  1.00  0.00    -0.352 N 
ATOM     29  C   UNL A   1      40.925  24.757  26.483  1.00  0.00     0.251 C 
ATOM     30  H   UNL A   1      40.101  23.240  25.448  1.00  0.00     0.163 HD
ATOM     31  O   UNL A   1      42.037  24.596  26.006  1.00  0.00    -0.269 OA
BRANCH  29  32
ATOM     32  C   UNL A   1      40.679  25.818  27.486  1.00  0.00     0.039 A 
ATOM     33  C   UNL A   1      39.724  25.595  28.480  1.00  0.00     0.014 A 
ATOM     34  C   UNL A   1      41.416  27.006  27.473  1.00  0.00     0.014 A 
ATOM     35  C   UNL A   1      39.555  26.539  29.497  1.00  0.00     0.010 A 
ATOM     36  C   UNL A   1      41.310  27.899  28.535  1.00  0.00     0.010 A 
ATOM     37  C   UNL A   1      40.371  27.681  29.554  1.00  0.00    -0.014 A 
BRANCH  37  38
ATOM     38  C   UNL A   1      40.247  28.659  30.668  1.00  0.00     0.031 A 
ATOM     39  C   UNL A   1      41.112  28.526  31.893  1.00  0.00     0.074 A 
ATOM     40  C   UNL A   1      39.325  29.641  30.596  1.00  0.00     0.049 A 
ATOM     41  N   UNL A   1      41.136  29.267  32.972  1.00  0.00    -0.248 NA
ATOM     42  C   UNL A   1      42.053  27.395  31.925  1.00  0.00     0.031 C 
ATOM     43  C   UNL A   1      38.382  29.840  29.492  1.00  0.00     0.029 A 
ATOM     44  N   UNL A   1      39.025  30.655  31.471  1.00  0.00    -0.354 N 
ATOM     45  C   UNL A   1      42.083  28.687  33.809  1.00  0.00     0.074 A 
ATOM     46  C   UNL A   1      42.561  27.497  33.144  1.00  0.00     0.031 C 
ATOM     47  C   UNL A   1      37.636  30.927  29.741  1.00  0.00     0.029 A 
ATOM     48  C   UNL A   1      38.018  31.484  31.035  1.00  0.00     0.049 A 
ATOM     49  H   UNL A   1      39.488  30.778  32.332  1.00  0.00     0.167 HD
ATOM     50  C   UNL A   1      42.535  29.123  35.010  1.00  0.00     0.037 A 
ATOM     51  C   UNL A   1      37.466  32.570  31.610  1.00  0.00     0.037 A 
ATOM     52  C   UNL A   1      42.072  30.322  35.657  1.00  0.00     0.049 A 
ATOM     53  C   UNL A   1      37.992  33.041  32.939  1.00  0.00     0.074 A 
ATOM     54  C   UNL A   1      42.507  30.882  36.845  1.00  0.00     0.029 A 
ATOM     55  N   UNL A   1      41.064  31.146  35.175  1.00  0.00    -0.354 N 
ATOM     56  N   UNL A   1      38.941  32.521  33.683  1.00  0.00    -0.248 NA
ATOM     57  C   UNL A   1      37.382  34.253  33.502  1.00  0.00     0.031 C 
ATOM     58  C   UNL A   1      41.730  32.016  37.107  1.00  0.00     0.029 A 
ATOM     59  C   UNL A   1      40.850  32.197  36.052  1.00  0.00     0.049 A 
ATOM     60  H   UNL A   1      40.574  31.004  34.333  1.00  0.00     0.167 HD
ATOM     61  C   UNL A   1      39.060  33.360  34.787  1.00  0.00     0.074 A 
ATOM     62  C   UNL A   1      38.099  34.429  34.602  1.00  0.00     0.031 C 
ATOM     63  C   UNL A   1      39.888  33.254  35.857  1.00  0.00     0.037 A 
BRANCH  50  64
ATOM     64  C   UNL A   1      43.592  28.298  35.696  1.00  0.00     0.058 A 
ATOM     65  C   UNL A   1      44.961  28.502  35.454  1.00  0.00     0.135 A 
ATOM     66  C   UNL A   1      43.235  27.310  36.627  1.00  0.00     0.135 A 
ATOM     67  F   UNL A   1      45.361  29.423  34.561  1.00  0.00    -0.206 F 
ATOM     68  C   UNL A   1      45.935  27.732  36.082  1.00  0.00     0.059 A 
ATOM     69  C   UNL A   1      44.194  26.549  37.291  1.00  0.00     0.059 A 
ATOM     70  F   UNL A   1      41.942  27.071  36.898  1.00  0.00    -0.206 F 
ATOM     71  C   UNL A   1      45.541  26.757  36.999  1.00  0.00     0.060 A 
BRANCH  71  72
ATOM     72  S   UNL A   1      46.818  25.768  37.805  1.00  0.00     0.124 S 
ATOM     73  O   UNL A   1      47.031  26.519  39.039  1.00  0.00    -0.237 OA
ATOM     74  O   UNL A   1      46.160  24.475  37.958  1.00  0.00    -0.237 OA
ATOM     75  O   UNL A   1      47.924  25.798  36.853  1.00  0.00    -0.744 OA
ENDBRANCH  71  72
ENDBRANCH  50  64
BRANCH  51  76
ATOM     76  C   UNL A   1      36.374  33.306  30.917  1.00  0.00     0.058 A 
ATOM     77  C   UNL A   1      35.054  33.253  31.386  1.00  0.00     0.135 A 
ATOM     78  C   UNL A   1      36.630  34.084  29.776  1.00  0.00     0.135 A 
ATOM     79  F   UNL A   1      34.756  32.518  32.468  1.00  0.00    -0.206 F 
ATOM     80  C   UNL A   1      34.021  33.927  30.740  1.00  0.00     0.059 A 
ATOM     81  C   UNL A   1      35.620  34.791  29.130  1.00  0.00     0.059 A 
ATOM     82  F   UNL A   1      37.879  34.183  29.295  1.00  0.00    -0.206 F 
ATOM     83  C   UNL A   1      34.316  34.698  29.614  1.00  0.00     0.060 A 
BRANCH  83  84
ATOM     84  S   UNL A   1      32.978  35.610  28.816  1.00  0.00     0.124 S 
ATOM     85  O   UNL A   1      32.388  34.583  27.964  1.00  0.00    -0.237 OA
ATOM     86  O   UNL A   1      32.172  36.034  29.957  1.00  0.00    -0.237 OA
ATOM     87  O   UNL A   1      33.676  36.686  28.117  1.00  0.00    -0.744 OA
ENDBRANCH  83  84
ENDBRANCH  51  76
BRANCH  63  88
ATOM     88  C   UNL A   1      39.815  34.343  36.894  1.00  0.00     0.058 A 
ATOM     89  C   UNL A   1      40.537  35.539  36.766  1.00  0.00     0.135 A 
ATOM     90  C   UNL A   1      38.995  34.192  38.025  1.00  0.00     0.135 A 
ATOM     91  F   UNL A   1      41.338  35.735  35.706  1.00  0.00    -0.206 F 
ATOM     92  C   UNL A   1      40.483  36.529  37.741  1.00  0.00     0.059 A 
ATOM     93  C   UNL A   1      38.900  35.182  38.997  1.00  0.00     0.059 A 
ATOM     94  F   UNL A   1      38.271  33.074  38.192  1.00  0.00    -0.206 F 
ATOM     95  C   UNL A   1      39.665  36.339  38.856  1.00  0.00     0.060 A 
BRANCH  95  96
ATOM     96  S   UNL A   1      39.605  37.630  40.118  1.00  0.00     0.124 S 
ATOM     97  O   UNL A   1      39.394  36.845  41.330  1.00  0.00    -0.237 OA
ATOM     98  O   UNL A   1      40.918  38.255  39.988  1.00  0.00    -0.237 OA
ATOM     99  O   UNL A   1      38.478  38.459  39.702  1.00  0.00    -0.744 OA
ENDBRANCH  95  96
ENDBRANCH  63  88
ENDBRANCH  37  38
ENDBRANCH  29  32
ENDBRANCH  27  28
ENDBRANCH  26  27
ENDBRANCH   1  26
TORSDOF 17
ENDMDL
MODEL 2
REMARK VINA RESULT:     -11.9      1.381      2.371
REMARK SMILES COc1cccc(NC(=O)[C@@H]2[C@@H](C(=O)NCCCCNC(=O)c3ccc(-c4c5nc(c(-c6c(F)cc(S(=O)(=O)[O-])cc6F)c6ccc([nH]6)c(-c6c(F)cc(S(=O)(=O)[O-])cc6F)c6nc(c(-c7c(F)cc(S(=O)(=O)[O-])cc7F)c7ccc4[nH]7)C=C6)C=C5)cc3)[C@H]3C=C[C@@H]2C3)c1
REMARK SMILES IDX 17 1 16 2 15 3 13 4 14 5 12 7 11 8 92 9 89 10 91 11 93 12
REMARK SMILES IDX 90 13 9 14 8 15 10 17 7 18 3 19 4 20 94 21 5 22 6 23 2 24
REMARK SMILES IDX 1 25 18 26 19 27 20 28 21 29 22 31 23 32 24 33 88 34 25 35
REMARK SMILES IDX 87 36 26 37 27 38 28 39 81 40 29 41 86 42 80 43 82 44 30 45
REMARK SMILES IDX 85 46 79 47 78 48 31 50 65 51 44 52 64 53 45 54 48 55 63 56
REMARK SMILES IDX 83 57 46 58 47 59 62 61 84 62 49 63 32 64 33 65 42 66 34 67
REMARK SMILES IDX 35 68 41 69 43 70 36 71 37 72 38 73 39 74 40 75 66 76 67 77
REMARK SMILES IDX 76 78 68 79 69 80 75 81 77 82 70 83 71 84 72 85 73 86 74 87
REMARK SMILES IDX 50 88 51 89 60 90 52 91 53 92 59 93 61 94 54 95 55 96 56 97
REMARK SMILES IDX 57 98 58 99
REMARK H PARENT 15 6 8 16 20 30 82 49 48 60
REMARK Flexibility Score: inf
ROOT
ATOM      1  C   UNL A   1      38.522  23.966  26.341  1.00  0.00     0.023 C 
ENDROOT
BRANCH   1   2
ATOM      2  C   UNL A   1      37.091  23.503  26.063  1.00  0.00     0.116 C 
BRANCH   2   3
ATOM      3  N   UNL A   1      36.849  23.337  24.640  1.00  0.00    -0.356 N 
ATOM      4  C   UNL A   1      35.656  23.294  23.971  1.00  0.00     0.224 C 
ATOM      5  O   UNL A   1      35.662  23.013  22.775  1.00  0.00    -0.275 OA
ATOM      6  H   UNL A   1      37.654  23.244  24.081  1.00  0.00     0.163 HD
BRANCH   4   7
ATOM      7  C   UNL A   1      34.386  23.604  24.758  1.00  0.00     0.098 C 
ATOM      8  C   UNL A   1      33.158  22.774  24.365  1.00  0.00     0.099 C 
ATOM      9  C   UNL A   1      32.175  23.841  23.789  1.00  0.00     0.025 C 
ATOM     10  C   UNL A   1      33.869  25.063  24.584  1.00  0.00     0.025 C 
ATOM     11  C   UNL A   1      32.797  24.587  22.621  1.00  0.00    -0.027 C 
ATOM     12  C   UNL A   1      32.345  24.954  24.814  1.00  0.00     0.017 C 
ATOM     13  C   UNL A   1      33.788  25.351  23.106  1.00  0.00    -0.027 C 
BRANCH   8  14
ATOM     14  C   UNL A   1      32.506  21.911  25.472  1.00  0.00     0.228 C 
ATOM     15  N   UNL A   1      32.121  20.596  25.421  1.00  0.00    -0.326 N 
ATOM     16  H   UNL A   1      31.382  20.430  26.048  1.00  0.00     0.169 HD
ATOM     17  O   UNL A   1      32.171  22.501  26.515  1.00  0.00    -0.274 OA
BRANCH  15  18
ATOM     18  C   UNL A   1      32.468  19.402  24.735  1.00  0.00     0.044 A 
ATOM     19  C   UNL A   1      33.313  17.110  24.867  1.00  0.00     0.120 A 
ATOM     20  C   UNL A   1      33.157  16.958  23.491  1.00  0.00     0.046 A 
ATOM     21  C   UNL A   1      32.970  18.324  25.488  1.00  0.00     0.072 A 
ATOM     22  C   UNL A   1      32.723  18.025  22.728  1.00  0.00     0.006 A 
ATOM     23  C   UNL A   1      32.431  19.238  23.351  1.00  0.00     0.026 A 
BRANCH  19  24
ATOM     24  O   UNL A   1      33.867  16.016  25.468  1.00  0.00    -0.497 OA
ATOM     25  C   UNL A   1      35.258  15.813  25.283  1.00  0.00     0.278 C 
ENDBRANCH  19  24
ENDBRANCH  15  18
ENDBRANCH   8  14
ENDBRANCH   4   7
ENDBRANCH   2   3
ENDBRANCH   1   2
BRANCH   1  26
ATOM     26  C   UNL A   1      39.498  22.823  26.627  1.00  0.00     0.023 C 
BRANCH  26  27
ATOM     27  C   UNL A   1      40.914  23.264  26.982  1.00  0.00     0.116 C 
BRANCH  27  28
ATOM     28  N   UNL A   1      41.559  24.034  25.932  1.00  0.00    -0.352 N 
ATOM     29  C   UNL A   1      41.939  25.360  25.950  1.00  0.00     0.251 C 
ATOM     30  H   UNL A   1      41.749  23.546  25.098  1.00  0.00     0.163 HD
ATOM     31  O   UNL A   1      42.366  25.889  24.937  1.00  0.00    -0.269 OA
BRANCH  29  32
ATOM     32  C   UNL A   1      41.783  26.137  27.200  1.00  0.00     0.039 A 
ATOM     33  C   UNL A   1      42.643  27.212  27.436  1.00  0.00     0.014 A 
ATOM     34  C   UNL A   1      40.769  25.835  28.114  1.00  0.00     0.014 A 
ATOM     35  C   UNL A   1      42.443  28.022  28.556  1.00  0.00     0.010 A 
ATOM     36  C   UNL A   1      40.517  26.695  29.179  1.00  0.00     0.010 A 
ATOM     37  C   UNL A   1      41.357  27.793  29.418  1.00  0.00    -0.014 A 
BRANCH  37  38
ATOM     38  C   UNL A   1      41.093  28.688  30.577  1.00  0.00     0.031 A 
ATOM     39  C   UNL A   1      41.919  28.567  31.830  1.00  0.00     0.074 A 
ATOM     40  C   UNL A   1      40.082  29.578  30.519  1.00  0.00     0.049 A 
ATOM     41  N   UNL A   1      41.829  29.243  32.948  1.00  0.00    -0.248 NA
ATOM     42  C   UNL A   1      42.966  27.532  31.842  1.00  0.00     0.031 C 
ATOM     43  C   UNL A   1      39.168  29.749  29.386  1.00  0.00     0.029 A 
ATOM     44  N   UNL A   1      39.650  30.506  31.433  1.00  0.00    -0.354 N 
ATOM     45  C   UNL A   1      42.795  28.709  33.794  1.00  0.00     0.074 A 
ATOM     46  C   UNL A   1      43.414  27.611  33.086  1.00  0.00     0.031 C 
ATOM     47  C   UNL A   1      38.308  30.743  29.661  1.00  0.00     0.029 A 
ATOM     48  C   UNL A   1      38.583  31.257  30.999  1.00  0.00     0.049 A 
ATOM     49  H   UNL A   1      40.065  30.622  32.318  1.00  0.00     0.167 HD
ATOM     50  C   UNL A   1      43.155  29.115  35.035  1.00  0.00     0.037 A 
ATOM     51  C   UNL A   1      37.904  32.249  31.607  1.00  0.00     0.037 A 
ATOM     52  C   UNL A   1      42.550  30.225  35.726  1.00  0.00     0.049 A 
ATOM     53  C   UNL A   1      38.330  32.691  32.981  1.00  0.00     0.074 A 
ATOM     54  C   UNL A   1      42.882  30.753  36.960  1.00  0.00     0.029 A 
ATOM     55  N   UNL A   1      41.486  30.974  35.245  1.00  0.00    -0.354 N 
ATOM     56  N   UNL A   1      39.296  32.223  33.737  1.00  0.00    -0.248 NA
ATOM     57  C   UNL A   1      37.582  33.803  33.582  1.00  0.00     0.031 C 
ATOM     58  C   UNL A   1      41.987  31.790  37.248  1.00  0.00     0.029 A 
ATOM     59  C   UNL A   1      41.135  31.946  36.167  1.00  0.00     0.049 A 
ATOM     60  H   UNL A   1      41.045  30.835  34.375  1.00  0.00     0.167 HD
ATOM     61  C   UNL A   1      39.288  33.002  34.890  1.00  0.00     0.074 A 
ATOM     62  C   UNL A   1      38.235  33.982  34.721  1.00  0.00     0.031 C 
ATOM     63  C   UNL A   1      40.081  32.915  35.988  1.00  0.00     0.037 A 
BRANCH  50  64
ATOM     64  C   UNL A   1      44.261  28.358  35.721  1.00  0.00     0.058 A 
ATOM     65  C   UNL A   1      45.612  28.709  35.554  1.00  0.00     0.135 A 
ATOM     66  C   UNL A   1      43.969  27.285  36.577  1.00  0.00     0.135 A 
ATOM     67  F   UNL A   1      45.952  29.717  34.734  1.00  0.00    -0.206 F 
ATOM     68  C   UNL A   1      46.632  28.002  36.181  1.00  0.00     0.059 A 
ATOM     69  C   UNL A   1      44.971  26.583  37.241  1.00  0.00     0.059 A 
ATOM     70  F   UNL A   1      42.696  26.905  36.775  1.00  0.00    -0.206 F 
ATOM     71  C   UNL A   1      46.301  26.939  37.023  1.00  0.00     0.060 A 
BRANCH  71  72
ATOM     72  S   UNL A   1      47.638  26.033  37.830  1.00  0.00     0.124 S 
ATOM     73  O   UNL A   1      48.794  26.466  37.051  1.00  0.00    -0.237 OA
ATOM     74  O   UNL A   1      47.573  26.536  39.198  1.00  0.00    -0.237 OA
ATOM     75  O   UNL A   1      47.254  24.636  37.659  1.00  0.00    -0.744 OA
ENDBRANCH  71  72
ENDBRANCH  50  64
BRANCH  51  76
ATOM     76  C   UNL A   1      36.773  32.916  30.907  1.00  0.00     0.058 A 
ATOM     77  C   UNL A   1      35.444  32.666  31.279  1.00  0.00     0.135 A 
ATOM     78  C   UNL A   1      36.997  33.822  29.858  1.00  0.00     0.135 A 
ATOM     79  F   UNL A   1      35.176  31.803  32.271  1.00  0.00    -0.206 F 
ATOM     80  C   UNL A   1      34.376  33.274  30.625  1.00  0.00     0.059 A 
ATOM     81  C   UNL A   1      35.947  34.465  29.209  1.00  0.00     0.059 A 
ATOM     82  F   UNL A   1      38.250  34.110  29.474  1.00  0.00    -0.206 F 
ATOM     83  C   UNL A   1      34.639  34.175  29.593  1.00  0.00     0.060 A 
BRANCH  83  84
ATOM     84  S   UNL A   1      33.247  34.998  28.787  1.00  0.00     0.124 S 
ATOM     85  O   UNL A   1      33.910  36.118  28.129  1.00  0.00    -0.237 OA
ATOM     86  O   UNL A   1      32.740  33.949  27.907  1.00  0.00    -0.237 OA
ATOM     87  O   UNL A   1      32.373  35.347  29.903  1.00  0.00    -0.744 OA
ENDBRANCH  83  84
ENDBRANCH  51  76
BRANCH  63  88
ATOM     88  C   UNL A   1      39.860  33.929  37.079  1.00  0.00     0.058 A 
ATOM     89  C   UNL A   1      39.088  33.639  38.214  1.00  0.00     0.135 A 
ATOM     90  C   UNL A   1      40.445  35.202  36.993  1.00  0.00     0.135 A 
ATOM     91  F   UNL A   1      38.503  32.438  38.346  1.00  0.00    -0.206 F 
ATOM     92  C   UNL A   1      38.868  34.590  39.205  1.00  0.00     0.059 A 
ATOM     93  C   UNL A   1      40.267  36.158  37.988  1.00  0.00     0.059 A 
ATOM     94  F   UNL A   1      41.206  35.529  35.936  1.00  0.00    -0.206 F 
ATOM     95  C   UNL A   1      39.459  35.849  39.080  1.00  0.00     0.060 A 
BRANCH  95  96
ATOM     96  S   UNL A   1      39.164  37.076  40.372  1.00  0.00     0.124 S 
ATOM     97  O   UNL A   1      38.722  38.225  39.588  1.00  0.00    -0.237 OA
ATOM     98  O   UNL A   1      38.138  36.432  41.187  1.00  0.00    -0.237 OA
ATOM     99  O   UNL A   1      40.468  37.216  41.011  1.00  0.00    -0.744 OA
ENDBRANCH  95  96
ENDBRANCH  63  88
ENDBRANCH  37  38
ENDBRANCH  29  32
ENDBRANCH  27  28
ENDBRANCH  26  27
ENDBRANCH   1  26
TORSDOF 17
ENDMDL
MODEL 3
REMARK VINA RESULT:     -11.9      3.144      9.115
REMARK SMILES COc1cccc(NC(=O)[C@@H]2[C@@H](C(=O)NCCCCNC(=O)c3ccc(-c4c5nc(c(-c6c(F)cc(S(=O)(=O)[O-])cc6F)c6ccc([nH]6)c(-c6c(F)cc(S(=O)(=O)[O-])cc6F)c6nc(c(-c7c(F)cc(S(=O)(=O)[O-])cc7F)c7ccc4[nH]7)C=C6)C=C5)cc3)[C@H]3C=C[C@@H]2C3)c1
REMARK SMILES IDX 17 1 16 2 15 3 13 4 14 5 12 7 11 8 92 9 89 10 91 11 93 12
REMARK SMILES IDX 90 13 9 14 8 15 10 17 7 18 3 19 4 20 94 21 5 22 6 23 2 24
REMARK SMILES IDX 1 25 18 26 19 27 20 28 21 29 22 31 23 32 24 33 88 34 25 35
REMARK SMILES IDX 87 36 26 37 27 38 28 39 81 40 29 41 86 42 80 43 82 44 30 45
REMARK SMILES IDX 85 46 79 47 78 48 31 50 65 51 44 52 64 53 45 54 48 55 63 56
REMARK SMILES IDX 83 57 46 58 47 59 62 61 84 62 49 63 32 64 33 65 42 66 34 67
REMARK SMILES IDX 35 68 41 69 43 70 36 71 37 72 38 73 39 74 40 75 66 76 67 77
REMARK SMILES IDX 76 78 68 79 69 80 75 81 77 82 70 83 71 84 72 85 73 86 74 87
REMARK SMILES IDX 50 88 51 89 60 90 52 91 53 92 59 93 61 94 54 95 55 96 56 97
REMARK SMILES IDX 57 98 58 99
REMARK H PARENT 15 6 8 16 20 30 82 49 48 60
REMARK Flexibility Score: inf
ROOT
ATOM      1  C   UNL A   1      31.689  27.689  26.313  1.00  0.00     0.023 C 
ENDROOT
BRANCH   1   2
ATOM      2  C   UNL A   1      31.264  26.302  25.829  1.00  0.00     0.116 C 
BRANCH   2   3
ATOM      3  N   UNL A   1      31.653  25.265  26.769  1.00  0.00    -0.356 N 
ATOM      4  C   UNL A   1      32.218  24.043  26.515  1.00  0.00     0.224 C 
ATOM      5  O   UNL A   1      32.352  23.253  27.446  1.00  0.00    -0.275 OA
ATOM      6  H   UNL A   1      31.490  25.469  27.718  1.00  0.00     0.163 HD
BRANCH   4   7
ATOM      7  C   UNL A   1      32.650  23.743  25.084  1.00  0.00     0.098 C 
ATOM      8  C   UNL A   1      33.182  22.323  24.849  1.00  0.00     0.099 C 
ATOM      9  C   UNL A   1      34.677  22.560  24.465  1.00  0.00     0.025 C 
ATOM     10  C   UNL A   1      33.828  24.625  24.576  1.00  0.00     0.025 C 
ATOM     11  C   UNL A   1      35.414  23.306  25.564  1.00  0.00    -0.027 C 
ATOM     12  C   UNL A   1      34.533  23.745  23.520  1.00  0.00     0.017 C 
ATOM     13  C   UNL A   1      34.931  24.559  25.602  1.00  0.00    -0.027 C 
BRANCH   8  14
ATOM     14  C   UNL A   1      32.438  21.454  23.807  1.00  0.00     0.228 C 
ATOM     15  N   UNL A   1      32.676  20.152  23.448  1.00  0.00    -0.326 N 
ATOM     16  H   UNL A   1      32.385  19.993  22.522  1.00  0.00     0.169 HD
ATOM     17  O   UNL A   1      31.585  22.029  23.108  1.00  0.00    -0.274 OA
BRANCH  15  18
ATOM     18  C   UNL A   1      33.214  18.964  24.011  1.00  0.00     0.044 A 
ATOM     19  C   UNL A   1      32.796  16.753  24.967  1.00  0.00     0.120 A 
ATOM     20  C   UNL A   1      34.165  16.539  25.109  1.00  0.00     0.046 A 
ATOM     21  C   UNL A   1      32.320  17.958  24.421  1.00  0.00     0.072 A 
ATOM     22  C   UNL A   1      35.054  17.539  24.768  1.00  0.00     0.006 A 
ATOM     23  C   UNL A   1      34.567  18.748  24.270  1.00  0.00     0.026 A 
BRANCH  19  24
ATOM     24  O   UNL A   1      32.040  15.728  25.461  1.00  0.00    -0.497 OA
ATOM     25  C   UNL A   1      32.684  14.477  25.637  1.00  0.00     0.278 C 
ENDBRANCH  19  24
ENDBRANCH  15  18
ENDBRANCH   8  14
ENDBRANCH   4   7
ENDBRANCH   2   3
ENDBRANCH   1   2
BRANCH   1  26
ATOM     26  C   UNL A   1      33.150  27.768  26.759  1.00  0.00     0.023 C 
BRANCH  26  27
ATOM     27  C   UNL A   1      33.980  28.832  26.048  1.00  0.00     0.116 C 
BRANCH  27  28
ATOM     28  N   UNL A   1      33.687  30.185  26.493  1.00  0.00    -0.352 N 
ATOM     29  C   UNL A   1      34.364  30.947  27.421  1.00  0.00     0.251 C 
ATOM     30  H   UNL A   1      32.903  30.611  26.079  1.00  0.00     0.163 HD
ATOM     31  O   UNL A   1      33.917  32.028  27.770  1.00  0.00    -0.269 OA
BRANCH  29  32
ATOM     32  C   UNL A   1      35.613  30.419  28.016  1.00  0.00     0.039 A 
ATOM     33  C   UNL A   1      36.836  30.808  27.465  1.00  0.00     0.014 A 
ATOM     34  C   UNL A   1      35.580  29.581  29.134  1.00  0.00     0.014 A 
ATOM     35  C   UNL A   1      38.026  30.406  28.078  1.00  0.00     0.010 A 
ATOM     36  C   UNL A   1      36.762  29.258  29.793  1.00  0.00     0.010 A 
ATOM     37  C   UNL A   1      38.000  29.658  29.267  1.00  0.00    -0.014 A 
BRANCH  37  38
ATOM     38  C   UNL A   1      39.258  29.281  29.965  1.00  0.00     0.031 A 
ATOM     39  C   UNL A   1      39.675  30.005  31.218  1.00  0.00     0.074 A 
ATOM     40  C   UNL A   1      40.047  28.317  29.448  1.00  0.00     0.049 A 
ATOM     41  N   UNL A   1      40.744  29.832  31.955  1.00  0.00    -0.248 NA
ATOM     42  C   UNL A   1      38.794  31.086  31.689  1.00  0.00     0.031 C 
ATOM     43  C   UNL A   1      39.787  27.585  28.206  1.00  0.00     0.029 A 
ATOM     44  N   UNL A   1      41.231  27.789  29.900  1.00  0.00    -0.354 N 
ATOM     45  C   UNL A   1      40.666  30.785  32.965  1.00  0.00     0.074 A 
ATOM     46  C   UNL A   1      39.483  31.575  32.708  1.00  0.00     0.031 C 
ATOM     47  C   UNL A   1      40.762  26.682  28.016  1.00  0.00     0.029 A 
ATOM     48  C   UNL A   1      41.734  26.792  29.098  1.00  0.00     0.049 A 
ATOM     49  H   UNL A   1      41.678  28.096  30.722  1.00  0.00     0.167 HD
ATOM     50  C   UNL A   1      41.487  30.966  34.027  1.00  0.00     0.037 A 
ATOM     51  C   UNL A   1      42.852  26.050  29.220  1.00  0.00     0.037 A 
ATOM     52  C   UNL A   1      42.651  30.160  34.291  1.00  0.00     0.049 A 
ATOM     53  C   UNL A   1      43.743  26.261  30.414  1.00  0.00     0.074 A 
ATOM     54  C   UNL A   1      43.515  30.224  35.369  1.00  0.00     0.029 A 
ATOM     55  N   UNL A   1      43.118  29.147  33.465  1.00  0.00    -0.354 N 
ATOM     56  N   UNL A   1      43.614  27.118  31.400  1.00  0.00    -0.248 NA
ATOM     57  C   UNL A   1      44.927  25.397  30.519  1.00  0.00     0.031 C 
ATOM     58  C   UNL A   1      44.532  29.283  35.172  1.00  0.00     0.029 A 
ATOM     59  C   UNL A   1      44.270  28.592  33.999  1.00  0.00     0.049 A 
ATOM     60  H   UNL A   1      42.693  28.864  32.624  1.00  0.00     0.167 HD
ATOM     61  C   UNL A   1      44.684  26.876  32.256  1.00  0.00     0.074 A 
ATOM     62  C   UNL A   1      45.438  25.781  31.680  1.00  0.00     0.031 C 
ATOM     63  C   UNL A   1      45.013  27.503  33.414  1.00  0.00     0.037 A 
BRANCH  50  64
ATOM     64  C   UNL A   1      41.148  32.075  34.988  1.00  0.00     0.058 A 
ATOM     65  C   UNL A   1      41.706  33.359  34.861  1.00  0.00     0.135 A 
ATOM     66  C   UNL A   1      40.235  31.862  36.032  1.00  0.00     0.135 A 
ATOM     67  F   UNL A   1      42.598  33.616  33.890  1.00  0.00    -0.206 F 
ATOM     68  C   UNL A   1      41.399  34.379  35.755  1.00  0.00     0.059 A 
ATOM     69  C   UNL A   1      39.888  32.877  36.920  1.00  0.00     0.059 A 
ATOM     70  F   UNL A   1      39.671  30.656  36.202  1.00  0.00    -0.206 F 
ATOM     71  C   UNL A   1      40.488  34.128  36.782  1.00  0.00     0.060 A 
BRANCH  71  72
ATOM     72  S   UNL A   1      40.100  35.464  37.933  1.00  0.00     0.124 S 
ATOM     73  O   UNL A   1      38.905  34.943  38.590  1.00  0.00    -0.237 OA
ATOM     74  O   UNL A   1      41.302  35.521  38.759  1.00  0.00    -0.237 OA
ATOM     75  O   UNL A   1      39.886  36.614  37.060  1.00  0.00    -0.744 OA
ENDBRANCH  71  72
ENDBRANCH  50  64
BRANCH  51  76
ATOM     76  C   UNL A   1      43.173  25.014  28.201  1.00  0.00     0.058 A 
ATOM     77  C   UNL A   1      42.834  23.668  28.405  1.00  0.00     0.135 A 
ATOM     78  C   UNL A   1      43.819  25.349  27.000  1.00  0.00     0.135 A 
ATOM     79  F   UNL A   1      42.222  23.295  29.540  1.00  0.00    -0.206 F 
ATOM     80  C   UNL A   1      43.139  22.687  27.466  1.00  0.00     0.059 A 
ATOM     81  C   UNL A   1      44.108  24.390  26.033  1.00  0.00     0.059 A 
ATOM     82  F   UNL A   1      44.151  26.624  26.747  1.00  0.00    -0.206 F 
ATOM     83  C   UNL A   1      43.774  23.060  26.280  1.00  0.00     0.060 A 
BRANCH  83  84
ATOM     84  S   UNL A   1      44.118  21.787  25.046  1.00  0.00     0.124 S 
ATOM     85  O   UNL A   1      43.093  20.795  25.352  1.00  0.00    -0.237 OA
ATOM     86  O   UNL A   1      43.944  22.520  23.795  1.00  0.00    -0.237 OA
ATOM     87  O   UNL A   1      45.491  21.392  25.346  1.00  0.00    -0.744 OA
ENDBRANCH  83  84
ENDBRANCH  51  76
BRANCH  63  88
ATOM     88  C   UNL A   1      46.223  26.997  34.152  1.00  0.00     0.058 A 
ATOM     89  C   UNL A   1      47.509  27.501  33.901  1.00  0.00     0.135 A 
ATOM     90  C   UNL A   1      46.090  26.003  35.136  1.00  0.00     0.135 A 
ATOM     91  F   UNL A   1      47.694  28.449  32.969  1.00  0.00    -0.206 F 
ATOM     92  C   UNL A   1      48.625  27.009  34.569  1.00  0.00     0.059 A 
ATOM     93  C   UNL A   1      47.188  25.520  35.840  1.00  0.00     0.059 A 
ATOM     94  F   UNL A   1      44.882  25.495  35.427  1.00  0.00    -0.206 F 
ATOM     95  C   UNL A   1      48.455  26.015  35.535  1.00  0.00     0.060 A 
BRANCH  95  96
ATOM     96  S   UNL A   1      49.912  25.382  36.394  1.00  0.00     0.124 S 
ATOM     97  O   UNL A   1      49.643  25.793  37.768  1.00  0.00    -0.237 OA
ATOM     98  O   UNL A   1      49.829  23.948  36.134  1.00  0.00    -0.237 OA
ATOM     99  O   UNL A   1      51.019  26.070  35.737  1.00  0.00    -0.744 OA
ENDBRANCH  95  96
ENDBRANCH  63  88
ENDBRANCH  37  38
ENDBRANCH  29  32
ENDBRANCH  27  28
ENDBRANCH  26  27
ENDBRANCH   1  26
TORSDOF 17
ENDMDL
