MODEL 1
REMARK VINA RESULT:     -14.5      0.000      0.000
REMARK SMILES COC(=O)c1ccc([C@H]2CC(=O)Nc3c(C(=O)NCCCCNC(=O)c4ccc(-c5c6nc(c(-c7c(F)cc(S(=O)(=O)[O-])cc7F)c7ccc([nH]7)c(-c7c(F)cc(S(=O)(=O)[O-])cc7F)c7nc(c(-c8c(F)cc(S(=O)(=O)[O-])cc8F)c8ccc5[nH]8)C=C7)C=C6)cc4)cn(-c4ccccc4)c32)cc1
REMARK SMILES IDX 20 1 19 2 18 3 16 4 17 5 15 7 9 8 10 9 100 10 11 11 14 12
REMARK SMILES IDX 93 13 12 14 13 15 92 16 8 18 5 19 6 20 102 21 7 22 101 23
REMARK SMILES IDX 3 24 4 25 2 26 1 27 94 28 95 29 99 30 96 31 98 32 97 33
REMARK SMILES IDX 21 34 22 35 23 36 24 37 25 39 26 40 27 41 91 42 28 43 90 44
REMARK SMILES IDX 29 45 30 46 31 47 84 48 32 49 89 50 83 51 85 52 33 53 88 54
REMARK SMILES IDX 82 55 81 56 34 58 68 59 47 60 67 61 48 62 51 63 66 64 86 65
REMARK SMILES IDX 49 66 50 67 65 69 87 70 52 71 35 72 36 73 45 74 37 75 38 76
REMARK SMILES IDX 44 77 46 78 39 79 40 80 41 81 42 82 43 83 69 84 70 85 79 86
REMARK SMILES IDX 71 87 72 88 78 89 80 90 73 91 74 92 75 93 76 94 77 95 53 96
REMARK SMILES IDX 54 97 63 98 55 99 56 100 62 101 64 102 57 103 58 104 59 105
REMARK SMILES IDX 60 106 61 107
REMARK H PARENT 18 6 13 17 23 38 85 57 51 68
REMARK Flexibility Score: inf
ROOT
ATOM      1  C   UNL A   1      36.014  21.212  24.811  1.00  0.00     0.023 C 
ENDROOT
BRANCH   1   2
ATOM      2  C   UNL A   1      34.812  20.390  25.298  1.00  0.00     0.116 C 
BRANCH   2   3
ATOM      3  N   UNL A   1      33.798  20.272  24.280  1.00  0.00    -0.352 N 
ATOM      4  C   UNL A   1      32.851  21.112  23.762  1.00  0.00     0.254 C 
ATOM      5  O   UNL A   1      32.194  20.618  22.838  1.00  0.00    -0.269 OA
ATOM      6  H   UNL A   1      33.784  19.381  23.860  1.00  0.00     0.163 HD
BRANCH   4   7
ATOM      7  C   UNL A   1      32.554  22.483  24.212  1.00  0.00     0.081 A 
ATOM      8  C   UNL A   1      30.941  25.538  25.677  1.00  0.00     0.078 C 
ATOM      9  C   UNL A   1      29.783  24.857  26.418  1.00  0.00     0.115 C 
ATOM     10  C   UNL A   1      31.811  24.512  24.986  1.00  0.00     0.055 A 
ATOM     11  C   UNL A   1      30.064  23.463  26.906  1.00  0.00     0.225 C 
ATOM     12  C   UNL A   1      31.716  23.142  25.164  1.00  0.00     0.076 A 
ATOM     13  N   UNL A   1      32.835  24.753  24.087  1.00  0.00    -0.317 N 
ATOM     14  O   UNL A   1      29.469  22.987  27.872  1.00  0.00    -0.275 OA
ATOM     15  N   UNL A   1      30.887  22.678  26.155  1.00  0.00    -0.324 N 
ATOM     16  C   UNL A   1      33.184  23.540  23.547  1.00  0.00     0.107 A 
ATOM     17  H   UNL A   1      30.886  21.710  26.335  1.00  0.00     0.170 HD
BRANCH   8  18
ATOM     18  C   UNL A   1      30.317  26.624  24.791  1.00  0.00    -0.038 A 
ATOM     19  C   UNL A   1      29.302  28.667  23.124  1.00  0.00     0.060 A 
ATOM     20  C   UNL A   1      30.353  28.934  24.006  1.00  0.00     0.016 A 
ATOM     21  C   UNL A   1      28.724  27.396  23.114  1.00  0.00     0.016 A 
ATOM     22  C   UNL A   1      30.863  27.920  24.821  1.00  0.00     0.005 A 
ATOM     23  C   UNL A   1      29.200  26.401  23.971  1.00  0.00     0.005 A 
BRANCH  19  24
ATOM     24  C   UNL A   1      28.850  29.753  22.212  1.00  0.00     0.337 C 
ATOM     25  O   UNL A   1      29.507  30.173  21.282  1.00  0.00    -0.246 OA
BRANCH  24  26
ATOM     26  O   UNL A   1      27.618  30.194  22.585  1.00  0.00    -0.465 OA
ATOM     27  C   UNL A   1      27.646  31.255  23.539  1.00  0.00     0.282 C 
ENDBRANCH  24  26
ENDBRANCH  19  24
ENDBRANCH   8  18
BRANCH  13  28
ATOM     28  C   UNL A   1      33.343  26.009  23.667  1.00  0.00     0.045 A 
ATOM     29  C   UNL A   1      33.946  26.873  24.588  1.00  0.00     0.026 A 
ATOM     30  C   UNL A   1      33.124  26.430  22.347  1.00  0.00     0.026 A 
ATOM     31  C   UNL A   1      34.257  28.179  24.211  1.00  0.00     0.002 A 
ATOM     32  C   UNL A   1      33.408  27.748  21.989  1.00  0.00     0.002 A 
ATOM     33  C   UNL A   1      33.963  28.624  22.923  1.00  0.00     0.000 A 
ENDBRANCH  13  28
ENDBRANCH   4   7
ENDBRANCH   2   3
ENDBRANCH   1   2
BRANCH   1  34
ATOM     34  C   UNL A   1      36.124  22.614  25.429  1.00  0.00     0.023 C 
BRANCH  34  35
ATOM     35  C   UNL A   1      37.556  23.131  25.573  1.00  0.00     0.116 C 
BRANCH  35  36
ATOM     36  N   UNL A   1      38.429  22.199  26.286  1.00  0.00    -0.352 N 
ATOM     37  C   UNL A   1      39.672  22.457  26.834  1.00  0.00     0.251 C 
ATOM     38  H   UNL A   1      38.093  21.279  26.387  1.00  0.00     0.163 HD
ATOM     39  O   UNL A   1      40.482  21.559  27.017  1.00  0.00    -0.269 OA
BRANCH  37  40
ATOM     40  C   UNL A   1      39.990  23.846  27.203  1.00  0.00     0.039 A 
ATOM     41  C   UNL A   1      39.062  24.874  27.024  1.00  0.00     0.014 A 
ATOM     42  C   UNL A   1      41.223  24.084  27.808  1.00  0.00     0.014 A 
ATOM     43  C   UNL A   1      39.349  26.133  27.549  1.00  0.00     0.010 A 
ATOM     44  C   UNL A   1      41.450  25.291  28.427  1.00  0.00     0.010 A 
ATOM     45  C   UNL A   1      40.535  26.332  28.277  1.00  0.00    -0.014 A 
BRANCH  45  46
ATOM     46  C   UNL A   1      40.755  27.587  28.997  1.00  0.00     0.031 A 
ATOM     47  C   UNL A   1      41.853  28.447  28.456  1.00  0.00     0.074 A 
ATOM     48  C   UNL A   1      39.900  28.071  29.926  1.00  0.00     0.049 A 
ATOM     49  N   UNL A   1      42.962  28.785  29.029  1.00  0.00    -0.248 NA
ATOM     50  C   UNL A   1      41.754  28.891  27.055  1.00  0.00     0.031 C 
ATOM     51  C   UNL A   1      38.602  27.529  30.343  1.00  0.00     0.029 A 
ATOM     52  N   UNL A   1      39.967  29.238  30.623  1.00  0.00    -0.354 N 
ATOM     53  C   UNL A   1      43.597  29.665  28.154  1.00  0.00     0.074 A 
ATOM     54  C   UNL A   1      42.904  29.550  26.897  1.00  0.00     0.031 C 
ATOM     55  C   UNL A   1      37.911  28.472  31.019  1.00  0.00     0.029 A 
ATOM     56  C   UNL A   1      38.780  29.611  31.244  1.00  0.00     0.049 A 
ATOM     57  H   UNL A   1      40.790  29.775  30.684  1.00  0.00     0.167 HD
ATOM     58  C   UNL A   1      44.497  30.590  28.594  1.00  0.00     0.037 A 
ATOM     59  C   UNL A   1      38.523  30.782  31.881  1.00  0.00     0.037 A 
ATOM     60  C   UNL A   1      44.981  30.266  29.912  1.00  0.00     0.049 A 
ATOM     61  C   UNL A   1      39.836  31.381  32.230  1.00  0.00     0.074 A 
ATOM     62  C   UNL A   1      45.616  29.171  30.468  1.00  0.00     0.029 A 
ATOM     63  N   UNL A   1      44.485  30.978  30.977  1.00  0.00    -0.354 N 
ATOM     64  N   UNL A   1      40.669  30.860  33.088  1.00  0.00    -0.248 NA
ATOM     65  C   UNL A   1      40.419  32.324  31.289  1.00  0.00     0.031 C 
ATOM     66  C   UNL A   1      45.016  29.014  31.754  1.00  0.00     0.029 A 
ATOM     67  C   UNL A   1      44.114  30.063  31.932  1.00  0.00     0.049 A 
ATOM     68  H   UNL A   1      44.408  31.957  31.043  1.00  0.00     0.167 HD
ATOM     69  C   UNL A   1      41.924  31.064  32.534  1.00  0.00     0.074 A 
ATOM     70  C   UNL A   1      41.711  32.048  31.474  1.00  0.00     0.031 C 
ATOM     71  C   UNL A   1      42.965  30.220  32.797  1.00  0.00     0.037 A 
BRANCH  58  72
ATOM     72  C   UNL A   1      44.676  31.962  27.980  1.00  0.00     0.058 A 
ATOM     73  C   UNL A   1      45.870  32.277  27.298  1.00  0.00     0.135 A 
ATOM     74  C   UNL A   1      43.836  33.063  28.267  1.00  0.00     0.135 A 
ATOM     75  F   UNL A   1      46.755  31.315  26.991  1.00  0.00    -0.206 F 
ATOM     76  C   UNL A   1      46.228  33.589  26.977  1.00  0.00     0.059 A 
ATOM     77  C   UNL A   1      44.146  34.370  27.908  1.00  0.00     0.059 A 
ATOM     78  F   UNL A   1      42.722  32.938  28.997  1.00  0.00    -0.206 F 
ATOM     79  C   UNL A   1      45.361  34.630  27.298  1.00  0.00     0.060 A 
BRANCH  79  80
ATOM     80  S   UNL A   1      45.855  36.331  26.970  1.00  0.00     0.124 S 
ATOM     81  O   UNL A   1      44.561  36.988  26.833  1.00  0.00    -0.237 OA
ATOM     82  O   UNL A   1      46.618  36.663  28.168  1.00  0.00    -0.237 OA
ATOM     83  O   UNL A   1      46.642  36.221  25.745  1.00  0.00    -0.744 OA
ENDBRANCH  79  80
ENDBRANCH  58  72
BRANCH  59  84
ATOM     84  C   UNL A   1      37.259  31.564  31.910  1.00  0.00     0.058 A 
ATOM     85  C   UNL A   1      36.697  31.980  33.131  1.00  0.00     0.135 A 
ATOM     86  C   UNL A   1      36.745  32.177  30.749  1.00  0.00     0.135 A 
ATOM     87  F   UNL A   1      37.133  31.457  34.287  1.00  0.00    -0.206 F 
ATOM     88  C   UNL A   1      35.736  32.994  33.203  1.00  0.00     0.059 A 
ATOM     89  C   UNL A   1      35.780  33.182  30.795  1.00  0.00     0.059 A 
ATOM     90  F   UNL A   1      37.240  31.884  29.537  1.00  0.00    -0.206 F 
ATOM     91  C   UNL A   1      35.303  33.609  32.030  1.00  0.00     0.060 A 
BRANCH  91  92
ATOM     92  S   UNL A   1      34.221  35.056  32.134  1.00  0.00     0.124 S 
ATOM     93  O   UNL A   1      34.050  35.406  30.728  1.00  0.00    -0.237 OA
ATOM     94  O   UNL A   1      33.045  34.512  32.803  1.00  0.00    -0.237 OA
ATOM     95  O   UNL A   1      35.001  36.004  32.924  1.00  0.00    -0.744 OA
ENDBRANCH  91  92
ENDBRANCH  59  84
BRANCH  71  96
ATOM     96  C   UNL A   1      42.820  29.230  33.929  1.00  0.00     0.058 A 
ATOM     97  C   UNL A   1      43.000  29.532  35.291  1.00  0.00     0.135 A 
ATOM     98  C   UNL A   1      42.342  27.947  33.622  1.00  0.00     0.135 A 
ATOM     99  F   UNL A   1      43.351  30.762  35.687  1.00  0.00    -0.206 F 
ATOM    100  C   UNL A   1      42.767  28.586  36.294  1.00  0.00     0.059 A 
ATOM    101  C   UNL A   1      42.069  27.000  34.607  1.00  0.00     0.059 A 
ATOM    102  F   UNL A   1      42.087  27.611  32.347  1.00  0.00    -0.206 F 
ATOM    103  C   UNL A   1      42.301  27.321  35.942  1.00  0.00     0.060 A 
BRANCH 103 104
ATOM    104  S   UNL A   1      41.946  26.117  37.239  1.00  0.00     0.124 S 
ATOM    105  O   UNL A   1      40.621  26.528  37.688  1.00  0.00    -0.237 OA
ATOM    106  O   UNL A   1      42.007  24.847  36.521  1.00  0.00    -0.237 OA
ATOM    107  O   UNL A   1      43.023  26.327  38.204  1.00  0.00    -0.744 OA
ENDBRANCH 103 104
ENDBRANCH  71  96
ENDBRANCH  45  46
ENDBRANCH  37  40
ENDBRANCH  35  36
ENDBRANCH  34  35
ENDBRANCH   1  34
TORSDOF 18
ENDMDL
MODEL 2
REMARK VINA RESULT:     -13.9      2.888      9.451
REMARK SMILES COC(=O)c1ccc([C@H]2CC(=O)Nc3c(C(=O)NCCCCNC(=O)c4ccc(-c5c6nc(c(-c7c(F)cc(S(=O)(=O)[O-])cc7F)c7ccc([nH]7)c(-c7c(F)cc(S(=O)(=O)[O-])cc7F)c7nc(c(-c8c(F)cc(S(=O)(=O)[O-])cc8F)c8ccc5[nH]8)C=C7)C=C6)cc4)cn(-c4ccccc4)c32)cc1
REMARK SMILES IDX 20 1 19 2 18 3 16 4 17 5 15 7 9 8 10 9 100 10 11 11 14 12
REMARK SMILES IDX 93 13 12 14 13 15 92 16 8 18 5 19 6 20 102 21 7 22 101 23
REMARK SMILES IDX 3 24 4 25 2 26 1 27 94 28 95 29 99 30 96 31 98 32 97 33
REMARK SMILES IDX 21 34 22 35 23 36 24 37 25 39 26 40 27 41 91 42 28 43 90 44
REMARK SMILES IDX 29 45 30 46 31 47 84 48 32 49 89 50 83 51 85 52 33 53 88 54
REMARK SMILES IDX 82 55 81 56 34 58 68 59 47 60 67 61 48 62 51 63 66 64 86 65
REMARK SMILES IDX 49 66 50 67 65 69 87 70 52 71 35 72 36 73 45 74 37 75 38 76
REMARK SMILES IDX 44 77 46 78 39 79 40 80 41 81 42 82 43 83 69 84 70 85 79 86
REMARK SMILES IDX 71 87 72 88 78 89 80 90 73 91 74 92 75 93 76 94 77 95 53 96
REMARK SMILES IDX 54 97 63 98 55 99 56 100 62 101 64 102 57 103 58 104 59 105
REMARK SMILES IDX 60 106 61 107
REMARK H PARENT 18 6 13 17 23 38 85 57 51 68
REMARK Flexibility Score: inf
ROOT
ATOM      1  C   UNL A   1      35.025  30.636  27.270  1.00  0.00     0.023 C 
ENDROOT
BRANCH   1   2
ATOM      2  C   UNL A   1      34.660  29.162  27.041  1.00  0.00     0.116 C 
BRANCH   2   3
ATOM      3  N   UNL A   1      33.352  28.849  27.560  1.00  0.00    -0.352 N 
ATOM      4  C   UNL A   1      32.419  27.883  27.303  1.00  0.00     0.254 C 
ATOM      5  O   UNL A   1      31.419  27.945  28.028  1.00  0.00    -0.269 OA
ATOM      6  H   UNL A   1      33.064  29.476  28.264  1.00  0.00     0.163 HD
BRANCH   4   7
ATOM      7  C   UNL A   1      32.500  26.840  26.265  1.00  0.00     0.081 A 
ATOM      8  C   UNL A   1      31.698  24.226  23.697  1.00  0.00     0.078 C 
ATOM      9  C   UNL A   1      30.188  24.470  23.579  1.00  0.00     0.115 C 
ATOM     10  C   UNL A   1      32.321  25.189  24.681  1.00  0.00     0.055 A 
ATOM     11  C   UNL A   1      29.744  25.884  23.835  1.00  0.00     0.225 C 
ATOM     12  C   UNL A   1      31.676  26.279  25.241  1.00  0.00     0.076 A 
ATOM     13  N   UNL A   1      33.613  25.160  25.175  1.00  0.00    -0.317 N 
ATOM     14  O   UNL A   1      28.710  26.333  23.341  1.00  0.00    -0.275 OA
ATOM     15  N   UNL A   1      30.437  26.613  24.754  1.00  0.00    -0.324 N 
ATOM     16  C   UNL A   1      33.667  26.071  26.201  1.00  0.00     0.107 A 
ATOM     17  H   UNL A   1      30.019  27.437  25.093  1.00  0.00     0.170 HD
BRANCH   8  18
ATOM     18  C   UNL A   1      31.879  22.729  23.984  1.00  0.00    -0.038 A 
ATOM     19  C   UNL A   1      32.327  19.975  24.425  1.00  0.00     0.060 A 
ATOM     20  C   UNL A   1      32.375  20.498  23.129  1.00  0.00     0.016 A 
ATOM     21  C   UNL A   1      32.003  20.816  25.491  1.00  0.00     0.016 A 
ATOM     22  C   UNL A   1      32.165  21.863  22.914  1.00  0.00     0.005 A 
ATOM     23  C   UNL A   1      31.739  22.169  25.264  1.00  0.00     0.005 A 
BRANCH  19  24
ATOM     24  C   UNL A   1      32.643  18.533  24.618  1.00  0.00     0.337 C 
ATOM     25  O   UNL A   1      32.398  17.917  25.635  1.00  0.00    -0.246 OA
BRANCH  24  26
ATOM     26  O   UNL A   1      33.246  18.033  23.506  1.00  0.00    -0.465 OA
ATOM     27  C   UNL A   1      33.526  16.636  23.576  1.00  0.00     0.282 C 
ENDBRANCH  24  26
ENDBRANCH  19  24
ENDBRANCH   8  18
BRANCH  13  28
ATOM     28  C   UNL A   1      34.659  24.269  24.820  1.00  0.00     0.045 A 
ATOM     29  C   UNL A   1      35.041  24.124  23.482  1.00  0.00     0.026 A 
ATOM     30  C   UNL A   1      35.220  23.444  25.806  1.00  0.00     0.026 A 
ATOM     31  C   UNL A   1      35.923  23.106  23.120  1.00  0.00     0.002 A 
ATOM     32  C   UNL A   1      36.075  22.408  25.430  1.00  0.00     0.002 A 
ATOM     33  C   UNL A   1      36.416  22.232  24.088  1.00  0.00     0.000 A 
ENDBRANCH  13  28
ENDBRANCH   4   7
ENDBRANCH   2   3
ENDBRANCH   1   2
BRANCH   1  34
ATOM     34  C   UNL A   1      33.890  31.495  27.847  1.00  0.00     0.023 C 
BRANCH  34  35
ATOM     35  C   UNL A   1      34.320  32.891  28.301  1.00  0.00     0.116 C 
BRANCH  35  36
ATOM     36  N   UNL A   1      34.214  33.077  29.748  1.00  0.00    -0.352 N 
ATOM     37  C   UNL A   1      34.902  32.401  30.738  1.00  0.00     0.251 C 
ATOM     38  H   UNL A   1      33.578  33.763  30.052  1.00  0.00     0.163 HD
ATOM     39  O   UNL A   1      34.457  32.317  31.874  1.00  0.00    -0.269 OA
BRANCH  37  40
ATOM     40  C   UNL A   1      36.198  31.794  30.390  1.00  0.00     0.039 A 
ATOM     41  C   UNL A   1      37.301  32.583  30.054  1.00  0.00     0.014 A 
ATOM     42  C   UNL A   1      36.302  30.408  30.480  1.00  0.00     0.014 A 
ATOM     43  C   UNL A   1      38.541  31.967  29.904  1.00  0.00     0.010 A 
ATOM     44  C   UNL A   1      37.546  29.821  30.448  1.00  0.00     0.010 A 
ATOM     45  C   UNL A   1      38.668  30.585  30.129  1.00  0.00    -0.014 A 
BRANCH  45  46
ATOM     46  C   UNL A   1      39.992  29.963  30.167  1.00  0.00     0.031 A 
ATOM     47  C   UNL A   1      40.530  29.697  31.537  1.00  0.00     0.074 A 
ATOM     48  C   UNL A   1      40.599  29.441  29.078  1.00  0.00     0.049 A 
ATOM     49  N   UNL A   1      41.572  30.212  32.103  1.00  0.00    -0.248 NA
ATOM     50  C   UNL A   1      39.741  28.832  32.432  1.00  0.00     0.031 C 
ATOM     51  C   UNL A   1      40.075  29.313  27.713  1.00  0.00     0.029 A 
ATOM     52  N   UNL A   1      41.797  28.799  28.993  1.00  0.00    -0.354 N 
ATOM     53  C   UNL A   1      41.701  29.573  33.335  1.00  0.00     0.074 A 
ATOM     54  C   UNL A   1      40.460  28.877  33.555  1.00  0.00     0.031 C 
ATOM     55  C   UNL A   1      40.830  28.436  27.017  1.00  0.00     0.029 A 
ATOM     56  C   UNL A   1      41.988  28.084  27.816  1.00  0.00     0.049 A 
ATOM     57  H   UNL A   1      42.473  28.838  29.708  1.00  0.00     0.167 HD
ATOM     58  C   UNL A   1      42.903  29.476  33.971  1.00  0.00     0.037 A 
ATOM     59  C   UNL A   1      43.016  27.247  27.525  1.00  0.00     0.037 A 
ATOM     60  C   UNL A   1      43.853  30.424  33.447  1.00  0.00     0.049 A 
ATOM     61  C   UNL A   1      44.128  27.594  28.447  1.00  0.00     0.074 A 
ATOM     62  C   UNL A   1      43.873  31.799  33.309  1.00  0.00     0.029 A 
ATOM     63  N   UNL A   1      44.830  29.959  32.600  1.00  0.00    -0.354 N 
ATOM     64  N   UNL A   1      44.773  28.727  28.416  1.00  0.00    -0.248 NA
ATOM     65  C   UNL A   1      44.225  26.855  29.695  1.00  0.00     0.031 C 
ATOM     66  C   UNL A   1      44.468  32.031  32.032  1.00  0.00     0.029 A 
ATOM     67  C   UNL A   1      44.843  30.793  31.509  1.00  0.00     0.049 A 
ATOM     68  H   UNL A   1      45.410  29.177  32.747  1.00  0.00     0.167 HD
ATOM     69  C   UNL A   1      44.988  29.050  29.747  1.00  0.00     0.074 A 
ATOM     70  C   UNL A   1      44.708  27.817  30.483  1.00  0.00     0.031 C 
ATOM     71  C   UNL A   1      45.102  30.348  30.157  1.00  0.00     0.037 A 
BRANCH  58  72
ATOM     72  C   UNL A   1      43.321  28.297  34.824  1.00  0.00     0.058 A 
ATOM     73  C   UNL A   1      43.818  28.513  36.126  1.00  0.00     0.135 A 
ATOM     74  C   UNL A   1      43.505  26.991  34.316  1.00  0.00     0.135 A 
ATOM     75  F   UNL A   1      43.719  29.722  36.704  1.00  0.00    -0.206 F 
ATOM     76  C   UNL A   1      44.496  27.525  36.845  1.00  0.00     0.059 A 
ATOM     77  C   UNL A   1      44.127  25.976  35.036  1.00  0.00     0.059 A 
ATOM     78  F   UNL A   1      43.180  26.662  33.061  1.00  0.00    -0.206 F 
ATOM     79  C   UNL A   1      44.654  26.261  36.283  1.00  0.00     0.060 A 
BRANCH  79  80
ATOM     80  S   UNL A   1      45.605  25.009  37.164  1.00  0.00     0.124 S 
ATOM     81  O   UNL A   1      44.622  24.520  38.123  1.00  0.00    -0.237 OA
ATOM     82  O   UNL A   1      45.964  24.090  36.090  1.00  0.00    -0.237 OA
ATOM     83  O   UNL A   1      46.717  25.769  37.728  1.00  0.00    -0.744 OA
ENDBRANCH  79  80
ENDBRANCH  58  72
BRANCH  59  84
ATOM     84  C   UNL A   1      42.989  25.976  26.755  1.00  0.00     0.058 A 
ATOM     85  C   UNL A   1      43.707  25.846  25.552  1.00  0.00     0.135 A 
ATOM     86  C   UNL A   1      42.515  24.778  27.327  1.00  0.00     0.135 A 
ATOM     87  F   UNL A   1      44.204  26.934  24.943  1.00  0.00    -0.206 F 
ATOM     88  C   UNL A   1      44.001  24.600  24.989  1.00  0.00     0.059 A 
ATOM     89  C   UNL A   1      42.786  23.525  26.779  1.00  0.00     0.059 A 
ATOM     90  F   UNL A   1      41.855  24.784  28.496  1.00  0.00    -0.206 F 
ATOM     91  C   UNL A   1      43.559  23.441  25.626  1.00  0.00     0.060 A 
BRANCH  91  92
ATOM     92  S   UNL A   1      44.112  21.830  25.019  1.00  0.00     0.124 S 
ATOM     93  O   UNL A   1      42.991  20.970  25.383  1.00  0.00    -0.237 OA
ATOM     94  O   UNL A   1      44.285  22.081  23.593  1.00  0.00    -0.237 OA
ATOM     95  O   UNL A   1      45.348  21.595  25.761  1.00  0.00    -0.744 OA
ENDBRANCH  91  92
ENDBRANCH  59  84
BRANCH  71  96
ATOM     96  C   UNL A   1      45.288  31.419  29.108  1.00  0.00     0.058 A 
ATOM     97  C   UNL A   1      46.521  31.778  28.533  1.00  0.00     0.135 A 
ATOM     98  C   UNL A   1      44.138  32.012  28.563  1.00  0.00     0.135 A 
ATOM     99  F   UNL A   1      47.661  31.186  28.913  1.00  0.00    -0.206 F 
ATOM    100  C   UNL A   1      46.610  32.721  27.504  1.00  0.00     0.059 A 
ATOM    101  C   UNL A   1      44.200  32.928  27.515  1.00  0.00     0.059 A 
ATOM    102  F   UNL A   1      42.923  31.669  29.021  1.00  0.00    -0.206 F 
ATOM    103  C   UNL A   1      45.442  33.291  27.001  1.00  0.00     0.060 A 
BRANCH 103 104
ATOM    104  S   UNL A   1      45.550  34.467  25.636  1.00  0.00     0.124 S 
ATOM    105  O   UNL A   1      46.978  34.466  25.340  1.00  0.00    -0.237 OA
ATOM    106  O   UNL A   1      44.692  33.859  24.622  1.00  0.00    -0.237 OA
ATOM    107  O   UNL A   1      45.034  35.707  26.211  1.00  0.00    -0.744 OA
ENDBRANCH 103 104
ENDBRANCH  71  96
ENDBRANCH  45  46
ENDBRANCH  37  40
ENDBRANCH  35  36
ENDBRANCH  34  35
ENDBRANCH   1  34
TORSDOF 18
ENDMDL
MODEL 3
REMARK VINA RESULT:     -12.6      5.141     11.509
REMARK SMILES COC(=O)c1ccc([C@H]2CC(=O)Nc3c(C(=O)NCCCCNC(=O)c4ccc(-c5c6nc(c(-c7c(F)cc(S(=O)(=O)[O-])cc7F)c7ccc([nH]7)c(-c7c(F)cc(S(=O)(=O)[O-])cc7F)c7nc(c(-c8c(F)cc(S(=O)(=O)[O-])cc8F)c8ccc5[nH]8)C=C7)C=C6)cc4)cn(-c4ccccc4)c32)cc1
REMARK SMILES IDX 20 1 19 2 18 3 16 4 17 5 15 7 9 8 10 9 100 10 11 11 14 12
REMARK SMILES IDX 93 13 12 14 13 15 92 16 8 18 5 19 6 20 102 21 7 22 101 23
REMARK SMILES IDX 3 24 4 25 2 26 1 27 94 28 95 29 99 30 96 31 98 32 97 33
REMARK SMILES IDX 21 34 22 35 23 36 24 37 25 39 26 40 27 41 91 42 28 43 90 44
REMARK SMILES IDX 29 45 30 46 31 47 84 48 32 49 89 50 83 51 85 52 33 53 88 54
REMARK SMILES IDX 82 55 81 56 34 58 68 59 47 60 67 61 48 62 51 63 66 64 86 65
REMARK SMILES IDX 49 66 50 67 65 69 87 70 52 71 35 72 36 73 45 74 37 75 38 76
REMARK SMILES IDX 44 77 46 78 39 79 40 80 41 81 42 82 43 83 69 84 70 85 79 86
REMARK SMILES IDX 71 87 72 88 78 89 80 90 73 91 74 92 75 93 76 94 77 95 53 96
REMARK SMILES IDX 54 97 63 98 55 99 56 100 62 101 64 102 57 103 58 104 59 105
REMARK SMILES IDX 60 106 61 107
REMARK H PARENT 18 6 13 17 23 38 85 57 51 68
REMARK Flexibility Score: inf
ROOT
ATOM      1  C   UNL A   1      46.166  21.670  24.569  1.00  0.00     0.023 C 
ENDROOT
BRANCH   1   2
ATOM      2  C   UNL A   1      45.901  23.131  24.961  1.00  0.00     0.116 C 
BRANCH   2   3
ATOM      3  N   UNL A   1      45.727  23.279  26.385  1.00  0.00    -0.352 N 
ATOM      4  C   UNL A   1      46.318  24.042  27.354  1.00  0.00     0.254 C 
ATOM      5  O   UNL A   1      45.824  23.896  28.478  1.00  0.00    -0.269 OA
ATOM      6  H   UNL A   1      45.019  22.695  26.742  1.00  0.00     0.163 HD
BRANCH   4   7
ATOM      7  C   UNL A   1      47.455  24.962  27.174  1.00  0.00     0.081 A 
ATOM      8  C   UNL A   1      50.302  26.958  25.767  1.00  0.00     0.078 C 
ATOM      9  C   UNL A   1      50.073  26.674  24.276  1.00  0.00     0.115 C 
ATOM     10  C   UNL A   1      49.249  26.278  26.610  1.00  0.00     0.055 A 
ATOM     11  C   UNL A   1      48.642  26.434  23.881  1.00  0.00     0.225 C 
ATOM     12  C   UNL A   1      48.112  25.662  26.115  1.00  0.00     0.076 A 
ATOM     13  N   UNL A   1      49.228  26.161  27.989  1.00  0.00    -0.317 N 
ATOM     14  O   UNL A   1      48.243  26.659  22.739  1.00  0.00    -0.275 OA
ATOM     15  N   UNL A   1      47.828  25.813  24.781  1.00  0.00    -0.324 N 
ATOM     16  C   UNL A   1      48.225  25.277  28.298  1.00  0.00     0.107 A 
ATOM     17  H   UNL A   1      46.976  25.447  24.450  1.00  0.00     0.170 HD
BRANCH   8  18
ATOM     18  C   UNL A   1      51.765  26.598  26.061  1.00  0.00    -0.038 A 
ATOM     19  C   UNL A   1      54.457  25.852  26.483  1.00  0.00     0.060 A 
ATOM     20  C   UNL A   1      53.505  24.890  26.133  1.00  0.00     0.016 A 
ATOM     21  C   UNL A   1      54.053  27.175  26.674  1.00  0.00     0.016 A 
ATOM     22  C   UNL A   1      52.176  25.261  25.912  1.00  0.00     0.005 A 
ATOM     23  C   UNL A   1      52.713  27.532  26.508  1.00  0.00     0.005 A 
BRANCH  19  24
ATOM     24  C   UNL A   1      55.876  25.427  26.621  1.00  0.00     0.337 C 
ATOM     25  O   UNL A   1      56.224  24.387  27.143  1.00  0.00    -0.246 OA
BRANCH  24  26
ATOM     26  O   UNL A   1      56.701  26.371  26.093  1.00  0.00    -0.465 OA
ATOM     27  C   UNL A   1      56.785  26.337  24.669  1.00  0.00     0.282 C 
ENDBRANCH  24  26
ENDBRANCH  19  24
ENDBRANCH   8  18
BRANCH  13  28
ATOM     28  C   UNL A   1      50.147  26.711  28.920  1.00  0.00     0.045 A 
ATOM     29  C   UNL A   1      50.155  28.086  29.179  1.00  0.00     0.026 A 
ATOM     30  C   UNL A   1      51.128  25.883  29.484  1.00  0.00     0.026 A 
ATOM     31  C   UNL A   1      51.187  28.642  29.936  1.00  0.00     0.002 A 
ATOM     32  C   UNL A   1      52.174  26.453  30.212  1.00  0.00     0.002 A 
ATOM     33  C   UNL A   1      52.209  27.831  30.427  1.00  0.00     0.000 A 
ENDBRANCH  13  28
ENDBRANCH   4   7
ENDBRANCH   2   3
ENDBRANCH   1   2
BRANCH   1  34
ATOM     34  C   UNL A   1      44.903  20.848  24.272  1.00  0.00     0.023 C 
BRANCH  34  35
ATOM     35  C   UNL A   1      44.460  19.934  25.415  1.00  0.00     0.116 C 
BRANCH  35  36
ATOM     36  N   UNL A   1      43.018  19.688  25.421  1.00  0.00    -0.352 N 
ATOM     37  C   UNL A   1      42.049  20.370  26.133  1.00  0.00     0.251 C 
ATOM     38  H   UNL A   1      42.700  18.951  24.852  1.00  0.00     0.163 HD
ATOM     39  O   UNL A   1      40.977  19.847  26.406  1.00  0.00    -0.269 OA
BRANCH  37  40
ATOM     40  C   UNL A   1      42.338  21.754  26.546  1.00  0.00     0.039 A 
ATOM     41  C   UNL A   1      42.231  22.816  25.646  1.00  0.00     0.014 A 
ATOM     42  C   UNL A   1      42.651  21.972  27.886  1.00  0.00     0.014 A 
ATOM     43  C   UNL A   1      42.346  24.117  26.131  1.00  0.00     0.010 A 
ATOM     44  C   UNL A   1      42.646  23.255  28.380  1.00  0.00     0.010 A 
ATOM     45  C   UNL A   1      42.526  24.336  27.508  1.00  0.00    -0.014 A 
BRANCH  45  46
ATOM     46  C   UNL A   1      42.453  25.692  28.054  1.00  0.00     0.031 A 
ATOM     47  C   UNL A   1      43.576  26.598  27.660  1.00  0.00     0.074 A 
ATOM     48  C   UNL A   1      41.355  26.188  28.667  1.00  0.00     0.049 A 
ATOM     49  N   UNL A   1      44.473  27.138  28.419  1.00  0.00    -0.248 NA
ATOM     50  C   UNL A   1      43.796  26.839  26.224  1.00  0.00     0.031 C 
ATOM     51  C   UNL A   1      40.043  25.554  28.845  1.00  0.00     0.029 A 
ATOM     52  N   UNL A   1      41.147  27.436  29.169  1.00  0.00    -0.354 N 
ATOM     53  C   UNL A   1      45.233  27.965  27.592  1.00  0.00     0.074 A 
ATOM     54  C   UNL A   1      44.889  27.604  26.241  1.00  0.00     0.031 C 
ATOM     55  C   UNL A   1      39.128  26.488  29.183  1.00  0.00     0.029 A 
ATOM     56  C   UNL A   1      39.815  27.743  29.425  1.00  0.00     0.049 A 
ATOM     57  H   UNL A   1      41.881  28.071  29.338  1.00  0.00     0.167 HD
ATOM     58  C   UNL A   1      45.912  29.041  28.082  1.00  0.00     0.037 A 
ATOM     59  C   UNL A   1      39.309  28.947  29.792  1.00  0.00     0.037 A 
ATOM     60  C   UNL A   1      46.075  28.953  29.511  1.00  0.00     0.049 A 
ATOM     61  C   UNL A   1      40.438  29.740  30.343  1.00  0.00     0.074 A 
ATOM     62  C   UNL A   1      46.639  28.024  30.366  1.00  0.00     0.029 A 
ATOM     63  N   UNL A   1      45.269  29.734  30.303  1.00  0.00    -0.354 N 
ATOM     64  N   UNL A   1      41.069  29.439  31.445  1.00  0.00    -0.248 NA
ATOM     65  C   UNL A   1      41.157  30.614  29.431  1.00  0.00     0.031 C 
ATOM     66  C   UNL A   1      45.750  27.966  31.481  1.00  0.00     0.029 A 
ATOM     67  C   UNL A   1      44.748  28.915  31.275  1.00  0.00     0.049 A 
ATOM     68  H   UNL A   1      45.097  30.697  30.196  1.00  0.00     0.167 HD
ATOM     69  C   UNL A   1      42.401  29.717  31.178  1.00  0.00     0.074 A 
ATOM     70  C   UNL A   1      42.380  30.521  29.957  1.00  0.00     0.031 C 
ATOM     71  C   UNL A   1      43.410  29.046  31.808  1.00  0.00     0.037 A 
BRANCH  58  72
ATOM     72  C   UNL A   1      46.124  30.332  27.321  1.00  0.00     0.058 A 
ATOM     73  C   UNL A   1      47.410  30.910  27.261  1.00  0.00     0.135 A 
ATOM     74  C   UNL A   1      45.068  31.161  26.878  1.00  0.00     0.135 A 
ATOM     75  F   UNL A   1      48.487  30.224  27.675  1.00  0.00    -0.206 F 
ATOM     76  C   UNL A   1      47.622  32.228  26.847  1.00  0.00     0.059 A 
ATOM     77  C   UNL A   1      45.263  32.456  26.410  1.00  0.00     0.059 A 
ATOM     78  F   UNL A   1      43.785  30.793  26.970  1.00  0.00    -0.206 F 
ATOM     79  C   UNL A   1      46.537  32.996  26.435  1.00  0.00     0.060 A 
BRANCH  79  80
ATOM     80  S   UNL A   1      46.790  34.723  25.986  1.00  0.00     0.124 S 
ATOM     81  O   UNL A   1      47.772  34.604  24.915  1.00  0.00    -0.237 OA
ATOM     82  O   UNL A   1      45.449  35.131  25.583  1.00  0.00    -0.237 OA
ATOM     83  O   UNL A   1      47.274  35.323  27.227  1.00  0.00    -0.744 OA
ENDBRANCH  79  80
ENDBRANCH  58  72
BRANCH  59  84
ATOM     84  C   UNL A   1      38.018  29.570  29.399  1.00  0.00     0.058 A 
ATOM     85  C   UNL A   1      37.103  30.009  30.374  1.00  0.00     0.135 A 
ATOM     86  C   UNL A   1      37.789  30.024  28.084  1.00  0.00     0.135 A 
ATOM     87  F   UNL A   1      37.251  29.635  31.654  1.00  0.00    -0.206 F 
ATOM     88  C   UNL A   1      36.067  30.901  30.077  1.00  0.00     0.059 A 
ATOM     89  C   UNL A   1      36.757  30.905  27.762  1.00  0.00     0.059 A 
ATOM     90  F   UNL A   1      38.625  29.700  27.086  1.00  0.00    -0.206 F 
ATOM     91  C   UNL A   1      35.919  31.366  28.771  1.00  0.00     0.060 A 
BRANCH  91  92
ATOM     92  S   UNL A   1      34.718  32.674  28.426  1.00  0.00     0.124 S 
ATOM     93  O   UNL A   1      35.470  33.545  27.531  1.00  0.00    -0.237 OA
ATOM     94  O   UNL A   1      33.620  31.930  27.819  1.00  0.00    -0.237 OA
ATOM     95  O   UNL A   1      34.434  33.229  29.747  1.00  0.00    -0.744 OA
ENDBRANCH  91  92
ENDBRANCH  59  84
BRANCH  71  96
ATOM     96  C   UNL A   1      43.068  28.202  33.015  1.00  0.00     0.058 A 
ATOM     97  C   UNL A   1      43.142  26.798  33.063  1.00  0.00     0.135 A 
ATOM     98  C   UNL A   1      42.784  28.864  34.219  1.00  0.00     0.135 A 
ATOM     99  F   UNL A   1      43.512  26.087  31.990  1.00  0.00    -0.206 F 
ATOM    100  C   UNL A   1      42.893  26.086  34.240  1.00  0.00     0.059 A 
ATOM    101  C   UNL A   1      42.566  28.176  35.411  1.00  0.00     0.059 A 
ATOM    102  F   UNL A   1      42.760  30.206  34.260  1.00  0.00    -0.206 F 
ATOM    103  C   UNL A   1      42.606  26.785  35.411  1.00  0.00     0.060 A 
BRANCH 103 104
ATOM    104  S   UNL A   1      42.338  25.869  36.943  1.00  0.00     0.124 S 
ATOM    105  O   UNL A   1      40.904  26.035  37.155  1.00  0.00    -0.237 OA
ATOM    106  O   UNL A   1      42.775  24.521  36.590  1.00  0.00    -0.237 OA
ATOM    107  O   UNL A   1      43.194  26.557  37.907  1.00  0.00    -0.744 OA
ENDBRANCH 103 104
ENDBRANCH  71  96
ENDBRANCH  45  46
ENDBRANCH  37  40
ENDBRANCH  35  36
ENDBRANCH  34  35
ENDBRANCH   1  34
TORSDOF 18
ENDMDL
