MODEL 1
REMARK VINA RESULT:      -9.7      0.000      0.000
REMARK SMILES C[C@H](C(=O)NCCCCNC(=O)c1ccc(-c2c3nc(c(-c4c(F)cc(S(=O)(=O)[O-])cc4F)c4ccc([nH]4)c(-c4c(F)cc(S(=O)(=O)[O-])cc4F)c4nc(c(-c5c(F)cc(S(=O)(=O)[O-])cc5F)c5ccc2[nH]5)C=C4)C=C3)cc1)c1ccc2c(c1)[nH]c1ccc(Cl)cc12
REMARK SMILES IDX 8 1 7 2 6 3 5 4 3 5 4 6 2 8 1 9 79 10 80 11 84 12 81 13
REMARK SMILES IDX 83 14 82 15 85 16 92 17 86 18 91 20 87 21 89 22 88 23 90 24
REMARK SMILES IDX 9 25 10 26 11 27 12 29 13 30 14 31 78 32 15 33 77 34 16 35
REMARK SMILES IDX 17 36 18 37 71 38 19 39 76 40 70 41 72 42 20 43 75 44 69 45
REMARK SMILES IDX 68 46 21 48 55 49 34 50 54 51 35 52 38 53 53 54 73 55 36 56
REMARK SMILES IDX 37 57 52 59 74 60 39 61 22 62 23 63 32 64 24 65 25 66 31 67
REMARK SMILES IDX 33 68 26 69 27 70 28 71 29 72 30 73 56 74 57 75 66 76 58 77
REMARK SMILES IDX 59 78 65 79 67 80 60 81 61 82 62 83 63 84 64 85 40 86 41 87
REMARK SMILES IDX 50 88 42 89 43 90 49 91 51 92 44 93 45 94 46 95 47 96 48 97
REMARK H PARENT 5 7 85 19 10 28 72 47 38 58
REMARK Flexibility Score: inf
ROOT
ATOM      1  C   UNL A   1      35.958  33.417  29.389  1.00  0.00     0.023 C 
ENDROOT
BRANCH   1   2
ATOM      2  C   UNL A   1      37.416  33.874  29.464  1.00  0.00     0.023 C 
BRANCH   2   3
ATOM      3  C   UNL A   1      38.035  33.794  30.858  1.00  0.00     0.116 C 
BRANCH   3   4
ATOM      4  N   UNL A   1      37.329  34.629  31.811  1.00  0.00    -0.356 N 
ATOM      5  C   UNL A   1      36.715  34.296  32.982  1.00  0.00     0.227 C 
ATOM      6  O   UNL A   1      36.229  35.211  33.653  1.00  0.00    -0.274 OA
ATOM      7  H   UNL A   1      37.286  35.584  31.576  1.00  0.00     0.163 HD
BRANCH   5   8
ATOM      8  C   UNL A   1      36.645  32.845  33.472  1.00  0.00     0.105 C 
ATOM      9  C   UNL A   1      35.530  32.094  32.736  1.00  0.00     0.023 C 
BRANCH   8  10
ATOM     10  C   UNL A   1      37.994  32.122  33.534  1.00  0.00    -0.034 A 
ATOM     11  C   UNL A   1      39.130  32.769  34.044  1.00  0.00     0.005 A 
ATOM     12  C   UNL A   1      38.135  30.819  33.015  1.00  0.00     0.031 A 
ATOM     13  C   UNL A   1      40.383  32.135  34.090  1.00  0.00     0.011 A 
ATOM     14  C   UNL A   1      39.388  30.199  33.078  1.00  0.00     0.047 A 
ATOM     15  C   UNL A   1      40.516  30.822  33.602  1.00  0.00     0.007 A 
ATOM     16  N   UNL A   1      39.768  28.946  32.663  1.00  0.00    -0.355 N 
ATOM     17  C   UNL A   1      41.607  29.903  33.474  1.00  0.00     0.009 A 
ATOM     18  C   UNL A   1      41.112  28.749  32.865  1.00  0.00     0.047 A 
ATOM     19  H   UNL A   1      39.158  28.278  32.273  1.00  0.00     0.167 HD
ATOM     20  C   UNL A   1      42.977  29.955  33.805  1.00  0.00     0.031 A 
ATOM     21  C   UNL A   1      41.916  27.647  32.549  1.00  0.00     0.028 A 
ATOM     22  C   UNL A   1      43.791  28.861  33.494  1.00  0.00     0.041 A 
ATOM     23  C   UNL A   1      43.273  27.728  32.871  1.00  0.00     0.022 A 
ATOM     24  Cl  UNL A   1      45.470  28.921  33.879  1.00  0.00    -0.084 Cl
ENDBRANCH   8  10
ENDBRANCH   5   8
ENDBRANCH   3   4
ENDBRANCH   2   3
ENDBRANCH   1   2
BRANCH   1  25
ATOM     25  C   UNL A   1      35.431  33.158  27.981  1.00  0.00     0.116 C 
BRANCH  25  26
ATOM     26  N   UNL A   1      34.396  32.136  27.947  1.00  0.00    -0.352 N 
ATOM     27  C   UNL A   1      34.527  30.766  27.985  1.00  0.00     0.251 C 
ATOM     28  H   UNL A   1      33.471  32.471  27.889  1.00  0.00     0.163 HD
ATOM     29  O   UNL A   1      33.556  30.048  27.799  1.00  0.00    -0.269 OA
BRANCH  27  30
ATOM     30  C   UNL A   1      35.862  30.172  28.225  1.00  0.00     0.039 A 
ATOM     31  C   UNL A   1      36.777  30.112  27.171  1.00  0.00     0.014 A 
ATOM     32  C   UNL A   1      36.216  29.714  29.496  1.00  0.00     0.014 A 
ATOM     33  C   UNL A   1      38.080  29.668  27.414  1.00  0.00     0.010 A 
ATOM     34  C   UNL A   1      37.532  29.341  29.751  1.00  0.00     0.010 A 
ATOM     35  C   UNL A   1      38.479  29.322  28.714  1.00  0.00    -0.014 A 
BRANCH  35  36
ATOM     36  C   UNL A   1      39.883  28.953  29.032  1.00  0.00     0.031 A 
ATOM     37  C   UNL A   1      40.838  29.998  29.537  1.00  0.00     0.074 A 
ATOM     38  C   UNL A   1      40.327  27.711  28.754  1.00  0.00     0.049 A 
ATOM     39  N   UNL A   1      42.130  29.918  29.721  1.00  0.00    -0.248 NA
ATOM     40  C   UNL A   1      40.266  31.321  29.839  1.00  0.00     0.031 C 
ATOM     41  C   UNL A   1      39.511  26.624  28.210  1.00  0.00     0.029 A 
ATOM     42  N   UNL A   1      41.581  27.162  28.860  1.00  0.00    -0.354 N 
ATOM     43  C   UNL A   1      42.532  31.184  30.128  1.00  0.00     0.074 A 
ATOM     44  C   UNL A   1      41.352  32.023  30.127  1.00  0.00     0.031 C 
ATOM     45  C   UNL A   1      40.286  25.542  28.026  1.00  0.00     0.029 A 
ATOM     46  C   UNL A   1      41.659  25.869  28.400  1.00  0.00     0.049 A 
ATOM     47  H   UNL A   1      42.352  27.649  29.232  1.00  0.00     0.167 HD
ATOM     48  C   UNL A   1      43.769  31.606  30.485  1.00  0.00     0.037 A 
ATOM     49  C   UNL A   1      42.718  25.046  28.268  1.00  0.00     0.037 A 
ATOM     50  C   UNL A   1      44.930  30.756  30.516  1.00  0.00     0.049 A 
ATOM     51  C   UNL A   1      44.079  25.523  28.694  1.00  0.00     0.074 A 
ATOM     52  C   UNL A   1      46.210  31.064  30.943  1.00  0.00     0.029 A 
ATOM     53  N   UNL A   1      44.955  29.433  30.099  1.00  0.00    -0.354 N 
ATOM     54  N   UNL A   1      44.430  26.702  29.152  1.00  0.00    -0.248 NA
ATOM     55  C   UNL A   1      45.187  24.563  28.592  1.00  0.00     0.031 C 
ATOM     56  C   UNL A   1      47.018  29.940  30.746  1.00  0.00     0.029 A 
ATOM     57  C   UNL A   1      46.233  28.917  30.238  1.00  0.00     0.049 A 
ATOM     58  H   UNL A   1      44.180  28.934  29.755  1.00  0.00     0.167 HD
ATOM     59  C   UNL A   1      45.792  26.618  29.414  1.00  0.00     0.074 A 
ATOM     60  C   UNL A   1      46.202  25.272  29.068  1.00  0.00     0.031 C 
ATOM     61  C   UNL A   1      46.625  27.571  29.900  1.00  0.00     0.037 A 
BRANCH  48  62
ATOM     62  C   UNL A   1      43.927  33.053  30.860  1.00  0.00     0.058 A 
ATOM     63  C   UNL A   1      43.822  33.488  32.191  1.00  0.00     0.135 A 
ATOM     64  C   UNL A   1      44.191  34.019  29.875  1.00  0.00     0.135 A 
ATOM     65  F   UNL A   1      43.558  32.609  33.171  1.00  0.00    -0.206 F 
ATOM     66  C   UNL A   1      43.926  34.834  32.526  1.00  0.00     0.059 A 
ATOM     67  C   UNL A   1      44.329  35.368  30.192  1.00  0.00     0.059 A 
ATOM     68  F   UNL A   1      44.306  33.658  28.587  1.00  0.00    -0.206 F 
ATOM     69  C   UNL A   1      44.172  35.767  31.518  1.00  0.00     0.060 A 
BRANCH  69  70
ATOM     70  S   UNL A   1      44.275  37.513  31.963  1.00  0.00     0.124 S 
ATOM     71  O   UNL A   1      45.699  37.654  32.252  1.00  0.00    -0.237 OA
ATOM     72  O   UNL A   1      43.808  38.175  30.748  1.00  0.00    -0.237 OA
ATOM     73  O   UNL A   1      43.386  37.624  33.114  1.00  0.00    -0.744 OA
ENDBRANCH  69  70
ENDBRANCH  48  62
BRANCH  49  74
ATOM     74  C   UNL A   1      42.518  23.681  27.714  1.00  0.00     0.058 A 
ATOM     75  C   UNL A   1      42.578  23.447  26.332  1.00  0.00     0.135 A 
ATOM     76  C   UNL A   1      42.318  22.577  28.557  1.00  0.00     0.135 A 
ATOM     77  F   UNL A   1      42.760  24.472  25.487  1.00  0.00    -0.206 F 
ATOM     78  C   UNL A   1      42.447  22.167  25.805  1.00  0.00     0.059 A 
ATOM     79  C   UNL A   1      42.205  21.284  28.054  1.00  0.00     0.059 A 
ATOM     80  F   UNL A   1      42.270  22.747  29.887  1.00  0.00    -0.206 F 
ATOM     81  C   UNL A   1      42.269  21.089  26.675  1.00  0.00     0.060 A 
BRANCH  81  82
ATOM     82  S   UNL A   1      42.185  19.423  25.985  1.00  0.00     0.124 S 
ATOM     83  O   UNL A   1      42.716  18.623  27.082  1.00  0.00    -0.237 OA
ATOM     84  O   UNL A   1      40.758  19.274  25.717  1.00  0.00    -0.237 OA
ATOM     85  O   UNL A   1      43.031  19.510  24.797  1.00  0.00    -0.744 OA
ENDBRANCH  81  82
ENDBRANCH  49  74
BRANCH  61  86
ATOM     86  C   UNL A   1      48.063  27.196  30.122  1.00  0.00     0.058 A 
ATOM     87  C   UNL A   1      49.035  27.388  29.129  1.00  0.00     0.135 A 
ATOM     88  C   UNL A   1      48.487  26.731  31.378  1.00  0.00     0.135 A 
ATOM     89  F   UNL A   1      48.681  27.822  27.910  1.00  0.00    -0.206 F 
ATOM     90  C   UNL A   1      50.381  27.131  29.373  1.00  0.00     0.059 A 
ATOM     91  C   UNL A   1      49.830  26.489  31.651  1.00  0.00     0.059 A 
ATOM     92  F   UNL A   1      47.596  26.538  32.363  1.00  0.00    -0.206 F 
ATOM     93  C   UNL A   1      50.769  26.690  30.641  1.00  0.00     0.060 A 
BRANCH  93  94
ATOM     94  S   UNL A   1      52.526  26.432  30.968  1.00  0.00     0.124 S 
ATOM     95  O   UNL A   1      53.058  26.274  29.619  1.00  0.00    -0.237 OA
ATOM     96  O   UNL A   1      52.900  27.665  31.656  1.00  0.00    -0.237 OA
ATOM     97  O   UNL A   1      52.545  25.230  31.796  1.00  0.00    -0.744 OA
ENDBRANCH  93  94
ENDBRANCH  61  86
ENDBRANCH  35  36
ENDBRANCH  27  30
ENDBRANCH  25  26
ENDBRANCH   1  25
TORSDOF 15
ENDMDL
MODEL 2
REMARK VINA RESULT:      -9.6      5.810     12.603
REMARK SMILES C[C@H](C(=O)NCCCCNC(=O)c1ccc(-c2c3nc(c(-c4c(F)cc(S(=O)(=O)[O-])cc4F)c4ccc([nH]4)c(-c4c(F)cc(S(=O)(=O)[O-])cc4F)c4nc(c(-c5c(F)cc(S(=O)(=O)[O-])cc5F)c5ccc2[nH]5)C=C4)C=C3)cc1)c1ccc2c(c1)[nH]c1ccc(Cl)cc12
REMARK SMILES IDX 8 1 7 2 6 3 5 4 3 5 4 6 2 8 1 9 79 10 80 11 84 12 81 13
REMARK SMILES IDX 83 14 82 15 85 16 92 17 86 18 91 20 87 21 89 22 88 23 90 24
REMARK SMILES IDX 9 25 10 26 11 27 12 29 13 30 14 31 78 32 15 33 77 34 16 35
REMARK SMILES IDX 17 36 18 37 71 38 19 39 76 40 70 41 72 42 20 43 75 44 69 45
REMARK SMILES IDX 68 46 21 48 55 49 34 50 54 51 35 52 38 53 53 54 73 55 36 56
REMARK SMILES IDX 37 57 52 59 74 60 39 61 22 62 23 63 32 64 24 65 25 66 31 67
REMARK SMILES IDX 33 68 26 69 27 70 28 71 29 72 30 73 56 74 57 75 66 76 58 77
REMARK SMILES IDX 59 78 65 79 67 80 60 81 61 82 62 83 63 84 64 85 40 86 41 87
REMARK SMILES IDX 50 88 42 89 43 90 49 91 51 92 44 93 45 94 46 95 47 96 48 97
REMARK H PARENT 5 7 85 19 10 28 72 47 38 58
REMARK Flexibility Score: inf
ROOT
ATOM      1  C   UNL A   1      37.512  23.346  25.534  1.00  0.00     0.023 C 
ENDROOT
BRANCH   1   2
ATOM      2  C   UNL A   1      37.853  21.864  25.376  1.00  0.00     0.023 C 
BRANCH   2   3
ATOM      3  C   UNL A   1      36.670  20.976  24.998  1.00  0.00     0.116 C 
BRANCH   3   4
ATOM      4  N   UNL A   1      35.588  21.079  25.959  1.00  0.00    -0.356 N 
ATOM      5  C   UNL A   1      34.241  21.157  25.759  1.00  0.00     0.227 C 
ATOM      6  O   UNL A   1      33.516  21.177  26.758  1.00  0.00    -0.274 OA
ATOM      7  H   UNL A   1      35.870  21.096  26.902  1.00  0.00     0.163 HD
BRANCH   5   8
ATOM      8  C   UNL A   1      33.636  21.193  24.352  1.00  0.00     0.105 C 
ATOM      9  C   UNL A   1      32.752  19.960  24.128  1.00  0.00     0.023 C 
BRANCH   8  10
ATOM     10  C   UNL A   1      33.006  22.532  23.956  1.00  0.00    -0.034 A 
ATOM     11  C   UNL A   1      33.751  23.492  23.254  1.00  0.00     0.005 A 
ATOM     12  C   UNL A   1      31.692  22.853  24.350  1.00  0.00     0.031 A 
ATOM     13  C   UNL A   1      33.204  24.737  22.899  1.00  0.00     0.011 A 
ATOM     14  C   UNL A   1      31.160  24.093  23.980  1.00  0.00     0.047 A 
ATOM     15  C   UNL A   1      31.880  25.044  23.265  1.00  0.00     0.007 A 
ATOM     16  N   UNL A   1      29.915  24.621  24.225  1.00  0.00    -0.355 N 
ATOM     17  C   UNL A   1      31.030  26.184  23.097  1.00  0.00     0.009 A 
ATOM     18  C   UNL A   1      29.818  25.897  23.726  1.00  0.00     0.047 A 
ATOM     19  H   UNL A   1      29.191  24.148  24.695  1.00  0.00     0.167 HD
ATOM     20  C   UNL A   1      31.188  27.443  22.482  1.00  0.00     0.031 A 
ATOM     21  C   UNL A   1      28.757  26.808  23.792  1.00  0.00     0.028 A 
ATOM     22  C   UNL A   1      30.136  28.363  22.542  1.00  0.00     0.041 A 
ATOM     23  C   UNL A   1      28.942  28.056  23.191  1.00  0.00     0.022 A 
ATOM     24  Cl  UNL A   1      30.324  29.911  21.808  1.00  0.00    -0.084 Cl
ENDBRANCH   8  10
ENDBRANCH   5   8
ENDBRANCH   3   4
ENDBRANCH   2   3
ENDBRANCH   1   2
BRANCH   1  25
ATOM     25  C   UNL A   1      38.409  24.121  26.493  1.00  0.00     0.116 C 
BRANCH  25  26
ATOM     26  N   UNL A   1      39.810  23.744  26.382  1.00  0.00    -0.352 N 
ATOM     27  C   UNL A   1      40.925  24.393  26.865  1.00  0.00     0.251 C 
ATOM     28  H   UNL A   1      39.987  22.907  25.894  1.00  0.00     0.163 HD
ATOM     29  O   UNL A   1      42.044  24.011  26.553  1.00  0.00    -0.269 OA
BRANCH  27  30
ATOM     30  C   UNL A   1      40.753  25.574  27.739  1.00  0.00     0.039 A 
ATOM     31  C   UNL A   1      39.666  25.618  28.615  1.00  0.00     0.014 A 
ATOM     32  C   UNL A   1      41.686  26.614  27.718  1.00  0.00     0.014 A 
ATOM     33  C   UNL A   1      39.559  26.667  29.532  1.00  0.00     0.010 A 
ATOM     34  C   UNL A   1      41.618  27.618  28.678  1.00  0.00     0.010 A 
ATOM     35  C   UNL A   1      40.559  27.651  29.600  1.00  0.00    -0.014 A 
BRANCH  35  36
ATOM     36  C   UNL A   1      40.539  28.719  30.633  1.00  0.00     0.031 A 
ATOM     37  C   UNL A   1      41.418  28.605  31.847  1.00  0.00     0.074 A 
ATOM     38  C   UNL A   1      39.649  29.727  30.536  1.00  0.00     0.049 A 
ATOM     39  N   UNL A   1      41.435  29.340  32.928  1.00  0.00    -0.248 NA
ATOM     40  C   UNL A   1      42.379  27.490  31.861  1.00  0.00     0.031 C 
ATOM     41  C   UNL A   1      38.704  29.917  29.434  1.00  0.00     0.029 A 
ATOM     42  N   UNL A   1      39.369  30.761  31.395  1.00  0.00    -0.354 N 
ATOM     43  C   UNL A   1      42.382  28.762  33.763  1.00  0.00     0.074 A 
ATOM     44  C   UNL A   1      42.891  27.591  33.079  1.00  0.00     0.031 C 
ATOM     45  C   UNL A   1      37.947  30.999  29.686  1.00  0.00     0.029 A 
ATOM     46  C   UNL A   1      38.324  31.554  30.982  1.00  0.00     0.049 A 
ATOM     47  H   UNL A   1      39.870  30.921  32.227  1.00  0.00     0.167 HD
ATOM     48  C   UNL A   1      42.801  29.176  34.983  1.00  0.00     0.037 A 
ATOM     49  C   UNL A   1      37.719  32.595  31.588  1.00  0.00     0.037 A 
ATOM     50  C   UNL A   1      42.315  30.359  35.641  1.00  0.00     0.049 A 
ATOM     51  C   UNL A   1      38.215  33.055  32.930  1.00  0.00     0.074 A 
ATOM     52  C   UNL A   1      42.736  30.912  36.838  1.00  0.00     0.029 A 
ATOM     53  N   UNL A   1      41.297  31.171  35.162  1.00  0.00    -0.354 N 
ATOM     54  N   UNL A   1      39.167  32.543  33.674  1.00  0.00    -0.248 NA
ATOM     55  C   UNL A   1      37.564  34.236  33.515  1.00  0.00     0.031 C 
ATOM     56  C   UNL A   1      41.944  32.034  37.103  1.00  0.00     0.029 A 
ATOM     57  C   UNL A   1      41.061  32.208  36.049  1.00  0.00     0.049 A 
ATOM     58  H   UNL A   1      40.814  31.031  34.316  1.00  0.00     0.167 HD
ATOM     59  C   UNL A   1      39.244  33.351  34.802  1.00  0.00     0.074 A 
ATOM     60  C   UNL A   1      38.246  34.389  34.643  1.00  0.00     0.031 C 
ATOM     61  C   UNL A   1      40.070  33.241  35.872  1.00  0.00     0.037 A 
BRANCH  48  62
ATOM     62  C   UNL A   1      43.830  28.333  35.686  1.00  0.00     0.058 A 
ATOM     63  C   UNL A   1      45.206  28.569  35.536  1.00  0.00     0.135 A 
ATOM     64  C   UNL A   1      43.434  27.279  36.524  1.00  0.00     0.135 A 
ATOM     65  F   UNL A   1      45.640  29.556  34.736  1.00  0.00    -0.206 F 
ATOM     66  C   UNL A   1      46.153  27.759  36.154  1.00  0.00     0.059 A 
ATOM     67  C   UNL A   1      44.365  26.475  37.177  1.00  0.00     0.059 A 
ATOM     68  F   UNL A   1      42.131  27.012  36.707  1.00  0.00    -0.206 F 
ATOM     69  C   UNL A   1      45.723  26.710  36.966  1.00  0.00     0.060 A 
BRANCH  69  70
ATOM     70  S   UNL A   1      46.962  25.649  37.738  1.00  0.00     0.124 S 
ATOM     71  O   UNL A   1      47.361  24.806  36.615  1.00  0.00    -0.237 OA
ATOM     72  O   UNL A   1      47.962  26.611  38.191  1.00  0.00    -0.237 OA
ATOM     73  O   UNL A   1      46.220  24.974  38.798  1.00  0.00    -0.744 OA
ENDBRANCH  69  70
ENDBRANCH  48  62
BRANCH  49  74
ATOM     74  C   UNL A   1      36.579  33.271  30.913  1.00  0.00     0.058 A 
ATOM     75  C   UNL A   1      35.257  33.038  31.322  1.00  0.00     0.135 A 
ATOM     76  C   UNL A   1      36.792  34.201  29.885  1.00  0.00     0.135 A 
ATOM     77  F   UNL A   1      35.004  32.152  32.297  1.00  0.00    -0.206 F 
ATOM     78  C   UNL A   1      34.187  33.705  30.736  1.00  0.00     0.059 A 
ATOM     79  C   UNL A   1      35.739  34.896  29.298  1.00  0.00     0.059 A 
ATOM     80  F   UNL A   1      38.040  34.470  29.470  1.00  0.00    -0.206 F 
ATOM     81  C   UNL A   1      34.439  34.639  29.729  1.00  0.00     0.060 A 
BRANCH  81  82
ATOM     82  S   UNL A   1      33.049  35.560  29.035  1.00  0.00     0.124 S 
ATOM     83  O   UNL A   1      32.474  34.581  28.121  1.00  0.00    -0.237 OA
ATOM     84  O   UNL A   1      32.260  35.867  30.224  1.00  0.00    -0.237 OA
ATOM     85  O   UNL A   1      33.692  36.712  28.406  1.00  0.00    -0.744 OA
ENDBRANCH  81  82
ENDBRANCH  49  74
BRANCH  61  86
ATOM     86  C   UNL A   1      39.962  34.284  36.949  1.00  0.00     0.058 A 
ATOM     87  C   UNL A   1      40.697  35.477  36.894  1.00  0.00     0.135 A 
ATOM     88  C   UNL A   1      39.039  34.126  37.996  1.00  0.00     0.135 A 
ATOM     89  F   UNL A   1      41.598  35.672  35.919  1.00  0.00    -0.206 F 
ATOM     90  C   UNL A   1      40.521  36.480  37.842  1.00  0.00     0.059 A 
ATOM     91  C   UNL A   1      38.831  35.125  38.942  1.00  0.00     0.059 A 
ATOM     92  F   UNL A   1      38.307  33.004  38.088  1.00  0.00    -0.206 F 
ATOM     93  C   UNL A   1      39.579  36.299  38.858  1.00  0.00     0.060 A 
BRANCH  93  94
ATOM     94  S   UNL A   1      39.305  37.639  40.037  1.00  0.00     0.124 S 
ATOM     95  O   UNL A   1      40.584  38.340  39.986  1.00  0.00    -0.237 OA
ATOM     96  O   UNL A   1      38.171  38.345  39.449  1.00  0.00    -0.237 OA
ATOM     97  O   UNL A   1      39.021  36.939  41.286  1.00  0.00    -0.744 OA
ENDBRANCH  93  94
ENDBRANCH  61  86
ENDBRANCH  35  36
ENDBRANCH  27  30
ENDBRANCH  25  26
ENDBRANCH   1  25
TORSDOF 15
ENDMDL
MODEL 3
REMARK VINA RESULT:      -9.5      5.199     11.996
REMARK SMILES C[C@H](C(=O)NCCCCNC(=O)c1ccc(-c2c3nc(c(-c4c(F)cc(S(=O)(=O)[O-])cc4F)c4ccc([nH]4)c(-c4c(F)cc(S(=O)(=O)[O-])cc4F)c4nc(c(-c5c(F)cc(S(=O)(=O)[O-])cc5F)c5ccc2[nH]5)C=C4)C=C3)cc1)c1ccc2c(c1)[nH]c1ccc(Cl)cc12
REMARK SMILES IDX 8 1 7 2 6 3 5 4 3 5 4 6 2 8 1 9 79 10 80 11 84 12 81 13
REMARK SMILES IDX 83 14 82 15 85 16 92 17 86 18 91 20 87 21 89 22 88 23 90 24
REMARK SMILES IDX 9 25 10 26 11 27 12 29 13 30 14 31 78 32 15 33 77 34 16 35
REMARK SMILES IDX 17 36 18 37 71 38 19 39 76 40 70 41 72 42 20 43 75 44 69 45
REMARK SMILES IDX 68 46 21 48 55 49 34 50 54 51 35 52 38 53 53 54 73 55 36 56
REMARK SMILES IDX 37 57 52 59 74 60 39 61 22 62 23 63 32 64 24 65 25 66 31 67
REMARK SMILES IDX 33 68 26 69 27 70 28 71 29 72 30 73 56 74 57 75 66 76 58 77
REMARK SMILES IDX 59 78 65 79 67 80 60 81 61 82 62 83 63 84 64 85 40 86 41 87
REMARK SMILES IDX 50 88 42 89 43 90 49 91 51 92 44 93 45 94 46 95 47 96 48 97
REMARK H PARENT 5 7 85 19 10 28 72 47 38 58
REMARK Flexibility Score: inf
ROOT
ATOM      1  C   UNL A   1      37.644  23.289  25.472  1.00  0.00     0.023 C 
ENDROOT
BRANCH   1   2
ATOM      2  C   UNL A   1      37.487  21.785  25.703  1.00  0.00     0.023 C 
BRANCH   2   3
ATOM      3  C   UNL A   1      36.560  21.083  24.713  1.00  0.00     0.116 C 
BRANCH   3   4
ATOM      4  N   UNL A   1      35.408  20.498  25.374  1.00  0.00    -0.356 N 
ATOM      5  C   UNL A   1      34.077  20.701  25.160  1.00  0.00     0.227 C 
ATOM      6  O   UNL A   1      33.283  20.027  25.823  1.00  0.00    -0.274 OA
ATOM      7  H   UNL A   1      35.622  19.855  26.088  1.00  0.00     0.163 HD
BRANCH   5   8
ATOM      8  C   UNL A   1      33.572  21.707  24.120  1.00  0.00     0.105 C 
ATOM      9  C   UNL A   1      32.286  21.187  23.467  1.00  0.00     0.023 C 
BRANCH   8  10
ATOM     10  C   UNL A   1      33.522  23.160  24.601  1.00  0.00    -0.034 A 
ATOM     11  C   UNL A   1      34.599  24.029  24.364  1.00  0.00     0.005 A 
ATOM     12  C   UNL A   1      32.427  23.632  25.352  1.00  0.00     0.031 A 
ATOM     13  C   UNL A   1      34.587  25.360  24.815  1.00  0.00     0.011 A 
ATOM     14  C   UNL A   1      32.428  24.962  25.785  1.00  0.00     0.047 A 
ATOM     15  C   UNL A   1      33.478  25.840  25.536  1.00  0.00     0.007 A 
ATOM     16  N   UNL A   1      31.481  25.651  26.504  1.00  0.00    -0.355 N 
ATOM     17  C   UNL A   1      33.143  27.090  26.148  1.00  0.00     0.009 A 
ATOM     18  C   UNL A   1      31.900  26.934  26.763  1.00  0.00     0.047 A 
ATOM     19  H   UNL A   1      30.619  25.276  26.794  1.00  0.00     0.167 HD
ATOM     20  C   UNL A   1      33.792  28.337  26.252  1.00  0.00     0.031 A 
ATOM     21  C   UNL A   1      31.275  27.951  27.493  1.00  0.00     0.028 A 
ATOM     22  C   UNL A   1      33.180  29.362  26.981  1.00  0.00     0.041 A 
ATOM     23  C   UNL A   1      31.945  29.173  27.597  1.00  0.00     0.022 A 
ATOM     24  Cl  UNL A   1      33.973  30.885  27.127  1.00  0.00    -0.084 Cl
ENDBRANCH   8  10
ENDBRANCH   5   8
ENDBRANCH   3   4
ENDBRANCH   2   3
ENDBRANCH   1   2
BRANCH   1  25
ATOM     25  C   UNL A   1      38.537  24.010  26.476  1.00  0.00     0.116 C 
BRANCH  25  26
ATOM     26  N   UNL A   1      39.953  23.751  26.260  1.00  0.00    -0.352 N 
ATOM     27  C   UNL A   1      41.042  24.488  26.668  1.00  0.00     0.251 C 
ATOM     28  H   UNL A   1      40.161  22.934  25.752  1.00  0.00     0.163 HD
ATOM     29  O   UNL A   1      42.163  24.202  26.272  1.00  0.00    -0.269 OA
BRANCH  27  30
ATOM     30  C   UNL A   1      40.838  25.648  27.564  1.00  0.00     0.039 A 
ATOM     31  C   UNL A   1      39.827  25.592  28.527  1.00  0.00     0.014 A 
ATOM     32  C   UNL A   1      41.669  26.767  27.477  1.00  0.00     0.014 A 
ATOM     33  C   UNL A   1      39.703  26.626  29.459  1.00  0.00     0.010 A 
ATOM     34  C   UNL A   1      41.591  27.760  28.448  1.00  0.00     0.010 A 
ATOM     35  C   UNL A   1      40.612  27.695  29.454  1.00  0.00    -0.014 A 
BRANCH  35  36
ATOM     36  C   UNL A   1      40.583  28.755  30.495  1.00  0.00     0.031 A 
ATOM     37  C   UNL A   1      41.463  28.641  31.707  1.00  0.00     0.074 A 
ATOM     38  C   UNL A   1      39.681  29.754  30.407  1.00  0.00     0.049 A 
ATOM     39  N   UNL A   1      41.474  29.368  32.793  1.00  0.00    -0.248 NA
ATOM     40  C   UNL A   1      42.437  27.537  31.711  1.00  0.00     0.031 C 
ATOM     41  C   UNL A   1      38.733  29.942  29.308  1.00  0.00     0.029 A 
ATOM     42  N   UNL A   1      39.391  30.779  31.274  1.00  0.00    -0.354 N 
ATOM     43  C   UNL A   1      42.429  28.794  33.623  1.00  0.00     0.074 A 
ATOM     44  C   UNL A   1      42.949  27.634  32.930  1.00  0.00     0.031 C 
ATOM     45  C   UNL A   1      37.965  31.013  29.568  1.00  0.00     0.029 A 
ATOM     46  C   UNL A   1      38.337  31.563  30.868  1.00  0.00     0.049 A 
ATOM     47  H   UNL A   1      39.892  30.937  32.107  1.00  0.00     0.167 HD
ATOM     48  C   UNL A   1      42.844  29.203  34.846  1.00  0.00     0.037 A 
ATOM     49  C   UNL A   1      37.721  32.593  31.482  1.00  0.00     0.037 A 
ATOM     50  C   UNL A   1      42.346  30.377  35.513  1.00  0.00     0.049 A 
ATOM     51  C   UNL A   1      38.214  33.049  32.827  1.00  0.00     0.074 A 
ATOM     52  C   UNL A   1      42.762  30.925  36.714  1.00  0.00     0.029 A 
ATOM     53  N   UNL A   1      41.319  31.181  35.041  1.00  0.00    -0.354 N 
ATOM     54  N   UNL A   1      39.172  32.541  33.566  1.00  0.00    -0.248 NA
ATOM     55  C   UNL A   1      37.551  34.218  33.422  1.00  0.00     0.031 C 
ATOM     56  C   UNL A   1      41.959  32.036  36.988  1.00  0.00     0.029 A 
ATOM     57  C   UNL A   1      41.073  32.209  35.937  1.00  0.00     0.049 A 
ATOM     58  H   UNL A   1      40.837  31.042  34.195  1.00  0.00     0.167 HD
ATOM     59  C   UNL A   1      39.242  33.341  34.700  1.00  0.00     0.074 A 
ATOM     60  C   UNL A   1      38.233  34.370  34.550  1.00  0.00     0.031 C 
ATOM     61  C   UNL A   1      40.071  33.233  35.769  1.00  0.00     0.037 A 
BRANCH  48  62
ATOM     62  C   UNL A   1      43.883  28.367  35.541  1.00  0.00     0.058 A 
ATOM     63  C   UNL A   1      43.532  27.355  36.448  1.00  0.00     0.135 A 
ATOM     64  C   UNL A   1      45.249  28.579  35.294  1.00  0.00     0.135 A 
ATOM     65  F   UNL A   1      42.241  27.118  36.731  1.00  0.00    -0.206 F 
ATOM     66  C   UNL A   1      44.498  26.613  37.120  1.00  0.00     0.059 A 
ATOM     67  C   UNL A   1      46.233  27.829  35.933  1.00  0.00     0.059 A 
ATOM     68  F   UNL A   1      45.641  29.531  34.433  1.00  0.00    -0.206 F 
ATOM     69  C   UNL A   1      45.847  26.864  36.862  1.00  0.00     0.060 A 
BRANCH  69  70
ATOM     70  S   UNL A   1      47.090  25.916  37.763  1.00  0.00     0.124 S 
ATOM     71  O   UNL A   1      48.294  26.210  36.990  1.00  0.00    -0.237 OA
ATOM     72  O   UNL A   1      47.035  26.510  39.095  1.00  0.00    -0.237 OA
ATOM     73  O   UNL A   1      46.604  24.544  37.671  1.00  0.00    -0.744 OA
ENDBRANCH  69  70
ENDBRANCH  48  62
BRANCH  49  74
ATOM     74  C   UNL A   1      36.573  33.261  30.814  1.00  0.00     0.058 A 
ATOM     75  C   UNL A   1      35.270  33.127  31.313  1.00  0.00     0.135 A 
ATOM     76  C   UNL A   1      36.765  34.089  29.698  1.00  0.00     0.135 A 
ATOM     77  F   UNL A   1      35.036  32.340  32.375  1.00  0.00    -0.206 F 
ATOM     78  C   UNL A   1      34.195  33.791  30.730  1.00  0.00     0.059 A 
ATOM     79  C   UNL A   1      35.710  34.780  29.110  1.00  0.00     0.059 A 
ATOM     80  F   UNL A   1      37.997  34.263  29.193  1.00  0.00    -0.206 F 
ATOM     81  C   UNL A   1      34.427  34.623  29.633  1.00  0.00     0.060 A 
BRANCH  81  82
ATOM     82  S   UNL A   1      33.039  35.545  28.937  1.00  0.00     0.124 S 
ATOM     83  O   UNL A   1      33.727  36.585  28.181  1.00  0.00    -0.237 OA
ATOM     84  O   UNL A   1      32.358  34.525  28.147  1.00  0.00    -0.237 OA
ATOM     85  O   UNL A   1      32.312  35.998  30.120  1.00  0.00    -0.744 OA
ENDBRANCH  81  82
ENDBRANCH  49  74
BRANCH  61  86
ATOM     86  C   UNL A   1      39.953  34.265  36.854  1.00  0.00     0.058 A 
ATOM     87  C   UNL A   1      39.149  34.057  37.983  1.00  0.00     0.135 A 
ATOM     88  C   UNL A   1      40.732  35.434  36.805  1.00  0.00     0.135 A 
ATOM     89  F   UNL A   1      38.379  32.962  38.074  1.00  0.00    -0.206 F 
ATOM     90  C   UNL A   1      39.119  34.974  39.030  1.00  0.00     0.059 A 
ATOM     91  C   UNL A   1      40.735  36.352  37.850  1.00  0.00     0.059 A 
ATOM     92  F   UNL A   1      41.523  35.675  35.748  1.00  0.00    -0.206 F 
ATOM     93  C   UNL A   1      39.923  36.114  38.958  1.00  0.00     0.060 A 
BRANCH  93  94
ATOM     94  S   UNL A   1      39.934  37.257  40.357  1.00  0.00     0.124 S 
ATOM     95  O   UNL A   1      38.560  37.147  40.837  1.00  0.00    -0.237 OA
ATOM     96  O   UNL A   1      40.957  36.680  41.224  1.00  0.00    -0.237 OA
ATOM     97  O   UNL A   1      40.287  38.536  39.747  1.00  0.00    -0.744 OA
ENDBRANCH  93  94
ENDBRANCH  61  86
ENDBRANCH  35  36
ENDBRANCH  27  30
ENDBRANCH  25  26
ENDBRANCH   1  25
TORSDOF 15
ENDMDL
