MODEL 1
REMARK VINA RESULT:     -11.1      0.000      0.000
REMARK SMILES C[C@H](CC(=O)NCCCCNC(=O)c1ccc(-c2c3nc(c(-c4c(F)cc(S(=O)(=O)[O-])cc4F)c4ccc([nH]4)c(-c4c(F)cc(S(=O)(=O)[O-])cc4F)c4nc(c(-c5c(F)cc(S(=O)(=O)[O-])cc5F)c5ccc2[nH]5)C=C4)C=C3)cc1)NC(=O)CS[C@H]1CCS(=O)(=O)C1
REMARK SMILES IDX 7 1 6 2 4 3 5 4 3 6 2 7 1 8 80 9 81 10 82 12 83 13 84 14
REMARK SMILES IDX 85 15 86 16 91 17 87 18 88 19 89 20 90 21 8 22 9 23 10 24
REMARK SMILES IDX 11 25 12 26 13 28 14 29 15 30 79 31 16 32 78 33 17 34 18 35
REMARK SMILES IDX 19 36 72 37 20 38 77 39 71 40 73 41 21 42 76 43 70 44 69 45
REMARK SMILES IDX 22 47 56 48 35 49 55 50 36 51 39 52 54 53 74 54 37 55 38 56
REMARK SMILES IDX 53 58 75 59 40 60 23 61 24 62 33 63 25 64 26 65 32 66 34 67
REMARK SMILES IDX 27 68 28 69 29 70 30 71 31 72 57 73 58 74 67 75 59 76 60 77
REMARK SMILES IDX 66 78 68 79 61 80 62 81 63 82 64 83 65 84 41 85 42 86 51 87
REMARK SMILES IDX 43 88 44 89 50 90 52 91 45 92 46 93 47 94 48 95 49 96
REMARK H PARENT 6 5 80 11 11 27 73 46 39 57
REMARK Flexibility Score: inf
ROOT
ATOM      1  C   UNL A   1      32.572  29.774  25.890  1.00  0.00     0.116 C 
ENDROOT
BRANCH   1   2
ATOM      2  N   UNL A   1      33.520  29.751  24.807  1.00  0.00    -0.356 N 
ATOM      3  C   UNL A   1      33.301  29.094  23.635  1.00  0.00     0.222 C 
ATOM      4  O   UNL A   1      34.232  28.558  23.038  1.00  0.00    -0.275 OA
ATOM      5  H   UNL A   1      34.370  30.235  24.918  1.00  0.00     0.163 HD
BRANCH   3   6
ATOM      6  C   UNL A   1      31.887  29.071  23.105  1.00  0.00     0.124 C 
BRANCH   6   7
ATOM      7  C   UNL A   1      31.403  27.641  22.908  1.00  0.00     0.088 C 
ATOM      8  C   UNL A   1      29.879  27.534  22.906  1.00  0.00     0.031 C 
BRANCH   7   9
ATOM      9  N   UNL A   1      31.948  27.116  21.663  1.00  0.00    -0.352 N 
ATOM     10  C   UNL A   1      32.623  25.950  21.458  1.00  0.00     0.230 C 
ATOM     11  H   UNL A   1      31.810  27.678  20.866  1.00  0.00     0.163 HD
ATOM     12  O   UNL A   1      33.024  25.708  20.317  1.00  0.00    -0.274 OA
BRANCH  10  13
ATOM     13  C   UNL A   1      32.851  24.986  22.613  1.00  0.00     0.169 C 
BRANCH  13  14
ATOM     14  S   UNL A   1      33.179  23.274  22.058  1.00  0.00    -0.148 SA
BRANCH  14  15
ATOM     15  C   UNL A   1      33.092  22.325  23.622  1.00  0.00     0.063 C 
ATOM     16  C   UNL A   1      32.411  20.967  23.390  1.00  0.00     0.031 C 
ATOM     17  C   UNL A   1      34.480  21.977  24.150  1.00  0.00     0.151 C 
ATOM     18  C   UNL A   1      32.587  20.181  24.690  1.00  0.00     0.138 C 
ATOM     19  S   UNL A   1      34.225  20.606  25.268  1.00  0.00     0.151 S 
ATOM     20  O   UNL A   1      34.152  21.102  26.628  1.00  0.00    -0.229 OA
ATOM     21  O   UNL A   1      35.140  19.546  24.905  1.00  0.00    -0.229 OA
ENDBRANCH  14  15
ENDBRANCH  13  14
ENDBRANCH  10  13
ENDBRANCH   7   9
ENDBRANCH   6   7
ENDBRANCH   3   6
ENDBRANCH   1   2
BRANCH   1  22
ATOM     22  C   UNL A   1      33.348  29.905  27.203  1.00  0.00     0.023 C 
BRANCH  22  23
ATOM     23  C   UNL A   1      34.535  28.955  27.275  1.00  0.00     0.023 C 
BRANCH  23  24
ATOM     24  C   UNL A   1      35.758  29.599  27.903  1.00  0.00     0.116 C 
BRANCH  24  25
ATOM     25  N   UNL A   1      35.583  29.839  29.336  1.00  0.00    -0.352 N 
ATOM     26  C   UNL A   1      36.528  29.789  30.323  1.00  0.00     0.251 C 
ATOM     27  H   UNL A   1      34.670  30.063  29.626  1.00  0.00     0.163 HD
ATOM     28  O   UNL A   1      36.214  29.842  31.504  1.00  0.00    -0.269 OA
BRANCH  26  29
ATOM     29  C   UNL A   1      37.920  29.647  29.894  1.00  0.00     0.039 A 
ATOM     30  C   UNL A   1      38.834  29.050  30.756  1.00  0.00     0.014 A 
ATOM     31  C   UNL A   1      38.254  29.977  28.576  1.00  0.00     0.014 A 
ATOM     32  C   UNL A   1      40.099  28.752  30.272  1.00  0.00     0.010 A 
ATOM     33  C   UNL A   1      39.463  29.553  28.063  1.00  0.00     0.010 A 
ATOM     34  C   UNL A   1      40.410  28.976  28.917  1.00  0.00    -0.014 A 
BRANCH  34  35
ATOM     35  C   UNL A   1      41.753  28.653  28.398  1.00  0.00     0.031 A 
ATOM     36  C   UNL A   1      42.802  29.728  28.350  1.00  0.00     0.074 A 
ATOM     37  C   UNL A   1      42.008  27.402  27.976  1.00  0.00     0.049 A 
ATOM     38  N   UNL A   1      44.058  29.632  28.002  1.00  0.00    -0.248 NA
ATOM     39  C   UNL A   1      42.385  31.098  28.704  1.00  0.00     0.031 C 
ATOM     40  C   UNL A   1      41.027  26.314  27.905  1.00  0.00     0.029 A 
ATOM     41  N   UNL A   1      43.173  26.825  27.548  1.00  0.00    -0.354 N 
ATOM     42  C   UNL A   1      44.570  30.921  28.095  1.00  0.00     0.074 A 
ATOM     43  C   UNL A   1      43.477  31.795  28.441  1.00  0.00     0.031 C 
ATOM     44  C   UNL A   1      41.647  25.187  27.523  1.00  0.00     0.029 A 
ATOM     45  C   UNL A   1      43.056  25.480  27.291  1.00  0.00     0.049 A 
ATOM     46  H   UNL A   1      44.013  27.325  27.437  1.00  0.00     0.167 HD
ATOM     47  C   UNL A   1      45.851  31.328  27.949  1.00  0.00     0.037 A 
ATOM     48  C   UNL A   1      43.994  24.585  26.927  1.00  0.00     0.037 A 
ATOM     49  C   UNL A   1      46.929  30.434  27.630  1.00  0.00     0.049 A 
ATOM     50  C   UNL A   1      45.416  25.057  26.799  1.00  0.00     0.074 A 
ATOM     51  C   UNL A   1      48.276  30.718  27.504  1.00  0.00     0.029 A 
ATOM     52  N   UNL A   1      46.780  29.074  27.388  1.00  0.00    -0.354 N 
ATOM     53  N   UNL A   1      45.904  26.265  26.968  1.00  0.00    -0.248 NA
ATOM     54  C   UNL A   1      46.418  24.044  26.451  1.00  0.00     0.031 C 
ATOM     55  C   UNL A   1      48.933  29.540  27.134  1.00  0.00     0.029 A 
ATOM     56  C   UNL A   1      48.007  28.509  27.093  1.00  0.00     0.049 A 
ATOM     57  H   UNL A   1      45.926  28.586  27.421  1.00  0.00     0.167 HD
ATOM     58  C   UNL A   1      47.275  26.151  26.774  1.00  0.00     0.074 A 
ATOM     59  C   UNL A   1      47.538  24.752  26.497  1.00  0.00     0.031 C 
ATOM     60  C   UNL A   1      48.234  27.112  26.820  1.00  0.00     0.037 A 
BRANCH  47  61
ATOM     61  C   UNL A   1      46.143  32.792  28.140  1.00  0.00     0.058 A 
ATOM     62  C   UNL A   1      46.535  33.313  29.386  1.00  0.00     0.135 A 
ATOM     63  C   UNL A   1      46.042  33.686  27.063  1.00  0.00     0.135 A 
ATOM     64  F   UNL A   1      46.621  32.510  30.459  1.00  0.00    -0.206 F 
ATOM     65  C   UNL A   1      46.789  34.669  29.562  1.00  0.00     0.059 A 
ATOM     66  C   UNL A   1      46.324  35.041  27.209  1.00  0.00     0.059 A 
ATOM     67  F   UNL A   1      45.661  33.246  25.853  1.00  0.00    -0.206 F 
ATOM     68  C   UNL A   1      46.685  35.525  28.465  1.00  0.00     0.060 A 
BRANCH  68  69
ATOM     69  S   UNL A   1      47.037  37.278  28.707  1.00  0.00     0.124 S 
ATOM     70  O   UNL A   1      47.011  37.773  27.334  1.00  0.00    -0.237 OA
ATOM     71  O   UNL A   1      45.927  37.703  29.555  1.00  0.00    -0.237 OA
ATOM     72  O   UNL A   1      48.347  37.276  29.349  1.00  0.00    -0.744 OA
ENDBRANCH  68  69
ENDBRANCH  47  61
BRANCH  48  73
ATOM     73  C   UNL A   1      43.622  23.161  26.713  1.00  0.00     0.058 A 
ATOM     74  C   UNL A   1      43.252  22.336  27.787  1.00  0.00     0.135 A 
ATOM     75  C   UNL A   1      43.607  22.601  25.426  1.00  0.00     0.135 A 
ATOM     76  F   UNL A   1      43.245  22.824  29.037  1.00  0.00    -0.206 F 
ATOM     77  C   UNL A   1      42.907  21.001  27.596  1.00  0.00     0.059 A 
ATOM     78  C   UNL A   1      43.238  21.278  25.206  1.00  0.00     0.059 A 
ATOM     79  F   UNL A   1      43.928  23.353  24.361  1.00  0.00    -0.206 F 
ATOM     80  C   UNL A   1      42.901  20.482  26.300  1.00  0.00     0.060 A 
BRANCH  80  81
ATOM     81  S   UNL A   1      42.411  18.761  26.058  1.00  0.00     0.124 S 
ATOM     82  O   UNL A   1      43.301  18.353  24.978  1.00  0.00    -0.237 OA
ATOM     83  O   UNL A   1      42.686  18.178  27.368  1.00  0.00    -0.237 OA
ATOM     84  O   UNL A   1      40.997  18.861  25.708  1.00  0.00    -0.744 OA
ENDBRANCH  80  81
ENDBRANCH  48  73
BRANCH  60  85
ATOM     85  C   UNL A   1      49.654  26.667  26.605  1.00  0.00     0.058 A 
ATOM     86  C   UNL A   1      50.226  26.605  25.325  1.00  0.00     0.135 A 
ATOM     87  C   UNL A   1      50.456  26.315  27.703  1.00  0.00     0.135 A 
ATOM     88  F   UNL A   1      49.500  26.930  24.243  1.00  0.00    -0.206 F 
ATOM     89  C   UNL A   1      51.528  26.159  25.136  1.00  0.00     0.059 A 
ATOM     90  C   UNL A   1      51.774  25.904  27.540  1.00  0.00     0.059 A 
ATOM     91  F   UNL A   1      49.964  26.377  28.950  1.00  0.00    -0.206 F 
ATOM     92  C   UNL A   1      52.293  25.807  26.250  1.00  0.00     0.060 A 
BRANCH  92  93
ATOM     93  S   UNL A   1      53.978  25.220  25.990  1.00  0.00     0.124 S 
ATOM     94  O   UNL A   1      54.509  25.241  27.349  1.00  0.00    -0.237 OA
ATOM     95  O   UNL A   1      53.763  23.897  25.413  1.00  0.00    -0.237 OA
ATOM     96  O   UNL A   1      54.546  26.209  25.079  1.00  0.00    -0.744 OA
ENDBRANCH  92  93
ENDBRANCH  60  85
ENDBRANCH  34  35
ENDBRANCH  26  29
ENDBRANCH  24  25
ENDBRANCH  23  24
ENDBRANCH  22  23
ENDBRANCH   1  22
TORSDOF 19
ENDMDL
MODEL 2
REMARK VINA RESULT:     -11.0      5.196     12.118
REMARK SMILES C[C@H](CC(=O)NCCCCNC(=O)c1ccc(-c2c3nc(c(-c4c(F)cc(S(=O)(=O)[O-])cc4F)c4ccc([nH]4)c(-c4c(F)cc(S(=O)(=O)[O-])cc4F)c4nc(c(-c5c(F)cc(S(=O)(=O)[O-])cc5F)c5ccc2[nH]5)C=C4)C=C3)cc1)NC(=O)CS[C@H]1CCS(=O)(=O)C1
REMARK SMILES IDX 7 1 6 2 4 3 5 4 3 6 2 7 1 8 80 9 81 10 82 12 83 13 84 14
REMARK SMILES IDX 85 15 86 16 91 17 87 18 88 19 89 20 90 21 8 22 9 23 10 24
REMARK SMILES IDX 11 25 12 26 13 28 14 29 15 30 79 31 16 32 78 33 17 34 18 35
REMARK SMILES IDX 19 36 72 37 20 38 77 39 71 40 73 41 21 42 76 43 70 44 69 45
REMARK SMILES IDX 22 47 56 48 35 49 55 50 36 51 39 52 54 53 74 54 37 55 38 56
REMARK SMILES IDX 53 58 75 59 40 60 23 61 24 62 33 63 25 64 26 65 32 66 34 67
REMARK SMILES IDX 27 68 28 69 29 70 30 71 31 72 57 73 58 74 67 75 59 76 60 77
REMARK SMILES IDX 66 78 68 79 61 80 62 81 63 82 64 83 65 84 41 85 42 86 51 87
REMARK SMILES IDX 43 88 44 89 50 90 52 91 45 92 46 93 47 94 48 95 49 96
REMARK H PARENT 6 5 80 11 11 27 73 46 39 57
REMARK Flexibility Score: inf
ROOT
ATOM      1  C   UNL A   1      42.866  21.334  25.746  1.00  0.00     0.116 C 
ENDROOT
BRANCH   1   2
ATOM      2  N   UNL A   1      44.248  21.216  26.131  1.00  0.00    -0.356 N 
ATOM      3  C   UNL A   1      45.160  22.210  25.956  1.00  0.00     0.222 C 
ATOM      4  O   UNL A   1      46.329  21.942  25.685  1.00  0.00    -0.275 OA
ATOM      5  H   UNL A   1      44.549  20.373  26.543  1.00  0.00     0.163 HD
BRANCH   3   6
ATOM      6  C   UNL A   1      44.680  23.633  26.126  1.00  0.00     0.124 C 
BRANCH   6   7
ATOM      7  C   UNL A   1      45.167  24.216  27.445  1.00  0.00     0.088 C 
ATOM      8  C   UNL A   1      44.624  23.458  28.656  1.00  0.00     0.031 C 
BRANCH   7   9
ATOM      9  N   UNL A   1      46.623  24.218  27.462  1.00  0.00    -0.352 N 
ATOM     10  C   UNL A   1      47.479  25.006  26.750  1.00  0.00     0.230 C 
ATOM     11  H   UNL A   1      47.045  23.564  28.067  1.00  0.00     0.163 HD
ATOM     12  O   UNL A   1      48.689  24.822  26.896  1.00  0.00    -0.274 OA
BRANCH  10  13
ATOM     13  C   UNL A   1      46.933  26.080  25.821  1.00  0.00     0.169 C 
BRANCH  13  14
ATOM     14  S   UNL A   1      47.416  27.770  26.326  1.00  0.00    -0.148 SA
BRANCH  14  15
ATOM     15  C   UNL A   1      45.841  28.693  26.186  1.00  0.00     0.063 C 
ATOM     16  C   UNL A   1      44.709  27.939  26.899  1.00  0.00     0.031 C 
ATOM     17  C   UNL A   1      45.911  30.044  26.893  1.00  0.00     0.151 C 
ATOM     18  C   UNL A   1      43.510  28.888  26.909  1.00  0.00     0.138 C 
ATOM     19  S   UNL A   1      44.210  30.512  27.178  1.00  0.00     0.151 S 
ATOM     20  O   UNL A   1      43.777  31.412  26.128  1.00  0.00    -0.229 OA
ATOM     21  O   UNL A   1      44.062  30.860  28.574  1.00  0.00    -0.229 OA
ENDBRANCH  14  15
ENDBRANCH  13  14
ENDBRANCH  10  13
ENDBRANCH   7   9
ENDBRANCH   6   7
ENDBRANCH   3   6
ENDBRANCH   1   2
BRANCH   1  22
ATOM     22  C   UNL A   1      42.150  20.036  26.128  1.00  0.00     0.023 C 
BRANCH  22  23
ATOM     23  C   UNL A   1      40.681  20.257  26.461  1.00  0.00     0.023 C 
BRANCH  23  24
ATOM     24  C   UNL A   1      40.357  21.718  26.721  1.00  0.00     0.116 C 
BRANCH  24  25
ATOM     25  N   UNL A   1      39.290  22.211  25.850  1.00  0.00    -0.352 N 
ATOM     26  C   UNL A   1      38.687  23.438  25.863  1.00  0.00     0.251 C 
ATOM     27  H   UNL A   1      38.964  21.579  25.170  1.00  0.00     0.163 HD
ATOM     28  O   UNL A   1      37.690  23.662  25.192  1.00  0.00    -0.269 OA
BRANCH  26  29
ATOM     29  C   UNL A   1      39.282  24.454  26.733  1.00  0.00     0.039 A 
ATOM     30  C   UNL A   1      40.045  25.468  26.163  1.00  0.00     0.014 A 
ATOM     31  C   UNL A   1      38.940  24.459  28.090  1.00  0.00     0.014 A 
ATOM     32  C   UNL A   1      40.446  26.523  26.970  1.00  0.00     0.010 A 
ATOM     33  C   UNL A   1      39.224  25.575  28.850  1.00  0.00     0.010 A 
ATOM     34  C   UNL A   1      40.014  26.595  28.307  1.00  0.00    -0.014 A 
BRANCH  34  35
ATOM     35  C   UNL A   1      40.433  27.721  29.166  1.00  0.00     0.031 A 
ATOM     36  C   UNL A   1      41.800  27.703  29.789  1.00  0.00     0.074 A 
ATOM     37  C   UNL A   1      39.580  28.740  29.372  1.00  0.00     0.049 A 
ATOM     38  N   UNL A   1      42.385  28.623  30.508  1.00  0.00    -0.248 NA
ATOM     39  C   UNL A   1      42.607  26.480  29.616  1.00  0.00     0.031 C 
ATOM     40  C   UNL A   1      38.200  28.804  28.877  1.00  0.00     0.029 A 
ATOM     41  N   UNL A   1      39.750  29.926  30.032  1.00  0.00    -0.354 N 
ATOM     42  C   UNL A   1      43.616  28.089  30.869  1.00  0.00     0.074 A 
ATOM     43  C   UNL A   1      43.661  26.736  30.371  1.00  0.00     0.031 C 
ATOM     44  C   UNL A   1      37.675  29.997  29.196  1.00  0.00     0.029 A 
ATOM     45  C   UNL A   1      38.664  30.764  29.943  1.00  0.00     0.049 A 
ATOM     46  H   UNL A   1      40.572  30.158  30.522  1.00  0.00     0.167 HD
ATOM     47  C   UNL A   1      44.637  28.692  31.518  1.00  0.00     0.037 A 
ATOM     48  C   UNL A   1      38.501  32.020  30.401  1.00  0.00     0.037 A 
ATOM     49  C   UNL A   1      44.580  30.051  31.982  1.00  0.00     0.049 A 
ATOM     50  C   UNL A   1      39.660  32.680  31.094  1.00  0.00     0.074 A 
ATOM     51  C   UNL A   1      45.565  30.790  32.609  1.00  0.00     0.029 A 
ATOM     52  N   UNL A   1      43.469  30.877  31.864  1.00  0.00    -0.354 N 
ATOM     53  N   UNL A   1      40.850  32.192  31.360  1.00  0.00    -0.248 NA
ATOM     54  C   UNL A   1      39.464  34.065  31.534  1.00  0.00     0.031 C 
ATOM     55  C   UNL A   1      45.032  32.047  32.918  1.00  0.00     0.029 A 
ATOM     56  C   UNL A   1      43.737  32.113  32.426  1.00  0.00     0.049 A 
ATOM     57  H   UNL A   1      42.617  30.621  31.444  1.00  0.00     0.167 HD
ATOM     58  C   UNL A   1      41.555  33.221  31.973  1.00  0.00     0.074 A 
ATOM     59  C   UNL A   1      40.662  34.363  32.017  1.00  0.00     0.031 C 
ATOM     60  C   UNL A   1      42.824  33.228  32.456  1.00  0.00     0.037 A 
BRANCH  47  61
ATOM     61  C   UNL A   1      45.887  27.889  31.752  1.00  0.00     0.058 A 
ATOM     62  C   UNL A   1      46.104  27.186  32.950  1.00  0.00     0.135 A 
ATOM     63  C   UNL A   1      46.879  27.810  30.762  1.00  0.00     0.135 A 
ATOM     64  F   UNL A   1      45.202  27.248  33.944  1.00  0.00    -0.206 F 
ATOM     65  C   UNL A   1      47.268  26.457  33.168  1.00  0.00     0.059 A 
ATOM     66  C   UNL A   1      48.036  27.059  30.946  1.00  0.00     0.059 A 
ATOM     67  F   UNL A   1      46.731  28.470  29.603  1.00  0.00    -0.206 F 
ATOM     68  C   UNL A   1      48.227  26.397  32.157  1.00  0.00     0.060 A 
BRANCH  68  69
ATOM     69  S   UNL A   1      49.724  25.431  32.449  1.00  0.00     0.124 S 
ATOM     70  O   UNL A   1      49.200  24.310  33.223  1.00  0.00    -0.237 OA
ATOM     71  O   UNL A   1      50.159  25.116  31.093  1.00  0.00    -0.237 OA
ATOM     72  O   UNL A   1      50.584  26.353  33.184  1.00  0.00    -0.744 OA
ENDBRANCH  68  69
ENDBRANCH  47  61
BRANCH  48  73
ATOM     73  C   UNL A   1      37.218  32.736  30.169  1.00  0.00     0.058 A 
ATOM     74  C   UNL A   1      37.075  33.651  29.114  1.00  0.00     0.135 A 
ATOM     75  C   UNL A   1      36.102  32.506  30.988  1.00  0.00     0.135 A 
ATOM     76  F   UNL A   1      38.111  33.903  28.300  1.00  0.00    -0.206 F 
ATOM     77  C   UNL A   1      35.880  34.329  28.893  1.00  0.00     0.059 A 
ATOM     78  C   UNL A   1      34.887  33.149  30.770  1.00  0.00     0.059 A 
ATOM     79  F   UNL A   1      36.177  31.623  31.996  1.00  0.00    -0.206 F 
ATOM     80  C   UNL A   1      34.791  34.069  29.727  1.00  0.00     0.060 A 
BRANCH  80  81
ATOM     81  S   UNL A   1      33.232  34.923  29.407  1.00  0.00     0.124 S 
ATOM     82  O   UNL A   1      32.562  33.986  28.514  1.00  0.00    -0.237 OA
ATOM     83  O   UNL A   1      32.669  35.042  30.748  1.00  0.00    -0.237 OA
ATOM     84  O   UNL A   1      33.657  36.181  28.799  1.00  0.00    -0.744 OA
ENDBRANCH  80  81
ENDBRANCH  48  73
BRANCH  60  85
ATOM     85  C   UNL A   1      43.325  34.522  33.034  1.00  0.00     0.058 A 
ATOM     86  C   UNL A   1      43.253  34.798  34.408  1.00  0.00     0.135 A 
ATOM     87  C   UNL A   1      43.903  35.491  32.196  1.00  0.00     0.135 A 
ATOM     88  F   UNL A   1      42.709  33.904  35.249  1.00  0.00    -0.206 F 
ATOM     89  C   UNL A   1      43.689  36.012  34.926  1.00  0.00     0.059 A 
ATOM     90  C   UNL A   1      44.380  36.696  32.699  1.00  0.00     0.059 A 
ATOM     91  F   UNL A   1      44.015  35.268  30.878  1.00  0.00    -0.206 F 
ATOM     92  C   UNL A   1      44.247  36.956  34.062  1.00  0.00     0.060 A 
BRANCH  92  93
ATOM     93  S   UNL A   1      44.798  38.532  34.745  1.00  0.00     0.124 S 
ATOM     94  O   UNL A   1      44.146  38.529  36.050  1.00  0.00    -0.237 OA
ATOM     95  O   UNL A   1      46.249  38.376  34.759  1.00  0.00    -0.237 OA
ATOM     96  O   UNL A   1      44.289  39.512  33.791  1.00  0.00    -0.744 OA
ENDBRANCH  92  93
ENDBRANCH  60  85
ENDBRANCH  34  35
ENDBRANCH  26  29
ENDBRANCH  24  25
ENDBRANCH  23  24
ENDBRANCH  22  23
ENDBRANCH   1  22
TORSDOF 19
ENDMDL
MODEL 3
REMARK VINA RESULT:     -10.9      6.592     12.194
REMARK SMILES C[C@H](CC(=O)NCCCCNC(=O)c1ccc(-c2c3nc(c(-c4c(F)cc(S(=O)(=O)[O-])cc4F)c4ccc([nH]4)c(-c4c(F)cc(S(=O)(=O)[O-])cc4F)c4nc(c(-c5c(F)cc(S(=O)(=O)[O-])cc5F)c5ccc2[nH]5)C=C4)C=C3)cc1)NC(=O)CS[C@H]1CCS(=O)(=O)C1
REMARK SMILES IDX 7 1 6 2 4 3 5 4 3 6 2 7 1 8 80 9 81 10 82 12 83 13 84 14
REMARK SMILES IDX 85 15 86 16 91 17 87 18 88 19 89 20 90 21 8 22 9 23 10 24
REMARK SMILES IDX 11 25 12 26 13 28 14 29 15 30 79 31 16 32 78 33 17 34 18 35
REMARK SMILES IDX 19 36 72 37 20 38 77 39 71 40 73 41 21 42 76 43 70 44 69 45
REMARK SMILES IDX 22 47 56 48 35 49 55 50 36 51 39 52 54 53 74 54 37 55 38 56
REMARK SMILES IDX 53 58 75 59 40 60 23 61 24 62 33 63 25 64 26 65 32 66 34 67
REMARK SMILES IDX 27 68 28 69 29 70 30 71 31 72 57 73 58 74 67 75 59 76 60 77
REMARK SMILES IDX 66 78 68 79 61 80 62 81 63 82 64 83 65 84 41 85 42 86 51 87
REMARK SMILES IDX 43 88 44 89 50 90 52 91 45 92 46 93 47 94 48 95 49 96
REMARK H PARENT 6 5 80 11 11 27 73 46 39 57
REMARK Flexibility Score: inf
ROOT
ATOM      1  C   UNL A   1      42.494  21.895  27.215  1.00  0.00     0.116 C 
ENDROOT
BRANCH   1   2
ATOM      2  N   UNL A   1      41.555  21.312  26.292  1.00  0.00    -0.356 N 
ATOM      3  C   UNL A   1      40.277  21.755  26.144  1.00  0.00     0.222 C 
ATOM      4  O   UNL A   1      39.369  20.965  25.897  1.00  0.00    -0.275 OA
ATOM      5  H   UNL A   1      41.852  20.553  25.739  1.00  0.00     0.163 HD
BRANCH   3   6
ATOM      6  C   UNL A   1      40.036  23.240  26.279  1.00  0.00     0.124 C 
BRANCH   6   7
ATOM      7  C   UNL A   1      38.562  23.533  26.520  1.00  0.00     0.088 C 
ATOM      8  C   UNL A   1      38.342  24.831  27.295  1.00  0.00     0.031 C 
BRANCH   7   9
ATOM      9  N   UNL A   1      37.868  23.585  25.240  1.00  0.00    -0.352 N 
ATOM     10  C   UNL A   1      36.584  23.224  24.956  1.00  0.00     0.230 C 
ATOM     11  H   UNL A   1      38.395  23.926  24.481  1.00  0.00     0.163 HD
ATOM     12  O   UNL A   1      36.201  23.325  23.788  1.00  0.00    -0.274 OA
BRANCH  10  13
ATOM     13  C   UNL A   1      35.668  22.728  26.065  1.00  0.00     0.169 C 
BRANCH  13  14
ATOM     14  S   UNL A   1      33.939  23.291  25.864  1.00  0.00    -0.148 SA
BRANCH  14  15
ATOM     15  C   UNL A   1      33.079  21.759  25.346  1.00  0.00     0.063 C 
ATOM     16  C   UNL A   1      33.076  21.635  23.815  1.00  0.00     0.031 C 
ATOM     17  C   UNL A   1      33.805  20.509  25.834  1.00  0.00     0.151 C 
ATOM     18  C   UNL A   1      32.537  20.237  23.506  1.00  0.00     0.138 C 
ATOM     19  S   UNL A   1      33.220  19.187  24.783  1.00  0.00     0.151 S 
ATOM     20  O   UNL A   1      32.153  18.475  25.455  1.00  0.00    -0.229 OA
ATOM     21  O   UNL A   1      34.369  18.488  24.249  1.00  0.00    -0.229 OA
ENDBRANCH  14  15
ENDBRANCH  13  14
ENDBRANCH  10  13
ENDBRANCH   7   9
ENDBRANCH   6   7
ENDBRANCH   3   6
ENDBRANCH   1   2
BRANCH   1  22
ATOM     22  C   UNL A   1      43.750  22.290  26.435  1.00  0.00     0.023 C 
BRANCH  22  23
ATOM     23  C   UNL A   1      44.763  23.029  27.298  1.00  0.00     0.023 C 
BRANCH  23  24
ATOM     24  C   UNL A   1      44.913  24.486  26.899  1.00  0.00     0.116 C 
BRANCH  24  25
ATOM     25  N   UNL A   1      43.991  24.864  25.828  1.00  0.00    -0.352 N 
ATOM     26  C   UNL A   1      42.874  25.648  25.911  1.00  0.00     0.251 C 
ATOM     27  H   UNL A   1      44.200  24.508  24.935  1.00  0.00     0.163 HD
ATOM     28  O   UNL A   1      42.096  25.745  24.973  1.00  0.00    -0.269 OA
BRANCH  26  29
ATOM     29  C   UNL A   1      42.650  26.341  27.182  1.00  0.00     0.039 A 
ATOM     30  C   UNL A   1      43.158  27.625  27.348  1.00  0.00     0.014 A 
ATOM     31  C   UNL A   1      41.806  25.751  28.128  1.00  0.00     0.014 A 
ATOM     32  C   UNL A   1      42.784  28.340  28.476  1.00  0.00     0.010 A 
ATOM     33  C   UNL A   1      41.331  26.516  29.173  1.00  0.00     0.010 A 
ATOM     34  C   UNL A   1      41.848  27.801  29.378  1.00  0.00    -0.014 A 
BRANCH  34  35
ATOM     35  C   UNL A   1      41.442  28.563  30.576  1.00  0.00     0.031 A 
ATOM     36  C   UNL A   1      42.242  28.428  31.841  1.00  0.00     0.074 A 
ATOM     37  C   UNL A   1      40.363  29.362  30.508  1.00  0.00     0.049 A 
ATOM     38  N   UNL A   1      42.099  29.064  32.972  1.00  0.00    -0.248 NA
ATOM     39  C   UNL A   1      43.322  27.424  31.854  1.00  0.00     0.031 C 
ATOM     40  C   UNL A   1      39.475  29.492  29.348  1.00  0.00     0.029 A 
ATOM     41  N   UNL A   1      39.839  30.233  31.425  1.00  0.00    -0.354 N 
ATOM     42  C   UNL A   1      43.064  28.536  33.822  1.00  0.00     0.074 A 
ATOM     43  C   UNL A   1      43.725  27.469  33.112  1.00  0.00     0.031 C 
ATOM     44  C   UNL A   1      38.557  30.438  29.601  1.00  0.00     0.029 A 
ATOM     45  C   UNL A   1      38.770  30.954  30.947  1.00  0.00     0.049 A 
ATOM     46  H   UNL A   1      40.194  30.334  32.337  1.00  0.00     0.167 HD
ATOM     47  C   UNL A   1      43.398  28.940  35.068  1.00  0.00     0.037 A 
ATOM     48  C   UNL A   1      38.060  31.937  31.533  1.00  0.00     0.037 A 
ATOM     49  C   UNL A   1      42.742  30.024  35.746  1.00  0.00     0.049 A 
ATOM     50  C   UNL A   1      38.469  32.388  32.908  1.00  0.00     0.074 A 
ATOM     51  C   UNL A   1      43.022  30.559  36.989  1.00  0.00     0.029 A 
ATOM     52  N   UNL A   1      41.671  30.743  35.229  1.00  0.00    -0.354 N 
ATOM     53  N   UNL A   1      39.436  31.935  33.672  1.00  0.00    -0.248 NA
ATOM     54  C   UNL A   1      37.705  33.494  33.493  1.00  0.00     0.031 C 
ATOM     55  C   UNL A   1      42.085  31.566  37.247  1.00  0.00     0.029 A 
ATOM     56  C   UNL A   1      41.265  31.703  36.138  1.00  0.00     0.049 A 
ATOM     57  H   UNL A   1      41.262  30.590  34.347  1.00  0.00     0.167 HD
ATOM     58  C   UNL A   1      39.415  32.720  34.818  1.00  0.00     0.074 A 
ATOM     59  C   UNL A   1      38.352  33.690  34.633  1.00  0.00     0.031 C 
ATOM     60  C   UNL A   1      40.200  32.652  35.924  1.00  0.00     0.037 A 
BRANCH  47  61
ATOM     61  C   UNL A   1      44.517  28.211  35.761  1.00  0.00     0.058 A 
ATOM     62  C   UNL A   1      45.843  28.674  35.715  1.00  0.00     0.135 A 
ATOM     63  C   UNL A   1      44.261  27.040  36.491  1.00  0.00     0.135 A 
ATOM     64  F   UNL A   1      46.153  29.774  35.008  1.00  0.00    -0.206 F 
ATOM     65  C   UNL A   1      46.877  27.989  36.344  1.00  0.00     0.059 A 
ATOM     66  C   UNL A   1      45.275  26.357  37.156  1.00  0.00     0.059 A 
ATOM     67  F   UNL A   1      43.015  26.545  36.560  1.00  0.00    -0.206 F 
ATOM     68  C   UNL A   1      46.581  26.833  37.066  1.00  0.00     0.060 A 
BRANCH  68  69
ATOM     69  S   UNL A   1      47.933  25.967  37.892  1.00  0.00     0.124 S 
ATOM     70  O   UNL A   1      49.049  26.247  36.996  1.00  0.00    -0.237 OA
ATOM     71  O   UNL A   1      47.979  26.632  39.190  1.00  0.00    -0.237 OA
ATOM     72  O   UNL A   1      47.481  24.579  37.918  1.00  0.00    -0.744 OA
ENDBRANCH  68  69
ENDBRANCH  47  61
BRANCH  48  73
ATOM     73  C   UNL A   1      36.937  32.582  30.801  1.00  0.00     0.058 A 
ATOM     74  C   UNL A   1      37.170  33.595  29.857  1.00  0.00     0.135 A 
ATOM     75  C   UNL A   1      35.609  32.184  31.015  1.00  0.00     0.135 A 
ATOM     76  F   UNL A   1      38.422  34.009  29.612  1.00  0.00    -0.206 F 
ATOM     77  C   UNL A   1      36.125  34.207  29.172  1.00  0.00     0.059 A 
ATOM     78  C   UNL A   1      34.550  32.760  30.321  1.00  0.00     0.059 A 
ATOM     79  F   UNL A   1      35.333  31.202  31.889  1.00  0.00    -0.206 F 
ATOM     80  C   UNL A   1      34.817  33.780  29.410  1.00  0.00     0.060 A 
BRANCH  80  81
ATOM     81  S   UNL A   1      33.472  34.552  28.485  1.00  0.00     0.124 S 
ATOM     82  O   UNL A   1      34.163  35.651  27.824  1.00  0.00    -0.237 OA
ATOM     83  O   UNL A   1      33.031  33.461  27.621  1.00  0.00    -0.237 OA
ATOM     84  O   UNL A   1      32.525  34.937  29.529  1.00  0.00    -0.744 OA
ENDBRANCH  80  81
ENDBRANCH  48  73
BRANCH  60  85
ATOM     85  C   UNL A   1      39.959  33.680  36.994  1.00  0.00     0.058 A 
ATOM     86  C   UNL A   1      40.652  34.899  37.022  1.00  0.00     0.135 A 
ATOM     87  C   UNL A   1      39.003  33.442  37.997  1.00  0.00     0.135 A 
ATOM     88  F   UNL A   1      41.576  35.173  36.087  1.00  0.00    -0.206 F 
ATOM     89  C   UNL A   1      40.445  35.826  38.036  1.00  0.00     0.059 A 
ATOM     90  C   UNL A   1      38.752  34.372  38.998  1.00  0.00     0.059 A 
ATOM     91  F   UNL A   1      38.298  32.300  38.004  1.00  0.00    -0.206 F 
ATOM     92  C   UNL A   1      39.495  35.551  39.023  1.00  0.00     0.060 A 
BRANCH  92  93
ATOM     93  S   UNL A   1      39.244  36.758  40.339  1.00  0.00     0.124 S 
ATOM     94  O   UNL A   1      38.871  37.947  39.580  1.00  0.00    -0.237 OA
ATOM     95  O   UNL A   1      38.177  36.145  41.125  1.00  0.00    -0.237 OA
ATOM     96  O   UNL A   1      40.545  36.816  40.999  1.00  0.00    -0.744 OA
ENDBRANCH  92  93
ENDBRANCH  60  85
ENDBRANCH  34  35
ENDBRANCH  26  29
ENDBRANCH  24  25
ENDBRANCH  23  24
ENDBRANCH  22  23
ENDBRANCH   1  22
TORSDOF 19
ENDMDL
