MODEL 1
REMARK VINA RESULT:     -11.5      0.000      0.000
REMARK SMILES O=C(NCCCCNC(=O)[C@@]1(Cl)C[C@@H]2CC[C@H]1C2)c1ccc(-c2c3nc(c(-c4c(F)cc(S(=O)(=O)[O-])cc4F)c4ccc([nH]4)c(-c4c(F)cc(S(=O)(=O)[O-])cc4F)c4nc(c(-c5c(F)cc(S(=O)(=O)[O-])cc5F)c5ccc2[nH]5)C=C4)C=C3)cc1
REMARK SMILES IDX 4 1 3 2 1 3 2 4 19 6 20 7 84 8 21 9 83 10 22 11 23 12 24 13
REMARK SMILES IDX 77 14 25 15 82 16 76 17 78 18 26 19 81 20 75 21 74 22 27 24
REMARK SMILES IDX 61 25 40 26 60 27 41 28 44 29 59 30 79 31 42 32 43 33 58 35
REMARK SMILES IDX 80 36 45 37 28 38 29 39 38 40 30 41 31 42 37 43 39 44 32 45
REMARK SMILES IDX 33 46 34 47 35 48 36 49 62 50 63 51 72 52 64 53 65 54 71 55
REMARK SMILES IDX 73 56 66 57 67 58 68 59 69 60 70 61 46 62 47 63 56 64 48 65
REMARK SMILES IDX 49 66 55 67 57 68 50 69 51 70 52 71 53 72 54 73 5 74 6 75
REMARK SMILES IDX 7 76 8 77 9 78 10 80 11 81 13 82 17 83 12 84 14 85 16 86
REMARK SMILES IDX 18 87 15 88
REMARK H PARENT 3 5 78 23 44 34 8 79
REMARK Flexibility Score: inf
ROOT
ATOM      1  C   UNL A   1      41.156  23.018  27.199  1.00  0.00     0.116 C 
ENDROOT
BRANCH   1   2
ATOM      2  N   UNL A   1      41.290  24.004  26.131  1.00  0.00    -0.352 N 
ATOM      3  O   UNL A   1      41.334  26.037  25.155  1.00  0.00    -0.269 OA
ATOM      4  C   UNL A   1      41.315  25.378  26.190  1.00  0.00     0.251 C 
ATOM      5  H   UNL A   1      41.378  23.627  25.226  1.00  0.00     0.163 HD
BRANCH   4   6
ATOM      6  C   UNL A   1      41.268  26.052  27.503  1.00  0.00     0.039 A 
ATOM      7  C   UNL A   1      40.146  25.926  28.320  1.00  0.00     0.014 A 
ATOM      8  C   UNL A   1      42.332  26.872  27.890  1.00  0.00     0.014 A 
ATOM      9  C   UNL A   1      39.989  26.784  29.400  1.00  0.00     0.010 A 
ATOM     10  C   UNL A   1      42.217  27.655  29.042  1.00  0.00     0.010 A 
ATOM     11  C   UNL A   1      41.016  27.668  29.770  1.00  0.00    -0.014 A 
BRANCH  11  12
ATOM     12  C   UNL A   1      40.798  28.594  30.912  1.00  0.00     0.031 A 
ATOM     13  C   UNL A   1      41.723  28.592  32.102  1.00  0.00     0.074 A 
ATOM     14  C   UNL A   1      39.796  29.492  30.838  1.00  0.00     0.049 A 
ATOM     15  N   UNL A   1      41.702  29.363  33.161  1.00  0.00    -0.248 NA
ATOM     16  C   UNL A   1      42.801  27.591  32.118  1.00  0.00     0.031 C 
ATOM     17  C   UNL A   1      38.834  29.588  29.737  1.00  0.00     0.029 A 
ATOM     18  N   UNL A   1      39.440  30.513  31.679  1.00  0.00    -0.354 N 
ATOM     19  C   UNL A   1      42.733  28.917  33.982  1.00  0.00     0.074 A 
ATOM     20  C   UNL A   1      43.353  27.799  33.305  1.00  0.00     0.031 C 
ATOM     21  C   UNL A   1      38.046  30.655  29.934  1.00  0.00     0.029 A 
ATOM     22  C   UNL A   1      38.401  31.278  31.203  1.00  0.00     0.049 A 
ATOM     23  H   UNL A   1      39.885  30.683  32.541  1.00  0.00     0.167 HD
ATOM     24  C   UNL A   1      43.127  29.399  35.186  1.00  0.00     0.037 A 
ATOM     25  C   UNL A   1      37.798  32.360  31.730  1.00  0.00     0.037 A 
ATOM     26  C   UNL A   1      42.535  30.541  35.835  1.00  0.00     0.049 A 
ATOM     27  C   UNL A   1      38.272  32.890  33.050  1.00  0.00     0.074 A 
ATOM     28  C   UNL A   1      42.887  31.129  37.038  1.00  0.00     0.029 A 
ATOM     29  N   UNL A   1      41.471  31.275  35.330  1.00  0.00    -0.354 N 
ATOM     30  N   UNL A   1      39.250  32.456  33.806  1.00  0.00    -0.248 NA
ATOM     31  C   UNL A   1      37.554  34.050  33.591  1.00  0.00     0.031 C 
ATOM     32  C   UNL A   1      42.017  32.200  37.275  1.00  0.00     0.029 A 
ATOM     33  C   UNL A   1      41.146  32.301  36.202  1.00  0.00     0.049 A 
ATOM     34  H   UNL A   1      41.014  31.093  34.478  1.00  0.00     0.167 HD
ATOM     35  C   UNL A   1      39.278  33.300  34.909  1.00  0.00     0.074 A 
ATOM     36  C   UNL A   1      38.226  34.278  34.712  1.00  0.00     0.031 C 
ATOM     37  C   UNL A   1      40.099  33.268  35.988  1.00  0.00     0.037 A 
BRANCH  24  38
ATOM     38  C   UNL A   1      44.237  28.674  35.897  1.00  0.00     0.058 A 
ATOM     39  C   UNL A   1      43.988  27.607  36.774  1.00  0.00     0.135 A 
ATOM     40  C   UNL A   1      45.576  29.039  35.677  1.00  0.00     0.135 A 
ATOM     41  F   UNL A   1      42.726  27.226  37.033  1.00  0.00    -0.206 F 
ATOM     42  C   UNL A   1      45.022  26.948  37.432  1.00  0.00     0.059 A 
ATOM     43  C   UNL A   1      46.628  28.380  36.307  1.00  0.00     0.059 A 
ATOM     44  F   UNL A   1      45.872  30.051  34.847  1.00  0.00    -0.206 F 
ATOM     45  C   UNL A   1      46.339  27.346  37.197  1.00  0.00     0.060 A 
BRANCH  45  46
ATOM     46  S   UNL A   1      47.674  26.497  38.069  1.00  0.00     0.124 S 
ATOM     47  O   UNL A   1      48.841  27.243  37.608  1.00  0.00    -0.237 OA
ATOM     48  O   UNL A   1      47.311  26.691  39.469  1.00  0.00    -0.237 OA
ATOM     49  O   UNL A   1      47.574  25.123  37.585  1.00  0.00    -0.744 OA
ENDBRANCH  45  46
ENDBRANCH  24  38
BRANCH  25  50
ATOM     50  C   UNL A   1      36.692  33.014  30.986  1.00  0.00     0.058 A 
ATOM     51  C   UNL A   1      35.360  32.856  31.392  1.00  0.00     0.135 A 
ATOM     52  C   UNL A   1      36.951  33.851  29.888  1.00  0.00     0.135 A 
ATOM     53  F   UNL A   1      35.065  32.065  32.434  1.00  0.00    -0.206 F 
ATOM     54  C   UNL A   1      34.318  33.503  30.734  1.00  0.00     0.059 A 
ATOM     55  C   UNL A   1      35.929  34.527  29.231  1.00  0.00     0.059 A 
ATOM     56  F   UNL A   1      38.212  34.047  29.476  1.00  0.00    -0.206 F 
ATOM     57  C   UNL A   1      34.615  34.341  29.658  1.00  0.00     0.060 A 
BRANCH  57  58
ATOM     58  S   UNL A   1      33.269  35.238  28.856  1.00  0.00     0.124 S 
ATOM     59  O   UNL A   1      33.987  36.335  28.218  1.00  0.00    -0.237 OA
ATOM     60  O   UNL A   1      32.715  34.230  27.958  1.00  0.00    -0.237 OA
ATOM     61  O   UNL A   1      32.405  35.610  29.973  1.00  0.00    -0.744 OA
ENDBRANCH  57  58
ENDBRANCH  25  50
BRANCH  37  62
ATOM     62  C   UNL A   1      39.907  34.341  37.019  1.00  0.00     0.058 A 
ATOM     63  C   UNL A   1      40.598  35.560  36.950  1.00  0.00     0.135 A 
ATOM     64  C   UNL A   1      39.006  34.153  38.078  1.00  0.00     0.135 A 
ATOM     65  F   UNL A   1      41.477  35.783  35.960  1.00  0.00    -0.206 F 
ATOM     66  C   UNL A   1      40.425  36.547  37.914  1.00  0.00     0.059 A 
ATOM     67  C   UNL A   1      38.801  35.134  39.042  1.00  0.00     0.059 A 
ATOM     68  F   UNL A   1      38.315  33.007  38.183  1.00  0.00    -0.206 F 
ATOM     69  C   UNL A   1      39.527  36.322  38.960  1.00  0.00     0.060 A 
BRANCH  69  70
ATOM     70  S   UNL A   1      39.298  37.611  40.202  1.00  0.00     0.124 S 
ATOM     71  O   UNL A   1      40.623  38.219  40.242  1.00  0.00    -0.237 OA
ATOM     72  O   UNL A   1      38.241  38.432  39.617  1.00  0.00    -0.237 OA
ATOM     73  O   UNL A   1      38.911  36.864  41.396  1.00  0.00    -0.744 OA
ENDBRANCH  69  70
ENDBRANCH  37  62
ENDBRANCH  11  12
ENDBRANCH   4   6
ENDBRANCH   1   2
BRANCH   1  74
ATOM     74  C   UNL A   1      39.984  22.062  27.006  1.00  0.00     0.023 C 
BRANCH  74  75
ATOM     75  C   UNL A   1      38.827  22.596  26.166  1.00  0.00     0.023 C 
BRANCH  75  76
ATOM     76  C   UNL A   1      37.955  21.536  25.505  1.00  0.00     0.116 C 
BRANCH  76  77
ATOM     77  N   UNL A   1      37.467  21.911  24.193  1.00  0.00    -0.355 N 
ATOM     78  C   UNL A   1      36.351  22.559  23.757  1.00  0.00     0.241 C 
ATOM     79  H   UNL A   1      38.068  21.640  23.463  1.00  0.00     0.163 HD
ATOM     80  O   UNL A   1      36.469  23.017  22.609  1.00  0.00    -0.273 OA
BRANCH  78  81
ATOM     81  C   UNL A   1      35.040  22.787  24.578  1.00  0.00     0.126 C 
ATOM     82  C   UNL A   1      35.141  23.546  25.912  1.00  0.00     0.037 C 
ATOM     83  C   UNL A   1      33.969  23.611  23.795  1.00  0.00     0.020 C 
ATOM     84  Cl  UNL A   1      34.425  21.108  24.949  1.00  0.00    -0.108 Cl
ATOM     85  C   UNL A   1      34.199  24.755  25.695  1.00  0.00    -0.009 C 
ATOM     86  C   UNL A   1      32.564  23.517  24.438  1.00  0.00     0.006 C 
ATOM     87  C   UNL A   1      34.299  25.049  24.199  1.00  0.00     0.009 C 
ATOM     88  C   UNL A   1      32.747  24.247  25.781  1.00  0.00     0.004 C 
ENDBRANCH  78  81
ENDBRANCH  76  77
ENDBRANCH  75  76
ENDBRANCH  74  75
ENDBRANCH   1  74
TORSDOF 14
ENDMDL
MODEL 2
REMARK VINA RESULT:     -11.4      0.610      1.639
REMARK SMILES O=C(NCCCCNC(=O)[C@@]1(Cl)C[C@@H]2CC[C@H]1C2)c1ccc(-c2c3nc(c(-c4c(F)cc(S(=O)(=O)[O-])cc4F)c4ccc([nH]4)c(-c4c(F)cc(S(=O)(=O)[O-])cc4F)c4nc(c(-c5c(F)cc(S(=O)(=O)[O-])cc5F)c5ccc2[nH]5)C=C4)C=C3)cc1
REMARK SMILES IDX 4 1 3 2 1 3 2 4 19 6 20 7 84 8 21 9 83 10 22 11 23 12 24 13
REMARK SMILES IDX 77 14 25 15 82 16 76 17 78 18 26 19 81 20 75 21 74 22 27 24
REMARK SMILES IDX 61 25 40 26 60 27 41 28 44 29 59 30 79 31 42 32 43 33 58 35
REMARK SMILES IDX 80 36 45 37 28 38 29 39 38 40 30 41 31 42 37 43 39 44 32 45
REMARK SMILES IDX 33 46 34 47 35 48 36 49 62 50 63 51 72 52 64 53 65 54 71 55
REMARK SMILES IDX 73 56 66 57 67 58 68 59 69 60 70 61 46 62 47 63 56 64 48 65
REMARK SMILES IDX 49 66 55 67 57 68 50 69 51 70 52 71 53 72 54 73 5 74 6 75
REMARK SMILES IDX 7 76 8 77 9 78 10 80 11 81 13 82 17 83 12 84 14 85 16 86
REMARK SMILES IDX 18 87 15 88
REMARK H PARENT 3 5 78 23 44 34 8 79
REMARK Flexibility Score: inf
ROOT
ATOM      1  C   UNL A   1      42.009  23.058  27.121  1.00  0.00     0.116 C 
ENDROOT
BRANCH   1   2
ATOM      2  N   UNL A   1      41.741  24.021  26.058  1.00  0.00    -0.352 N 
ATOM      3  O   UNL A   1      41.120  25.972  25.110  1.00  0.00    -0.269 OA
ATOM      4  C   UNL A   1      41.406  25.354  26.131  1.00  0.00     0.251 C 
ATOM      5  H   UNL A   1      41.812  23.662  25.144  1.00  0.00     0.163 HD
BRANCH   4   6
ATOM      6  C   UNL A   1      41.346  26.019  27.448  1.00  0.00     0.039 A 
ATOM      7  C   UNL A   1      40.223  25.874  28.260  1.00  0.00     0.014 A 
ATOM      8  C   UNL A   1      42.399  26.849  27.844  1.00  0.00     0.014 A 
ATOM      9  C   UNL A   1      40.051  26.723  29.344  1.00  0.00     0.010 A 
ATOM     10  C   UNL A   1      42.270  27.624  29.000  1.00  0.00     0.010 A 
ATOM     11  C   UNL A   1      41.067  27.617  29.724  1.00  0.00    -0.014 A 
BRANCH  11  12
ATOM     12  C   UNL A   1      40.833  28.533  30.871  1.00  0.00     0.031 A 
ATOM     13  C   UNL A   1      41.738  28.517  32.076  1.00  0.00     0.074 A 
ATOM     14  C   UNL A   1      39.834  29.434  30.789  1.00  0.00     0.049 A 
ATOM     15  N   UNL A   1      41.704  29.279  33.141  1.00  0.00    -0.248 NA
ATOM     16  C   UNL A   1      42.814  27.513  32.099  1.00  0.00     0.031 C 
ATOM     17  C   UNL A   1      38.890  29.544  29.674  1.00  0.00     0.029 A 
ATOM     18  N   UNL A   1      39.468  30.449  31.634  1.00  0.00    -0.354 N 
ATOM     19  C   UNL A   1      42.720  28.822  33.974  1.00  0.00     0.074 A 
ATOM     20  C   UNL A   1      43.347  27.709  33.297  1.00  0.00     0.031 C 
ATOM     21  C   UNL A   1      38.102  30.611  29.869  1.00  0.00     0.029 A 
ATOM     22  C   UNL A   1      38.439  31.221  31.149  1.00  0.00     0.049 A 
ATOM     23  H   UNL A   1      39.899  30.609  32.505  1.00  0.00     0.167 HD
ATOM     24  C   UNL A   1      43.096  29.291  35.189  1.00  0.00     0.037 A 
ATOM     25  C   UNL A   1      37.830  32.300  31.676  1.00  0.00     0.037 A 
ATOM     26  C   UNL A   1      42.497  30.429  35.838  1.00  0.00     0.049 A 
ATOM     27  C   UNL A   1      38.285  32.816  33.009  1.00  0.00     0.074 A 
ATOM     28  C   UNL A   1      42.832  31.005  37.053  1.00  0.00     0.029 A 
ATOM     29  N   UNL A   1      41.442  31.171  35.324  1.00  0.00    -0.354 N 
ATOM     30  N   UNL A   1      39.250  32.372  33.777  1.00  0.00    -0.248 NA
ATOM     31  C   UNL A   1      37.561  33.973  33.550  1.00  0.00     0.031 C 
ATOM     32  C   UNL A   1      41.960  32.076  37.286  1.00  0.00     0.029 A 
ATOM     33  C   UNL A   1      41.107  32.190  36.200  1.00  0.00     0.049 A 
ATOM     34  H   UNL A   1      40.999  30.998  34.463  1.00  0.00     0.167 HD
ATOM     35  C   UNL A   1      39.262  33.206  34.888  1.00  0.00     0.074 A 
ATOM     36  C   UNL A   1      38.216  34.189  34.683  1.00  0.00     0.031 C 
ATOM     37  C   UNL A   1      40.066  33.161  35.978  1.00  0.00     0.037 A 
BRANCH  24  38
ATOM     38  C   UNL A   1      44.193  28.557  35.911  1.00  0.00     0.058 A 
ATOM     39  C   UNL A   1      45.545  28.896  35.754  1.00  0.00     0.135 A 
ATOM     40  C   UNL A   1      43.880  27.510  36.795  1.00  0.00     0.135 A 
ATOM     41  F   UNL A   1      45.902  29.878  34.910  1.00  0.00    -0.206 F 
ATOM     42  C   UNL A   1      46.552  28.205  36.422  1.00  0.00     0.059 A 
ATOM     43  C   UNL A   1      44.869  26.819  37.490  1.00  0.00     0.059 A 
ATOM     44  F   UNL A   1      42.603  27.146  36.984  1.00  0.00    -0.206 F 
ATOM     45  C   UNL A   1      46.204  27.163  37.283  1.00  0.00     0.060 A 
BRANCH  45  46
ATOM     46  S   UNL A   1      47.518  26.261  38.132  1.00  0.00     0.124 S 
ATOM     47  O   UNL A   1      47.780  25.176  37.190  1.00  0.00    -0.237 OA
ATOM     48  O   UNL A   1      48.569  27.266  38.247  1.00  0.00    -0.237 OA
ATOM     49  O   UNL A   1      46.897  25.863  39.392  1.00  0.00    -0.744 OA
ENDBRANCH  45  46
ENDBRANCH  24  38
BRANCH  25  50
ATOM     50  C   UNL A   1      36.738  32.964  30.921  1.00  0.00     0.058 A 
ATOM     51  C   UNL A   1      35.398  32.793  31.295  1.00  0.00     0.135 A 
ATOM     52  C   UNL A   1      37.017  33.823  29.846  1.00  0.00     0.135 A 
ATOM     53  F   UNL A   1      35.084  31.981  32.315  1.00  0.00    -0.206 F 
ATOM     54  C   UNL A   1      34.369  33.449  30.627  1.00  0.00     0.059 A 
ATOM     55  C   UNL A   1      36.007  34.507  29.180  1.00  0.00     0.059 A 
ATOM     56  F   UNL A   1      38.286  34.032  29.465  1.00  0.00    -0.206 F 
ATOM     57  C   UNL A   1      34.685  34.309  29.574  1.00  0.00     0.060 A 
BRANCH  57  58
ATOM     58  S   UNL A   1      33.353  35.216  28.760  1.00  0.00     0.124 S 
ATOM     59  O   UNL A   1      32.626  35.755  29.904  1.00  0.00    -0.237 OA
ATOM     60  O   UNL A   1      34.085  36.186  27.953  1.00  0.00    -0.237 OA
ATOM     61  O   UNL A   1      32.660  34.179  28.000  1.00  0.00    -0.744 OA
ENDBRANCH  57  58
ENDBRANCH  25  50
BRANCH  37  62
ATOM     62  C   UNL A   1      39.861  34.225  37.017  1.00  0.00     0.058 A 
ATOM     63  C   UNL A   1      38.982  34.041  38.096  1.00  0.00     0.135 A 
ATOM     64  C   UNL A   1      40.566  35.436  36.940  1.00  0.00     0.135 A 
ATOM     65  F   UNL A   1      38.279  32.903  38.207  1.00  0.00    -0.206 F 
ATOM     66  C   UNL A   1      38.788  35.034  39.049  1.00  0.00     0.059 A 
ATOM     67  C   UNL A   1      40.403  36.435  37.894  1.00  0.00     0.059 A 
ATOM     68  F   UNL A   1      41.425  35.656  35.931  1.00  0.00    -0.206 F 
ATOM     69  C   UNL A   1      39.500  36.231  38.936  1.00  0.00     0.060 A 
BRANCH  69  70
ATOM     70  S   UNL A   1      39.251  37.512  40.184  1.00  0.00     0.124 S 
ATOM     71  O   UNL A   1      38.152  38.276  39.604  1.00  0.00    -0.237 OA
ATOM     72  O   UNL A   1      38.924  36.735  41.376  1.00  0.00    -0.237 OA
ATOM     73  O   UNL A   1      40.541  38.195  40.226  1.00  0.00    -0.744 OA
ENDBRANCH  69  70
ENDBRANCH  37  62
ENDBRANCH  11  12
ENDBRANCH   4   6
ENDBRANCH   1   2
BRANCH   1  74
ATOM     74  C   UNL A   1      40.784  22.254  27.541  1.00  0.00     0.023 C 
BRANCH  74  75
ATOM     75  C   UNL A   1      39.902  21.749  26.403  1.00  0.00     0.023 C 
BRANCH  75  76
ATOM     76  C   UNL A   1      38.505  22.354  26.340  1.00  0.00     0.116 C 
BRANCH  76  77
ATOM     77  N   UNL A   1      38.062  22.670  24.997  1.00  0.00    -0.355 N 
ATOM     78  C   UNL A   1      36.846  22.655  24.382  1.00  0.00     0.241 C 
ATOM     79  H   UNL A   1      38.793  22.956  24.403  1.00  0.00     0.163 HD
ATOM     80  O   UNL A   1      36.812  23.341  23.348  1.00  0.00    -0.273 OA
BRANCH  78  81
ATOM     81  C   UNL A   1      35.567  21.915  24.892  1.00  0.00     0.126 C 
ATOM     82  C   UNL A   1      35.014  22.292  26.278  1.00  0.00     0.037 C 
ATOM     83  C   UNL A   1      34.331  22.127  23.961  1.00  0.00     0.020 C 
ATOM     84  Cl  UNL A   1      36.041  20.153  24.952  1.00  0.00    -0.108 Cl
ATOM     85  C   UNL A   1      33.574  22.762  25.960  1.00  0.00    -0.009 C 
ATOM     86  C   UNL A   1      33.194  21.116  24.248  1.00  0.00     0.006 C 
ATOM     87  C   UNL A   1      33.675  23.371  24.563  1.00  0.00     0.009 C 
ATOM     88  C   UNL A   1      32.722  21.514  25.658  1.00  0.00     0.004 C 
ENDBRANCH  78  81
ENDBRANCH  76  77
ENDBRANCH  75  76
ENDBRANCH  74  75
ENDBRANCH   1  74
TORSDOF 14
ENDMDL
MODEL 3
REMARK VINA RESULT:     -11.4      7.010     12.569
REMARK SMILES O=C(NCCCCNC(=O)[C@@]1(Cl)C[C@@H]2CC[C@H]1C2)c1ccc(-c2c3nc(c(-c4c(F)cc(S(=O)(=O)[O-])cc4F)c4ccc([nH]4)c(-c4c(F)cc(S(=O)(=O)[O-])cc4F)c4nc(c(-c5c(F)cc(S(=O)(=O)[O-])cc5F)c5ccc2[nH]5)C=C4)C=C3)cc1
REMARK SMILES IDX 4 1 3 2 1 3 2 4 19 6 20 7 84 8 21 9 83 10 22 11 23 12 24 13
REMARK SMILES IDX 77 14 25 15 82 16 76 17 78 18 26 19 81 20 75 21 74 22 27 24
REMARK SMILES IDX 61 25 40 26 60 27 41 28 44 29 59 30 79 31 42 32 43 33 58 35
REMARK SMILES IDX 80 36 45 37 28 38 29 39 38 40 30 41 31 42 37 43 39 44 32 45
REMARK SMILES IDX 33 46 34 47 35 48 36 49 62 50 63 51 72 52 64 53 65 54 71 55
REMARK SMILES IDX 73 56 66 57 67 58 68 59 69 60 70 61 46 62 47 63 56 64 48 65
REMARK SMILES IDX 49 66 55 67 57 68 50 69 51 70 52 71 53 72 54 73 5 74 6 75
REMARK SMILES IDX 7 76 8 77 9 78 10 80 11 81 13 82 17 83 12 84 14 85 16 86
REMARK SMILES IDX 18 87 15 88
REMARK H PARENT 3 5 78 23 44 34 8 79
REMARK Flexibility Score: inf
ROOT
ATOM      1  C   UNL A   1      35.915  32.266  29.171  1.00  0.00     0.116 C 
ENDROOT
BRANCH   1   2
ATOM      2  N   UNL A   1      35.716  31.209  30.157  1.00  0.00    -0.352 N 
ATOM      3  O   UNL A   1      36.167  29.345  31.346  1.00  0.00    -0.269 OA
ATOM      4  C   UNL A   1      36.565  30.208  30.568  1.00  0.00     0.251 C 
ATOM      5  H   UNL A   1      34.836  31.213  30.599  1.00  0.00     0.163 HD
BRANCH   4   6
ATOM      6  C   UNL A   1      37.939  30.150  30.029  1.00  0.00     0.039 A 
ATOM      7  C   UNL A   1      38.154  29.938  28.669  1.00  0.00     0.014 A 
ATOM      8  C   UNL A   1      39.023  30.244  30.907  1.00  0.00     0.014 A 
ATOM      9  C   UNL A   1      39.423  29.596  28.224  1.00  0.00     0.010 A 
ATOM     10  C   UNL A   1      40.317  30.008  30.434  1.00  0.00     0.010 A 
ATOM     11  C   UNL A   1      40.521  29.616  29.101  1.00  0.00    -0.014 A 
BRANCH  11  12
ATOM     12  C   UNL A   1      41.859  29.212  28.595  1.00  0.00     0.031 A 
ATOM     13  C   UNL A   1      43.020  30.173  28.617  1.00  0.00     0.074 A 
ATOM     14  C   UNL A   1      42.040  27.943  28.179  1.00  0.00     0.049 A 
ATOM     15  N   UNL A   1      44.263  29.969  28.257  1.00  0.00    -0.248 NA
ATOM     16  C   UNL A   1      42.756  31.540  29.091  1.00  0.00     0.031 C 
ATOM     17  C   UNL A   1      40.991  26.924  28.109  1.00  0.00     0.029 A 
ATOM     18  N   UNL A   1      43.170  27.285  27.772  1.00  0.00    -0.354 N 
ATOM     19  C   UNL A   1      44.916  31.186  28.421  1.00  0.00     0.074 A 
ATOM     20  C   UNL A   1      43.930  32.128  28.902  1.00  0.00     0.031 C 
ATOM     21  C   UNL A   1      41.539  25.752  27.757  1.00  0.00     0.029 A 
ATOM     22  C   UNL A   1      42.962  25.951  27.511  1.00  0.00     0.049 A 
ATOM     23  H   UNL A   1      44.046  27.723  27.674  1.00  0.00     0.167 HD
ATOM     24  C   UNL A   1      46.218  31.488  28.195  1.00  0.00     0.037 A 
ATOM     25  C   UNL A   1      43.820  24.991  27.115  1.00  0.00     0.037 A 
ATOM     26  C   UNL A   1      47.206  30.534  27.758  1.00  0.00     0.049 A 
ATOM     27  C   UNL A   1      45.261  25.345  26.899  1.00  0.00     0.074 A 
ATOM     28  C   UNL A   1      48.558  30.733  27.536  1.00  0.00     0.029 A 
ATOM     29  N   UNL A   1      46.951  29.197  27.485  1.00  0.00    -0.354 N 
ATOM     30  N   UNL A   1      45.858  26.500  27.065  1.00  0.00    -0.248 NA
ATOM     31  C   UNL A   1      46.143  24.267  26.435  1.00  0.00     0.031 C 
ATOM     32  C   UNL A   1      49.114  29.524  27.100  1.00  0.00     0.029 A 
ATOM     33  C   UNL A   1      48.116  28.564  27.085  1.00  0.00     0.049 A 
ATOM     34  H   UNL A   1      46.071  28.764  27.563  1.00  0.00     0.167 HD
ATOM     35  C   UNL A   1      47.191  26.287  26.740  1.00  0.00     0.074 A 
ATOM     36  C   UNL A   1      47.314  24.887  26.382  1.00  0.00     0.031 C 
ATOM     37  C   UNL A   1      48.220  27.169  26.737  1.00  0.00     0.037 A 
BRANCH  24  38
ATOM     38  C   UNL A   1      46.647  32.917  28.389  1.00  0.00     0.058 A 
ATOM     39  C   UNL A   1      46.606  33.854  27.345  1.00  0.00     0.135 A 
ATOM     40  C   UNL A   1      47.082  33.360  29.649  1.00  0.00     0.135 A 
ATOM     41  F   UNL A   1      46.213  33.481  26.116  1.00  0.00    -0.206 F 
ATOM     42  C   UNL A   1      47.012  35.172  27.534  1.00  0.00     0.059 A 
ATOM     43  C   UNL A   1      47.472  34.679  29.867  1.00  0.00     0.059 A 
ATOM     44  F   UNL A   1      47.138  32.506  30.682  1.00  0.00    -0.206 F 
ATOM     45  C   UNL A   1      47.449  35.573  28.798  1.00  0.00     0.060 A 
BRANCH  45  46
ATOM     46  S   UNL A   1      47.990  37.281  29.029  1.00  0.00     0.124 S 
ATOM     47  O   UNL A   1      46.794  37.888  29.606  1.00  0.00    -0.237 OA
ATOM     48  O   UNL A   1      49.124  37.134  29.935  1.00  0.00    -0.237 OA
ATOM     49  O   UNL A   1      48.326  37.717  27.677  1.00  0.00    -0.744 OA
ENDBRANCH  45  46
ENDBRANCH  24  38
BRANCH  25  50
ATOM     50  C   UNL A   1      43.326  23.605  26.920  1.00  0.00     0.058 A 
ATOM     51  C   UNL A   1      43.079  23.104  25.634  1.00  0.00     0.135 A 
ATOM     52  C   UNL A   1      43.143  22.739  28.010  1.00  0.00     0.135 A 
ATOM     53  F   UNL A   1      43.239  23.895  24.563  1.00  0.00    -0.206 F 
ATOM     54  C   UNL A   1      42.664  21.792  25.433  1.00  0.00     0.059 A 
ATOM     55  C   UNL A   1      42.752  21.417  27.832  1.00  0.00     0.059 A 
ATOM     56  F   UNL A   1      43.386  23.169  29.257  1.00  0.00    -0.206 F 
ATOM     57  C   UNL A   1      42.509  20.954  26.540  1.00  0.00     0.060 A 
BRANCH  57  58
ATOM     58  S   UNL A   1      42.044  19.231  26.269  1.00  0.00     0.124 S 
ATOM     59  O   UNL A   1      42.980  18.837  25.223  1.00  0.00    -0.237 OA
ATOM     60  O   UNL A   1      42.268  18.638  27.584  1.00  0.00    -0.237 OA
ATOM     61  O   UNL A   1      40.644  19.323  25.865  1.00  0.00    -0.744 OA
ENDBRANCH  57  58
ENDBRANCH  25  50
BRANCH  37  62
ATOM     62  C   UNL A   1      49.572  26.635  26.362  1.00  0.00     0.058 A 
ATOM     63  C   UNL A   1      50.393  25.989  27.299  1.00  0.00     0.135 A 
ATOM     64  C   UNL A   1      50.041  26.754  25.045  1.00  0.00     0.135 A 
ATOM     65  F   UNL A   1      49.991  25.858  28.573  1.00  0.00    -0.206 F 
ATOM     66  C   UNL A   1      51.649  25.505  26.950  1.00  0.00     0.059 A 
ATOM     67  C   UNL A   1      51.285  26.259  24.668  1.00  0.00     0.059 A 
ATOM     68  F   UNL A   1      49.288  27.356  24.111  1.00  0.00    -0.206 F 
ATOM     69  C   UNL A   1      52.089  25.650  25.632  1.00  0.00     0.060 A 
BRANCH  69  70
ATOM     70  S   UNL A   1      53.715  25.009  25.182  1.00  0.00     0.124 S 
ATOM     71  O   UNL A   1      54.528  25.458  26.306  1.00  0.00    -0.237 OA
ATOM     72  O   UNL A   1      53.479  23.571  25.104  1.00  0.00    -0.237 OA
ATOM     73  O   UNL A   1      53.992  25.661  23.905  1.00  0.00    -0.744 OA
ENDBRANCH  69  70
ENDBRANCH  37  62
ENDBRANCH  11  12
ENDBRANCH   4   6
ENDBRANCH   1   2
BRANCH   1  74
ATOM     74  C   UNL A   1      35.310  31.954  27.807  1.00  0.00     0.023 C 
BRANCH  74  75
ATOM     75  C   UNL A   1      33.833  31.573  27.811  1.00  0.00     0.023 C 
BRANCH  75  76
ATOM     76  C   UNL A   1      33.462  30.379  26.940  1.00  0.00     0.116 C 
BRANCH  76  77
ATOM     77  N   UNL A   1      32.391  29.567  27.481  1.00  0.00    -0.355 N 
ATOM     78  C   UNL A   1      31.862  28.360  27.135  1.00  0.00     0.241 C 
ATOM     79  H   UNL A   1      31.953  29.972  28.264  1.00  0.00     0.163 HD
ATOM     80  O   UNL A   1      31.216  27.828  28.052  1.00  0.00    -0.273 OA
BRANCH  78  81
ATOM     81  C   UNL A   1      32.048  27.634  25.763  1.00  0.00     0.126 C 
ATOM     82  C   UNL A   1      33.481  27.386  25.261  1.00  0.00     0.037 C 
ATOM     83  C   UNL A   1      31.426  26.202  25.745  1.00  0.00     0.020 C 
ATOM     84  Cl  UNL A   1      31.221  28.717  24.547  1.00  0.00    -0.108 Cl
ATOM     85  C   UNL A   1      33.534  25.847  25.112  1.00  0.00    -0.009 C 
ATOM     86  C   UNL A   1      31.276  25.639  24.310  1.00  0.00     0.006 C 
ATOM     87  C   UNL A   1      32.596  25.328  26.201  1.00  0.00     0.009 C 
ATOM     88  C   UNL A   1      32.735  25.463  23.851  1.00  0.00     0.004 C 
ENDBRANCH  78  81
ENDBRANCH  76  77
ENDBRANCH  75  76
ENDBRANCH  74  75
ENDBRANCH   1  74
TORSDOF 14
ENDMDL
