MODEL 1
REMARK VINA RESULT:     -12.2      0.000      0.000
REMARK SMILES C[C@@H](C(=O)NCCCCNC(=O)c1ccc(-c2c3nc(c(-c4c(F)cc(S(=O)(=O)[O-])cc4F)c4ccc([nH]4)c(-c4c(F)cc(S(=O)(=O)[O-])cc4F)c4nc(c(-c5c(F)cc(S(=O)(=O)[O-])cc5F)c5ccc2[nH]5)C=C4)C=C3)cc1)c1ccc2c3cc(Cl)ccc3n(C(=O)c3cocn3)c2c1
REMARK SMILES IDX 7 1 6 2 5 3 3 4 4 5 2 7 1 8 79 9 80 10 99 11 81 12 98 13
REMARK SMILES IDX 82 14 90 15 83 16 89 17 84 18 88 19 85 20 87 21 86 22 91 23
REMARK SMILES IDX 92 24 93 25 94 26 97 27 95 28 96 29 8 30 9 31 10 32 11 33
REMARK SMILES IDX 12 35 13 36 14 37 78 38 15 39 77 40 16 41 17 42 18 43 71 44
REMARK SMILES IDX 19 45 76 46 70 47 72 48 20 49 75 50 69 51 68 52 21 54 55 55
REMARK SMILES IDX 34 56 54 57 35 58 38 59 53 60 73 61 36 62 37 63 52 65 74 66
REMARK SMILES IDX 39 67 22 68 23 69 32 70 24 71 25 72 31 73 33 74 26 75 27 76
REMARK SMILES IDX 28 77 29 78 30 79 56 80 57 81 66 82 58 83 59 84 65 85 67 86
REMARK SMILES IDX 60 87 61 88 62 89 63 90 64 91 40 92 41 93 50 94 42 95 43 96
REMARK SMILES IDX 49 97 51 98 44 99 45 100 46 101 47 102 48 103
REMARK H PARENT 5 6 10 34 72 53 38 64
REMARK Flexibility Score: inf
ROOT
ATOM      1  C   UNL A   1      44.694  22.523  26.956  1.00  0.00     0.023 C 
ENDROOT
BRANCH   1   2
ATOM      2  C   UNL A   1      43.400  22.144  26.232  1.00  0.00     0.116 C 
BRANCH   2   3
ATOM      3  N   UNL A   1      42.575  21.287  27.058  1.00  0.00    -0.356 N 
ATOM      4  C   UNL A   1      41.219  21.267  27.215  1.00  0.00     0.227 C 
ATOM      5  O   UNL A   1      40.777  20.523  28.093  1.00  0.00    -0.274 OA
ATOM      6  H   UNL A   1      43.068  20.618  27.586  1.00  0.00     0.163 HD
BRANCH   4   7
ATOM      7  C   UNL A   1      40.329  22.114  26.292  1.00  0.00     0.105 C 
ATOM      8  C   UNL A   1      39.840  23.414  26.939  1.00  0.00     0.023 C 
BRANCH   7   9
ATOM      9  C   UNL A   1      39.107  21.356  25.781  1.00  0.00    -0.034 A 
ATOM     10  C   UNL A   1      39.205  20.021  25.380  1.00  0.00     0.005 A 
ATOM     11  C   UNL A   1      37.856  21.991  25.774  1.00  0.00     0.032 A 
ATOM     12  C   UNL A   1      38.069  19.294  25.027  1.00  0.00     0.011 A 
ATOM     13  C   UNL A   1      36.713  21.266  25.380  1.00  0.00     0.058 A 
ATOM     14  C   UNL A   1      36.805  19.916  25.050  1.00  0.00     0.008 A 
ATOM     15  N   UNL A   1      35.367  21.654  25.280  1.00  0.00    -0.274 N 
ATOM     16  C   UNL A   1      35.493  19.449  24.778  1.00  0.00     0.009 A 
ATOM     17  C   UNL A   1      34.620  20.541  24.857  1.00  0.00     0.057 A 
ATOM     18  C   UNL A   1      34.999  18.174  24.425  1.00  0.00     0.031 A 
ATOM     19  C   UNL A   1      33.273  20.395  24.468  1.00  0.00     0.029 A 
ATOM     20  C   UNL A   1      33.653  18.024  24.110  1.00  0.00     0.041 A 
ATOM     21  C   UNL A   1      32.804  19.122  24.111  1.00  0.00     0.023 A 
ATOM     22  Cl  UNL A   1      33.051  16.471  23.681  1.00  0.00    -0.084 Cl
BRANCH  15  23
ATOM     23  C   UNL A   1      34.897  22.970  25.547  1.00  0.00     0.284 C 
ATOM     24  O   UNL A   1      34.739  23.255  26.740  1.00  0.00    -0.266 OA
BRANCH  23  25
ATOM     25  C   UNL A   1      34.551  23.964  24.538  1.00  0.00     0.167 A 
ATOM     26  C   UNL A   1      34.574  23.855  23.163  1.00  0.00     0.231 A 
ATOM     27  N   UNL A   1      33.986  25.191  24.865  1.00  0.00    -0.211 NA
ATOM     28  O   UNL A   1      34.058  24.999  22.627  1.00  0.00    -0.451 OA
ATOM     29  C   UNL A   1      33.714  25.744  23.710  1.00  0.00     0.308 A 
ENDBRANCH  23  25
ENDBRANCH  15  23
ENDBRANCH   7   9
ENDBRANCH   4   7
ENDBRANCH   2   3
ENDBRANCH   1   2
BRANCH   1  30
ATOM     30  C   UNL A   1      45.337  23.828  26.478  1.00  0.00     0.023 C 
BRANCH  30  31
ATOM     31  C   UNL A   1      44.513  25.082  26.732  1.00  0.00     0.116 C 
BRANCH  31  32
ATOM     32  N   UNL A   1      43.493  25.295  25.721  1.00  0.00    -0.352 N 
ATOM     33  C   UNL A   1      42.328  26.013  25.808  1.00  0.00     0.251 C 
ATOM     34  H   UNL A   1      43.661  24.864  24.852  1.00  0.00     0.163 HD
ATOM     35  O   UNL A   1      41.515  25.964  24.890  1.00  0.00    -0.269 OA
BRANCH  33  36
ATOM     36  C   UNL A   1      42.045  26.820  27.015  1.00  0.00     0.039 A 
ATOM     37  C   UNL A   1      41.227  26.274  28.007  1.00  0.00     0.014 A 
ATOM     38  C   UNL A   1      42.558  28.113  27.161  1.00  0.00     0.014 A 
ATOM     39  C   UNL A   1      40.946  27.014  29.157  1.00  0.00     0.010 A 
ATOM     40  C   UNL A   1      42.341  28.818  28.341  1.00  0.00     0.010 A 
ATOM     41  C   UNL A   1      41.511  28.287  29.339  1.00  0.00    -0.014 A 
BRANCH  41  42
ATOM     42  C   UNL A   1      41.191  29.095  30.542  1.00  0.00     0.031 A 
ATOM     43  C   UNL A   1      42.022  28.942  31.789  1.00  0.00     0.074 A 
ATOM     44  C   UNL A   1      40.141  29.938  30.524  1.00  0.00     0.049 A 
ATOM     45  N   UNL A   1      41.902  29.549  32.941  1.00  0.00    -0.248 NA
ATOM     46  C   UNL A   1      43.114  27.956  31.745  1.00  0.00     0.031 C 
ATOM     47  C   UNL A   1      39.229  30.130  29.393  1.00  0.00     0.029 A 
ATOM     48  N   UNL A   1      39.663  30.792  31.485  1.00  0.00    -0.354 N 
ATOM     49  C   UNL A   1      42.885  29.006  33.761  1.00  0.00     0.074 A 
ATOM     50  C   UNL A   1      43.557  27.983  32.992  1.00  0.00     0.031 C 
ATOM     51  C   UNL A   1      38.323  31.068  29.716  1.00  0.00     0.029 A 
ATOM     52  C   UNL A   1      38.573  31.525  31.079  1.00  0.00     0.049 A 
ATOM     53  H   UNL A   1      40.062  30.872  32.381  1.00  0.00     0.167 HD
ATOM     54  C   UNL A   1      43.217  29.348  35.029  1.00  0.00     0.037 A 
ATOM     55  C   UNL A   1      37.864  32.467  31.732  1.00  0.00     0.037 A 
ATOM     56  C   UNL A   1      42.570  30.397  35.773  1.00  0.00     0.049 A 
ATOM     57  C   UNL A   1      38.280  32.861  33.123  1.00  0.00     0.074 A 
ATOM     58  C   UNL A   1      42.869  30.865  37.039  1.00  0.00     0.029 A 
ATOM     59  N   UNL A   1      41.496  31.144  35.312  1.00  0.00    -0.354 N 
ATOM     60  N   UNL A   1      39.256  32.384  33.860  1.00  0.00    -0.248 NA
ATOM     61  C   UNL A   1      37.509  33.933  33.766  1.00  0.00     0.031 C 
ATOM     62  C   UNL A   1      41.956  31.876  37.357  1.00  0.00     0.029 A 
ATOM     63  C   UNL A   1      41.115  32.066  36.272  1.00  0.00     0.049 A 
ATOM     64  H   UNL A   1      41.068  31.034  34.432  1.00  0.00     0.167 HD
ATOM     65  C   UNL A   1      39.241  33.125  35.036  1.00  0.00     0.074 A 
ATOM     66  C   UNL A   1      38.162  34.084  34.911  1.00  0.00     0.031 C 
ATOM     67  C   UNL A   1      40.050  33.025  36.121  1.00  0.00     0.037 A 
BRANCH  54  68
ATOM     68  C   UNL A   1      44.334  28.583  35.684  1.00  0.00     0.058 A 
ATOM     69  C   UNL A   1      44.085  27.464  36.497  1.00  0.00     0.135 A 
ATOM     70  C   UNL A   1      45.672  28.961  35.485  1.00  0.00     0.135 A 
ATOM     71  F   UNL A   1      42.825  27.068  36.735  1.00  0.00    -0.206 F 
ATOM     72  C   UNL A   1      45.120  26.769  37.115  1.00  0.00     0.059 A 
ATOM     73  C   UNL A   1      46.724  28.263  36.071  1.00  0.00     0.059 A 
ATOM     74  F   UNL A   1      45.967  30.023  34.719  1.00  0.00    -0.206 F 
ATOM     75  C   UNL A   1      46.436  27.178  36.899  1.00  0.00     0.060 A 
BRANCH  75  76
ATOM     76  S   UNL A   1      47.767  26.269  37.712  1.00  0.00     0.124 S 
ATOM     77  O   UNL A   1      47.231  24.912  37.718  1.00  0.00    -0.237 OA
ATOM     78  O   UNL A   1      48.897  26.499  36.817  1.00  0.00    -0.237 OA
ATOM     79  O   UNL A   1      47.867  26.912  39.019  1.00  0.00    -0.744 OA
ENDBRANCH  75  76
ENDBRANCH  54  68
BRANCH  55  80
ATOM     80  C   UNL A   1      36.727  33.144  31.054  1.00  0.00     0.058 A 
ATOM     81  C   UNL A   1      36.952  34.064  30.019  1.00  0.00     0.135 A 
ATOM     82  C   UNL A   1      35.398  32.881  31.418  1.00  0.00     0.135 A 
ATOM     83  F   UNL A   1      38.206  34.351  29.639  1.00  0.00    -0.206 F 
ATOM     84  C   UNL A   1      35.902  34.717  29.383  1.00  0.00     0.059 A 
ATOM     85  C   UNL A   1      34.330  33.502  30.779  1.00  0.00     0.059 A 
ATOM     86  F   UNL A   1      35.129  31.993  32.388  1.00  0.00    -0.206 F 
ATOM     87  C   UNL A   1      34.593  34.429  29.770  1.00  0.00     0.060 A 
BRANCH  87  88
ATOM     88  S   UNL A   1      33.234  35.249  28.908  1.00  0.00     0.124 S 
ATOM     89  O   UNL A   1      33.946  36.257  28.130  1.00  0.00    -0.237 OA
ATOM     90  O   UNL A   1      32.647  34.152  28.145  1.00  0.00    -0.237 OA
ATOM     91  O   UNL A   1      32.405  35.757  29.996  1.00  0.00    -0.744 OA
ENDBRANCH  87  88
ENDBRANCH  55  80
BRANCH  67  92
ATOM     92  C   UNL A   1      39.835  34.013  37.232  1.00  0.00     0.058 A 
ATOM     93  C   UNL A   1      39.049  33.711  38.354  1.00  0.00     0.135 A 
ATOM     94  C   UNL A   1      40.455  35.274  37.184  1.00  0.00     0.135 A 
ATOM     95  F   UNL A   1      38.434  32.522  38.447  1.00  0.00    -0.206 F 
ATOM     96  C   UNL A   1      38.854  34.637  39.374  1.00  0.00     0.059 A 
ATOM     97  C   UNL A   1      40.295  36.203  38.205  1.00  0.00     0.059 A 
ATOM     98  F   UNL A   1      41.228  35.608  36.139  1.00  0.00    -0.206 F 
ATOM     99  C   UNL A   1      39.479  35.883  39.288  1.00  0.00     0.060 A 
BRANCH  99 100
ATOM    100  S   UNL A   1      39.228  37.074  40.621  1.00  0.00     0.124 S 
ATOM    101  O   UNL A   1      40.589  37.545  40.853  1.00  0.00    -0.237 OA
ATOM    102  O   UNL A   1      38.318  38.040  40.013  1.00  0.00    -0.237 OA
ATOM    103  O   UNL A   1      38.651  36.268  41.692  1.00  0.00    -0.744 OA
ENDBRANCH  99 100
ENDBRANCH  67  92
ENDBRANCH  41  42
ENDBRANCH  33  36
ENDBRANCH  31  32
ENDBRANCH  30  31
ENDBRANCH   1  30
TORSDOF 17
ENDMDL
MODEL 2
REMARK VINA RESULT:     -11.9      3.097      5.952
REMARK SMILES C[C@@H](C(=O)NCCCCNC(=O)c1ccc(-c2c3nc(c(-c4c(F)cc(S(=O)(=O)[O-])cc4F)c4ccc([nH]4)c(-c4c(F)cc(S(=O)(=O)[O-])cc4F)c4nc(c(-c5c(F)cc(S(=O)(=O)[O-])cc5F)c5ccc2[nH]5)C=C4)C=C3)cc1)c1ccc2c3cc(Cl)ccc3n(C(=O)c3cocn3)c2c1
REMARK SMILES IDX 7 1 6 2 5 3 3 4 4 5 2 7 1 8 79 9 80 10 99 11 81 12 98 13
REMARK SMILES IDX 82 14 90 15 83 16 89 17 84 18 88 19 85 20 87 21 86 22 91 23
REMARK SMILES IDX 92 24 93 25 94 26 97 27 95 28 96 29 8 30 9 31 10 32 11 33
REMARK SMILES IDX 12 35 13 36 14 37 78 38 15 39 77 40 16 41 17 42 18 43 71 44
REMARK SMILES IDX 19 45 76 46 70 47 72 48 20 49 75 50 69 51 68 52 21 54 55 55
REMARK SMILES IDX 34 56 54 57 35 58 38 59 53 60 73 61 36 62 37 63 52 65 74 66
REMARK SMILES IDX 39 67 22 68 23 69 32 70 24 71 25 72 31 73 33 74 26 75 27 76
REMARK SMILES IDX 28 77 29 78 30 79 56 80 57 81 66 82 58 83 59 84 65 85 67 86
REMARK SMILES IDX 60 87 61 88 62 89 63 90 64 91 40 92 41 93 50 94 42 95 43 96
REMARK SMILES IDX 49 97 51 98 44 99 45 100 46 101 47 102 48 103
REMARK H PARENT 5 6 10 34 72 53 38 64
REMARK Flexibility Score: inf
ROOT
ATOM      1  C   UNL A   1      39.343  21.879  26.651  1.00  0.00     0.023 C 
ENDROOT
BRANCH   1   2
ATOM      2  C   UNL A   1      39.634  20.727  25.685  1.00  0.00     0.116 C 
BRANCH   2   3
ATOM      3  N   UNL A   1      40.557  19.779  26.273  1.00  0.00    -0.356 N 
ATOM      4  C   UNL A   1      41.921  19.788  26.298  1.00  0.00     0.227 C 
ATOM      5  O   UNL A   1      42.472  18.781  26.747  1.00  0.00    -0.274 OA
ATOM      6  H   UNL A   1      40.135  19.011  26.722  1.00  0.00     0.163 HD
BRANCH   4   7
ATOM      7  C   UNL A   1      42.687  21.032  25.820  1.00  0.00     0.105 C 
ATOM      8  C   UNL A   1      43.919  20.703  24.971  1.00  0.00     0.023 C 
BRANCH   7   9
ATOM      9  C   UNL A   1      43.135  21.934  26.967  1.00  0.00    -0.034 A 
ATOM     10  C   UNL A   1      42.538  21.845  28.228  1.00  0.00     0.005 A 
ATOM     11  C   UNL A   1      44.204  22.821  26.768  1.00  0.00     0.032 A 
ATOM     12  C   UNL A   1      43.026  22.583  29.304  1.00  0.00     0.011 A 
ATOM     13  C   UNL A   1      44.673  23.595  27.850  1.00  0.00     0.058 A 
ATOM     14  C   UNL A   1      44.122  23.450  29.120  1.00  0.00     0.008 A 
ATOM     15  N   UNL A   1      45.705  24.544  27.922  1.00  0.00    -0.274 N 
ATOM     16  C   UNL A   1      44.846  24.293  30.002  1.00  0.00     0.009 A 
ATOM     17  C   UNL A   1      45.777  25.014  29.244  1.00  0.00     0.057 A 
ATOM     18  C   UNL A   1      44.738  24.521  31.391  1.00  0.00     0.031 A 
ATOM     19  C   UNL A   1      46.520  26.051  29.844  1.00  0.00     0.029 A 
ATOM     20  C   UNL A   1      45.527  25.499  31.988  1.00  0.00     0.041 A 
ATOM     21  C   UNL A   1      46.391  26.268  31.223  1.00  0.00     0.023 A 
ATOM     22  Cl  UNL A   1      45.396  25.777  33.681  1.00  0.00    -0.084 Cl
BRANCH  15  23
ATOM     23  C   UNL A   1      46.494  24.947  26.808  1.00  0.00     0.284 C 
ATOM     24  O   UNL A   1      47.336  24.127  26.420  1.00  0.00    -0.266 OA
BRANCH  23  25
ATOM     25  C   UNL A   1      46.417  26.241  26.142  1.00  0.00     0.167 A 
ATOM     26  C   UNL A   1      45.724  26.595  25.003  1.00  0.00     0.231 A 
ATOM     27  N   UNL A   1      46.968  27.394  26.690  1.00  0.00    -0.211 NA
ATOM     28  O   UNL A   1      45.853  27.941  24.816  1.00  0.00    -0.451 OA
ATOM     29  C   UNL A   1      46.598  28.351  25.876  1.00  0.00     0.308 A 
ENDBRANCH  23  25
ENDBRANCH  15  23
ENDBRANCH   7   9
ENDBRANCH   4   7
ENDBRANCH   2   3
ENDBRANCH   1   2
BRANCH   1  30
ATOM     30  C   UNL A   1      38.510  23.018  26.056  1.00  0.00     0.023 C 
BRANCH  30  31
ATOM     31  C   UNL A   1      39.098  24.409  26.240  1.00  0.00     0.116 C 
BRANCH  31  32
ATOM     32  N   UNL A   1      40.483  24.491  25.812  1.00  0.00    -0.352 N 
ATOM     33  C   UNL A   1      41.472  25.337  26.246  1.00  0.00     0.251 C 
ATOM     34  H   UNL A   1      40.750  23.851  25.113  1.00  0.00     0.163 HD
ATOM     35  O   UNL A   1      42.552  25.355  25.664  1.00  0.00    -0.269 OA
BRANCH  33  36
ATOM     36  C   UNL A   1      41.225  26.238  27.392  1.00  0.00     0.039 A 
ATOM     37  C   UNL A   1      41.856  27.485  27.410  1.00  0.00     0.014 A 
ATOM     38  C   UNL A   1      40.399  25.855  28.453  1.00  0.00     0.014 A 
ATOM     39  C   UNL A   1      41.637  28.356  28.478  1.00  0.00     0.010 A 
ATOM     40  C   UNL A   1      40.121  26.754  29.478  1.00  0.00     0.010 A 
ATOM     41  C   UNL A   1      40.758  28.002  29.516  1.00  0.00    -0.014 A 
BRANCH  41  42
ATOM     42  C   UNL A   1      40.546  28.906  30.673  1.00  0.00     0.031 A 
ATOM     43  C   UNL A   1      41.405  28.764  31.902  1.00  0.00     0.074 A 
ATOM     44  C   UNL A   1      39.566  29.829  30.632  1.00  0.00     0.049 A 
ATOM     45  N   UNL A   1      41.374  29.448  33.016  1.00  0.00    -0.248 NA
ATOM     46  C   UNL A   1      42.414  27.691  31.888  1.00  0.00     0.031 C 
ATOM     47  C   UNL A   1      38.633  30.025  29.519  1.00  0.00     0.029 A 
ATOM     48  N   UNL A   1      39.191  30.777  31.550  1.00  0.00    -0.354 N 
ATOM     49  C   UNL A   1      42.339  28.879  33.839  1.00  0.00     0.074 A 
ATOM     50  C   UNL A   1      42.901  27.759  33.117  1.00  0.00     0.031 C 
ATOM     51  C   UNL A   1      37.816  31.051  29.808  1.00  0.00     0.029 A 
ATOM     52  C   UNL A   1      38.149  31.570  31.131  1.00  0.00     0.049 A 
ATOM     53  H   UNL A   1      39.627  30.879  32.426  1.00  0.00     0.167 HD
ATOM     54  C   UNL A   1      42.742  29.271  35.071  1.00  0.00     0.037 A 
ATOM     55  C   UNL A   1      37.541  32.605  31.742  1.00  0.00     0.037 A 
ATOM     56  C   UNL A   1      42.207  30.413  35.765  1.00  0.00     0.049 A 
ATOM     57  C   UNL A   1      38.035  33.049  33.092  1.00  0.00     0.074 A 
ATOM     58  C   UNL A   1      42.587  30.933  36.988  1.00  0.00     0.029 A 
ATOM     59  N   UNL A   1      41.180  31.215  35.290  1.00  0.00    -0.354 N 
ATOM     60  N   UNL A   1      38.996  32.541  33.828  1.00  0.00    -0.248 NA
ATOM     61  C   UNL A   1      37.375  34.218  33.687  1.00  0.00     0.031 C 
ATOM     62  C   UNL A   1      41.768  32.033  37.269  1.00  0.00     0.029 A 
ATOM     63  C   UNL A   1      40.907  32.223  36.199  1.00  0.00     0.049 A 
ATOM     64  H   UNL A   1      40.714  31.087  34.432  1.00  0.00     0.167 HD
ATOM     65  C   UNL A   1      39.081  33.352  34.954  1.00  0.00     0.074 A 
ATOM     66  C   UNL A   1      38.078  34.386  34.800  1.00  0.00     0.031 C 
ATOM     67  C   UNL A   1      39.917  33.254  36.018  1.00  0.00     0.037 A 
BRANCH  54  68
ATOM     68  C   UNL A   1      43.817  28.460  35.741  1.00  0.00     0.058 A 
ATOM     69  C   UNL A   1      45.176  28.800  35.631  1.00  0.00     0.135 A 
ATOM     70  C   UNL A   1      43.486  27.338  36.517  1.00  0.00     0.135 A 
ATOM     71  F   UNL A   1      45.551  29.854  34.888  1.00  0.00    -0.206 F 
ATOM     72  C   UNL A   1      46.169  28.038  36.237  1.00  0.00     0.059 A 
ATOM     73  C   UNL A   1      44.462  26.577  37.157  1.00  0.00     0.059 A 
ATOM     74  F   UNL A   1      42.204  26.966  36.656  1.00  0.00    -0.206 F 
ATOM     75  C   UNL A   1      45.802  26.926  36.996  1.00  0.00     0.060 A 
BRANCH  75  76
ATOM     76  S   UNL A   1      47.102  25.945  37.774  1.00  0.00     0.124 S 
ATOM     77  O   UNL A   1      47.916  26.982  38.398  1.00  0.00    -0.237 OA
ATOM     78  O   UNL A   1      46.348  25.094  38.689  1.00  0.00    -0.237 OA
ATOM     79  O   UNL A   1      47.723  25.252  36.648  1.00  0.00    -0.744 OA
ENDBRANCH  75  76
ENDBRANCH  54  68
BRANCH  55  80
ATOM     80  C   UNL A   1      36.438  33.329  31.057  1.00  0.00     0.058 A 
ATOM     81  C   UNL A   1      35.117  33.231  31.521  1.00  0.00     0.135 A 
ATOM     82  C   UNL A   1      36.678  34.135  29.935  1.00  0.00     0.135 A 
ATOM     83  F   UNL A   1      34.837  32.469  32.588  1.00  0.00    -0.206 F 
ATOM     84  C   UNL A   1      34.071  33.890  30.886  1.00  0.00     0.059 A 
ATOM     85  C   UNL A   1      35.652  34.824  29.297  1.00  0.00     0.059 A 
ATOM     86  F   UNL A   1      37.927  34.277  29.464  1.00  0.00    -0.206 F 
ATOM     87  C   UNL A   1      34.348  34.685  29.773  1.00  0.00     0.060 A 
BRANCH  87  88
ATOM     88  S   UNL A   1      32.988  35.572  28.980  1.00  0.00     0.124 S 
ATOM     89  O   UNL A   1      33.689  36.693  28.364  1.00  0.00    -0.237 OA
ATOM     90  O   UNL A   1      32.460  34.567  28.063  1.00  0.00    -0.237 OA
ATOM     91  O   UNL A   1      32.113  35.910  30.098  1.00  0.00    -0.744 OA
ENDBRANCH  87  88
ENDBRANCH  55  80
BRANCH  67  92
ATOM     92  C   UNL A   1      39.821  34.324  37.069  1.00  0.00     0.058 A 
ATOM     93  C   UNL A   1      39.095  34.137  38.255  1.00  0.00     0.135 A 
ATOM     94  C   UNL A   1      40.494  35.545  36.896  1.00  0.00     0.135 A 
ATOM     95  F   UNL A   1      38.432  32.990  38.467  1.00  0.00    -0.206 F 
ATOM     96  C   UNL A   1      39.009  35.137  39.219  1.00  0.00     0.059 A 
ATOM     97  C   UNL A   1      40.444  36.547  37.858  1.00  0.00     0.059 A 
ATOM     98  F   UNL A   1      41.214  35.769  35.786  1.00  0.00    -0.206 F 
ATOM     99  C   UNL A   1      39.685  36.341  39.009  1.00  0.00     0.060 A 
BRANCH  99 100
ATOM    100  S   UNL A   1      39.576  37.629  40.268  1.00  0.00     0.124 S 
ATOM    101  O   UNL A   1      40.971  38.042  40.386  1.00  0.00    -0.237 OA
ATOM    102  O   UNL A   1      38.678  38.600  39.650  1.00  0.00    -0.237 OA
ATOM    103  O   UNL A   1      39.029  36.927  41.424  1.00  0.00    -0.744 OA
ENDBRANCH  99 100
ENDBRANCH  67  92
ENDBRANCH  41  42
ENDBRANCH  33  36
ENDBRANCH  31  32
ENDBRANCH  30  31
ENDBRANCH   1  30
TORSDOF 17
ENDMDL
MODEL 3
REMARK VINA RESULT:     -11.7      4.674      8.814
REMARK SMILES C[C@@H](C(=O)NCCCCNC(=O)c1ccc(-c2c3nc(c(-c4c(F)cc(S(=O)(=O)[O-])cc4F)c4ccc([nH]4)c(-c4c(F)cc(S(=O)(=O)[O-])cc4F)c4nc(c(-c5c(F)cc(S(=O)(=O)[O-])cc5F)c5ccc2[nH]5)C=C4)C=C3)cc1)c1ccc2c3cc(Cl)ccc3n(C(=O)c3cocn3)c2c1
REMARK SMILES IDX 7 1 6 2 5 3 3 4 4 5 2 7 1 8 79 9 80 10 99 11 81 12 98 13
REMARK SMILES IDX 82 14 90 15 83 16 89 17 84 18 88 19 85 20 87 21 86 22 91 23
REMARK SMILES IDX 92 24 93 25 94 26 97 27 95 28 96 29 8 30 9 31 10 32 11 33
REMARK SMILES IDX 12 35 13 36 14 37 78 38 15 39 77 40 16 41 17 42 18 43 71 44
REMARK SMILES IDX 19 45 76 46 70 47 72 48 20 49 75 50 69 51 68 52 21 54 55 55
REMARK SMILES IDX 34 56 54 57 35 58 38 59 53 60 73 61 36 62 37 63 52 65 74 66
REMARK SMILES IDX 39 67 22 68 23 69 32 70 24 71 25 72 31 73 33 74 26 75 27 76
REMARK SMILES IDX 28 77 29 78 30 79 56 80 57 81 66 82 58 83 59 84 65 85 67 86
REMARK SMILES IDX 60 87 61 88 62 89 63 90 64 91 40 92 41 93 50 94 42 95 43 96
REMARK SMILES IDX 49 97 51 98 44 99 45 100 46 101 47 102 48 103
REMARK H PARENT 5 6 10 34 72 53 38 64
REMARK Flexibility Score: inf
ROOT
ATOM      1  C   UNL A   1      44.557  24.902  29.675  1.00  0.00     0.023 C 
ENDROOT
BRANCH   1   2
ATOM      2  C   UNL A   1      44.505  24.107  30.982  1.00  0.00     0.116 C 
BRANCH   2   3
ATOM      3  N   UNL A   1      45.227  24.791  32.034  1.00  0.00    -0.356 N 
ATOM      4  C   UNL A   1      45.321  24.496  33.364  1.00  0.00     0.227 C 
ATOM      5  O   UNL A   1      45.891  25.327  34.074  1.00  0.00    -0.274 OA
ATOM      6  H   UNL A   1      45.725  25.589  31.746  1.00  0.00     0.163 HD
BRANCH   4   7
ATOM      7  C   UNL A   1      44.766  23.164  33.893  1.00  0.00     0.105 C 
ATOM      8  C   UNL A   1      43.386  23.293  34.546  1.00  0.00     0.023 C 
BRANCH   7   9
ATOM      9  C   UNL A   1      45.697  22.486  34.895  1.00  0.00    -0.034 A 
ATOM     10  C   UNL A   1      45.308  22.294  36.223  1.00  0.00     0.005 A 
ATOM     11  C   UNL A   1      46.936  21.994  34.458  1.00  0.00     0.032 A 
ATOM     12  C   UNL A   1      46.107  21.571  37.106  1.00  0.00     0.011 A 
ATOM     13  C   UNL A   1      47.762  21.295  35.363  1.00  0.00     0.058 A 
ATOM     14  C   UNL A   1      47.338  21.044  36.665  1.00  0.00     0.008 A 
ATOM     15  N   UNL A   1      49.028  20.713  35.191  1.00  0.00    -0.274 N 
ATOM     16  C   UNL A   1      48.337  20.263  37.300  1.00  0.00     0.009 A 
ATOM     17  C   UNL A   1      49.406  20.118  36.407  1.00  0.00     0.057 A 
ATOM     18  C   UNL A   1      48.419  19.706  38.595  1.00  0.00     0.031 A 
ATOM     19  C   UNL A   1      50.609  19.523  36.839  1.00  0.00     0.029 A 
ATOM     20  C   UNL A   1      49.585  19.059  38.990  1.00  0.00     0.041 A 
ATOM     21  C   UNL A   1      50.674  18.985  38.133  1.00  0.00     0.023 A 
ATOM     22  Cl  UNL A   1      49.685  18.380  40.568  1.00  0.00    -0.084 Cl
BRANCH  15  23
ATOM     23  C   UNL A   1      49.770  20.769  33.979  1.00  0.00     0.284 C 
ATOM     24  O   UNL A   1      49.397  20.003  33.082  1.00  0.00    -0.266 OA
BRANCH  23  25
ATOM     25  C   UNL A   1      50.940  21.606  33.742  1.00  0.00     0.167 A 
ATOM     26  C   UNL A   1      51.592  22.458  34.610  1.00  0.00     0.231 A 
ATOM     27  N   UNL A   1      51.674  21.543  32.564  1.00  0.00    -0.211 NA
ATOM     28  O   UNL A   1      52.704  22.946  33.988  1.00  0.00    -0.451 OA
ATOM     29  C   UNL A   1      52.693  22.339  32.771  1.00  0.00     0.308 A 
ENDBRANCH  23  25
ENDBRANCH  15  23
ENDBRANCH   7   9
ENDBRANCH   4   7
ENDBRANCH   2   3
ENDBRANCH   1   2
BRANCH   1  30
ATOM     30  C   UNL A   1      44.227  24.091  28.419  1.00  0.00     0.023 C 
BRANCH  30  31
ATOM     31  C   UNL A   1      44.737  24.689  27.115  1.00  0.00     0.116 C 
BRANCH  31  32
ATOM     32  N   UNL A   1      43.711  24.753  26.091  1.00  0.00    -0.352 N 
ATOM     33  C   UNL A   1      42.493  25.383  26.126  1.00  0.00     0.251 C 
ATOM     34  H   UNL A   1      43.917  24.277  25.254  1.00  0.00     0.163 HD
ATOM     35  O   UNL A   1      41.693  25.207  25.213  1.00  0.00    -0.269 OA
BRANCH  33  36
ATOM     36  C   UNL A   1      42.140  26.247  27.273  1.00  0.00     0.039 A 
ATOM     37  C   UNL A   1      42.801  27.471  27.416  1.00  0.00     0.014 A 
ATOM     38  C   UNL A   1      41.186  25.851  28.215  1.00  0.00     0.014 A 
ATOM     39  C   UNL A   1      42.485  28.307  28.488  1.00  0.00     0.010 A 
ATOM     40  C   UNL A   1      40.817  26.719  29.239  1.00  0.00     0.010 A 
ATOM     41  C   UNL A   1      41.481  27.943  29.402  1.00  0.00    -0.014 A 
BRANCH  41  42
ATOM     42  C   UNL A   1      41.162  28.809  30.564  1.00  0.00     0.031 A 
ATOM     43  C   UNL A   1      41.970  28.691  31.829  1.00  0.00     0.074 A 
ATOM     44  C   UNL A   1      40.132  29.673  30.493  1.00  0.00     0.049 A 
ATOM     45  N   UNL A   1      41.848  29.349  32.952  1.00  0.00    -0.248 NA
ATOM     46  C   UNL A   1      43.041  27.680  31.844  1.00  0.00     0.031 C 
ATOM     47  C   UNL A   1      39.242  29.837  29.341  1.00  0.00     0.029 A 
ATOM     48  N   UNL A   1      39.660  30.578  31.409  1.00  0.00    -0.354 N 
ATOM     49  C   UNL A   1      42.806  28.820  33.810  1.00  0.00     0.074 A 
ATOM     50  C   UNL A   1      43.466  27.750  33.096  1.00  0.00     0.031 C 
ATOM     51  C   UNL A   1      38.352  30.808  29.609  1.00  0.00     0.029 A 
ATOM     52  C   UNL A   1      38.593  31.317  30.955  1.00  0.00     0.049 A 
ATOM     53  H   UNL A   1      40.047  30.687  32.307  1.00  0.00     0.167 HD
ATOM     54  C   UNL A   1      43.127  29.209  35.067  1.00  0.00     0.037 A 
ATOM     55  C   UNL A   1      37.897  32.302  31.556  1.00  0.00     0.037 A 
ATOM     56  C   UNL A   1      42.493  30.303  35.755  1.00  0.00     0.049 A 
ATOM     57  C   UNL A   1      38.301  32.746  32.936  1.00  0.00     0.074 A 
ATOM     58  C   UNL A   1      42.785  30.819  37.005  1.00  0.00     0.029 A 
ATOM     59  N   UNL A   1      41.444  31.054  35.246  1.00  0.00    -0.354 N 
ATOM     60  N   UNL A   1      39.255  32.280  33.707  1.00  0.00    -0.248 NA
ATOM     61  C   UNL A   1      37.545  33.862  33.520  1.00  0.00     0.031 C 
ATOM     62  C   UNL A   1      41.890  31.863  37.266  1.00  0.00     0.029 A 
ATOM     63  C   UNL A   1      41.070  32.024  36.160  1.00  0.00     0.049 A 
ATOM     64  H   UNL A   1      41.026  30.916  34.365  1.00  0.00     0.167 HD
ATOM     65  C   UNL A   1      39.239  33.071  34.851  1.00  0.00     0.074 A 
ATOM     66  C   UNL A   1      38.184  34.047  34.667  1.00  0.00     0.031 C 
ATOM     67  C   UNL A   1      40.029  32.999  35.951  1.00  0.00     0.037 A 
BRANCH  54  68
ATOM     68  C   UNL A   1      44.216  28.449  35.772  1.00  0.00     0.058 A 
ATOM     69  C   UNL A   1      43.936  27.326  36.569  1.00  0.00     0.135 A 
ATOM     70  C   UNL A   1      45.560  28.834  35.637  1.00  0.00     0.135 A 
ATOM     71  F   UNL A   1      42.668  26.922  36.747  1.00  0.00    -0.206 F 
ATOM     72  C   UNL A   1      44.945  26.635  37.234  1.00  0.00     0.059 A 
ATOM     73  C   UNL A   1      46.588  28.140  36.270  1.00  0.00     0.059 A 
ATOM     74  F   UNL A   1      45.885  29.900  34.888  1.00  0.00    -0.206 F 
ATOM     75  C   UNL A   1      46.267  27.052  37.080  1.00  0.00     0.060 A 
BRANCH  75  76
ATOM     76  S   UNL A   1      47.564  26.148  37.952  1.00  0.00     0.124 S 
ATOM     77  O   UNL A   1      48.484  25.837  36.863  1.00  0.00    -0.237 OA
ATOM     78  O   UNL A   1      48.037  27.132  38.920  1.00  0.00    -0.237 OA
ATOM     79  O   UNL A   1      46.856  25.004  38.520  1.00  0.00    -0.744 OA
ENDBRANCH  75  76
ENDBRANCH  54  68
BRANCH  55  80
ATOM     80  C   UNL A   1      36.785  32.974  30.832  1.00  0.00     0.058 A 
ATOM     81  C   UNL A   1      35.448  32.664  31.122  1.00  0.00     0.135 A 
ATOM     82  C   UNL A   1      37.033  33.941  29.847  1.00  0.00     0.135 A 
ATOM     83  F   UNL A   1      35.160  31.743  32.054  1.00  0.00    -0.206 F 
ATOM     84  C   UNL A   1      34.396  33.272  30.447  1.00  0.00     0.059 A 
ATOM     85  C   UNL A   1      35.997  34.582  29.175  1.00  0.00     0.059 A 
ATOM     86  F   UNL A   1      38.295  34.288  29.548  1.00  0.00    -0.206 F 
ATOM     87  C   UNL A   1      34.680  34.231  29.474  1.00  0.00     0.060 A 
BRANCH  87  88
ATOM     88  S   UNL A   1      33.306  35.047  28.633  1.00  0.00     0.124 S 
ATOM     89  O   UNL A   1      32.541  35.570  29.760  1.00  0.00    -0.237 OA
ATOM     90  O   UNL A   1      33.993  36.040  27.813  1.00  0.00    -0.237 OA
ATOM     91  O   UNL A   1      32.676  33.961  27.890  1.00  0.00    -0.744 OA
ENDBRANCH  87  88
ENDBRANCH  55  80
BRANCH  67  92
ATOM     92  C   UNL A   1      39.821  34.039  37.016  1.00  0.00     0.058 A 
ATOM     93  C   UNL A   1      39.067  33.780  38.170  1.00  0.00     0.135 A 
ATOM     94  C   UNL A   1      40.414  35.306  36.889  1.00  0.00     0.135 A 
ATOM     95  F   UNL A   1      38.477  32.586  38.338  1.00  0.00    -0.206 F 
ATOM     96  C   UNL A   1      38.877  34.753  39.146  1.00  0.00     0.059 A 
ATOM     97  C   UNL A   1      40.260  36.284  37.865  1.00  0.00     0.059 A 
ATOM     98  F   UNL A   1      41.157  35.601  35.811  1.00  0.00    -0.206 F 
ATOM     99  C   UNL A   1      39.476  36.004  38.982  1.00  0.00     0.060 A 
BRANCH  99 100
ATOM    100  S   UNL A   1      39.232  37.257  40.259  1.00  0.00     0.124 S 
ATOM    101  O   UNL A   1      38.489  36.509  41.266  1.00  0.00    -0.237 OA
ATOM    102  O   UNL A   1      40.602  37.614  40.616  1.00  0.00    -0.237 OA
ATOM    103  O   UNL A   1      38.480  38.301  39.570  1.00  0.00    -0.744 OA
ENDBRANCH  99 100
ENDBRANCH  67  92
ENDBRANCH  41  42
ENDBRANCH  33  36
ENDBRANCH  31  32
ENDBRANCH  30  31
ENDBRANCH   1  30
TORSDOF 17
ENDMDL
