MODEL 1
REMARK VINA RESULT:     -11.2      0.000      0.000
REMARK SMILES CC(C)[C@H]([NH2+]C[C@H]1CC[C@@H](C(=O)NCCCCNC(=O)c2ccc(-c3c4nc(c(-c5c(F)cc(S(=O)(=O)[O-])cc5F)c5ccc([nH]5)c(-c5c(F)cc(S(=O)(=O)[O-])cc5F)c5nc(c(-c6c(F)cc(S(=O)(=O)[O-])cc6F)c6ccc3[nH]6)C=C5)C=C4)cc2)CC1)c1ccccc1
REMARK SMILES IDX 15 1 14 2 13 3 11 4 12 5 10 7 7 8 8 9 88 10 9 11 87 12 6 13
REMARK SMILES IDX 5 14 4 17 2 18 1 19 3 20 89 21 90 22 94 23 91 24 93 25 92 26
REMARK SMILES IDX 16 27 17 28 18 29 19 30 20 32 21 33 22 34 86 35 23 36 85 37
REMARK SMILES IDX 24 38 25 39 26 40 79 41 27 42 84 43 78 44 80 45 28 46 83 47
REMARK SMILES IDX 77 48 76 49 29 51 63 52 42 53 62 54 43 55 46 56 61 57 81 58
REMARK SMILES IDX 44 59 45 60 60 62 82 63 47 64 30 65 31 66 40 67 32 68 33 69
REMARK SMILES IDX 39 70 41 71 34 72 35 73 36 74 37 75 38 76 64 77 65 78 74 79
REMARK SMILES IDX 66 80 67 81 73 82 75 83 68 84 69 85 70 86 71 87 72 88 48 89
REMARK SMILES IDX 49 90 58 91 50 92 51 93 57 94 59 95 52 96 53 97 54 98 55 99
REMARK SMILES IDX 56 100
REMARK H PARENT 13 6 5 15 5 16 18 31 80 50 46 61
REMARK Flexibility Score: inf
ROOT
ATOM      1  C   UNL A   1      31.886  29.752  25.687  1.00  0.00     0.023 C 
ENDROOT
BRANCH   1   2
ATOM      2  C   UNL A   1      32.241  29.191  24.312  1.00  0.00     0.116 C 
BRANCH   2   3
ATOM      3  N   UNL A   1      31.338  29.621  23.273  1.00  0.00    -0.356 N 
ATOM      4  C   UNL A   1      30.464  28.948  22.489  1.00  0.00     0.223 C 
ATOM      5  O   UNL A   1      29.763  29.645  21.742  1.00  0.00    -0.275 OA
ATOM      6  H   UNL A   1      31.363  30.590  23.100  1.00  0.00     0.163 HD
BRANCH   4   7
ATOM      7  C   UNL A   1      30.274  27.422  22.475  1.00  0.00     0.078 C 
ATOM      8  C   UNL A   1      31.873  25.500  24.197  1.00  0.00     0.044 C 
ATOM      9  C   UNL A   1      30.689  26.312  24.762  1.00  0.00     0.010 C 
ATOM     10  C   UNL A   1      32.399  25.973  22.825  1.00  0.00     0.010 C 
ATOM     11  C   UNL A   1      29.683  26.810  23.739  1.00  0.00     0.014 C 
ATOM     12  C   UNL A   1      31.388  26.582  21.862  1.00  0.00     0.014 C 
BRANCH   8  13
ATOM     13  C   UNL A   1      33.075  25.457  25.194  1.00  0.00     0.264 C 
BRANCH  13  14
ATOM     14  N   UNL A   1      34.213  24.699  24.681  1.00  0.00    -0.340 N 
ATOM     15  H   UNL A   1      34.162  24.698  23.663  1.00  0.00     0.346 HD
ATOM     16  H   UNL A   1      35.052  25.158  25.037  1.00  0.00     0.346 HD
BRANCH  14  17
ATOM     17  C   UNL A   1      34.272  23.294  25.146  1.00  0.00     0.216 C 
BRANCH  17  18
ATOM     18  C   UNL A   1      33.623  22.290  24.126  1.00  0.00     0.046 C 
ATOM     19  C   UNL A   1      32.164  21.923  24.425  1.00  0.00     0.014 C 
ATOM     20  C   UNL A   1      33.721  22.785  22.677  1.00  0.00     0.014 C 
ENDBRANCH  17  18
BRANCH  17  21
ATOM     21  C   UNL A   1      35.724  22.910  25.458  1.00  0.00     0.009 A 
ATOM     22  C   UNL A   1      36.673  23.858  25.881  1.00  0.00     0.010 A 
ATOM     23  C   UNL A   1      36.162  21.593  25.241  1.00  0.00     0.010 A 
ATOM     24  C   UNL A   1      38.016  23.515  26.038  1.00  0.00     0.001 A 
ATOM     25  C   UNL A   1      37.509  21.253  25.379  1.00  0.00     0.001 A 
ATOM     26  C   UNL A   1      38.437  22.216  25.771  1.00  0.00     0.000 A 
ENDBRANCH  17  21
ENDBRANCH  14  17
ENDBRANCH  13  14
ENDBRANCH   8  13
ENDBRANCH   4   7
ENDBRANCH   2   3
ENDBRANCH   1   2
BRANCH   1  27
ATOM     27  C   UNL A   1      32.056  28.758  26.832  1.00  0.00     0.023 C 
BRANCH  27  28
ATOM     28  C   UNL A   1      33.287  28.991  27.703  1.00  0.00     0.116 C 
BRANCH  28  29
ATOM     29  N   UNL A   1      33.551  30.392  27.998  1.00  0.00    -0.352 N 
ATOM     30  C   UNL A   1      34.725  30.977  28.418  1.00  0.00     0.251 C 
ATOM     31  H   UNL A   1      32.788  31.003  27.883  1.00  0.00     0.163 HD
ATOM     32  O   UNL A   1      34.722  32.157  28.762  1.00  0.00    -0.269 OA
BRANCH  30  33
ATOM     33  C   UNL A   1      35.964  30.171  28.526  1.00  0.00     0.039 A 
ATOM     34  C   UNL A   1      36.797  30.093  27.406  1.00  0.00     0.014 A 
ATOM     35  C   UNL A   1      36.359  29.581  29.729  1.00  0.00     0.014 A 
ATOM     36  C   UNL A   1      38.079  29.562  27.537  1.00  0.00     0.010 A 
ATOM     37  C   UNL A   1      37.673  29.148  29.886  1.00  0.00     0.010 A 
ATOM     38  C   UNL A   1      38.556  29.169  28.800  1.00  0.00    -0.014 A 
BRANCH  38  39
ATOM     39  C   UNL A   1      39.999  28.884  29.000  1.00  0.00     0.031 A 
ATOM     40  C   UNL A   1      40.920  29.918  29.578  1.00  0.00     0.074 A 
ATOM     41  C   UNL A   1      40.482  27.691  28.593  1.00  0.00     0.049 A 
ATOM     42  N   UNL A   1      42.196  29.823  29.847  1.00  0.00    -0.248 NA
ATOM     43  C   UNL A   1      40.345  31.243  29.863  1.00  0.00     0.031 C 
ATOM     44  C   UNL A   1      39.700  26.646  27.922  1.00  0.00     0.029 A 
ATOM     45  N   UNL A   1      41.737  27.146  28.689  1.00  0.00    -0.354 N 
ATOM     46  C   UNL A   1      42.577  31.070  30.329  1.00  0.00     0.074 A 
ATOM     47  C   UNL A   1      41.413  31.924  30.253  1.00  0.00     0.031 C 
ATOM     48  C   UNL A   1      40.477  25.572  27.719  1.00  0.00     0.029 A 
ATOM     49  C   UNL A   1      41.818  25.857  28.214  1.00  0.00     0.049 A 
ATOM     50  H   UNL A   1      42.508  27.633  29.061  1.00  0.00     0.167 HD
ATOM     51  C   UNL A   1      43.779  31.455  30.819  1.00  0.00     0.037 A 
ATOM     52  C   UNL A   1      42.852  24.995  28.198  1.00  0.00     0.037 A 
ATOM     53  C   UNL A   1      44.924  30.586  30.907  1.00  0.00     0.049 A 
ATOM     54  C   UNL A   1      44.162  25.429  28.793  1.00  0.00     0.074 A 
ATOM     55  C   UNL A   1      46.174  30.856  31.436  1.00  0.00     0.029 A 
ATOM     56  N   UNL A   1      44.957  29.275  30.454  1.00  0.00    -0.354 N 
ATOM     57  N   UNL A   1      44.480  26.585  29.327  1.00  0.00    -0.248 NA
ATOM     58  C   UNL A   1      45.248  24.441  28.800  1.00  0.00     0.031 C 
ATOM     59  C   UNL A   1      46.972  29.718  31.274  1.00  0.00     0.029 A 
ATOM     60  C   UNL A   1      46.208  28.725  30.682  1.00  0.00     0.049 A 
ATOM     61  H   UNL A   1      44.202  28.804  30.033  1.00  0.00     0.167 HD
ATOM     62  C   UNL A   1      45.795  26.457  29.752  1.00  0.00     0.074 A 
ATOM     63  C   UNL A   1      46.208  25.105  29.430  1.00  0.00     0.031 C 
ATOM     64  C   UNL A   1      46.592  27.375  30.355  1.00  0.00     0.037 A 
BRANCH  51  65
ATOM     65  C   UNL A   1      43.904  32.870  31.310  1.00  0.00     0.058 A 
ATOM     66  C   UNL A   1      44.245  33.921  30.440  1.00  0.00     0.135 A 
ATOM     67  C   UNL A   1      43.672  33.189  32.658  1.00  0.00     0.135 A 
ATOM     68  F   UNL A   1      44.493  33.671  29.144  1.00  0.00    -0.206 F 
ATOM     69  C   UNL A   1      44.388  35.227  30.895  1.00  0.00     0.059 A 
ATOM     70  C   UNL A   1      43.783  34.495  33.130  1.00  0.00     0.059 A 
ATOM     71  F   UNL A   1      43.344  32.226  33.534  1.00  0.00    -0.206 F 
ATOM     72  C   UNL A   1      44.160  35.503  32.244  1.00  0.00     0.060 A 
BRANCH  72  73
ATOM     73  S   UNL A   1      44.363  37.201  32.821  1.00  0.00     0.124 S 
ATOM     74  O   UNL A   1      43.107  37.418  33.533  1.00  0.00    -0.237 OA
ATOM     75  O   UNL A   1      45.557  37.109  33.658  1.00  0.00    -0.237 OA
ATOM     76  O   UNL A   1      44.524  37.963  31.587  1.00  0.00    -0.744 OA
ENDBRANCH  72  73
ENDBRANCH  51  65
BRANCH  52  77
ATOM     77  C   UNL A   1      42.670  23.623  27.651  1.00  0.00     0.058 A 
ATOM     78  C   UNL A   1      42.790  23.374  26.276  1.00  0.00     0.135 A 
ATOM     79  C   UNL A   1      42.396  22.531  28.490  1.00  0.00     0.135 A 
ATOM     80  F   UNL A   1      43.052  24.385  25.432  1.00  0.00    -0.206 F 
ATOM     81  C   UNL A   1      42.625  22.097  25.747  1.00  0.00     0.059 A 
ATOM     82  C   UNL A   1      42.251  21.242  27.988  1.00  0.00     0.059 A 
ATOM     83  F   UNL A   1      42.295  22.712  29.815  1.00  0.00    -0.206 F 
ATOM     84  C   UNL A   1      42.356  21.036  26.613  1.00  0.00     0.060 A 
BRANCH  84  85
ATOM     85  S   UNL A   1      42.190  19.375  25.923  1.00  0.00     0.124 S 
ATOM     86  O   UNL A   1      42.702  18.552  27.013  1.00  0.00    -0.237 OA
ATOM     87  O   UNL A   1      40.756  19.286  25.674  1.00  0.00    -0.237 OA
ATOM     88  O   UNL A   1      43.024  19.427  24.725  1.00  0.00    -0.744 OA
ENDBRANCH  84  85
ENDBRANCH  52  77
BRANCH  64  89
ATOM     89  C   UNL A   1      47.979  26.933  30.728  1.00  0.00     0.058 A 
ATOM     90  C   UNL A   1      49.077  27.173  29.887  1.00  0.00     0.135 A 
ATOM     91  C   UNL A   1      48.215  26.298  31.956  1.00  0.00     0.135 A 
ATOM     92  F   UNL A   1      48.902  27.772  28.699  1.00  0.00    -0.206 F 
ATOM     93  C   UNL A   1      50.360  26.772  30.242  1.00  0.00     0.059 A 
ATOM     94  C   UNL A   1      49.493  25.912  32.343  1.00  0.00     0.059 A 
ATOM     95  F   UNL A   1      47.199  26.056  32.799  1.00  0.00    -0.206 F 
ATOM     96  C   UNL A   1      50.559  26.141  31.471  1.00  0.00     0.060 A 
BRANCH  96  97
ATOM     97  S   UNL A   1      52.232  25.645  31.932  1.00  0.00     0.124 S 
ATOM     98  O   UNL A   1      52.971  25.940  30.709  1.00  0.00    -0.237 OA
ATOM     99  O   UNL A   1      52.515  26.516  33.069  1.00  0.00    -0.237 OA
ATOM    100  O   UNL A   1      52.089  24.229  32.256  1.00  0.00    -0.744 OA
ENDBRANCH  96  97
ENDBRANCH  64  89
ENDBRANCH  38  39
ENDBRANCH  30  33
ENDBRANCH  28  29
ENDBRANCH  27  28
ENDBRANCH   1  27
TORSDOF 19
ENDMDL
MODEL 2
REMARK VINA RESULT:     -11.0      4.541      5.883
REMARK SMILES CC(C)[C@H]([NH2+]C[C@H]1CC[C@@H](C(=O)NCCCCNC(=O)c2ccc(-c3c4nc(c(-c5c(F)cc(S(=O)(=O)[O-])cc5F)c5ccc([nH]5)c(-c5c(F)cc(S(=O)(=O)[O-])cc5F)c5nc(c(-c6c(F)cc(S(=O)(=O)[O-])cc6F)c6ccc3[nH]6)C=C5)C=C4)cc2)CC1)c1ccccc1
REMARK SMILES IDX 15 1 14 2 13 3 11 4 12 5 10 7 7 8 8 9 88 10 9 11 87 12 6 13
REMARK SMILES IDX 5 14 4 17 2 18 1 19 3 20 89 21 90 22 94 23 91 24 93 25 92 26
REMARK SMILES IDX 16 27 17 28 18 29 19 30 20 32 21 33 22 34 86 35 23 36 85 37
REMARK SMILES IDX 24 38 25 39 26 40 79 41 27 42 84 43 78 44 80 45 28 46 83 47
REMARK SMILES IDX 77 48 76 49 29 51 63 52 42 53 62 54 43 55 46 56 61 57 81 58
REMARK SMILES IDX 44 59 45 60 60 62 82 63 47 64 30 65 31 66 40 67 32 68 33 69
REMARK SMILES IDX 39 70 41 71 34 72 35 73 36 74 37 75 38 76 64 77 65 78 74 79
REMARK SMILES IDX 66 80 67 81 73 82 75 83 68 84 69 85 70 86 71 87 72 88 48 89
REMARK SMILES IDX 49 90 58 91 50 92 51 93 57 94 59 95 52 96 53 97 54 98 55 99
REMARK SMILES IDX 56 100
REMARK H PARENT 13 6 5 15 5 16 18 31 80 50 46 61
REMARK Flexibility Score: inf
ROOT
ATOM      1  C   UNL A   1      33.394  29.288  26.348  1.00  0.00     0.023 C 
ENDROOT
BRANCH   1   2
ATOM      2  C   UNL A   1      32.883  29.336  24.911  1.00  0.00     0.116 C 
BRANCH   2   3
ATOM      3  N   UNL A   1      31.623  28.658  24.734  1.00  0.00    -0.356 N 
ATOM      4  C   UNL A   1      31.311  27.403  24.333  1.00  0.00     0.223 C 
ATOM      5  O   UNL A   1      30.109  27.107  24.376  1.00  0.00    -0.275 OA
ATOM      6  H   UNL A   1      30.838  29.214  24.944  1.00  0.00     0.163 HD
BRANCH   4   7
ATOM      7  C   UNL A   1      32.321  26.344  23.860  1.00  0.00     0.078 C 
ATOM      8  C   UNL A   1      32.112  23.388  24.518  1.00  0.00     0.044 C 
ATOM      9  C   UNL A   1      31.263  24.040  23.406  1.00  0.00     0.010 C 
ATOM     10  C   UNL A   1      32.803  24.376  25.482  1.00  0.00     0.010 C 
ATOM     11  C   UNL A   1      31.807  25.339  22.837  1.00  0.00     0.014 C 
ATOM     12  C   UNL A   1      33.230  25.722  24.913  1.00  0.00     0.014 C 
BRANCH   8  13
ATOM     13  C   UNL A   1      31.277  22.378  25.368  1.00  0.00     0.264 C 
BRANCH  13  14
ATOM     14  N   UNL A   1      32.053  21.220  25.800  1.00  0.00    -0.340 N 
ATOM     15  H   UNL A   1      32.219  21.303  26.803  1.00  0.00     0.346 HD
ATOM     16  H   UNL A   1      31.506  20.394  25.555  1.00  0.00     0.346 HD
BRANCH  14  17
ATOM     17  C   UNL A   1      33.363  21.073  25.123  1.00  0.00     0.216 C 
BRANCH  17  18
ATOM     18  C   UNL A   1      34.574  21.175  26.119  1.00  0.00     0.046 C 
ATOM     19  C   UNL A   1      35.726  22.069  25.641  1.00  0.00     0.014 C 
ATOM     20  C   UNL A   1      34.144  21.631  27.519  1.00  0.00     0.014 C 
ENDBRANCH  17  18
BRANCH  17  21
ATOM     21  C   UNL A   1      33.398  19.756  24.338  1.00  0.00     0.009 A 
ATOM     22  C   UNL A   1      32.416  19.428  23.385  1.00  0.00     0.010 A 
ATOM     23  C   UNL A   1      34.385  18.798  24.622  1.00  0.00     0.010 A 
ATOM     24  C   UNL A   1      32.394  18.175  22.774  1.00  0.00     0.001 A 
ATOM     25  C   UNL A   1      34.352  17.536  24.024  1.00  0.00     0.001 A 
ATOM     26  C   UNL A   1      33.352  17.223  23.105  1.00  0.00     0.000 A 
ENDBRANCH  17  21
ENDBRANCH  14  17
ENDBRANCH  13  14
ENDBRANCH   8  13
ENDBRANCH   4   7
ENDBRANCH   2   3
ENDBRANCH   1   2
BRANCH   1  27
ATOM     27  C   UNL A   1      32.812  30.367  27.257  1.00  0.00     0.023 C 
BRANCH  27  28
ATOM     28  C   UNL A   1      33.772  31.504  27.595  1.00  0.00     0.116 C 
BRANCH  28  29
ATOM     29  N   UNL A   1      33.149  32.820  27.627  1.00  0.00    -0.352 N 
ATOM     30  C   UNL A   1      33.435  33.889  28.447  1.00  0.00     0.251 C 
ATOM     31  H   UNL A   1      32.426  32.965  26.975  1.00  0.00     0.163 HD
ATOM     32  O   UNL A   1      32.703  34.875  28.431  1.00  0.00    -0.269 OA
BRANCH  30  33
ATOM     33  C   UNL A   1      34.573  33.819  29.395  1.00  0.00     0.039 A 
ATOM     34  C   UNL A   1      34.365  33.192  30.626  1.00  0.00     0.014 A 
ATOM     35  C   UNL A   1      35.849  34.269  29.050  1.00  0.00     0.014 A 
ATOM     36  C   UNL A   1      35.457  32.884  31.435  1.00  0.00     0.010 A 
ATOM     37  C   UNL A   1      36.949  33.869  29.805  1.00  0.00     0.010 A 
ATOM     38  C   UNL A   1      36.765  33.141  30.986  1.00  0.00    -0.014 A 
BRANCH  38  39
ATOM     39  C   UNL A   1      37.929  32.556  31.696  1.00  0.00     0.031 A 
ATOM     40  C   UNL A   1      38.382  33.098  33.021  1.00  0.00     0.074 A 
ATOM     41  C   UNL A   1      38.616  31.561  31.097  1.00  0.00     0.049 A 
ATOM     42  N   UNL A   1      39.357  32.685  33.788  1.00  0.00    -0.248 NA
ATOM     43  C   UNL A   1      37.668  34.276  33.541  1.00  0.00     0.031 C 
ATOM     44  C   UNL A   1      38.331  31.022  29.761  1.00  0.00     0.029 A 
ATOM     45  N   UNL A   1      39.684  30.815  31.526  1.00  0.00    -0.354 N 
ATOM     46  C   UNL A   1      39.378  33.550  34.875  1.00  0.00     0.074 A 
ATOM     47  C   UNL A   1      38.361  34.550  34.637  1.00  0.00     0.031 C 
ATOM     48  C   UNL A   1      39.164  30.001  29.508  1.00  0.00     0.029 A 
ATOM     49  C   UNL A   1      40.062  29.829  30.643  1.00  0.00     0.049 A 
ATOM     50  H   UNL A   1      40.139  30.972  32.385  1.00  0.00     0.167 HD
ATOM     51  C   UNL A   1      40.152  33.494  35.984  1.00  0.00     0.037 A 
ATOM     52  C   UNL A   1      41.012  28.881  30.746  1.00  0.00     0.037 A 
ATOM     53  C   UNL A   1      41.148  32.480  36.216  1.00  0.00     0.049 A 
ATOM     54  C   UNL A   1      41.825  28.809  32.007  1.00  0.00     0.074 A 
ATOM     55  C   UNL A   1      41.950  32.296  37.329  1.00  0.00     0.029 A 
ATOM     56  N   UNL A   1      41.474  31.474  35.318  1.00  0.00    -0.354 N 
ATOM     57  N   UNL A   1      41.771  29.583  33.066  1.00  0.00    -0.248 NA
ATOM     58  C   UNL A   1      42.816  27.730  32.098  1.00  0.00     0.031 C 
ATOM     59  C   UNL A   1      42.785  31.198  37.089  1.00  0.00     0.029 A 
ATOM     60  C   UNL A   1      42.473  30.672  35.845  1.00  0.00     0.049 A 
ATOM     61  H   UNL A   1      41.057  31.348  34.436  1.00  0.00     0.167 HD
ATOM     62  C   UNL A   1      42.704  29.071  33.957  1.00  0.00     0.074 A 
ATOM     63  C   UNL A   1      43.296  27.911  33.321  1.00  0.00     0.031 C 
ATOM     64  C   UNL A   1      43.043  29.520  35.192  1.00  0.00     0.037 A 
BRANCH  51  65
ATOM     65  C   UNL A   1      39.938  34.551  37.031  1.00  0.00     0.058 A 
ATOM     66  C   UNL A   1      40.624  35.777  36.986  1.00  0.00     0.135 A 
ATOM     67  C   UNL A   1      39.033  34.349  38.085  1.00  0.00     0.135 A 
ATOM     68  F   UNL A   1      41.514  36.018  36.009  1.00  0.00    -0.206 F 
ATOM     69  C   UNL A   1      40.449  36.748  37.967  1.00  0.00     0.059 A 
ATOM     70  C   UNL A   1      38.822  35.318  39.063  1.00  0.00     0.059 A 
ATOM     71  F   UNL A   1      38.350  33.198  38.179  1.00  0.00    -0.206 F 
ATOM     72  C   UNL A   1      39.549  36.506  39.006  1.00  0.00     0.060 A 
BRANCH  72  73
ATOM     73  S   UNL A   1      39.343  37.769  40.278  1.00  0.00     0.124 S 
ATOM     74  O   UNL A   1      38.250  38.563  39.725  1.00  0.00    -0.237 OA
ATOM     75  O   UNL A   1      39.014  36.976  41.459  1.00  0.00    -0.237 OA
ATOM     76  O   UNL A   1      40.643  38.431  40.314  1.00  0.00    -0.744 OA
ENDBRANCH  72  73
ENDBRANCH  51  65
BRANCH  52  77
ATOM     77  C   UNL A   1      41.203  27.895  29.647  1.00  0.00     0.058 A 
ATOM     78  C   UNL A   1      40.279  26.863  29.436  1.00  0.00     0.135 A 
ATOM     79  C   UNL A   1      42.300  27.978  28.774  1.00  0.00     0.135 A 
ATOM     80  F   UNL A   1      39.213  26.742  30.244  1.00  0.00    -0.206 F 
ATOM     81  C   UNL A   1      40.440  25.934  28.412  1.00  0.00     0.059 A 
ATOM     82  C   UNL A   1      42.471  27.076  27.729  1.00  0.00     0.059 A 
ATOM     83  F   UNL A   1      43.201  28.961  28.918  1.00  0.00    -0.206 F 
ATOM     84  C   UNL A   1      41.542  26.050  27.562  1.00  0.00     0.060 A 
BRANCH  84  85
ATOM     85  S   UNL A   1      41.719  24.868  26.207  1.00  0.00     0.124 S 
ATOM     86  O   UNL A   1      40.558  24.010  26.413  1.00  0.00    -0.237 OA
ATOM     87  O   UNL A   1      41.675  25.735  25.035  1.00  0.00    -0.237 OA
ATOM     88  O   UNL A   1      43.016  24.250  26.472  1.00  0.00    -0.744 OA
ENDBRANCH  84  85
ENDBRANCH  52  77
BRANCH  64  89
ATOM     89  C   UNL A   1      44.082  28.735  35.942  1.00  0.00     0.058 A 
ATOM     90  C   UNL A   1      45.446  29.052  35.855  1.00  0.00     0.135 A 
ATOM     91  C   UNL A   1      43.701  27.680  36.784  1.00  0.00     0.135 A 
ATOM     92  F   UNL A   1      45.860  30.049  35.058  1.00  0.00    -0.206 F 
ATOM     93  C   UNL A   1      46.403  28.328  36.559  1.00  0.00     0.059 A 
ATOM     94  C   UNL A   1      44.638  26.959  37.518  1.00  0.00     0.059 A 
ATOM     95  F   UNL A   1      42.408  27.345  36.908  1.00  0.00    -0.206 F 
ATOM     96  C   UNL A   1      45.990  27.283  37.387  1.00  0.00     0.060 A 
BRANCH  96  97
ATOM     97  S   UNL A   1      47.237  26.366  38.315  1.00  0.00     0.124 S 
ATOM     98  O   UNL A   1      48.459  27.062  37.928  1.00  0.00    -0.237 OA
ATOM     99  O   UNL A   1      46.806  26.561  39.696  1.00  0.00    -0.237 OA
ATOM    100  O   UNL A   1      47.101  25.003  37.810  1.00  0.00    -0.744 OA
ENDBRANCH  96  97
ENDBRANCH  64  89
ENDBRANCH  38  39
ENDBRANCH  30  33
ENDBRANCH  28  29
ENDBRANCH  27  28
ENDBRANCH   1  27
TORSDOF 19
ENDMDL
MODEL 3
REMARK VINA RESULT:     -10.9      3.223      8.687
REMARK SMILES CC(C)[C@H]([NH2+]C[C@H]1CC[C@@H](C(=O)NCCCCNC(=O)c2ccc(-c3c4nc(c(-c5c(F)cc(S(=O)(=O)[O-])cc5F)c5ccc([nH]5)c(-c5c(F)cc(S(=O)(=O)[O-])cc5F)c5nc(c(-c6c(F)cc(S(=O)(=O)[O-])cc6F)c6ccc3[nH]6)C=C5)C=C4)cc2)CC1)c1ccccc1
REMARK SMILES IDX 15 1 14 2 13 3 11 4 12 5 10 7 7 8 8 9 88 10 9 11 87 12 6 13
REMARK SMILES IDX 5 14 4 17 2 18 1 19 3 20 89 21 90 22 94 23 91 24 93 25 92 26
REMARK SMILES IDX 16 27 17 28 18 29 19 30 20 32 21 33 22 34 86 35 23 36 85 37
REMARK SMILES IDX 24 38 25 39 26 40 79 41 27 42 84 43 78 44 80 45 28 46 83 47
REMARK SMILES IDX 77 48 76 49 29 51 63 52 42 53 62 54 43 55 46 56 61 57 81 58
REMARK SMILES IDX 44 59 45 60 60 62 82 63 47 64 30 65 31 66 40 67 32 68 33 69
REMARK SMILES IDX 39 70 41 71 34 72 35 73 36 74 37 75 38 76 64 77 65 78 74 79
REMARK SMILES IDX 66 80 67 81 73 82 75 83 68 84 69 85 70 86 71 87 72 88 48 89
REMARK SMILES IDX 49 90 58 91 50 92 51 93 57 94 59 95 52 96 53 97 54 98 55 99
REMARK SMILES IDX 56 100
REMARK H PARENT 13 6 5 15 5 16 18 31 80 50 46 61
REMARK Flexibility Score: inf
ROOT
ATOM      1  C   UNL A   1      36.270  21.242  24.691  1.00  0.00     0.023 C 
ENDROOT
BRANCH   1   2
ATOM      2  C   UNL A   1      34.828  21.054  25.157  1.00  0.00     0.116 C 
BRANCH   2   3
ATOM      3  N   UNL A   1      34.233  22.266  25.663  1.00  0.00    -0.356 N 
ATOM      4  C   UNL A   1      33.256  23.072  25.183  1.00  0.00     0.223 C 
ATOM      5  O   UNL A   1      32.915  24.004  25.923  1.00  0.00    -0.275 OA
ATOM      6  H   UNL A   1      34.609  22.566  26.522  1.00  0.00     0.163 HD
BRANCH   4   7
ATOM      7  C   UNL A   1      32.550  22.902  23.827  1.00  0.00     0.078 C 
ATOM      8  C   UNL A   1      31.686  25.218  22.064  1.00  0.00     0.044 C 
ATOM      9  C   UNL A   1      33.149  24.732  22.117  1.00  0.00     0.010 C 
ATOM     10  C   UNL A   1      30.778  24.691  23.197  1.00  0.00     0.010 C 
ATOM     11  C   UNL A   1      33.355  23.307  22.599  1.00  0.00     0.014 C 
ATOM     12  C   UNL A   1      31.082  23.304  23.747  1.00  0.00     0.014 C 
BRANCH   8  13
ATOM     13  C   UNL A   1      31.593  26.777  22.048  1.00  0.00     0.264 C 
BRANCH  13  14
ATOM     14  N   UNL A   1      30.521  27.292  22.896  1.00  0.00    -0.340 N 
ATOM     15  H   UNL A   1      29.642  27.201  22.387  1.00  0.00     0.346 HD
ATOM     16  H   UNL A   1      30.541  26.743  23.755  1.00  0.00     0.346 HD
BRANCH  14  17
ATOM     17  C   UNL A   1      30.683  28.709  23.296  1.00  0.00     0.216 C 
BRANCH  17  18
ATOM     18  C   UNL A   1      29.388  29.562  23.043  1.00  0.00     0.046 C 
ATOM     19  C   UNL A   1      29.423  30.424  21.774  1.00  0.00     0.014 C 
ATOM     20  C   UNL A   1      28.117  28.703  23.023  1.00  0.00     0.014 C 
ENDBRANCH  17  18
BRANCH  17  21
ATOM     21  C   UNL A   1      31.125  28.788  24.763  1.00  0.00     0.009 A 
ATOM     22  C   UNL A   1      31.449  30.010  25.381  1.00  0.00     0.010 A 
ATOM     23  C   UNL A   1      31.298  27.608  25.506  1.00  0.00     0.010 A 
ATOM     24  C   UNL A   1      31.968  30.048  26.674  1.00  0.00     0.001 A 
ATOM     25  C   UNL A   1      31.836  27.646  26.794  1.00  0.00     0.001 A 
ATOM     26  C   UNL A   1      32.177  28.865  27.375  1.00  0.00     0.000 A 
ENDBRANCH  17  21
ENDBRANCH  14  17
ENDBRANCH  13  14
ENDBRANCH   8  13
ENDBRANCH   4   7
ENDBRANCH   2   3
ENDBRANCH   1   2
BRANCH   1  27
ATOM     27  C   UNL A   1      36.640  22.687  24.367  1.00  0.00     0.023 C 
BRANCH  27  28
ATOM     28  C   UNL A   1      37.485  23.383  25.429  1.00  0.00     0.116 C 
BRANCH  28  29
ATOM     29  N   UNL A   1      38.773  22.751  25.675  1.00  0.00    -0.352 N 
ATOM     30  C   UNL A   1      39.880  23.269  26.311  1.00  0.00     0.251 C 
ATOM     31  H   UNL A   1      38.866  21.829  25.341  1.00  0.00     0.163 HD
ATOM     32  O   UNL A   1      40.935  22.639  26.294  1.00  0.00    -0.269 OA
BRANCH  30  33
ATOM     33  C   UNL A   1      39.819  24.608  26.943  1.00  0.00     0.039 A 
ATOM     34  C   UNL A   1      39.173  24.723  28.176  1.00  0.00     0.014 A 
ATOM     35  C   UNL A   1      40.467  25.715  26.391  1.00  0.00     0.014 A 
ATOM     36  C   UNL A   1      39.308  25.895  28.918  1.00  0.00     0.010 A 
ATOM     37  C   UNL A   1      40.691  26.844  27.175  1.00  0.00     0.010 A 
ATOM     38  C   UNL A   1      40.143  26.929  28.460  1.00  0.00    -0.014 A 
BRANCH  38  39
ATOM     39  C   UNL A   1      40.525  28.041  29.367  1.00  0.00     0.031 A 
ATOM     40  C   UNL A   1      39.625  29.227  29.560  1.00  0.00     0.074 A 
ATOM     41  C   UNL A   1      41.730  27.995  29.971  1.00  0.00     0.049 A 
ATOM     42  N   UNL A   1      39.792  30.267  30.336  1.00  0.00    -0.248 NA
ATOM     43  C   UNL A   1      38.393  29.270  28.756  1.00  0.00     0.031 C 
ATOM     44  C   UNL A   1      42.734  26.941  29.776  1.00  0.00     0.029 A 
ATOM     45  N   UNL A   1      42.320  28.840  30.875  1.00  0.00    -0.354 N 
ATOM     46  C   UNL A   1      38.692  31.086  30.114  1.00  0.00     0.074 A 
ATOM     47  C   UNL A   1      37.898  30.456  29.082  1.00  0.00     0.031 C 
ATOM     48  C   UNL A   1      43.784  27.174  30.578  1.00  0.00     0.029 A 
ATOM     49  C   UNL A   1      43.548  28.406  31.320  1.00  0.00     0.049 A 
ATOM     50  H   UNL A   1      41.903  29.680  31.178  1.00  0.00     0.167 HD
ATOM     51  C   UNL A   1      38.360  32.242  30.736  1.00  0.00     0.037 A 
ATOM     52  C   UNL A   1      44.382  28.933  32.237  1.00  0.00     0.037 A 
ATOM     53  C   UNL A   1      39.150  32.847  31.777  1.00  0.00     0.049 A 
ATOM     54  C   UNL A   1      43.968  30.189  32.951  1.00  0.00     0.074 A 
ATOM     55  C   UNL A   1      38.881  33.987  32.513  1.00  0.00     0.029 A 
ATOM     56  N   UNL A   1      40.368  32.358  32.229  1.00  0.00    -0.354 N 
ATOM     57  N   UNL A   1      42.880  30.905  32.790  1.00  0.00    -0.248 NA
ATOM     58  C   UNL A   1      44.883  30.701  33.978  1.00  0.00     0.031 C 
ATOM     59  C   UNL A   1      39.951  34.204  33.389  1.00  0.00     0.029 A 
ATOM     60  C   UNL A   1      40.868  33.178  33.227  1.00  0.00     0.049 A 
ATOM     61  H   UNL A   1      40.811  31.548  31.890  1.00  0.00     0.167 HD
ATOM     62  C   UNL A   1      42.968  31.940  33.711  1.00  0.00     0.074 A 
ATOM     63  C   UNL A   1      44.208  31.747  34.438  1.00  0.00     0.031 C 
ATOM     64  C   UNL A   1      42.103  32.960  33.937  1.00  0.00     0.037 A 
BRANCH  51  65
ATOM     65  C   UNL A   1      37.080  32.911  30.317  1.00  0.00     0.058 A 
ATOM     66  C   UNL A   1      37.059  33.877  29.296  1.00  0.00     0.135 A 
ATOM     67  C   UNL A   1      35.860  32.580  30.927  1.00  0.00     0.135 A 
ATOM     68  F   UNL A   1      38.200  34.244  28.689  1.00  0.00    -0.206 F 
ATOM     69  C   UNL A   1      35.883  34.519  28.923  1.00  0.00     0.059 A 
ATOM     70  C   UNL A   1      34.666  33.190  30.551  1.00  0.00     0.059 A 
ATOM     71  F   UNL A   1      35.820  31.665  31.907  1.00  0.00    -0.206 F 
ATOM     72  C   UNL A   1      34.691  34.171  29.561  1.00  0.00     0.060 A 
BRANCH  72  73
ATOM     73  S   UNL A   1      33.175  35.022  29.075  1.00  0.00     0.124 S 
ATOM     74  O   UNL A   1      33.707  36.239  28.469  1.00  0.00    -0.237 OA
ATOM     75  O   UNL A   1      32.563  34.071  28.151  1.00  0.00    -0.237 OA
ATOM     76  O   UNL A   1      32.469  35.207  30.338  1.00  0.00    -0.744 OA
ENDBRANCH  72  73
ENDBRANCH  51  65
BRANCH  52  77
ATOM     77  C   UNL A   1      45.657  28.242  32.568  1.00  0.00     0.058 A 
ATOM     78  C   UNL A   1      45.700  27.236  33.543  1.00  0.00     0.135 A 
ATOM     79  C   UNL A   1      46.853  28.557  31.903  1.00  0.00     0.135 A 
ATOM     80  F   UNL A   1      44.584  26.898  34.207  1.00  0.00    -0.206 F 
ATOM     81  C   UNL A   1      46.884  26.578  33.864  1.00  0.00     0.059 A 
ATOM     82  C   UNL A   1      48.044  27.898  32.188  1.00  0.00     0.059 A 
ATOM     83  F   UNL A   1      46.862  29.497  30.945  1.00  0.00    -0.206 F 
ATOM     84  C   UNL A   1      48.053  26.916  33.179  1.00  0.00     0.060 A 
BRANCH  84  85
ATOM     85  S   UNL A   1      49.575  26.025  33.569  1.00  0.00     0.124 S 
ATOM     86  O   UNL A   1      49.084  24.660  33.722  1.00  0.00    -0.237 OA
ATOM     87  O   UNL A   1      50.393  26.282  32.388  1.00  0.00    -0.237 OA
ATOM     88  O   UNL A   1      50.035  26.673  34.794  1.00  0.00    -0.744 OA
ENDBRANCH  84  85
ENDBRANCH  52  77
BRANCH  64  89
ATOM     89  C   UNL A   1      42.459  33.927  35.032  1.00  0.00     0.058 A 
ATOM     90  C   UNL A   1      43.189  35.096  34.771  1.00  0.00     0.135 A 
ATOM     91  C   UNL A   1      42.031  33.695  36.348  1.00  0.00     0.135 A 
ATOM     92  F   UNL A   1      43.625  35.359  33.529  1.00  0.00    -0.206 F 
ATOM     93  C   UNL A   1      43.506  35.992  35.786  1.00  0.00     0.059 A 
ATOM     94  C   UNL A   1      42.315  34.591  37.374  1.00  0.00     0.059 A 
ATOM     95  F   UNL A   1      41.322  32.596  36.646  1.00  0.00    -0.206 F 
ATOM     96  C   UNL A   1      43.066  35.730  37.085  1.00  0.00     0.060 A 
BRANCH  96  97
ATOM     97  S   UNL A   1      43.463  36.911  38.390  1.00  0.00     0.124 S 
ATOM     98  O   UNL A   1      44.469  36.178  39.151  1.00  0.00    -0.237 OA
ATOM     99  O   UNL A   1      43.952  38.061  37.636  1.00  0.00    -0.237 OA
ATOM    100  O   UNL A   1      42.185  37.111  39.066  1.00  0.00    -0.744 OA
ENDBRANCH  96  97
ENDBRANCH  64  89
ENDBRANCH  38  39
ENDBRANCH  30  33
ENDBRANCH  28  29
ENDBRANCH  27  28
ENDBRANCH   1  27
TORSDOF 19
ENDMDL
