MODEL 1
REMARK VINA RESULT:     -12.3      0.000      0.000
REMARK SMILES N#C/C(=C\c1ccc(-c2cc(C(=O)NCCCCNC(=O)c3ccc(-c4c5nc(c(-c6c(F)cc(S(=O)(=O)[O-])cc6F)c6ccc([nH]6)c(-c6c(F)cc(S(=O)(=O)[O-])cc6F)c6nc(c(-c7c(F)cc(S(=O)(=O)[O-])cc7F)c7ccc4[nH]7)C=C6)C=C5)cc3)ccc2Cl)o1)C(=O)N1CCOCC1
REMARK SMILES IDX 16 1 15 2 14 3 12 4 13 5 11 7 9 8 10 9 90 10 89 11 91 12
REMARK SMILES IDX 88 13 8 14 5 15 6 16 92 17 7 18 4 19 3 20 2 21 1 22 93 23
REMARK SMILES IDX 94 24 95 25 96 26 100 27 97 28 99 29 98 30 17 31 18 32 19 33
REMARK SMILES IDX 20 34 21 36 22 37 23 38 87 39 24 40 86 41 25 42 26 43 27 44
REMARK SMILES IDX 80 45 28 46 85 47 79 48 81 49 29 50 84 51 78 52 77 53 30 55
REMARK SMILES IDX 64 56 43 57 63 58 44 59 47 60 62 61 82 62 45 63 46 64 61 66
REMARK SMILES IDX 83 67 48 68 31 69 32 70 41 71 33 72 34 73 40 74 42 75 35 76
REMARK SMILES IDX 36 77 37 78 38 79 39 80 65 81 66 82 75 83 67 84 68 85 74 86
REMARK SMILES IDX 76 87 69 88 70 89 71 90 72 91 73 92 49 93 50 94 59 95 51 96
REMARK SMILES IDX 52 97 58 98 60 99 53 100 54 101 55 102 56 103 57 104
REMARK H PARENT 14 6 19 35 81 54 47 65
REMARK Flexibility Score: inf
ROOT
ATOM      1  C   UNL A   1      35.197  33.630  29.098  1.00  0.00     0.023 C 
ENDROOT
BRANCH   1   2
ATOM      2  C   UNL A   1      34.735  32.735  27.945  1.00  0.00     0.116 C 
BRANCH   2   3
ATOM      3  N   UNL A   1      35.241  31.386  28.105  1.00  0.00    -0.352 N 
ATOM      4  C   UNL A   1      34.841  30.171  27.610  1.00  0.00     0.251 C 
ATOM      5  O   UNL A   1      35.515  29.189  27.929  1.00  0.00    -0.269 OA
ATOM      6  H   UNL A   1      36.032  31.332  28.687  1.00  0.00     0.163 HD
BRANCH   4   7
ATOM      7  C   UNL A   1      33.674  29.968  26.697  1.00  0.00     0.040 A 
ATOM      8  C   UNL A   1      32.772  28.702  24.789  1.00  0.00     0.037 A 
ATOM      9  C   UNL A   1      33.801  28.967  25.712  1.00  0.00     0.027 A 
ATOM     10  C   UNL A   1      31.599  29.470  24.852  1.00  0.00     0.052 A 
ATOM     11  C   UNL A   1      31.448  30.439  25.842  1.00  0.00     0.022 A 
ATOM     12  Cl  UNL A   1      30.274  29.249  23.761  1.00  0.00    -0.084 Cl
ATOM     13  C   UNL A   1      32.467  30.666  26.771  1.00  0.00     0.015 A 
BRANCH   8  14
ATOM     14  C   UNL A   1      32.955  27.673  23.778  1.00  0.00     0.136 A 
ATOM     15  C   UNL A   1      32.577  25.653  22.911  1.00  0.00     0.129 A 
ATOM     16  C   UNL A   1      33.316  26.399  21.993  1.00  0.00     0.051 A 
ATOM     17  O   UNL A   1      32.338  26.476  23.997  1.00  0.00    -0.457 OA
ATOM     18  C   UNL A   1      33.601  27.655  22.567  1.00  0.00     0.051 A 
BRANCH  15  19
ATOM     19  C   UNL A   1      32.090  24.304  22.839  1.00  0.00     0.072 C 
ATOM     20  C   UNL A   1      32.896  23.216  22.747  1.00  0.00     0.121 C 
BRANCH  20  21
ATOM     21  C   UNL A   1      34.348  23.494  23.100  1.00  0.00     0.105 C 
ATOM     22  N   UNL A   1      35.553  23.725  23.392  1.00  0.00    -0.192 NA
ENDBRANCH  20  21
BRANCH  20  23
ATOM     23  C   UNL A   1      32.357  21.833  22.811  1.00  0.00     0.264 C 
ATOM     24  O   UNL A   1      31.993  21.295  21.766  1.00  0.00    -0.268 OA
ATOM     25  N   UNL A   1      32.330  21.156  24.021  1.00  0.00    -0.333 N 
ATOM     26  C   UNL A   1      32.378  21.705  25.387  1.00  0.00     0.148 C 
ATOM     27  C   UNL A   1      32.253  19.692  24.009  1.00  0.00     0.148 C 
ATOM     28  C   UNL A   1      33.524  21.056  26.181  1.00  0.00     0.181 C 
ATOM     29  C   UNL A   1      33.425  19.118  24.815  1.00  0.00     0.181 C 
ATOM     30  O   UNL A   1      33.415  19.623  26.163  1.00  0.00    -0.378 OA
ENDBRANCH  20  23
ENDBRANCH  15  19
ENDBRANCH   8  14
ENDBRANCH   4   7
ENDBRANCH   2   3
ENDBRANCH   1   2
BRANCH   1  31
ATOM     31  C   UNL A   1      36.716  33.673  29.296  1.00  0.00     0.023 C 
BRANCH  31  32
ATOM     32  C   UNL A   1      37.195  33.347  30.707  1.00  0.00     0.116 C 
BRANCH  32  33
ATOM     33  N   UNL A   1      36.545  32.180  31.280  1.00  0.00    -0.352 N 
ATOM     34  C   UNL A   1      36.950  30.865  31.256  1.00  0.00     0.251 C 
ATOM     35  H   UNL A   1      35.697  32.354  31.749  1.00  0.00     0.163 HD
ATOM     36  O   UNL A   1      36.218  29.996  31.700  1.00  0.00    -0.269 OA
BRANCH  34  37
ATOM     37  C   UNL A   1      38.258  30.516  30.658  1.00  0.00     0.039 A 
ATOM     38  C   UNL A   1      39.331  30.250  31.511  1.00  0.00     0.014 A 
ATOM     39  C   UNL A   1      38.427  30.449  29.272  1.00  0.00     0.014 A 
ATOM     40  C   UNL A   1      40.563  29.871  30.973  1.00  0.00     0.010 A 
ATOM     41  C   UNL A   1      39.632  29.998  28.741  1.00  0.00     0.010 A 
ATOM     42  C   UNL A   1      40.715  29.719  29.584  1.00  0.00    -0.014 A 
BRANCH  42  43
ATOM     43  C   UNL A   1      42.015  29.292  29.007  1.00  0.00     0.031 A 
ATOM     44  C   UNL A   1      43.159  30.266  28.917  1.00  0.00     0.074 A 
ATOM     45  C   UNL A   1      42.155  28.035  28.543  1.00  0.00     0.049 A 
ATOM     46  N   UNL A   1      44.371  30.076  28.463  1.00  0.00    -0.248 NA
ATOM     47  C   UNL A   1      42.897  31.641  29.371  1.00  0.00     0.031 C 
ATOM     48  C   UNL A   1      41.101  27.017  28.523  1.00  0.00     0.029 A 
ATOM     49  N   UNL A   1      43.242  27.396  28.003  1.00  0.00    -0.354 N 
ATOM     50  C   UNL A   1      45.014  31.304  28.575  1.00  0.00     0.074 A 
ATOM     51  C   UNL A   1      44.036  32.247  29.071  1.00  0.00     0.031 C 
ATOM     52  C   UNL A   1      41.606  25.871  28.039  1.00  0.00     0.029 A 
ATOM     53  C   UNL A   1      43.008  26.077  27.691  1.00  0.00     0.049 A 
ATOM     54  H   UNL A   1      44.108  27.841  27.854  1.00  0.00     0.167 HD
ATOM     55  C   UNL A   1      46.308  31.612  28.319  1.00  0.00     0.037 A 
ATOM     56  C   UNL A   1      43.837  25.139  27.196  1.00  0.00     0.037 A 
ATOM     57  C   UNL A   1      47.281  30.664  27.840  1.00  0.00     0.049 A 
ATOM     58  C   UNL A   1      45.274  25.499  26.933  1.00  0.00     0.074 A 
ATOM     59  C   UNL A   1      48.624  30.862  27.578  1.00  0.00     0.029 A 
ATOM     60  N   UNL A   1      47.010  29.332  27.554  1.00  0.00    -0.354 N 
ATOM     61  N   UNL A   1      45.881  26.651  27.098  1.00  0.00    -0.248 NA
ATOM     62  C   UNL A   1      46.144  24.425  26.436  1.00  0.00     0.031 C 
ATOM     63  C   UNL A   1      49.159  29.658  27.103  1.00  0.00     0.029 A 
ATOM     64  C   UNL A   1      48.160  28.699  27.113  1.00  0.00     0.049 A 
ATOM     65  H   UNL A   1      46.129  28.902  27.650  1.00  0.00     0.167 HD
ATOM     66  C   UNL A   1      47.212  26.431  26.759  1.00  0.00     0.074 A 
ATOM     67  C   UNL A   1      47.321  25.035  26.390  1.00  0.00     0.031 C 
ATOM     68  C   UNL A   1      48.250  27.304  26.759  1.00  0.00     0.037 A 
BRANCH  55  69
ATOM     69  C   UNL A   1      46.740  33.033  28.567  1.00  0.00     0.058 A 
ATOM     70  C   UNL A   1      47.215  33.448  29.823  1.00  0.00     0.135 A 
ATOM     71  C   UNL A   1      46.677  33.992  27.545  1.00  0.00     0.135 A 
ATOM     72  F   UNL A   1      47.280  32.576  30.843  1.00  0.00    -0.206 F 
ATOM     73  C   UNL A   1      47.568  34.770  30.069  1.00  0.00     0.059 A 
ATOM     74  C   UNL A   1      47.056  35.315  27.759  1.00  0.00     0.059 A 
ATOM     75  F   UNL A   1      46.234  33.653  26.324  1.00  0.00    -0.206 F 
ATOM     76  C   UNL A   1      47.480  35.698  29.030  1.00  0.00     0.060 A 
BRANCH  76  77
ATOM     77  S   UNL A   1      47.923  37.415  29.370  1.00  0.00     0.124 S 
ATOM     78  O   UNL A   1      46.665  37.940  29.892  1.00  0.00    -0.237 OA
ATOM     79  O   UNL A   1      49.002  37.275  30.342  1.00  0.00    -0.237 OA
ATOM     80  O   UNL A   1      48.323  37.927  28.063  1.00  0.00    -0.744 OA
ENDBRANCH  76  77
ENDBRANCH  55  69
BRANCH  56  81
ATOM     81  C   UNL A   1      43.345  23.753  26.979  1.00  0.00     0.058 A 
ATOM     82  C   UNL A   1      43.172  22.876  28.060  1.00  0.00     0.135 A 
ATOM     83  C   UNL A   1      43.025  23.281  25.697  1.00  0.00     0.135 A 
ATOM     84  F   UNL A   1      43.467  23.280  29.306  1.00  0.00    -0.206 F 
ATOM     85  C   UNL A   1      42.719  21.573  27.877  1.00  0.00     0.059 A 
ATOM     86  C   UNL A   1      42.548  21.991  25.491  1.00  0.00     0.059 A 
ATOM     87  F   UNL A   1      43.154  24.088  24.632  1.00  0.00    -0.206 F 
ATOM     88  C   UNL A   1      42.408  21.140  26.588  1.00  0.00     0.060 A 
BRANCH  88  89
ATOM     89  S   UNL A   1      41.774  19.464  26.368  1.00  0.00     0.124 S 
ATOM     90  O   UNL A   1      42.455  19.051  25.146  1.00  0.00    -0.237 OA
ATOM     91  O   UNL A   1      42.209  18.806  27.596  1.00  0.00    -0.237 OA
ATOM     92  O   UNL A   1      40.331  19.663  26.251  1.00  0.00    -0.744 OA
ENDBRANCH  88  89
ENDBRANCH  56  81
BRANCH  68  93
ATOM     93  C   UNL A   1      49.603  26.756  26.395  1.00  0.00     0.058 A 
ATOM     94  C   UNL A   1      50.412  26.092  27.329  1.00  0.00     0.135 A 
ATOM     95  C   UNL A   1      50.090  26.891  25.084  1.00  0.00     0.135 A 
ATOM     96  F   UNL A   1      49.995  25.939  28.596  1.00  0.00    -0.206 F 
ATOM     97  C   UNL A   1      51.676  25.619  26.991  1.00  0.00     0.059 A 
ATOM     98  C   UNL A   1      51.339  26.400  24.715  1.00  0.00     0.059 A 
ATOM     99  F   UNL A   1      49.351  27.505  24.147  1.00  0.00    -0.206 F 
ATOM    100  C   UNL A   1      52.133  25.785  25.681  1.00  0.00     0.060 A 
BRANCH 100 101
ATOM    101  S   UNL A   1      53.777  25.175  25.251  1.00  0.00     0.124 S 
ATOM    102  O   UNL A   1      53.928  25.679  23.891  1.00  0.00    -0.237 OA
ATOM    103  O   UNL A   1      54.621  25.809  26.260  1.00  0.00    -0.237 OA
ATOM    104  O   UNL A   1      53.644  23.727  25.376  1.00  0.00    -0.744 OA
ENDBRANCH 100 101
ENDBRANCH  68  93
ENDBRANCH  42  43
ENDBRANCH  34  37
ENDBRANCH  32  33
ENDBRANCH  31  32
ENDBRANCH   1  31
TORSDOF 18
ENDMDL
MODEL 2
REMARK VINA RESULT:     -12.1      1.208      2.254
REMARK SMILES N#C/C(=C\c1ccc(-c2cc(C(=O)NCCCCNC(=O)c3ccc(-c4c5nc(c(-c6c(F)cc(S(=O)(=O)[O-])cc6F)c6ccc([nH]6)c(-c6c(F)cc(S(=O)(=O)[O-])cc6F)c6nc(c(-c7c(F)cc(S(=O)(=O)[O-])cc7F)c7ccc4[nH]7)C=C6)C=C5)cc3)ccc2Cl)o1)C(=O)N1CCOCC1
REMARK SMILES IDX 16 1 15 2 14 3 12 4 13 5 11 7 9 8 10 9 90 10 89 11 91 12
REMARK SMILES IDX 88 13 8 14 5 15 6 16 92 17 7 18 4 19 3 20 2 21 1 22 93 23
REMARK SMILES IDX 94 24 95 25 96 26 100 27 97 28 99 29 98 30 17 31 18 32 19 33
REMARK SMILES IDX 20 34 21 36 22 37 23 38 87 39 24 40 86 41 25 42 26 43 27 44
REMARK SMILES IDX 80 45 28 46 85 47 79 48 81 49 29 50 84 51 78 52 77 53 30 55
REMARK SMILES IDX 64 56 43 57 63 58 44 59 47 60 62 61 82 62 45 63 46 64 61 66
REMARK SMILES IDX 83 67 48 68 31 69 32 70 41 71 33 72 34 73 40 74 42 75 35 76
REMARK SMILES IDX 36 77 37 78 38 79 39 80 65 81 66 82 75 83 67 84 68 85 74 86
REMARK SMILES IDX 76 87 69 88 70 89 71 90 72 91 73 92 49 93 50 94 59 95 51 96
REMARK SMILES IDX 52 97 58 98 60 99 53 100 54 101 55 102 56 103 57 104
REMARK H PARENT 14 6 19 35 81 54 47 65
REMARK Flexibility Score: inf
ROOT
ATOM      1  C   UNL A   1      34.640  33.532  28.781  1.00  0.00     0.023 C 
ENDROOT
BRANCH   1   2
ATOM      2  C   UNL A   1      33.817  32.602  27.887  1.00  0.00     0.116 C 
BRANCH   2   3
ATOM      3  N   UNL A   1      34.270  31.230  28.014  1.00  0.00    -0.352 N 
ATOM      4  C   UNL A   1      33.863  30.052  27.443  1.00  0.00     0.251 C 
ATOM      5  O   UNL A   1      34.486  29.035  27.755  1.00  0.00    -0.269 OA
ATOM      6  H   UNL A   1      35.022  31.124  28.640  1.00  0.00     0.163 HD
BRANCH   4   7
ATOM      7  C   UNL A   1      32.748  29.928  26.454  1.00  0.00     0.040 A 
ATOM      8  C   UNL A   1      31.513  28.424  24.947  1.00  0.00     0.037 A 
ATOM      9  C   UNL A   1      32.524  28.651  25.899  1.00  0.00     0.027 A 
ATOM     10  C   UNL A   1      30.722  29.507  24.537  1.00  0.00     0.052 A 
ATOM     11  C   UNL A   1      30.910  30.768  25.102  1.00  0.00     0.022 A 
ATOM     12  Cl  UNL A   1      29.461  29.355  23.360  1.00  0.00    -0.084 Cl
ATOM     13  C   UNL A   1      31.898  30.968  26.070  1.00  0.00     0.015 A 
BRANCH   8  14
ATOM     14  C   UNL A   1      31.332  27.093  24.390  1.00  0.00     0.136 A 
ATOM     15  C   UNL A   1      31.962  24.982  24.044  1.00  0.00     0.129 A 
ATOM     16  C   UNL A   1      30.670  25.146  23.548  1.00  0.00     0.051 A 
ATOM     17  O   UNL A   1      32.339  26.196  24.590  1.00  0.00    -0.457 OA
ATOM     18  C   UNL A   1      30.294  26.495  23.718  1.00  0.00     0.051 A 
BRANCH  15  19
ATOM     19  C   UNL A   1      32.817  23.829  24.057  1.00  0.00     0.072 C 
ATOM     20  C   UNL A   1      33.096  23.110  25.174  1.00  0.00     0.121 C 
BRANCH  20  21
ATOM     21  C   UNL A   1      32.153  23.384  26.334  1.00  0.00     0.105 C 
ATOM     22  N   UNL A   1      31.370  23.612  27.296  1.00  0.00    -0.192 NA
ENDBRANCH  20  21
BRANCH  20  23
ATOM     23  C   UNL A   1      33.877  21.847  25.121  1.00  0.00     0.264 C 
ATOM     24  O   UNL A   1      33.354  20.855  24.614  1.00  0.00    -0.268 OA
ATOM     25  N   UNL A   1      35.185  21.822  25.580  1.00  0.00    -0.333 N 
ATOM     26  C   UNL A   1      35.856  22.750  26.507  1.00  0.00     0.148 C 
ATOM     27  C   UNL A   1      36.077  20.758  25.111  1.00  0.00     0.148 C 
ATOM     28  C   UNL A   1      37.138  23.307  25.865  1.00  0.00     0.181 C 
ATOM     29  C   UNL A   1      37.327  21.387  24.483  1.00  0.00     0.181 C 
ATOM     30  O   UNL A   1      37.998  22.242  25.428  1.00  0.00    -0.378 OA
ENDBRANCH  20  23
ENDBRANCH  15  19
ENDBRANCH   8  14
ENDBRANCH   4   7
ENDBRANCH   2   3
ENDBRANCH   1   2
BRANCH   1  31
ATOM     31  C   UNL A   1      36.152  33.293  28.721  1.00  0.00     0.023 C 
BRANCH  31  32
ATOM     32  C   UNL A   1      36.799  32.901  30.046  1.00  0.00     0.116 C 
BRANCH  32  33
ATOM     33  N   UNL A   1      36.184  31.738  30.664  1.00  0.00    -0.352 N 
ATOM     34  C   UNL A   1      36.648  30.443  30.725  1.00  0.00     0.251 C 
ATOM     35  H   UNL A   1      35.316  31.899  31.100  1.00  0.00     0.163 HD
ATOM     36  O   UNL A   1      35.941  29.567  31.195  1.00  0.00    -0.269 OA
BRANCH  34  37
ATOM     37  C   UNL A   1      37.987  30.123  30.182  1.00  0.00     0.039 A 
ATOM     38  C   UNL A   1      39.029  29.884  31.080  1.00  0.00     0.014 A 
ATOM     39  C   UNL A   1      38.215  30.057  28.805  1.00  0.00     0.014 A 
ATOM     40  C   UNL A   1      40.290  29.531  30.595  1.00  0.00     0.010 A 
ATOM     41  C   UNL A   1      39.451  29.632  28.326  1.00  0.00     0.010 A 
ATOM     42  C   UNL A   1      40.504  29.379  29.215  1.00  0.00    -0.014 A 
BRANCH  42  43
ATOM     43  C   UNL A   1      41.836  28.980  28.694  1.00  0.00     0.031 A 
ATOM     44  C   UNL A   1      42.949  29.989  28.611  1.00  0.00     0.074 A 
ATOM     45  C   UNL A   1      42.034  27.715  28.273  1.00  0.00     0.049 A 
ATOM     46  N   UNL A   1      44.182  29.828  28.203  1.00  0.00    -0.248 NA
ATOM     47  C   UNL A   1      42.627  31.368  29.014  1.00  0.00     0.031 C 
ATOM     48  C   UNL A   1      41.016  26.662  28.250  1.00  0.00     0.029 A 
ATOM     49  N   UNL A   1      43.159  27.099  27.790  1.00  0.00    -0.354 N 
ATOM     50  C   UNL A   1      44.779  31.080  28.298  1.00  0.00     0.074 A 
ATOM     51  C   UNL A   1      43.754  32.004  28.733  1.00  0.00     0.031 C 
ATOM     52  C   UNL A   1      41.575  25.520  27.819  1.00  0.00     0.029 A 
ATOM     53  C   UNL A   1      42.980  25.764  27.510  1.00  0.00     0.049 A 
ATOM     54  H   UNL A   1      44.014  27.568  27.655  1.00  0.00     0.167 HD
ATOM     55  C   UNL A   1      46.070  31.425  28.075  1.00  0.00     0.037 A 
ATOM     56  C   UNL A   1      43.856  24.841  27.072  1.00  0.00     0.037 A 
ATOM     57  C   UNL A   1      47.089  30.497  27.658  1.00  0.00     0.049 A 
ATOM     58  C   UNL A   1      45.289  25.242  26.846  1.00  0.00     0.074 A 
ATOM     59  C   UNL A   1      48.433  30.734  27.434  1.00  0.00     0.029 A 
ATOM     60  N   UNL A   1      46.873  29.149  27.404  1.00  0.00    -0.354 N 
ATOM     61  N   UNL A   1      45.850  26.418  26.994  1.00  0.00    -0.248 NA
ATOM     62  C   UNL A   1      46.210  24.184  26.411  1.00  0.00     0.031 C 
ATOM     63  C   UNL A   1      49.024  29.535  27.014  1.00  0.00     0.029 A 
ATOM     64  C   UNL A   1      48.058  28.543  27.021  1.00  0.00     0.049 A 
ATOM     65  H   UNL A   1      46.005  28.692  27.484  1.00  0.00     0.167 HD
ATOM     66  C   UNL A   1      47.199  26.235  26.706  1.00  0.00     0.074 A 
ATOM     67  C   UNL A   1      47.367  24.832  26.384  1.00  0.00     0.031 C 
ATOM     68  C   UNL A   1      48.207  27.142  26.712  1.00  0.00     0.037 A 
BRANCH  55  69
ATOM     69  C   UNL A   1      46.445  32.867  28.294  1.00  0.00     0.058 A 
ATOM     70  C   UNL A   1      46.369  33.811  27.256  1.00  0.00     0.135 A 
ATOM     71  C   UNL A   1      46.888  33.312  29.549  1.00  0.00     0.135 A 
ATOM     72  F   UNL A   1      45.968  33.438  26.030  1.00  0.00    -0.206 F 
ATOM     73  C   UNL A   1      46.761  35.132  27.442  1.00  0.00     0.059 A 
ATOM     74  C   UNL A   1      47.256  34.637  29.767  1.00  0.00     0.059 A 
ATOM     75  F   UNL A   1      46.979  32.455  30.578  1.00  0.00    -0.206 F 
ATOM     76  C   UNL A   1      47.208  35.535  28.701  1.00  0.00     0.060 A 
BRANCH  76  77
ATOM     77  S   UNL A   1      47.734  37.248  28.921  1.00  0.00     0.124 S 
ATOM     78  O   UNL A   1      49.092  37.205  28.391  1.00  0.00    -0.237 OA
ATOM     79  O   UNL A   1      46.762  37.981  28.115  1.00  0.00    -0.237 OA
ATOM     80  O   UNL A   1      47.629  37.452  30.363  1.00  0.00    -0.744 OA
ENDBRANCH  76  77
ENDBRANCH  55  69
BRANCH  56  81
ATOM     81  C   UNL A   1      43.418  23.433  26.882  1.00  0.00     0.058 A 
ATOM     82  C   UNL A   1      43.263  22.897  25.594  1.00  0.00     0.135 A 
ATOM     83  C   UNL A   1      43.161  22.591  27.975  1.00  0.00     0.135 A 
ATOM     84  F   UNL A   1      43.494  23.664  24.517  1.00  0.00    -0.206 F 
ATOM     85  C   UNL A   1      42.849  21.585  25.395  1.00  0.00     0.059 A 
ATOM     86  C   UNL A   1      42.769  21.267  27.801  1.00  0.00     0.059 A 
ATOM     87  F   UNL A   1      43.314  23.049  29.227  1.00  0.00    -0.206 F 
ATOM     88  C   UNL A   1      42.605  20.776  26.505  1.00  0.00     0.060 A 
BRANCH  88  89
ATOM     89  S   UNL A   1      42.116  19.059  26.235  1.00  0.00     0.124 S 
ATOM     90  O   UNL A   1      40.722  19.211  25.833  1.00  0.00    -0.237 OA
ATOM     91  O   UNL A   1      43.040  18.636  25.189  1.00  0.00    -0.237 OA
ATOM     92  O   UNL A   1      42.333  18.439  27.540  1.00  0.00    -0.744 OA
ENDBRANCH  88  89
ENDBRANCH  56  81
BRANCH  68  93
ATOM     93  C   UNL A   1      49.589  26.631  26.410  1.00  0.00     0.058 A 
ATOM     94  C   UNL A   1      50.128  26.670  25.115  1.00  0.00     0.135 A 
ATOM     95  C   UNL A   1      50.387  26.104  27.439  1.00  0.00     0.135 A 
ATOM     96  F   UNL A   1      49.406  27.161  24.096  1.00  0.00    -0.206 F 
ATOM     97  C   UNL A   1      51.395  26.163  24.841  1.00  0.00     0.059 A 
ATOM     98  C   UNL A   1      51.668  25.619  27.193  1.00  0.00     0.059 A 
ATOM     99  F   UNL A   1      49.925  26.057  28.698  1.00  0.00    -0.206 F 
ATOM    100  C   UNL A   1      52.154  25.632  25.887  1.00  0.00     0.060 A 
BRANCH 100 101
ATOM    101  S   UNL A   1      53.793  24.971  25.521  1.00  0.00     0.124 S 
ATOM    102  O   UNL A   1      54.494  25.217  26.777  1.00  0.00    -0.237 OA
ATOM    103  O   UNL A   1      53.507  23.571  25.219  1.00  0.00    -0.237 OA
ATOM    104  O   UNL A   1      54.236  25.772  24.385  1.00  0.00    -0.744 OA
ENDBRANCH 100 101
ENDBRANCH  68  93
ENDBRANCH  42  43
ENDBRANCH  34  37
ENDBRANCH  32  33
ENDBRANCH  31  32
ENDBRANCH   1  31
TORSDOF 18
ENDMDL
MODEL 3
REMARK VINA RESULT:     -11.9      4.756      8.061
REMARK SMILES N#C/C(=C\c1ccc(-c2cc(C(=O)NCCCCNC(=O)c3ccc(-c4c5nc(c(-c6c(F)cc(S(=O)(=O)[O-])cc6F)c6ccc([nH]6)c(-c6c(F)cc(S(=O)(=O)[O-])cc6F)c6nc(c(-c7c(F)cc(S(=O)(=O)[O-])cc7F)c7ccc4[nH]7)C=C6)C=C5)cc3)ccc2Cl)o1)C(=O)N1CCOCC1
REMARK SMILES IDX 16 1 15 2 14 3 12 4 13 5 11 7 9 8 10 9 90 10 89 11 91 12
REMARK SMILES IDX 88 13 8 14 5 15 6 16 92 17 7 18 4 19 3 20 2 21 1 22 93 23
REMARK SMILES IDX 94 24 95 25 96 26 100 27 97 28 99 29 98 30 17 31 18 32 19 33
REMARK SMILES IDX 20 34 21 36 22 37 23 38 87 39 24 40 86 41 25 42 26 43 27 44
REMARK SMILES IDX 80 45 28 46 85 47 79 48 81 49 29 50 84 51 78 52 77 53 30 55
REMARK SMILES IDX 64 56 43 57 63 58 44 59 47 60 62 61 82 62 45 63 46 64 61 66
REMARK SMILES IDX 83 67 48 68 31 69 32 70 41 71 33 72 34 73 40 74 42 75 35 76
REMARK SMILES IDX 36 77 37 78 38 79 39 80 65 81 66 82 75 83 67 84 68 85 74 86
REMARK SMILES IDX 76 87 69 88 70 89 71 90 72 91 73 92 49 93 50 94 59 95 51 96
REMARK SMILES IDX 52 97 58 98 60 99 53 100 54 101 55 102 56 103 57 104
REMARK H PARENT 14 6 19 35 81 54 47 65
REMARK Flexibility Score: inf
ROOT
ATOM      1  C   UNL A   1      35.432  32.736  31.214  1.00  0.00     0.023 C 
ENDROOT
BRANCH   1   2
ATOM      2  C   UNL A   1      35.867  34.049  31.870  1.00  0.00     0.116 C 
BRANCH   2   3
ATOM      3  N   UNL A   1      37.055  34.578  31.228  1.00  0.00    -0.352 N 
ATOM      4  C   UNL A   1      38.388  34.537  31.544  1.00  0.00     0.251 C 
ATOM      5  O   UNL A   1      39.167  35.082  30.759  1.00  0.00    -0.269 OA
ATOM      6  H   UNL A   1      36.864  35.067  30.395  1.00  0.00     0.163 HD
BRANCH   4   7
ATOM      7  C   UNL A   1      38.955  33.855  32.749  1.00  0.00     0.040 A 
ATOM      8  C   UNL A   1      39.923  31.782  33.654  1.00  0.00     0.037 A 
ATOM      9  C   UNL A   1      39.390  32.524  32.585  1.00  0.00     0.027 A 
ATOM     10  C   UNL A   1      40.007  32.388  34.916  1.00  0.00     0.052 A 
ATOM     11  C   UNL A   1      39.612  33.715  35.085  1.00  0.00     0.022 A 
ATOM     12  Cl  UNL A   1      40.628  31.571  36.311  1.00  0.00    -0.084 Cl
ATOM     13  C   UNL A   1      39.115  34.447  34.004  1.00  0.00     0.015 A 
BRANCH   8  14
ATOM     14  C   UNL A   1      40.342  30.406  33.441  1.00  0.00     0.136 A 
ATOM     15  C   UNL A   1      41.819  28.738  33.561  1.00  0.00     0.129 A 
ATOM     16  C   UNL A   1      40.598  28.220  33.131  1.00  0.00     0.051 A 
ATOM     17  O   UNL A   1      41.626  30.091  33.778  1.00  0.00    -0.457 OA
ATOM     18  C   UNL A   1      39.682  29.284  33.002  1.00  0.00     0.051 A 
BRANCH  15  19
ATOM     19  C   UNL A   1      43.079  28.090  33.788  1.00  0.00     0.072 C 
ATOM     20  C   UNL A   1      43.399  27.446  34.939  1.00  0.00     0.121 C 
BRANCH  20  21
ATOM     21  C   UNL A   1      42.203  27.138  35.825  1.00  0.00     0.105 C 
ATOM     22  N   UNL A   1      41.210  26.882  36.559  1.00  0.00    -0.192 NA
ENDBRANCH  20  21
BRANCH  20  23
ATOM     23  C   UNL A   1      44.661  26.674  35.083  1.00  0.00     0.264 C 
ATOM     24  O   UNL A   1      45.670  27.265  35.464  1.00  0.00    -0.268 OA
ATOM     25  N   UNL A   1      44.666  25.308  34.848  1.00  0.00    -0.333 N 
ATOM     26  C   UNL A   1      43.707  24.499  34.076  1.00  0.00     0.148 C 
ATOM     27  C   UNL A   1      45.742  24.497  35.426  1.00  0.00     0.148 C 
ATOM     28  C   UNL A   1      43.166  23.348  34.940  1.00  0.00     0.181 C 
ATOM     29  C   UNL A   1      45.129  23.375  36.273  1.00  0.00     0.181 C 
ATOM     30  O   UNL A   1      44.241  22.563  35.482  1.00  0.00    -0.378 OA
ENDBRANCH  20  23
ENDBRANCH  15  19
ENDBRANCH   8  14
ENDBRANCH   4   7
ENDBRANCH   2   3
ENDBRANCH   1   2
BRANCH   1  31
ATOM     31  C   UNL A   1      34.331  32.890  30.159  1.00  0.00     0.023 C 
BRANCH  31  32
ATOM     32  C   UNL A   1      34.722  32.462  28.748  1.00  0.00     0.116 C 
BRANCH  32  33
ATOM     33  N   UNL A   1      34.046  31.253  28.307  1.00  0.00    -0.352 N 
ATOM     34  C   UNL A   1      34.582  30.018  28.020  1.00  0.00     0.251 C 
ATOM     35  H   UNL A   1      33.071  31.328  28.197  1.00  0.00     0.163 HD
ATOM     36  O   UNL A   1      33.872  29.142  27.554  1.00  0.00    -0.269 OA
BRANCH  34  37
ATOM     37  C   UNL A   1      36.025  29.779  28.246  1.00  0.00     0.039 A 
ATOM     38  C   UNL A   1      36.434  29.305  29.494  1.00  0.00     0.014 A 
ATOM     39  C   UNL A   1      36.965  30.017  27.240  1.00  0.00     0.014 A 
ATOM     40  C   UNL A   1      37.784  29.025  29.716  1.00  0.00     0.010 A 
ATOM     41  C   UNL A   1      38.297  29.666  27.439  1.00  0.00     0.010 A 
ATOM     42  C   UNL A   1      38.723  29.181  28.683  1.00  0.00    -0.014 A 
BRANCH  42  43
ATOM     43  C   UNL A   1      40.155  28.861  28.905  1.00  0.00     0.031 A 
ATOM     44  C   UNL A   1      41.068  29.879  29.535  1.00  0.00     0.074 A 
ATOM     45  C   UNL A   1      40.637  27.664  28.517  1.00  0.00     0.049 A 
ATOM     46  N   UNL A   1      42.340  29.779  29.826  1.00  0.00    -0.248 NA
ATOM     47  C   UNL A   1      40.481  31.190  29.854  1.00  0.00     0.031 C 
ATOM     48  C   UNL A   1      39.864  26.618  27.844  1.00  0.00     0.029 A 
ATOM     49  N   UNL A   1      41.892  27.123  28.638  1.00  0.00    -0.354 N 
ATOM     50  C   UNL A   1      42.704  31.011  30.359  1.00  0.00     0.074 A 
ATOM     51  C   UNL A   1      41.538  31.863  30.283  1.00  0.00     0.031 C 
ATOM     52  C   UNL A   1      40.649  25.546  27.651  1.00  0.00     0.029 A 
ATOM     53  C   UNL A   1      41.985  25.836  28.163  1.00  0.00     0.049 A 
ATOM     54  H   UNL A   1      42.653  27.611  29.028  1.00  0.00     0.167 HD
ATOM     55  C   UNL A   1      43.890  31.389  30.892  1.00  0.00     0.037 A 
ATOM     56  C   UNL A   1      43.027  24.983  28.156  1.00  0.00     0.037 A 
ATOM     57  C   UNL A   1      45.043  30.530  30.978  1.00  0.00     0.049 A 
ATOM     58  C   UNL A   1      44.331  25.419  28.767  1.00  0.00     0.074 A 
ATOM     59  C   UNL A   1      46.283  30.801  31.527  1.00  0.00     0.029 A 
ATOM     60  N   UNL A   1      45.092  29.226  30.503  1.00  0.00    -0.354 N 
ATOM     61  N   UNL A   1      44.642  26.568  29.318  1.00  0.00    -0.248 NA
ATOM     62  C   UNL A   1      45.419  24.432  28.773  1.00  0.00     0.031 C 
ATOM     63  C   UNL A   1      47.094  29.672  31.355  1.00  0.00     0.029 A 
ATOM     64  C   UNL A   1      46.343  28.682  30.741  1.00  0.00     0.049 A 
ATOM     65  H   UNL A   1      44.348  28.757  30.061  1.00  0.00     0.167 HD
ATOM     66  C   UNL A   1      45.951  26.431  29.769  1.00  0.00     0.074 A 
ATOM     67  C   UNL A   1      46.367  25.084  29.433  1.00  0.00     0.031 C 
ATOM     68  C   UNL A   1      46.736  27.335  30.407  1.00  0.00     0.037 A 
BRANCH  55  69
ATOM     69  C   UNL A   1      43.987  32.791  31.432  1.00  0.00     0.058 A 
ATOM     70  C   UNL A   1      44.399  33.863  30.622  1.00  0.00     0.135 A 
ATOM     71  C   UNL A   1      43.669  33.069  32.770  1.00  0.00     0.135 A 
ATOM     72  F   UNL A   1      44.733  33.652  29.339  1.00  0.00    -0.206 F 
ATOM     73  C   UNL A   1      44.536  35.150  31.131  1.00  0.00     0.059 A 
ATOM     74  C   UNL A   1      43.768  34.356  33.293  1.00  0.00     0.059 A 
ATOM     75  F   UNL A   1      43.267  32.085  33.589  1.00  0.00    -0.206 F 
ATOM     76  C   UNL A   1      44.223  35.386  32.471  1.00  0.00     0.060 A 
BRANCH  76  77
ATOM     77  S   UNL A   1      44.426  37.058  33.121  1.00  0.00     0.124 S 
ATOM     78  O   UNL A   1      45.787  37.001  33.645  1.00  0.00    -0.237 OA
ATOM     79  O   UNL A   1      44.238  37.883  31.932  1.00  0.00    -0.237 OA
ATOM     80  O   UNL A   1      43.371  37.161  34.125  1.00  0.00    -0.744 OA
ENDBRANCH  76  77
ENDBRANCH  55  69
BRANCH  56  81
ATOM     81  C   UNL A   1      42.860  23.610  27.610  1.00  0.00     0.058 A 
ATOM     82  C   UNL A   1      42.457  22.553  28.440  1.00  0.00     0.135 A 
ATOM     83  C   UNL A   1      43.083  23.329  26.254  1.00  0.00     0.135 A 
ATOM     84  F   UNL A   1      42.235  22.772  29.745  1.00  0.00    -0.206 F 
ATOM     85  C   UNL A   1      42.302  21.260  27.950  1.00  0.00     0.059 A 
ATOM     86  C   UNL A   1      42.910  22.049  25.735  1.00  0.00     0.059 A 
ATOM     87  F   UNL A   1      43.449  24.310  25.415  1.00  0.00    -0.206 F 
ATOM     88  C   UNL A   1      42.529  21.018  26.595  1.00  0.00     0.060 A 
BRANCH  88  89
ATOM     89  S   UNL A   1      42.276  19.347  25.960  1.00  0.00     0.124 S 
ATOM     90  O   UNL A   1      42.781  18.535  27.062  1.00  0.00    -0.237 OA
ATOM     91  O   UNL A   1      40.832  19.313  25.750  1.00  0.00    -0.237 OA
ATOM     92  O   UNL A   1      43.079  19.327  24.740  1.00  0.00    -0.744 OA
ENDBRANCH  88  89
ENDBRANCH  56  81
BRANCH  68  93
ATOM     93  C   UNL A   1      48.105  26.875  30.828  1.00  0.00     0.058 A 
ATOM     94  C   UNL A   1      49.231  27.048  30.009  1.00  0.00     0.135 A 
ATOM     95  C   UNL A   1      48.290  26.262  32.078  1.00  0.00     0.135 A 
ATOM     96  F   UNL A   1      49.108  27.626  28.803  1.00  0.00    -0.206 F 
ATOM     97  C   UNL A   1      50.487  26.588  30.394  1.00  0.00     0.059 A 
ATOM     98  C   UNL A   1      49.542  25.821  32.496  1.00  0.00     0.059 A 
ATOM     99  F   UNL A   1      47.249  26.085  32.907  1.00  0.00    -0.206 F 
ATOM    100  C   UNL A   1      50.630  25.969  31.637  1.00  0.00     0.060 A 
BRANCH 100 101
ATOM    101  S   UNL A   1      52.260  25.370  32.127  1.00  0.00     0.124 S 
ATOM    102  O   UNL A   1      52.024  23.934  32.233  1.00  0.00    -0.237 OA
ATOM    103  O   UNL A   1      53.100  25.793  31.009  1.00  0.00    -0.237 OA
ATOM    104  O   UNL A   1      52.512  26.062  33.387  1.00  0.00    -0.744 OA
ENDBRANCH 100 101
ENDBRANCH  68  93
ENDBRANCH  42  43
ENDBRANCH  34  37
ENDBRANCH  32  33
ENDBRANCH  31  32
ENDBRANCH   1  31
TORSDOF 18
ENDMDL
