MODEL 1
REMARK VINA RESULT:     -11.6      0.000      0.000
REMARK SMILES COC(=O)Cc1nc(NC(=O)[C@H]2CC[C@@H]2C(=O)NCCCCNC(=O)c2ccc(-c3c4nc(c(-c5c(F)cc(S(=O)(=O)[O-])cc5F)c5ccc([nH]5)c(-c5c(F)cc(S(=O)(=O)[O-])cc5F)c5nc(c(-c6c(F)cc(S(=O)(=O)[O-])cc6F)c6ccc3[nH]6)C=C5)C=C4)cc2)sc1C
REMARK SMILES IDX 19 1 18 2 16 3 17 4 15 6 12 7 13 8 14 9 10 10 9 11 11 13
REMARK SMILES IDX 8 14 6 15 7 16 93 17 92 18 94 19 5 20 3 21 4 22 2 23 1 24
REMARK SMILES IDX 20 25 21 26 22 27 23 28 24 29 25 31 26 32 27 33 91 34 28 35
REMARK SMILES IDX 90 36 29 37 30 38 31 39 84 40 32 41 89 42 83 43 85 44 33 45
REMARK SMILES IDX 88 46 82 47 81 48 34 50 68 51 47 52 67 53 48 54 51 55 66 56
REMARK SMILES IDX 86 57 49 58 50 59 65 61 87 62 52 63 35 64 36 65 45 66 37 67
REMARK SMILES IDX 38 68 44 69 46 70 39 71 40 72 41 73 42 74 43 75 69 76 70 77
REMARK SMILES IDX 79 78 71 79 72 80 78 81 80 82 73 83 74 84 75 85 76 86 77 87
REMARK SMILES IDX 53 88 54 89 63 90 55 91 56 92 62 93 64 94 57 95 58 96 59 97
REMARK SMILES IDX 60 98 61 99
REMARK H PARENT 18 5 9 12 23 30 85 49 51 60
REMARK Flexibility Score: inf
ROOT
ATOM      1  C   UNL A   1      32.038  29.562  25.331  1.00  0.00     0.116 C 
ENDROOT
BRANCH   1   2
ATOM      2  N   UNL A   1      31.761  29.263  23.939  1.00  0.00    -0.356 N 
ATOM      3  C   UNL A   1      31.301  28.084  23.402  1.00  0.00     0.223 C 
ATOM      4  O   UNL A   1      31.248  27.992  22.175  1.00  0.00    -0.275 OA
ATOM      5  H   UNL A   1      31.921  29.994  23.299  1.00  0.00     0.163 HD
BRANCH   3   6
ATOM      6  C   UNL A   1      30.775  27.010  24.409  1.00  0.00     0.091 C 
ATOM      7  C   UNL A   1      31.789  25.907  24.923  1.00  0.00     0.091 C 
ATOM      8  C   UNL A   1      31.432  25.158  23.629  1.00  0.00     0.015 C 
ATOM      9  C   UNL A   1      30.043  25.831  23.699  1.00  0.00     0.015 C 
BRANCH   7  10
ATOM     10  C   UNL A   1      31.638  25.454  26.401  1.00  0.00     0.230 C 
ATOM     11  N   UNL A   1      31.768  24.189  26.939  1.00  0.00    -0.302 N 
ATOM     12  H   UNL A   1      31.373  24.108  27.838  1.00  0.00     0.172 HD
ATOM     13  O   UNL A   1      31.208  26.288  27.228  1.00  0.00    -0.274 OA
BRANCH  11  14
ATOM     14  C   UNL A   1      32.324  23.030  26.494  1.00  0.00     0.189 A 
ATOM     15  C   UNL A   1      32.752  21.334  25.144  1.00  0.00     0.068 A 
ATOM     16  N   UNL A   1      31.771  22.222  25.616  1.00  0.00    -0.224 NA
ATOM     17  C   UNL A   1      34.002  21.595  25.690  1.00  0.00     0.027 A 
ATOM     18  S   UNL A   1      33.714  22.366  27.195  1.00  0.00    -0.102 S 
ATOM     19  C   UNL A   1      35.386  21.328  25.229  1.00  0.00     0.058 C 
BRANCH  15  20
ATOM     20  C   UNL A   1      32.373  20.370  24.064  1.00  0.00     0.180 C 
BRANCH  20  21
ATOM     21  C   UNL A   1      32.576  18.930  24.471  1.00  0.00     0.311 C 
ATOM     22  O   UNL A   1      32.159  18.432  25.509  1.00  0.00    -0.252 OA
BRANCH  21  23
ATOM     23  O   UNL A   1      33.365  18.288  23.562  1.00  0.00    -0.469 OA
ATOM     24  C   UNL A   1      33.401  16.863  23.688  1.00  0.00     0.282 C 
ENDBRANCH  21  23
ENDBRANCH  20  21
ENDBRANCH  15  20
ENDBRANCH  11  14
ENDBRANCH   7  10
ENDBRANCH   3   6
ENDBRANCH   1   2
BRANCH   1  25
ATOM     25  C   UNL A   1      33.481  29.211  25.682  1.00  0.00     0.023 C 
BRANCH  25  26
ATOM     26  C   UNL A   1      33.736  29.035  27.181  1.00  0.00     0.023 C 
BRANCH  26  27
ATOM     27  C   UNL A   1      35.168  29.317  27.626  1.00  0.00     0.116 C 
BRANCH  27  28
ATOM     28  N   UNL A   1      35.229  30.207  28.773  1.00  0.00    -0.352 N 
ATOM     29  C   UNL A   1      36.281  30.453  29.627  1.00  0.00     0.251 C 
ATOM     30  H   UNL A   1      34.401  30.704  28.968  1.00  0.00     0.163 HD
ATOM     31  O   UNL A   1      36.101  31.104  30.645  1.00  0.00    -0.269 OA
BRANCH  29  32
ATOM     32  C   UNL A   1      37.619  29.899  29.316  1.00  0.00     0.039 A 
ATOM     33  C   UNL A   1      38.038  29.854  27.985  1.00  0.00     0.014 A 
ATOM     34  C   UNL A   1      38.459  29.438  30.333  1.00  0.00     0.014 A 
ATOM     35  C   UNL A   1      39.327  29.409  27.680  1.00  0.00     0.010 A 
ATOM     36  C   UNL A   1      39.768  29.066  30.035  1.00  0.00     0.010 A 
ATOM     37  C   UNL A   1      40.217  29.047  28.706  1.00  0.00    -0.014 A 
BRANCH  37  38
ATOM     38  C   UNL A   1      41.621  28.657  28.409  1.00  0.00     0.031 A 
ATOM     39  C   UNL A   1      42.705  29.699  28.375  1.00  0.00     0.074 A 
ATOM     40  C   UNL A   1      41.906  27.376  28.100  1.00  0.00     0.049 A 
ATOM     41  N   UNL A   1      43.968  29.566  28.063  1.00  0.00    -0.248 NA
ATOM     42  C   UNL A   1      42.314  31.078  28.712  1.00  0.00     0.031 C 
ATOM     43  C   UNL A   1      40.934  26.282  28.047  1.00  0.00     0.029 A 
ATOM     44  N   UNL A   1      43.094  26.779  27.756  1.00  0.00    -0.354 N 
ATOM     45  C   UNL A   1      44.518  30.840  28.148  1.00  0.00     0.074 A 
ATOM     46  C   UNL A   1      43.440  31.741  28.493  1.00  0.00     0.031 C 
ATOM     47  C   UNL A   1      41.567  25.146  27.711  1.00  0.00     0.029 A 
ATOM     48  C   UNL A   1      42.980  25.436  27.484  1.00  0.00     0.049 A 
ATOM     49  H   UNL A   1      43.947  27.267  27.710  1.00  0.00     0.167 HD
ATOM     50  C   UNL A   1      45.807  31.221  27.975  1.00  0.00     0.037 A 
ATOM     51  C   UNL A   1      43.904  24.539  27.085  1.00  0.00     0.037 A 
ATOM     52  C   UNL A   1      46.879  30.315  27.657  1.00  0.00     0.049 A 
ATOM     53  C   UNL A   1      45.329  24.985  26.902  1.00  0.00     0.074 A 
ATOM     54  C   UNL A   1      48.229  30.594  27.528  1.00  0.00     0.029 A 
ATOM     55  N   UNL A   1      46.727  28.957  27.414  1.00  0.00    -0.354 N 
ATOM     56  N   UNL A   1      45.843  26.183  27.055  1.00  0.00    -0.248 NA
ATOM     57  C   UNL A   1      46.302  23.960  26.500  1.00  0.00     0.031 C 
ATOM     58  C   UNL A   1      48.886  29.416  27.157  1.00  0.00     0.029 A 
ATOM     59  C   UNL A   1      47.955  28.390  27.111  1.00  0.00     0.049 A 
ATOM     60  H   UNL A   1      45.874  28.469  27.451  1.00  0.00     0.167 HD
ATOM     61  C   UNL A   1      47.203  26.048  26.794  1.00  0.00     0.074 A 
ATOM     62  C   UNL A   1      47.432  24.652  26.486  1.00  0.00     0.031 C 
ATOM     63  C   UNL A   1      48.173  26.997  26.812  1.00  0.00     0.037 A 
BRANCH  50  64
ATOM     64  C   UNL A   1      46.131  32.683  28.128  1.00  0.00     0.058 A 
ATOM     65  C   UNL A   1      45.963  33.593  27.072  1.00  0.00     0.135 A 
ATOM     66  C   UNL A   1      46.574  33.190  29.361  1.00  0.00     0.135 A 
ATOM     67  F   UNL A   1      45.556  33.162  25.867  1.00  0.00    -0.206 F 
ATOM     68  C   UNL A   1      46.250  34.945  27.222  1.00  0.00     0.059 A 
ATOM     69  C   UNL A   1      46.838  34.544  29.544  1.00  0.00     0.059 A 
ATOM     70  F   UNL A   1      46.752  32.366  30.407  1.00  0.00    -0.206 F 
ATOM     71  C   UNL A   1      46.686  35.412  28.463  1.00  0.00     0.060 A 
BRANCH  71  72
ATOM     72  S   UNL A   1      47.049  37.171  28.643  1.00  0.00     0.124 S 
ATOM     73  O   UNL A   1      48.501  37.156  28.785  1.00  0.00    -0.237 OA
ATOM     74  O   UNL A   1      46.541  37.722  27.390  1.00  0.00    -0.237 OA
ATOM     75  O   UNL A   1      46.305  37.552  29.839  1.00  0.00    -0.744 OA
ENDBRANCH  71  72
ENDBRANCH  50  64
BRANCH  51  76
ATOM     76  C   UNL A   1      43.509  23.124  26.847  1.00  0.00     0.058 A 
ATOM     77  C   UNL A   1      43.455  22.598  25.548  1.00  0.00     0.135 A 
ATOM     78  C   UNL A   1      43.199  22.265  27.913  1.00  0.00     0.135 A 
ATOM     79  F   UNL A   1      43.736  23.381  24.495  1.00  0.00    -0.206 F 
ATOM     80  C   UNL A   1      43.093  21.276  25.311  1.00  0.00     0.059 A 
ATOM     81  C   UNL A   1      42.859  20.932  27.704  1.00  0.00     0.059 A 
ATOM     82  F   UNL A   1      43.252  22.715  29.177  1.00  0.00    -0.206 F 
ATOM     83  C   UNL A   1      42.800  20.449  26.398  1.00  0.00     0.060 A 
BRANCH  83  84
ATOM     84  S   UNL A   1      42.386  18.720  26.082  1.00  0.00     0.124 S 
ATOM     85  O   UNL A   1      40.989  18.822  25.674  1.00  0.00    -0.237 OA
ATOM     86  O   UNL A   1      43.333  18.365  25.030  1.00  0.00    -0.237 OA
ATOM     87  O   UNL A   1      42.623  18.077  27.370  1.00  0.00    -0.744 OA
ENDBRANCH  83  84
ENDBRANCH  51  76
BRANCH  63  88
ATOM     88  C   UNL A   1      49.582  26.556  26.524  1.00  0.00     0.058 A 
ATOM     89  C   UNL A   1      50.404  26.004  27.519  1.00  0.00     0.135 A 
ATOM     90  C   UNL A   1      50.096  26.634  25.218  1.00  0.00     0.135 A 
ATOM     91  F   UNL A   1      49.965  25.913  28.783  1.00  0.00    -0.206 F 
ATOM     92  C   UNL A   1      51.693  25.565  27.234  1.00  0.00     0.059 A 
ATOM     93  C   UNL A   1      51.370  26.174  24.905  1.00  0.00     0.059 A 
ATOM     94  F   UNL A   1      49.347  27.144  24.226  1.00  0.00    -0.206 F 
ATOM     95  C   UNL A   1      52.167  25.650  25.923  1.00  0.00     0.060 A 
BRANCH  95  96
ATOM     96  S   UNL A   1      53.827  25.042  25.561  1.00  0.00     0.124 S 
ATOM     97  O   UNL A   1      53.584  23.615  25.374  1.00  0.00    -0.237 OA
ATOM     98  O   UNL A   1      54.176  25.788  24.355  1.00  0.00    -0.237 OA
ATOM     99  O   UNL A   1      54.588  25.399  26.753  1.00  0.00    -0.744 OA
ENDBRANCH  95  96
ENDBRANCH  63  88
ENDBRANCH  37  38
ENDBRANCH  29  32
ENDBRANCH  27  28
ENDBRANCH  26  27
ENDBRANCH  25  26
ENDBRANCH   1  25
TORSDOF 19
ENDMDL
MODEL 2
REMARK VINA RESULT:     -11.6      2.526      3.405
REMARK SMILES COC(=O)Cc1nc(NC(=O)[C@H]2CC[C@@H]2C(=O)NCCCCNC(=O)c2ccc(-c3c4nc(c(-c5c(F)cc(S(=O)(=O)[O-])cc5F)c5ccc([nH]5)c(-c5c(F)cc(S(=O)(=O)[O-])cc5F)c5nc(c(-c6c(F)cc(S(=O)(=O)[O-])cc6F)c6ccc3[nH]6)C=C5)C=C4)cc2)sc1C
REMARK SMILES IDX 19 1 18 2 16 3 17 4 15 6 12 7 13 8 14 9 10 10 9 11 11 13
REMARK SMILES IDX 8 14 6 15 7 16 93 17 92 18 94 19 5 20 3 21 4 22 2 23 1 24
REMARK SMILES IDX 20 25 21 26 22 27 23 28 24 29 25 31 26 32 27 33 91 34 28 35
REMARK SMILES IDX 90 36 29 37 30 38 31 39 84 40 32 41 89 42 83 43 85 44 33 45
REMARK SMILES IDX 88 46 82 47 81 48 34 50 68 51 47 52 67 53 48 54 51 55 66 56
REMARK SMILES IDX 86 57 49 58 50 59 65 61 87 62 52 63 35 64 36 65 45 66 37 67
REMARK SMILES IDX 38 68 44 69 46 70 39 71 40 72 41 73 42 74 43 75 69 76 70 77
REMARK SMILES IDX 79 78 71 79 72 80 78 81 80 82 73 83 74 84 75 85 76 86 77 87
REMARK SMILES IDX 53 88 54 89 63 90 55 91 56 92 62 93 64 94 57 95 58 96 59 97
REMARK SMILES IDX 60 98 61 99
REMARK H PARENT 18 5 9 12 23 30 85 49 51 60
REMARK Flexibility Score: inf
ROOT
ATOM      1  C   UNL A   1      31.492  29.662  25.006  1.00  0.00     0.116 C 
ENDROOT
BRANCH   1   2
ATOM      2  N   UNL A   1      30.973  29.389  23.679  1.00  0.00    -0.356 N 
ATOM      3  C   UNL A   1      30.457  28.209  23.199  1.00  0.00     0.223 C 
ATOM      4  O   UNL A   1      30.182  28.146  21.999  1.00  0.00    -0.275 OA
ATOM      5  H   UNL A   1      30.992  30.141  23.044  1.00  0.00     0.163 HD
BRANCH   3   6
ATOM      6  C   UNL A   1      30.154  27.093  24.250  1.00  0.00     0.091 C 
ATOM      7  C   UNL A   1      31.258  25.986  24.505  1.00  0.00     0.091 C 
ATOM      8  C   UNL A   1      30.648  25.279  23.283  1.00  0.00     0.015 C 
ATOM      9  C   UNL A   1      29.298  25.931  23.661  1.00  0.00     0.015 C 
BRANCH   7  10
ATOM     10  C   UNL A   1      31.415  25.479  25.964  1.00  0.00     0.230 C 
ATOM     11  N   UNL A   1      31.956  24.291  26.417  1.00  0.00    -0.302 N 
ATOM     12  H   UNL A   1      31.709  24.084  27.347  1.00  0.00     0.172 HD
ATOM     13  O   UNL A   1      30.871  26.140  26.876  1.00  0.00    -0.274 OA
BRANCH  11  14
ATOM     14  C   UNL A   1      32.757  23.348  25.854  1.00  0.00     0.189 A 
ATOM     15  C   UNL A   1      34.477  21.979  25.615  1.00  0.00     0.068 A 
ATOM     16  N   UNL A   1      34.051  23.239  26.067  1.00  0.00    -0.224 NA
ATOM     17  C   UNL A   1      33.423  21.212  25.133  1.00  0.00     0.027 A 
ATOM     18  S   UNL A   1      32.220  22.322  24.621  1.00  0.00    -0.102 S 
ATOM     19  C   UNL A   1      33.210  19.750  24.999  1.00  0.00     0.058 C 
BRANCH  15  20
ATOM     20  C   UNL A   1      35.905  21.593  25.833  1.00  0.00     0.180 C 
BRANCH  20  21
ATOM     21  C   UNL A   1      36.853  22.325  24.913  1.00  0.00     0.311 C 
ATOM     22  O   UNL A   1      36.873  22.208  23.694  1.00  0.00    -0.252 OA
BRANCH  21  23
ATOM     23  O   UNL A   1      37.741  23.064  25.639  1.00  0.00    -0.469 OA
ATOM     24  C   UNL A   1      38.878  22.343  26.125  1.00  0.00     0.282 C 
ENDBRANCH  21  23
ENDBRANCH  20  21
ENDBRANCH  15  20
ENDBRANCH  11  14
ENDBRANCH   7  10
ENDBRANCH   3   6
ENDBRANCH   1   2
BRANCH   1  25
ATOM     25  C   UNL A   1      33.016  29.598  25.015  1.00  0.00     0.023 C 
BRANCH  25  26
ATOM     26  C   UNL A   1      33.587  28.328  25.649  1.00  0.00     0.023 C 
BRANCH  26  27
ATOM     27  C   UNL A   1      33.923  28.446  27.132  1.00  0.00     0.116 C 
BRANCH  27  28
ATOM     28  N   UNL A   1      33.797  29.807  27.623  1.00  0.00    -0.352 N 
ATOM     29  C   UNL A   1      34.708  30.566  28.324  1.00  0.00     0.251 C 
ATOM     30  H   UNL A   1      32.939  30.251  27.429  1.00  0.00     0.163 HD
ATOM     31  O   UNL A   1      34.368  31.636  28.807  1.00  0.00    -0.269 OA
BRANCH  29  32
ATOM     32  C   UNL A   1      36.088  30.064  28.508  1.00  0.00     0.039 A 
ATOM     33  C   UNL A   1      36.971  30.101  27.427  1.00  0.00     0.014 A 
ATOM     34  C   UNL A   1      36.514  29.569  29.745  1.00  0.00     0.014 A 
ATOM     35  C   UNL A   1      38.299  29.705  27.604  1.00  0.00     0.010 A 
ATOM     36  C   UNL A   1      37.854  29.246  29.938  1.00  0.00     0.010 A 
ATOM     37  C   UNL A   1      38.762  29.310  28.870  1.00  0.00    -0.014 A 
BRANCH  37  38
ATOM     38  C   UNL A   1      40.192  28.972  29.099  1.00  0.00     0.031 A 
ATOM     39  C   UNL A   1      41.141  30.013  29.629  1.00  0.00     0.074 A 
ATOM     40  C   UNL A   1      40.650  27.750  28.763  1.00  0.00     0.049 A 
ATOM     41  N   UNL A   1      42.432  29.930  29.822  1.00  0.00    -0.248 NA
ATOM     42  C   UNL A   1      40.569  31.327  29.962  1.00  0.00     0.031 C 
ATOM     43  C   UNL A   1      39.841  26.670  28.193  1.00  0.00     0.029 A 
ATOM     44  N   UNL A   1      41.912  27.212  28.839  1.00  0.00    -0.354 N 
ATOM     45  C   UNL A   1      42.829  31.181  30.281  1.00  0.00     0.074 A 
ATOM     46  C   UNL A   1      41.650  32.019  30.290  1.00  0.00     0.031 C 
ATOM     47  C   UNL A   1      40.622  25.597  27.987  1.00  0.00     0.029 A 
ATOM     48  C   UNL A   1      41.992  25.921  28.371  1.00  0.00     0.049 A 
ATOM     49  H   UNL A   1      42.686  27.705  29.194  1.00  0.00     0.167 HD
ATOM     50  C   UNL A   1      44.059  31.588  30.678  1.00  0.00     0.037 A 
ATOM     51  C   UNL A   1      43.050  25.094  28.253  1.00  0.00     0.037 A 
ATOM     52  C   UNL A   1      45.223  30.740  30.691  1.00  0.00     0.049 A 
ATOM     53  C   UNL A   1      44.405  25.567  28.702  1.00  0.00     0.074 A 
ATOM     54  C   UNL A   1      46.499  31.040  31.138  1.00  0.00     0.029 A 
ATOM     55  N   UNL A   1      45.258  29.430  30.233  1.00  0.00    -0.354 N 
ATOM     56  N   UNL A   1      44.749  26.733  29.199  1.00  0.00    -0.248 NA
ATOM     57  C   UNL A   1      45.517  24.613  28.584  1.00  0.00     0.031 C 
ATOM     58  C   UNL A   1      47.317  29.929  30.904  1.00  0.00     0.029 A 
ATOM     59  C   UNL A   1      46.538  28.917  30.364  1.00  0.00     0.049 A 
ATOM     60  H   UNL A   1      44.488  28.939  29.869  1.00  0.00     0.167 HD
ATOM     61  C   UNL A   1      46.109  26.642  29.477  1.00  0.00     0.074 A 
ATOM     62  C   UNL A   1      46.522  25.304  29.104  1.00  0.00     0.031 C 
ATOM     63  C   UNL A   1      46.937  27.581  29.996  1.00  0.00     0.037 A 
BRANCH  50  64
ATOM     64  C   UNL A   1      44.212  33.014  31.134  1.00  0.00     0.058 A 
ATOM     65  C   UNL A   1      44.559  34.042  30.244  1.00  0.00     0.135 A 
ATOM     66  C   UNL A   1      43.964  33.365  32.471  1.00  0.00     0.135 A 
ATOM     67  F   UNL A   1      44.822  33.763  28.957  1.00  0.00    -0.206 F 
ATOM     68  C   UNL A   1      44.684  35.361  30.667  1.00  0.00     0.059 A 
ATOM     69  C   UNL A   1      44.053  34.682  32.912  1.00  0.00     0.059 A 
ATOM     70  F   UNL A   1      43.627  32.422  33.367  1.00  0.00    -0.206 F 
ATOM     71  C   UNL A   1      44.428  35.671  32.003  1.00  0.00     0.060 A 
BRANCH  71  72
ATOM     72  S   UNL A   1      44.589  37.390  32.535  1.00  0.00     0.124 S 
ATOM     73  O   UNL A   1      46.040  37.549  32.566  1.00  0.00    -0.237 OA
ATOM     74  O   UNL A   1      43.896  38.109  31.471  1.00  0.00    -0.237 OA
ATOM     75  O   UNL A   1      43.928  37.408  33.835  1.00  0.00    -0.744 OA
ENDBRANCH  71  72
ENDBRANCH  50  64
BRANCH  51  76
ATOM     76  C   UNL A   1      42.863  23.726  27.698  1.00  0.00     0.058 A 
ATOM     77  C   UNL A   1      42.535  22.647  28.531  1.00  0.00     0.135 A 
ATOM     78  C   UNL A   1      42.990  23.474  26.322  1.00  0.00     0.135 A 
ATOM     79  F   UNL A   1      42.409  22.835  29.854  1.00  0.00    -0.206 F 
ATOM     80  C   UNL A   1      42.353  21.364  28.025  1.00  0.00     0.059 A 
ATOM     81  C   UNL A   1      42.787  22.206  25.788  1.00  0.00     0.059 A 
ATOM     82  F   UNL A   1      43.286  24.476  25.480  1.00  0.00    -0.206 F 
ATOM     83  C   UNL A   1      42.478  21.154  26.650  1.00  0.00     0.060 A 
BRANCH  83  84
ATOM     84  S   UNL A   1      42.184  19.496  25.998  1.00  0.00     0.124 S 
ATOM     85  O   UNL A   1      40.746  19.526  25.756  1.00  0.00    -0.237 OA
ATOM     86  O   UNL A   1      43.031  19.480  24.810  1.00  0.00    -0.237 OA
ATOM     87  O   UNL A   1      42.625  18.626  27.084  1.00  0.00    -0.744 OA
ENDBRANCH  83  84
ENDBRANCH  51  76
BRANCH  63  88
ATOM     88  C   UNL A   1      48.372  27.191  30.229  1.00  0.00     0.058 A 
ATOM     89  C   UNL A   1      49.347  27.325  29.228  1.00  0.00     0.135 A 
ATOM     90  C   UNL A   1      48.785  26.731  31.491  1.00  0.00     0.135 A 
ATOM     91  F   UNL A   1      49.004  27.753  28.004  1.00  0.00    -0.206 F 
ATOM     92  C   UNL A   1      50.678  26.997  29.464  1.00  0.00     0.059 A 
ATOM     93  C   UNL A   1      50.115  26.426  31.757  1.00  0.00     0.059 A 
ATOM     94  F   UNL A   1      47.894  26.595  32.486  1.00  0.00    -0.206 F 
ATOM     95  C   UNL A   1      51.054  26.551  30.733  1.00  0.00     0.060 A 
BRANCH  95  96
ATOM     96  S   UNL A   1      52.791  26.165  31.036  1.00  0.00     0.124 S 
ATOM     97  O   UNL A   1      53.338  26.186  29.684  1.00  0.00    -0.237 OA
ATOM     98  O   UNL A   1      53.208  27.261  31.906  1.00  0.00    -0.237 OA
ATOM     99  O   UNL A   1      52.742  24.852  31.673  1.00  0.00    -0.744 OA
ENDBRANCH  95  96
ENDBRANCH  63  88
ENDBRANCH  37  38
ENDBRANCH  29  32
ENDBRANCH  27  28
ENDBRANCH  26  27
ENDBRANCH  25  26
ENDBRANCH   1  25
TORSDOF 19
ENDMDL
MODEL 3
REMARK VINA RESULT:     -11.3      2.965      4.692
REMARK SMILES COC(=O)Cc1nc(NC(=O)[C@H]2CC[C@@H]2C(=O)NCCCCNC(=O)c2ccc(-c3c4nc(c(-c5c(F)cc(S(=O)(=O)[O-])cc5F)c5ccc([nH]5)c(-c5c(F)cc(S(=O)(=O)[O-])cc5F)c5nc(c(-c6c(F)cc(S(=O)(=O)[O-])cc6F)c6ccc3[nH]6)C=C5)C=C4)cc2)sc1C
REMARK SMILES IDX 19 1 18 2 16 3 17 4 15 6 12 7 13 8 14 9 10 10 9 11 11 13
REMARK SMILES IDX 8 14 6 15 7 16 93 17 92 18 94 19 5 20 3 21 4 22 2 23 1 24
REMARK SMILES IDX 20 25 21 26 22 27 23 28 24 29 25 31 26 32 27 33 91 34 28 35
REMARK SMILES IDX 90 36 29 37 30 38 31 39 84 40 32 41 89 42 83 43 85 44 33 45
REMARK SMILES IDX 88 46 82 47 81 48 34 50 68 51 47 52 67 53 48 54 51 55 66 56
REMARK SMILES IDX 86 57 49 58 50 59 65 61 87 62 52 63 35 64 36 65 45 66 37 67
REMARK SMILES IDX 38 68 44 69 46 70 39 71 40 72 41 73 42 74 43 75 69 76 70 77
REMARK SMILES IDX 79 78 71 79 72 80 78 81 80 82 73 83 74 84 75 85 76 86 77 87
REMARK SMILES IDX 53 88 54 89 63 90 55 91 56 92 62 93 64 94 57 95 58 96 59 97
REMARK SMILES IDX 60 98 61 99
REMARK H PARENT 18 5 9 12 23 30 85 49 51 60
REMARK Flexibility Score: inf
ROOT
ATOM      1  C   UNL A   1      33.670  25.833  25.527  1.00  0.00     0.116 C 
ENDROOT
BRANCH   1   2
ATOM      2  N   UNL A   1      34.410  24.832  24.781  1.00  0.00    -0.356 N 
ATOM      3  C   UNL A   1      34.109  23.500  24.627  1.00  0.00     0.223 C 
ATOM      4  O   UNL A   1      34.935  22.785  24.056  1.00  0.00    -0.275 OA
ATOM      5  H   UNL A   1      35.228  25.145  24.331  1.00  0.00     0.163 HD
BRANCH   3   6
ATOM      6  C   UNL A   1      32.688  23.040  25.087  1.00  0.00     0.091 C 
ATOM      7  C   UNL A   1      32.135  23.586  26.467  1.00  0.00     0.091 C 
ATOM      8  C   UNL A   1      32.931  22.431  27.096  1.00  0.00     0.015 C 
ATOM      9  C   UNL A   1      32.705  21.646  25.784  1.00  0.00     0.015 C 
BRANCH   7  10
ATOM     10  C   UNL A   1      30.615  23.893  26.538  1.00  0.00     0.230 C 
ATOM     11  N   UNL A   1      29.888  24.844  25.848  1.00  0.00    -0.302 N 
ATOM     12  H   UNL A   1      29.006  25.021  26.249  1.00  0.00     0.172 HD
ATOM     13  O   UNL A   1      29.941  23.319  27.422  1.00  0.00    -0.274 OA
BRANCH  11  14
ATOM     14  C   UNL A   1      30.128  25.588  24.735  1.00  0.00     0.189 A 
ATOM     15  C   UNL A   1      30.675  27.342  23.506  1.00  0.00     0.068 A 
ATOM     16  N   UNL A   1      30.034  26.899  24.675  1.00  0.00    -0.224 NA
ATOM     17  C   UNL A   1      31.253  26.296  22.797  1.00  0.00     0.027 A 
ATOM     18  S   UNL A   1      30.365  24.889  23.213  1.00  0.00    -0.102 S 
ATOM     19  C   UNL A   1      32.382  26.223  21.838  1.00  0.00     0.058 C 
BRANCH  15  20
ATOM     20  C   UNL A   1      30.771  28.815  23.266  1.00  0.00     0.180 C 
BRANCH  20  21
ATOM     21  C   UNL A   1      29.594  29.358  22.493  1.00  0.00     0.311 C 
ATOM     22  O   UNL A   1      29.602  29.611  21.294  1.00  0.00    -0.252 OA
BRANCH  21  23
ATOM     23  O   UNL A   1      28.549  29.609  23.334  1.00  0.00    -0.469 OA
ATOM     24  C   UNL A   1      27.344  28.899  23.036  1.00  0.00     0.282 C 
ENDBRANCH  21  23
ENDBRANCH  20  21
ENDBRANCH  15  20
ENDBRANCH  11  14
ENDBRANCH   7  10
ENDBRANCH   3   6
ENDBRANCH   1   2
BRANCH   1  25
ATOM     25  C   UNL A   1      34.065  27.239  25.084  1.00  0.00     0.023 C 
BRANCH  25  26
ATOM     26  C   UNL A   1      33.267  28.356  25.760  1.00  0.00     0.023 C 
BRANCH  26  27
ATOM     27  C   UNL A   1      33.601  28.585  27.230  1.00  0.00     0.116 C 
BRANCH  27  28
ATOM     28  N   UNL A   1      33.495  29.982  27.614  1.00  0.00    -0.352 N 
ATOM     29  C   UNL A   1      34.415  30.778  28.259  1.00  0.00     0.251 C 
ATOM     30  H   UNL A   1      32.646  30.423  27.380  1.00  0.00     0.163 HD
ATOM     31  O   UNL A   1      34.091  31.888  28.656  1.00  0.00    -0.269 OA
BRANCH  29  32
ATOM     32  C   UNL A   1      35.786  30.269  28.492  1.00  0.00     0.039 A 
ATOM     33  C   UNL A   1      36.718  30.339  27.454  1.00  0.00     0.014 A 
ATOM     34  C   UNL A   1      36.154  29.736  29.730  1.00  0.00     0.014 A 
ATOM     35  C   UNL A   1      38.036  29.938  27.679  1.00  0.00     0.010 A 
ATOM     36  C   UNL A   1      37.485  29.406  29.975  1.00  0.00     0.010 A 
ATOM     37  C   UNL A   1      38.441  29.503  28.953  1.00  0.00    -0.014 A 
BRANCH  37  38
ATOM     38  C   UNL A   1      39.859  29.157  29.237  1.00  0.00     0.031 A 
ATOM     39  C   UNL A   1      40.789  30.188  29.817  1.00  0.00     0.074 A 
ATOM     40  C   UNL A   1      40.326  27.936  28.907  1.00  0.00     0.049 A 
ATOM     41  N   UNL A   1      42.071  30.098  30.062  1.00  0.00    -0.248 NA
ATOM     42  C   UNL A   1      40.208  31.501  30.140  1.00  0.00     0.031 C 
ATOM     43  C   UNL A   1      39.538  26.866  28.291  1.00  0.00     0.029 A 
ATOM     44  N   UNL A   1      41.582  27.393  29.028  1.00  0.00    -0.354 N 
ATOM     45  C   UNL A   1      42.453  31.342  30.551  1.00  0.00     0.074 A 
ATOM     46  C   UNL A   1      41.277  32.185  30.521  1.00  0.00     0.031 C 
ATOM     47  C   UNL A   1      40.322  25.792  28.106  1.00  0.00     0.029 A 
ATOM     48  C   UNL A   1      41.677  26.107  28.550  1.00  0.00     0.049 A 
ATOM     49  H   UNL A   1      42.342  27.879  29.421  1.00  0.00     0.167 HD
ATOM     50  C   UNL A   1      43.667  31.740  31.003  1.00  0.00     0.037 A 
ATOM     51  C   UNL A   1      42.736  25.277  28.466  1.00  0.00     0.037 A 
ATOM     52  C   UNL A   1      44.826  30.888  31.054  1.00  0.00     0.049 A 
ATOM     53  C   UNL A   1      44.073  25.739  28.977  1.00  0.00     0.074 A 
ATOM     54  C   UNL A   1      46.083  31.177  31.557  1.00  0.00     0.029 A 
ATOM     55  N   UNL A   1      44.875  29.583  30.584  1.00  0.00    -0.354 N 
ATOM     56  N   UNL A   1      44.400  26.898  29.500  1.00  0.00    -0.248 NA
ATOM     57  C   UNL A   1      45.186  24.783  28.894  1.00  0.00     0.031 C 
ATOM     58  C   UNL A   1      46.906  30.066  31.345  1.00  0.00     0.029 A 
ATOM     59  C   UNL A   1      46.147  29.063  30.762  1.00  0.00     0.049 A 
ATOM     60  H   UNL A   1      44.119  29.098  30.183  1.00  0.00     0.167 HD
ATOM     61  C   UNL A   1      45.747  26.799  29.833  1.00  0.00     0.074 A 
ATOM     62  C   UNL A   1      46.170  25.464  29.463  1.00  0.00     0.031 C 
ATOM     63  C   UNL A   1      46.556  27.730  30.396  1.00  0.00     0.037 A 
BRANCH  50  64
ATOM     64  C   UNL A   1      43.805  33.160  31.480  1.00  0.00     0.058 A 
ATOM     65  C   UNL A   1      44.093  34.213  30.598  1.00  0.00     0.135 A 
ATOM     66  C   UNL A   1      43.603  33.480  32.834  1.00  0.00     0.135 A 
ATOM     67  F   UNL A   1      44.309  33.964  29.296  1.00  0.00    -0.206 F 
ATOM     68  C   UNL A   1      44.205  35.526  31.042  1.00  0.00     0.059 A 
ATOM     69  C   UNL A   1      43.680  34.791  33.296  1.00  0.00     0.059 A 
ATOM     70  F   UNL A   1      43.325  32.513  33.723  1.00  0.00    -0.206 F 
ATOM     71  C   UNL A   1      43.996  35.805  32.393  1.00  0.00     0.060 A 
BRANCH  71  72
ATOM     72  S   UNL A   1      44.140  37.516  32.951  1.00  0.00     0.124 S 
ATOM     73  O   UNL A   1      42.978  37.634  33.828  1.00  0.00    -0.237 OA
ATOM     74  O   UNL A   1      45.439  37.518  33.616  1.00  0.00    -0.237 OA
ATOM     75  O   UNL A   1      44.071  38.286  31.713  1.00  0.00    -0.744 OA
ENDBRANCH  71  72
ENDBRANCH  50  64
BRANCH  51  76
ATOM     76  C   UNL A   1      42.567  23.916  27.889  1.00  0.00     0.058 A 
ATOM     77  C   UNL A   1      42.485  23.725  26.502  1.00  0.00     0.135 A 
ATOM     78  C   UNL A   1      42.506  22.778  28.710  1.00  0.00     0.135 A 
ATOM     79  F   UNL A   1      42.533  24.780  25.676  1.00  0.00    -0.206 F 
ATOM     80  C   UNL A   1      42.333  22.458  25.948  1.00  0.00     0.059 A 
ATOM     81  C   UNL A   1      42.380  21.498  28.180  1.00  0.00     0.059 A 
ATOM     82  F   UNL A   1      42.597  22.906  30.043  1.00  0.00    -0.206 F 
ATOM     83  C   UNL A   1      42.285  21.349  26.797  1.00  0.00     0.060 A 
BRANCH  83  84
ATOM     84  S   UNL A   1      42.143  19.705  26.064  1.00  0.00     0.124 S 
ATOM     85  O   UNL A   1      42.448  18.848  27.204  1.00  0.00    -0.237 OA
ATOM     86  O   UNL A   1      40.757  19.691  25.607  1.00  0.00    -0.237 OA
ATOM     87  O   UNL A   1      43.144  19.723  25.001  1.00  0.00    -0.744 OA
ENDBRANCH  83  84
ENDBRANCH  51  76
BRANCH  63  88
ATOM     88  C   UNL A   1      47.979  27.332  30.683  1.00  0.00     0.058 A 
ATOM     89  C   UNL A   1      48.365  26.807  31.926  1.00  0.00     0.135 A 
ATOM     90  C   UNL A   1      48.957  27.424  29.678  1.00  0.00     0.135 A 
ATOM     91  F   UNL A   1      47.472  26.705  32.923  1.00  0.00    -0.206 F 
ATOM     92  C   UNL A   1      49.675  26.407  32.170  1.00  0.00     0.059 A 
ATOM     93  C   UNL A   1      50.265  27.002  29.890  1.00  0.00     0.059 A 
ATOM     94  F   UNL A   1      48.638  27.909  28.467  1.00  0.00    -0.206 F 
ATOM     95  C   UNL A   1      50.618  26.505  31.145  1.00  0.00     0.060 A 
BRANCH  95  96
ATOM     96  S   UNL A   1      52.304  25.947  31.463  1.00  0.00     0.124 S 
ATOM     97  O   UNL A   1      52.888  25.995  30.126  1.00  0.00    -0.237 OA
ATOM     98  O   UNL A   1      52.793  26.951  32.404  1.00  0.00    -0.237 OA
ATOM     99  O   UNL A   1      52.122  24.611  32.020  1.00  0.00    -0.744 OA
ENDBRANCH  95  96
ENDBRANCH  63  88
ENDBRANCH  37  38
ENDBRANCH  29  32
ENDBRANCH  27  28
ENDBRANCH  26  27
ENDBRANCH  25  26
ENDBRANCH   1  25
TORSDOF 19
ENDMDL
