MODEL 1
REMARK VINA RESULT:     -12.0      0.000      0.000
REMARK SMILES Nc1ccc(N2CC3(CCC3)C2)c(C(=O)NCCCCNC(=O)c2ccc(-c3c4nc(c(-c5c(F)cc(S(=O)(=O)[O-])cc5F)c5ccc([nH]5)c(-c5c(F)cc(S(=O)(=O)[O-])cc5F)c5nc(c(-c6c(F)cc(S(=O)(=O)[O-])cc6F)c6ccc3[nH]6)C=C5)C=C4)cc2)c1
REMARK SMILES IDX 19 1 18 2 17 3 16 4 14 5 15 6 13 8 2 9 3 10 90 11 4 12 5 13
REMARK SMILES IDX 1 14 6 17 7 18 12 19 8 20 9 21 11 22 10 23 20 24 21 25 22 26
REMARK SMILES IDX 23 28 24 29 25 30 89 31 26 32 88 33 27 34 28 35 29 36 82 37
REMARK SMILES IDX 30 38 87 39 81 40 83 41 31 42 86 43 80 44 79 45 32 47 66 48
REMARK SMILES IDX 45 49 65 50 46 51 49 52 64 53 84 54 47 55 48 56 63 58 85 59
REMARK SMILES IDX 50 60 33 61 34 62 43 63 35 64 36 65 42 66 44 67 37 68 38 69
REMARK SMILES IDX 39 70 40 71 41 72 67 73 68 74 77 75 69 76 70 77 76 78 78 79
REMARK SMILES IDX 71 80 72 81 73 82 74 83 75 84 51 85 52 86 61 87 53 88 54 89
REMARK SMILES IDX 60 90 62 91 55 92 56 93 57 94 58 95 59 96
REMARK H PARENT 16 7 1 15 1 16 21 27 83 46 49 57
REMARK Flexibility Score: inf
ROOT
ATOM      1  C   UNL A   1      37.380  23.348  25.690  1.00  0.00     0.023 C 
ENDROOT
BRANCH   1   2
ATOM      2  C   UNL A   1      37.982  22.080  25.068  1.00  0.00     0.023 C 
BRANCH   2   3
ATOM      3  C   UNL A   1      37.042  20.872  25.080  1.00  0.00     0.116 C 
BRANCH   3   4
ATOM      4  N   UNL A   1      35.905  21.141  25.929  1.00  0.00    -0.352 N 
ATOM      5  C   UNL A   1      34.545  20.989  25.829  1.00  0.00     0.253 C 
ATOM      6  O   UNL A   1      33.951  21.439  26.806  1.00  0.00    -0.269 OA
ATOM      7  H   UNL A   1      36.171  21.532  26.793  1.00  0.00     0.163 HD
BRANCH   5   8
ATOM      8  C   UNL A   1      33.829  20.283  24.703  1.00  0.00     0.065 A 
ATOM      9  C   UNL A   1      33.020  18.153  23.771  1.00  0.00     0.032 A 
ATOM     10  C   UNL A   1      32.147  18.846  22.948  1.00  0.00     0.027 A 
ATOM     11  C   UNL A   1      33.895  18.883  24.581  1.00  0.00     0.041 A 
ATOM     12  C   UNL A   1      32.137  20.241  22.960  1.00  0.00     0.029 A 
ATOM     13  C   UNL A   1      32.986  20.985  23.806  1.00  0.00     0.050 A 
BRANCH   9  14
ATOM     14  N   UNL A   1      33.107  16.770  23.710  1.00  0.00    -0.399 N 
ATOM     15  H   UNL A   1      33.792  16.297  24.235  1.00  0.00     0.156 HD
ATOM     16  H   UNL A   1      32.484  16.263  23.142  1.00  0.00     0.156 HD
ENDBRANCH   9  14
BRANCH  13  17
ATOM     17  N   UNL A   1      32.926  22.379  23.662  1.00  0.00    -0.370 N 
ATOM     18  C   UNL A   1      31.993  23.333  24.179  1.00  0.00     0.125 C 
ATOM     19  C   UNL A   1      33.809  23.356  23.098  1.00  0.00     0.125 C 
ATOM     20  C   UNL A   1      33.067  24.355  23.944  1.00  0.00     0.005 C 
ATOM     21  C   UNL A   1      32.762  25.719  23.386  1.00  0.00     0.011 C 
ATOM     22  C   UNL A   1      33.755  24.966  25.147  1.00  0.00     0.011 C 
ATOM     23  C   UNL A   1      33.907  26.246  24.292  1.00  0.00     0.001 C 
ENDBRANCH  13  17
ENDBRANCH   5   8
ENDBRANCH   3   4
ENDBRANCH   2   3
ENDBRANCH   1   2
BRANCH   1  24
ATOM     24  C   UNL A   1      38.330  24.145  26.580  1.00  0.00     0.116 C 
BRANCH  24  25
ATOM     25  N   UNL A   1      39.725  23.991  26.200  1.00  0.00    -0.352 N 
ATOM     26  C   UNL A   1      40.807  24.745  26.582  1.00  0.00     0.251 C 
ATOM     27  H   UNL A   1      39.920  23.245  25.588  1.00  0.00     0.163 HD
ATOM     28  O   UNL A   1      41.904  24.548  26.074  1.00  0.00    -0.269 OA
BRANCH  26  29
ATOM     29  C   UNL A   1      40.624  25.821  27.578  1.00  0.00     0.039 A 
ATOM     30  C   UNL A   1      39.665  25.651  28.578  1.00  0.00     0.014 A 
ATOM     31  C   UNL A   1      41.411  26.975  27.537  1.00  0.00     0.014 A 
ATOM     32  C   UNL A   1      39.537  26.616  29.579  1.00  0.00     0.010 A 
ATOM     33  C   UNL A   1      41.323  27.905  28.567  1.00  0.00     0.010 A 
ATOM     34  C   UNL A   1      40.387  27.733  29.600  1.00  0.00    -0.014 A 
BRANCH  34  35
ATOM     35  C   UNL A   1      40.321  28.728  30.698  1.00  0.00     0.031 A 
ATOM     36  C   UNL A   1      41.206  28.581  31.904  1.00  0.00     0.074 A 
ATOM     37  C   UNL A   1      39.412  29.721  30.639  1.00  0.00     0.049 A 
ATOM     38  N   UNL A   1      41.243  29.304  32.993  1.00  0.00    -0.248 NA
ATOM     39  C   UNL A   1      42.154  27.455  31.896  1.00  0.00     0.031 C 
ATOM     40  C   UNL A   1      38.462  29.934  29.544  1.00  0.00     0.029 A 
ATOM     41  N   UNL A   1      39.129  30.730  31.523  1.00  0.00    -0.354 N 
ATOM     42  C   UNL A   1      42.203  28.715  33.806  1.00  0.00     0.074 A 
ATOM     43  C   UNL A   1      42.690  27.546  33.105  1.00  0.00     0.031 C 
ATOM     44  C   UNL A   1      37.714  31.015  29.814  1.00  0.00     0.029 A 
ATOM     45  C   UNL A   1      38.107  31.553  31.113  1.00  0.00     0.049 A 
ATOM     46  H   UNL A   1      39.612  30.853  32.372  1.00  0.00     0.167 HD
ATOM     47  C   UNL A   1      42.652  29.122  35.018  1.00  0.00     0.037 A 
ATOM     48  C   UNL A   1      37.548  32.619  31.718  1.00  0.00     0.037 A 
ATOM     49  C   UNL A   1      42.182  30.300  35.695  1.00  0.00     0.049 A 
ATOM     50  C   UNL A   1      38.076  33.064  33.053  1.00  0.00     0.074 A 
ATOM     51  C   UNL A   1      42.616  30.833  36.897  1.00  0.00     0.029 A 
ATOM     52  N   UNL A   1      41.170  31.129  35.233  1.00  0.00    -0.354 N 
ATOM     53  N   UNL A   1      39.029  32.532  33.781  1.00  0.00    -0.248 NA
ATOM     54  C   UNL A   1      37.458  34.258  33.649  1.00  0.00     0.031 C 
ATOM     55  C   UNL A   1      41.842  31.966  37.176  1.00  0.00     0.029 A 
ATOM     56  C   UNL A   1      40.955  32.162  36.130  1.00  0.00     0.049 A 
ATOM     57  H   UNL A   1      40.677  31.002  34.389  1.00  0.00     0.167 HD
ATOM     58  C   UNL A   1      39.145  33.339  34.906  1.00  0.00     0.074 A 
ATOM     59  C   UNL A   1      38.169  34.401  34.760  1.00  0.00     0.031 C 
ATOM     60  C   UNL A   1      39.984  33.215  35.964  1.00  0.00     0.037 A 
BRANCH  47  61
ATOM     61  C   UNL A   1      43.710  28.284  35.680  1.00  0.00     0.058 A 
ATOM     62  C   UNL A   1      45.075  28.471  35.407  1.00  0.00     0.135 A 
ATOM     63  C   UNL A   1      43.359  27.293  36.612  1.00  0.00     0.135 A 
ATOM     64  F   UNL A   1      45.466  29.394  34.515  1.00  0.00    -0.206 F 
ATOM     65  C   UNL A   1      46.051  27.680  36.004  1.00  0.00     0.059 A 
ATOM     66  C   UNL A   1      44.321  26.508  37.240  1.00  0.00     0.059 A 
ATOM     67  F   UNL A   1      42.069  27.072  36.910  1.00  0.00    -0.206 F 
ATOM     68  C   UNL A   1      45.664  26.697  36.916  1.00  0.00     0.060 A 
BRANCH  68  69
ATOM     69  S   UNL A   1      46.941  25.670  37.673  1.00  0.00     0.124 S 
ATOM     70  O   UNL A   1      47.796  26.680  38.291  1.00  0.00    -0.237 OA
ATOM     71  O   UNL A   1      46.173  24.843  38.598  1.00  0.00    -0.237 OA
ATOM     72  O   UNL A   1      47.524  24.961  36.539  1.00  0.00    -0.744 OA
ENDBRANCH  68  69
ENDBRANCH  47  61
BRANCH  48  73
ATOM     73  C   UNL A   1      36.445  33.355  31.045  1.00  0.00     0.058 A 
ATOM     74  C   UNL A   1      36.695  34.145  29.914  1.00  0.00     0.135 A 
ATOM     75  C   UNL A   1      35.120  33.259  31.498  1.00  0.00     0.135 A 
ATOM     76  F   UNL A   1      37.946  34.270  29.447  1.00  0.00    -0.206 F 
ATOM     77  C   UNL A   1      35.673  34.825  29.260  1.00  0.00     0.059 A 
ATOM     78  C   UNL A   1      34.077  33.912  30.848  1.00  0.00     0.059 A 
ATOM     79  F   UNL A   1      34.828  32.501  32.566  1.00  0.00    -0.206 F 
ATOM     80  C   UNL A   1      34.366  34.698  29.732  1.00  0.00     0.060 A 
BRANCH  80  81
ATOM     81  S   UNL A   1      33.037  35.535  28.839  1.00  0.00     0.124 S 
ATOM     82  O   UNL A   1      32.457  34.435  28.078  1.00  0.00    -0.237 OA
ATOM     83  O   UNL A   1      32.218  36.060  29.928  1.00  0.00    -0.237 OA
ATOM     84  O   UNL A   1      33.745  36.544  28.055  1.00  0.00    -0.744 OA
ENDBRANCH  80  81
ENDBRANCH  48  73
BRANCH  60  85
ATOM     85  C   UNL A   1      39.908  34.267  37.034  1.00  0.00     0.058 A 
ATOM     86  C   UNL A   1      40.580  35.492  36.911  1.00  0.00     0.135 A 
ATOM     87  C   UNL A   1      39.108  34.067  38.170  1.00  0.00     0.135 A 
ATOM     88  F   UNL A   1      41.363  35.730  35.847  1.00  0.00    -0.206 F 
ATOM     89  C   UNL A   1      40.475  36.478  37.887  1.00  0.00     0.059 A 
ATOM     90  C   UNL A   1      38.969  35.047  39.147  1.00  0.00     0.059 A 
ATOM     91  F   UNL A   1      38.437  32.914  38.330  1.00  0.00    -0.206 F 
ATOM     92  C   UNL A   1      39.665  36.246  39.001  1.00  0.00     0.060 A 
BRANCH  92  93
ATOM     93  S   UNL A   1      39.505  37.547  40.243  1.00  0.00     0.124 S 
ATOM     94  O   UNL A   1      38.946  36.810  41.370  1.00  0.00    -0.237 OA
ATOM     95  O   UNL A   1      40.882  38.001  40.403  1.00  0.00    -0.237 OA
ATOM     96  O   UNL A   1      38.606  38.509  39.611  1.00  0.00    -0.744 OA
ENDBRANCH  92  93
ENDBRANCH  60  85
ENDBRANCH  34  35
ENDBRANCH  26  29
ENDBRANCH  24  25
ENDBRANCH   1  24
TORSDOF 16
ENDMDL
MODEL 2
REMARK VINA RESULT:     -12.0      4.952     10.504
REMARK SMILES Nc1ccc(N2CC3(CCC3)C2)c(C(=O)NCCCCNC(=O)c2ccc(-c3c4nc(c(-c5c(F)cc(S(=O)(=O)[O-])cc5F)c5ccc([nH]5)c(-c5c(F)cc(S(=O)(=O)[O-])cc5F)c5nc(c(-c6c(F)cc(S(=O)(=O)[O-])cc6F)c6ccc3[nH]6)C=C5)C=C4)cc2)c1
REMARK SMILES IDX 19 1 18 2 17 3 16 4 14 5 15 6 13 8 2 9 3 10 90 11 4 12 5 13
REMARK SMILES IDX 1 14 6 17 7 18 12 19 8 20 9 21 11 22 10 23 20 24 21 25 22 26
REMARK SMILES IDX 23 28 24 29 25 30 89 31 26 32 88 33 27 34 28 35 29 36 82 37
REMARK SMILES IDX 30 38 87 39 81 40 83 41 31 42 86 43 80 44 79 45 32 47 66 48
REMARK SMILES IDX 45 49 65 50 46 51 49 52 64 53 84 54 47 55 48 56 63 58 85 59
REMARK SMILES IDX 50 60 33 61 34 62 43 63 35 64 36 65 42 66 44 67 37 68 38 69
REMARK SMILES IDX 39 70 40 71 41 72 67 73 68 74 77 75 69 76 70 77 76 78 78 79
REMARK SMILES IDX 71 80 72 81 73 82 74 83 75 84 51 85 52 86 61 87 53 88 54 89
REMARK SMILES IDX 60 90 62 91 55 92 56 93 57 94 58 95 59 96
REMARK H PARENT 16 7 1 15 1 16 21 27 83 46 49 57
REMARK Flexibility Score: inf
ROOT
ATOM      1  C   UNL A   1      33.181  28.000  25.830  1.00  0.00     0.023 C 
ENDROOT
BRANCH   1   2
ATOM      2  C   UNL A   1      34.198  28.396  24.750  1.00  0.00     0.023 C 
BRANCH   2   3
ATOM      3  C   UNL A   1      33.568  28.955  23.473  1.00  0.00     0.116 C 
BRANCH   3   4
ATOM      4  N   UNL A   1      33.633  27.968  22.419  1.00  0.00    -0.352 N 
ATOM      5  C   UNL A   1      33.163  26.691  22.238  1.00  0.00     0.253 C 
ATOM      6  O   UNL A   1      33.538  26.203  21.175  1.00  0.00    -0.269 OA
ATOM      7  H   UNL A   1      34.138  28.291  21.638  1.00  0.00     0.163 HD
BRANCH   5   8
ATOM      8  C   UNL A   1      32.228  25.967  23.175  1.00  0.00     0.065 A 
ATOM      9  C   UNL A   1      29.909  25.595  23.915  1.00  0.00     0.032 A 
ATOM     10  C   UNL A   1      30.292  24.403  24.508  1.00  0.00     0.027 A 
ATOM     11  C   UNL A   1      30.894  26.391  23.322  1.00  0.00     0.041 A 
ATOM     12  C   UNL A   1      31.629  24.009  24.482  1.00  0.00     0.029 A 
ATOM     13  C   UNL A   1      32.623  24.784  23.848  1.00  0.00     0.050 A 
BRANCH   9  14
ATOM     14  N   UNL A   1      28.602  26.047  24.006  1.00  0.00    -0.399 N 
ATOM     15  H   UNL A   1      28.252  26.367  24.869  1.00  0.00     0.156 HD
ATOM     16  H   UNL A   1      28.024  26.047  23.210  1.00  0.00     0.156 HD
ENDBRANCH   9  14
BRANCH  13  17
ATOM     17  N   UNL A   1      33.937  24.308  23.961  1.00  0.00    -0.370 N 
ATOM     18  C   UNL A   1      34.887  24.427  25.025  1.00  0.00     0.125 C 
ATOM     19  C   UNL A   1      34.748  23.438  23.162  1.00  0.00     0.125 C 
ATOM     20  C   UNL A   1      35.571  23.243  24.407  1.00  0.00     0.005 C 
ATOM     21  C   UNL A   1      37.069  23.154  24.299  1.00  0.00     0.011 C 
ATOM     22  C   UNL A   1      35.513  21.917  25.135  1.00  0.00     0.011 C 
ATOM     23  C   UNL A   1      36.904  21.627  24.526  1.00  0.00     0.001 C 
ENDBRANCH  13  17
ENDBRANCH   5   8
ENDBRANCH   3   4
ENDBRANCH   2   3
ENDBRANCH   1   2
BRANCH   1  24
ATOM     24  C   UNL A   1      33.593  28.333  27.261  1.00  0.00     0.116 C 
BRANCH  24  25
ATOM     25  N   UNL A   1      33.469  29.748  27.571  1.00  0.00    -0.352 N 
ATOM     26  C   UNL A   1      34.409  30.596  28.105  1.00  0.00     0.251 C 
ATOM     27  H   UNL A   1      32.595  30.154  27.371  1.00  0.00     0.163 HD
ATOM     28  O   UNL A   1      34.101  31.740  28.412  1.00  0.00    -0.269 OA
BRANCH  26  29
ATOM     29  C   UNL A   1      35.780  30.097  28.340  1.00  0.00     0.039 A 
ATOM     30  C   UNL A   1      36.695  30.126  27.286  1.00  0.00     0.014 A 
ATOM     31  C   UNL A   1      36.164  29.630  29.601  1.00  0.00     0.014 A 
ATOM     32  C   UNL A   1      38.018  29.742  27.512  1.00  0.00     0.010 A 
ATOM     33  C   UNL A   1      37.495  29.305  29.838  1.00  0.00     0.010 A 
ATOM     34  C   UNL A   1      38.435  29.361  28.797  1.00  0.00    -0.014 A 
BRANCH  34  35
ATOM     35  C   UNL A   1      39.854  29.027  29.075  1.00  0.00     0.031 A 
ATOM     36  C   UNL A   1      40.775  30.064  29.654  1.00  0.00     0.074 A 
ATOM     37  C   UNL A   1      40.326  27.810  28.740  1.00  0.00     0.049 A 
ATOM     38  N   UNL A   1      42.057  29.984  29.899  1.00  0.00    -0.248 NA
ATOM     39  C   UNL A   1      40.181  31.373  29.970  1.00  0.00     0.031 C 
ATOM     40  C   UNL A   1      39.540  26.739  28.122  1.00  0.00     0.029 A 
ATOM     41  N   UNL A   1      41.582  27.273  28.856  1.00  0.00    -0.354 N 
ATOM     42  C   UNL A   1      42.428  31.232  30.383  1.00  0.00     0.074 A 
ATOM     43  C   UNL A   1      41.245  32.066  30.351  1.00  0.00     0.031 C 
ATOM     44  C   UNL A   1      40.328  25.668  27.932  1.00  0.00     0.029 A 
ATOM     45  C   UNL A   1      41.680  25.987  28.381  1.00  0.00     0.049 A 
ATOM     46  H   UNL A   1      42.343  27.762  29.244  1.00  0.00     0.167 HD
ATOM     47  C   UNL A   1      43.639  31.641  30.832  1.00  0.00     0.037 A 
ATOM     48  C   UNL A   1      42.740  25.158  28.313  1.00  0.00     0.037 A 
ATOM     49  C   UNL A   1      44.803  30.797  30.885  1.00  0.00     0.049 A 
ATOM     50  C   UNL A   1      44.070  25.627  28.835  1.00  0.00     0.074 A 
ATOM     51  C   UNL A   1      46.061  31.096  31.380  1.00  0.00     0.029 A 
ATOM     52  N   UNL A   1      44.854  29.489  30.427  1.00  0.00    -0.354 N 
ATOM     53  N   UNL A   1      44.389  26.790  29.349  1.00  0.00    -0.248 NA
ATOM     54  C   UNL A   1      45.183  24.668  28.776  1.00  0.00     0.031 C 
ATOM     55  C   UNL A   1      46.882  29.979  31.190  1.00  0.00     0.029 A 
ATOM     56  C   UNL A   1      46.125  28.970  30.614  1.00  0.00     0.049 A 
ATOM     57  H   UNL A   1      44.098  29.000  30.028  1.00  0.00     0.167 HD
ATOM     58  C   UNL A   1      45.731  26.697  29.698  1.00  0.00     0.074 A 
ATOM     59  C   UNL A   1      46.162  25.359  29.344  1.00  0.00     0.031 C 
ATOM     60  C   UNL A   1      46.534  27.633  30.263  1.00  0.00     0.037 A 
BRANCH  47  61
ATOM     61  C   UNL A   1      43.757  33.063  31.304  1.00  0.00     0.058 A 
ATOM     62  C   UNL A   1      44.131  34.099  30.433  1.00  0.00     0.135 A 
ATOM     63  C   UNL A   1      43.479  33.400  32.639  1.00  0.00     0.135 A 
ATOM     64  F   UNL A   1      44.423  33.832  29.150  1.00  0.00    -0.206 F 
ATOM     65  C   UNL A   1      44.262  35.411  30.876  1.00  0.00     0.059 A 
ATOM     66  C   UNL A   1      43.578  34.710  33.098  1.00  0.00     0.059 A 
ATOM     67  F   UNL A   1      43.116  32.449  33.515  1.00  0.00    -0.206 F 
ATOM     68  C   UNL A   1      43.988  35.706  32.212  1.00  0.00     0.060 A 
BRANCH  68  69
ATOM     69  S   UNL A   1      44.174  37.411  32.776  1.00  0.00     0.124 S 
ATOM     70  O   UNL A   1      43.123  37.499  33.786  1.00  0.00    -0.237 OA
ATOM     71  O   UNL A   1      45.542  37.427  33.284  1.00  0.00    -0.237 OA
ATOM     72  O   UNL A   1      43.949  38.195  31.566  1.00  0.00    -0.744 OA
ENDBRANCH  68  69
ENDBRANCH  47  61
BRANCH  48  73
ATOM     73  C   UNL A   1      42.573  23.790  27.756  1.00  0.00     0.058 A 
ATOM     74  C   UNL A   1      42.453  22.679  28.603  1.00  0.00     0.135 A 
ATOM     75  C   UNL A   1      42.499  23.570  26.372  1.00  0.00     0.135 A 
ATOM     76  F   UNL A   1      42.522  22.841  29.933  1.00  0.00    -0.206 F 
ATOM     77  C   UNL A   1      42.276  21.395  28.100  1.00  0.00     0.059 A 
ATOM     78  C   UNL A   1      42.301  22.297  25.844  1.00  0.00     0.059 A 
ATOM     79  F   UNL A   1      42.592  24.603  25.520  1.00  0.00    -0.206 F 
ATOM     80  C   UNL A   1      42.197  21.215  26.718  1.00  0.00     0.060 A 
BRANCH  80  81
ATOM     81  S   UNL A   1      41.906  19.551  26.077  1.00  0.00     0.124 S 
ATOM     82  O   UNL A   1      42.342  18.724  27.196  1.00  0.00    -0.237 OA
ATOM     83  O   UNL A   1      40.469  19.570  25.818  1.00  0.00    -0.237 OA
ATOM     84  O   UNL A   1      42.748  19.499  24.885  1.00  0.00    -0.744 OA
ENDBRANCH  80  81
ENDBRANCH  48  73
BRANCH  60  85
ATOM     85  C   UNL A   1      47.952  27.237  30.562  1.00  0.00     0.058 A 
ATOM     86  C   UNL A   1      48.982  27.427  29.630  1.00  0.00     0.135 A 
ATOM     87  C   UNL A   1      48.291  26.710  31.819  1.00  0.00     0.135 A 
ATOM     88  F   UNL A   1      48.710  27.920  28.412  1.00  0.00    -0.206 F 
ATOM     89  C   UNL A   1      50.300  27.094  29.928  1.00  0.00     0.059 A 
ATOM     90  C   UNL A   1      49.604  26.392  32.146  1.00  0.00     0.059 A 
ATOM     91  F   UNL A   1      47.342  26.517  32.750  1.00  0.00    -0.206 F 
ATOM     92  C   UNL A   1      50.601  26.578  31.190  1.00  0.00     0.060 A 
BRANCH  92  93
ATOM     93  S   UNL A   1      52.320  26.186  31.579  1.00  0.00     0.124 S 
ATOM     94  O   UNL A   1      52.971  26.416  30.294  1.00  0.00    -0.237 OA
ATOM     95  O   UNL A   1      52.633  27.148  32.630  1.00  0.00    -0.237 OA
ATOM     96  O   UNL A   1      52.260  24.792  32.012  1.00  0.00    -0.744 OA
ENDBRANCH  92  93
ENDBRANCH  60  85
ENDBRANCH  34  35
ENDBRANCH  26  29
ENDBRANCH  24  25
ENDBRANCH   1  24
TORSDOF 16
ENDMDL
MODEL 3
REMARK VINA RESULT:     -12.0      6.470      8.813
REMARK SMILES Nc1ccc(N2CC3(CCC3)C2)c(C(=O)NCCCCNC(=O)c2ccc(-c3c4nc(c(-c5c(F)cc(S(=O)(=O)[O-])cc5F)c5ccc([nH]5)c(-c5c(F)cc(S(=O)(=O)[O-])cc5F)c5nc(c(-c6c(F)cc(S(=O)(=O)[O-])cc6F)c6ccc3[nH]6)C=C5)C=C4)cc2)c1
REMARK SMILES IDX 19 1 18 2 17 3 16 4 14 5 15 6 13 8 2 9 3 10 90 11 4 12 5 13
REMARK SMILES IDX 1 14 6 17 7 18 12 19 8 20 9 21 11 22 10 23 20 24 21 25 22 26
REMARK SMILES IDX 23 28 24 29 25 30 89 31 26 32 88 33 27 34 28 35 29 36 82 37
REMARK SMILES IDX 30 38 87 39 81 40 83 41 31 42 86 43 80 44 79 45 32 47 66 48
REMARK SMILES IDX 45 49 65 50 46 51 49 52 64 53 84 54 47 55 48 56 63 58 85 59
REMARK SMILES IDX 50 60 33 61 34 62 43 63 35 64 36 65 42 66 44 67 37 68 38 69
REMARK SMILES IDX 39 70 40 71 41 72 67 73 68 74 77 75 69 76 70 77 76 78 78 79
REMARK SMILES IDX 71 80 72 81 73 82 74 83 75 84 51 85 52 86 61 87 53 88 54 89
REMARK SMILES IDX 60 90 62 91 55 92 56 93 57 94 58 95 59 96
REMARK H PARENT 16 7 1 15 1 16 21 27 83 46 49 57
REMARK Flexibility Score: inf
ROOT
ATOM      1  C   UNL A   1      38.239  20.183  25.163  1.00  0.00     0.023 C 
ENDROOT
BRANCH   1   2
ATOM      2  C   UNL A   1      37.403  21.355  24.630  1.00  0.00     0.023 C 
BRANCH   2   3
ATOM      3  C   UNL A   1      37.315  22.547  25.585  1.00  0.00     0.116 C 
BRANCH   3   4
ATOM      4  N   UNL A   1      36.168  22.400  26.452  1.00  0.00    -0.352 N 
ATOM      5  C   UNL A   1      34.819  22.627  26.345  1.00  0.00     0.253 C 
ATOM      6  O   UNL A   1      34.226  22.417  27.400  1.00  0.00    -0.269 OA
ATOM      7  H   UNL A   1      36.416  22.051  27.339  1.00  0.00     0.163 HD
BRANCH   5   8
ATOM      8  C   UNL A   1      34.100  23.013  25.076  1.00  0.00     0.065 A 
ATOM      9  C   UNL A   1      33.670  24.745  23.379  1.00  0.00     0.032 A 
ATOM     10  C   UNL A   1      33.217  23.771  22.503  1.00  0.00     0.027 A 
ATOM     11  C   UNL A   1      34.036  24.360  24.673  1.00  0.00     0.041 A 
ATOM     12  C   UNL A   1      33.159  22.439  22.911  1.00  0.00     0.029 A 
ATOM     13  C   UNL A   1      33.566  22.035  24.200  1.00  0.00     0.050 A 
BRANCH   9  14
ATOM     14  N   UNL A   1      33.653  26.084  23.023  1.00  0.00    -0.399 N 
ATOM     15  H   UNL A   1      34.478  26.520  22.707  1.00  0.00     0.156 HD
ATOM     16  H   UNL A   1      32.817  26.600  23.086  1.00  0.00     0.156 HD
ENDBRANCH   9  14
BRANCH  13  17
ATOM     17  N   UNL A   1      33.385  20.678  24.504  1.00  0.00    -0.370 N 
ATOM     18  C   UNL A   1      32.190  19.905  24.654  1.00  0.00     0.125 C 
ATOM     19  C   UNL A   1      34.275  19.563  24.630  1.00  0.00     0.125 C 
ATOM     20  C   UNL A   1      33.058  18.707  24.406  1.00  0.00     0.005 C 
ATOM     21  C   UNL A   1      32.897  17.429  25.185  1.00  0.00     0.011 C 
ATOM     22  C   UNL A   1      32.903  17.964  23.095  1.00  0.00     0.011 C 
ATOM     23  C   UNL A   1      33.293  16.689  23.879  1.00  0.00     0.001 C 
ENDBRANCH  13  17
ENDBRANCH   5   8
ENDBRANCH   3   4
ENDBRANCH   2   3
ENDBRANCH   1   2
BRANCH   1  24
ATOM     24  C   UNL A   1      39.455  20.581  25.994  1.00  0.00     0.116 C 
BRANCH  24  25
ATOM     25  N   UNL A   1      40.432  19.510  26.117  1.00  0.00    -0.352 N 
ATOM     26  C   UNL A   1      41.789  19.604  26.302  1.00  0.00     0.251 C 
ATOM     27  H   UNL A   1      40.071  18.596  26.061  1.00  0.00     0.163 HD
ATOM     28  O   UNL A   1      42.485  18.596  26.269  1.00  0.00    -0.269 OA
BRANCH  26  29
ATOM     29  C   UNL A   1      42.402  20.934  26.500  1.00  0.00     0.039 A 
ATOM     30  C   UNL A   1      42.726  21.696  25.376  1.00  0.00     0.014 A 
ATOM     31  C   UNL A   1      42.631  21.431  27.786  1.00  0.00     0.014 A 
ATOM     32  C   UNL A   1      43.224  22.990  25.543  1.00  0.00     0.010 A 
ATOM     33  C   UNL A   1      43.070  22.741  27.949  1.00  0.00     0.010 A 
ATOM     34  C   UNL A   1      43.368  23.533  26.829  1.00  0.00    -0.014 A 
BRANCH  34  35
ATOM     35  C   UNL A   1      43.819  24.933  27.025  1.00  0.00     0.031 A 
ATOM     36  C   UNL A   1      45.261  25.298  26.811  1.00  0.00     0.074 A 
ATOM     37  C   UNL A   1      42.942  25.857  27.464  1.00  0.00     0.049 A 
ATOM     38  N   UNL A   1      45.858  26.446  27.000  1.00  0.00    -0.248 NA
ATOM     39  C   UNL A   1      46.155  24.223  26.351  1.00  0.00     0.031 C 
ATOM     40  C   UNL A   1      41.528  25.608  27.759  1.00  0.00     0.029 A 
ATOM     41  N   UNL A   1      43.111  27.187  27.754  1.00  0.00    -0.354 N 
ATOM     42  C   UNL A   1      47.197  26.230  26.699  1.00  0.00     0.074 A 
ATOM     43  C   UNL A   1      47.333  24.830  26.362  1.00  0.00     0.031 C 
ATOM     44  C   UNL A   1      40.957  26.751  28.170  1.00  0.00     0.029 A 
ATOM     45  C   UNL A   1      41.967  27.804  28.200  1.00  0.00     0.049 A 
ATOM     46  H   UNL A   1      43.971  27.654  27.652  1.00  0.00     0.167 HD
ATOM     47  C   UNL A   1      48.216  27.123  26.686  1.00  0.00     0.037 A 
ATOM     48  C   UNL A   1      41.756  29.076  28.592  1.00  0.00     0.037 A 
ATOM     49  C   UNL A   1      48.066  28.519  26.997  1.00  0.00     0.049 A 
ATOM     50  C   UNL A   1      42.898  30.053  28.550  1.00  0.00     0.074 A 
ATOM     51  C   UNL A   1      49.024  29.518  26.953  1.00  0.00     0.029 A 
ATOM     52  N   UNL A   1      46.885  29.116  27.411  1.00  0.00    -0.354 N 
ATOM     53  N   UNL A   1      44.146  29.848  28.202  1.00  0.00    -0.248 NA
ATOM     54  C   UNL A   1      42.604  31.438  28.948  1.00  0.00     0.031 C 
ATOM     55  C   UNL A   1      48.427  30.713  27.373  1.00  0.00     0.029 A 
ATOM     56  C   UNL A   1      47.090  30.467  27.639  1.00  0.00     0.049 A 
ATOM     57  H   UNL A   1      46.025  28.648  27.525  1.00  0.00     0.167 HD
ATOM     58  C   UNL A   1      44.781  31.079  28.313  1.00  0.00     0.074 A 
ATOM     59  C   UNL A   1      43.777  32.027  28.753  1.00  0.00     0.031 C 
ATOM     60  C   UNL A   1      46.076  31.397  28.070  1.00  0.00     0.037 A 
BRANCH  47  61
ATOM     61  C   UNL A   1      49.580  26.609  26.318  1.00  0.00     0.058 A 
ATOM     62  C   UNL A   1      50.086  26.731  25.014  1.00  0.00     0.135 A 
ATOM     63  C   UNL A   1      50.400  26.001  27.283  1.00  0.00     0.135 A 
ATOM     64  F   UNL A   1      49.339  27.292  24.049  1.00  0.00    -0.206 F 
ATOM     65  C   UNL A   1      51.339  26.236  24.669  1.00  0.00     0.059 A 
ATOM     66  C   UNL A   1      51.668  25.521  26.967  1.00  0.00     0.059 A 
ATOM     67  F   UNL A   1      49.968  25.858  28.546  1.00  0.00    -0.206 F 
ATOM     68  C   UNL A   1      52.121  25.627  25.652  1.00  0.00     0.060 A 
BRANCH  68  69
ATOM     69  S   UNL A   1      53.740  24.978  25.188  1.00  0.00     0.124 S 
ATOM     70  O   UNL A   1      54.577  25.479  26.275  1.00  0.00    -0.237 OA
ATOM     71  O   UNL A   1      53.511  23.536  25.180  1.00  0.00    -0.237 OA
ATOM     72  O   UNL A   1      53.984  25.577  23.879  1.00  0.00    -0.744 OA
ENDBRANCH  68  69
ENDBRANCH  47  61
BRANCH  48  73
ATOM     73  C   UNL A   1      40.399  29.500  29.025  1.00  0.00     0.058 A 
ATOM     74  C   UNL A   1      40.123  29.751  30.377  1.00  0.00     0.135 A 
ATOM     75  C   UNL A   1      39.364  29.693  28.098  1.00  0.00     0.135 A 
ATOM     76  F   UNL A   1      41.080  29.576  31.300  1.00  0.00    -0.206 F 
ATOM     77  C   UNL A   1      38.864  30.167  30.797  1.00  0.00     0.059 A 
ATOM     78  C   UNL A   1      38.103  30.130  28.492  1.00  0.00     0.059 A 
ATOM     79  F   UNL A   1      39.584  29.482  26.791  1.00  0.00    -0.206 F 
ATOM     80  C   UNL A   1      37.862  30.358  29.846  1.00  0.00     0.060 A 
BRANCH  80  81
ATOM     81  S   UNL A   1      36.248  30.958  30.396  1.00  0.00     0.124 S 
ATOM     82  O   UNL A   1      35.464  30.859  29.171  1.00  0.00    -0.237 OA
ATOM     83  O   UNL A   1      35.910  30.007  31.451  1.00  0.00    -0.237 OA
ATOM     84  O   UNL A   1      36.536  32.315  30.856  1.00  0.00    -0.744 OA
ENDBRANCH  80  81
ENDBRANCH  48  73
BRANCH  60  85
ATOM     85  C   UNL A   1      46.479  32.835  28.244  1.00  0.00     0.058 A 
ATOM     86  C   UNL A   1      47.012  33.309  29.451  1.00  0.00     0.135 A 
ATOM     87  C   UNL A   1      46.379  33.735  27.171  1.00  0.00     0.135 A 
ATOM     88  F   UNL A   1      47.122  32.490  30.510  1.00  0.00    -0.206 F 
ATOM     89  C   UNL A   1      47.420  34.632  29.594  1.00  0.00     0.059 A 
ATOM     90  C   UNL A   1      46.801  35.054  27.284  1.00  0.00     0.059 A 
ATOM     91  F   UNL A   1      45.882  33.328  25.991  1.00  0.00    -0.206 F 
ATOM     92  C   UNL A   1      47.310  35.497  28.504  1.00  0.00     0.060 A 
BRANCH  92  93
ATOM     93  S   UNL A   1      47.878  37.201  28.689  1.00  0.00     0.124 S 
ATOM     94  O   UNL A   1      46.615  37.930  28.702  1.00  0.00    -0.237 OA
ATOM     95  O   UNL A   1      48.598  37.157  29.957  1.00  0.00    -0.237 OA
ATOM     96  O   UNL A   1      48.712  37.410  27.509  1.00  0.00    -0.744 OA
ENDBRANCH  92  93
ENDBRANCH  60  85
ENDBRANCH  34  35
ENDBRANCH  26  29
ENDBRANCH  24  25
ENDBRANCH   1  24
TORSDOF 16
ENDMDL
