MODEL 1
REMARK VINA RESULT:     -12.1      0.000      0.000
REMARK SMILES O=C(NCCCCNC(=O)c1ccc(-c2c3nc(c(-c4c(F)cc(S(=O)(=O)[O-])cc4F)c4ccc([nH]4)c(-c4c(F)cc(S(=O)(=O)[O-])cc4F)c4nc(c(-c5c(F)cc(S(=O)(=O)[O-])cc5F)c5ccc2[nH]5)C=C4)C=C3)cc1)C1=Cc2cc(Cl)ccc2O[C@@H]1C(F)(F)F
REMARK SMILES IDX 6 1 5 2 4 3 3 4 1 5 2 6 77 8 78 9 87 10 79 11 86 12 80 13
REMARK SMILES IDX 85 14 81 15 84 16 82 17 83 18 88 19 89 20 90 21 91 22 7 23
REMARK SMILES IDX 8 24 9 25 10 27 11 28 12 29 76 30 13 31 75 32 14 33 15 34
REMARK SMILES IDX 16 35 69 36 17 37 74 38 68 39 70 40 18 41 73 42 67 43 66 44
REMARK SMILES IDX 19 46 53 47 32 48 52 49 33 50 36 51 51 52 71 53 34 54 35 55
REMARK SMILES IDX 50 57 72 58 37 59 20 60 21 61 30 62 22 63 23 64 29 65 31 66
REMARK SMILES IDX 24 67 25 68 26 69 27 70 28 71 54 72 55 73 64 74 56 75 57 76
REMARK SMILES IDX 63 77 65 78 58 79 59 80 60 81 61 82 62 83 38 84 39 85 48 86
REMARK SMILES IDX 40 87 41 88 47 89 49 90 42 91 43 92 44 93 45 94 46 95
REMARK H PARENT 3 7 8 26 70 45 36 56
REMARK Flexibility Score: inf
ROOT
ATOM      1  C   UNL A   1      32.139  28.778  26.617  1.00  0.00     0.023 C 
ENDROOT
BRANCH   1   2
ATOM      2  C   UNL A   1      31.428  27.545  27.184  1.00  0.00     0.023 C 
BRANCH   2   3
ATOM      3  C   UNL A   1      30.836  26.640  26.099  1.00  0.00     0.116 C 
BRANCH   3   4
ATOM      4  N   UNL A   1      30.879  25.214  26.433  1.00  0.00    -0.352 N 
ATOM      5  O   UNL A   1      31.897  23.208  26.786  1.00  0.00    -0.270 OA
ATOM      6  C   UNL A   1      31.884  24.298  26.232  1.00  0.00     0.251 C 
ATOM      7  H   UNL A   1      30.068  24.860  26.865  1.00  0.00     0.163 HD
BRANCH   6   8
ATOM      8  C   UNL A   1      32.969  24.703  25.324  1.00  0.00     0.067 C 
ATOM      9  C   UNL A   1      34.166  24.867  25.898  1.00  0.00     0.025 C 
ATOM     10  C   UNL A   1      32.765  24.510  23.853  1.00  0.00     0.314 C 
ATOM     11  C   UNL A   1      35.273  24.296  25.134  1.00  0.00     0.019 A 
ATOM     12  O   UNL A   1      33.821  23.718  23.244  1.00  0.00    -0.475 OA
ATOM     13  C   UNL A   1      36.474  24.063  25.809  1.00  0.00     0.032 A 
ATOM     14  C   UNL A   1      35.015  23.644  23.916  1.00  0.00     0.128 A 
ATOM     15  C   UNL A   1      37.360  23.107  25.321  1.00  0.00     0.041 A 
ATOM     16  C   UNL A   1      35.928  22.717  23.415  1.00  0.00     0.048 A 
ATOM     17  Cl  UNL A   1      38.741  22.686  26.255  1.00  0.00    -0.084 Cl
ATOM     18  C   UNL A   1      37.086  22.423  24.138  1.00  0.00     0.024 A 
BRANCH  10  19
ATOM     19  C   UNL A   1      32.604  25.848  23.114  1.00  0.00     0.429 C 
ATOM     20  F   UNL A   1      33.222  25.815  21.907  1.00  0.00    -0.167 F 
ATOM     21  F   UNL A   1      31.306  26.148  22.877  1.00  0.00    -0.167 F 
ATOM     22  F   UNL A   1      33.137  26.885  23.803  1.00  0.00    -0.167 F 
ENDBRANCH  10  19
ENDBRANCH   6   8
ENDBRANCH   3   4
ENDBRANCH   2   3
ENDBRANCH   1   2
BRANCH   1  23
ATOM     23  C   UNL A   1      33.495  29.111  27.236  1.00  0.00     0.116 C 
BRANCH  23  24
ATOM     24  N   UNL A   1      33.548  30.405  27.904  1.00  0.00    -0.352 N 
ATOM     25  C   UNL A   1      34.623  30.977  28.554  1.00  0.00     0.251 C 
ATOM     26  H   UNL A   1      32.718  30.935  27.890  1.00  0.00     0.163 HD
ATOM     27  O   UNL A   1      34.521  32.070  29.102  1.00  0.00    -0.269 OA
BRANCH  25  28
ATOM     28  C   UNL A   1      35.892  30.221  28.619  1.00  0.00     0.039 A 
ATOM     29  C   UNL A   1      36.726  30.193  27.497  1.00  0.00     0.014 A 
ATOM     30  C   UNL A   1      36.310  29.665  29.829  1.00  0.00     0.014 A 
ATOM     31  C   UNL A   1      38.031  29.707  27.622  1.00  0.00     0.010 A 
ATOM     32  C   UNL A   1      37.631  29.250  29.967  1.00  0.00     0.010 A 
ATOM     33  C   UNL A   1      38.514  29.290  28.873  1.00  0.00    -0.014 A 
BRANCH  33  34
ATOM     34  C   UNL A   1      39.940  28.921  29.090  1.00  0.00     0.031 A 
ATOM     35  C   UNL A   1      40.917  29.976  29.537  1.00  0.00     0.074 A 
ATOM     36  C   UNL A   1      40.379  27.689  28.759  1.00  0.00     0.049 A 
ATOM     37  N   UNL A   1      42.222  29.929  29.577  1.00  0.00    -0.248 NA
ATOM     38  C   UNL A   1      40.349  31.270  29.950  1.00  0.00     0.031 C 
ATOM     39  C   UNL A   1      39.546  26.590  28.262  1.00  0.00     0.029 A 
ATOM     40  N   UNL A   1      41.649  27.158  28.762  1.00  0.00    -0.354 N 
ATOM     41  C   UNL A   1      42.634  31.198  29.969  1.00  0.00     0.074 A 
ATOM     42  C   UNL A   1      41.441  31.999  30.132  1.00  0.00     0.031 C 
ATOM     43  C   UNL A   1      40.322  25.521  28.014  1.00  0.00     0.029 A 
ATOM     44  C   UNL A   1      41.713  25.867  28.290  1.00  0.00     0.049 A 
ATOM     45  H   UNL A   1      42.439  27.657  29.072  1.00  0.00     0.167 HD
ATOM     46  C   UNL A   1      43.892  31.647  30.186  1.00  0.00     0.037 A 
ATOM     47  C   UNL A   1      42.772  25.060  28.082  1.00  0.00     0.037 A 
ATOM     48  C   UNL A   1      45.068  30.824  30.100  1.00  0.00     0.049 A 
ATOM     49  C   UNL A   1      44.156  25.570  28.389  1.00  0.00     0.074 A 
ATOM     50  C   UNL A   1      46.376  31.163  30.400  1.00  0.00     0.029 A 
ATOM     51  N   UNL A   1      45.079  29.497  29.700  1.00  0.00    -0.354 N 
ATOM     52  N   UNL A   1      44.519  26.754  28.820  1.00  0.00    -0.248 NA
ATOM     53  C   UNL A   1      45.275  24.638  28.184  1.00  0.00     0.031 C 
ATOM     54  C   UNL A   1      47.182  30.048  30.156  1.00  0.00     0.029 A 
ATOM     55  C   UNL A   1      46.371  29.005  29.738  1.00  0.00     0.049 A 
ATOM     56  H   UNL A   1      44.284  28.982  29.429  1.00  0.00     0.167 HD
ATOM     57  C   UNL A   1      45.900  26.695  28.973  1.00  0.00     0.074 A 
ATOM     58  C   UNL A   1      46.309  25.361  28.590  1.00  0.00     0.031 C 
ATOM     59  C   UNL A   1      46.753  27.661  29.391  1.00  0.00     0.037 A 
BRANCH  46  60
ATOM     60  C   UNL A   1      44.072  33.092  30.556  1.00  0.00     0.058 A 
ATOM     61  C   UNL A   1      44.312  34.076  29.586  1.00  0.00     0.135 A 
ATOM     62  C   UNL A   1      43.929  33.506  31.891  1.00  0.00     0.135 A 
ATOM     63  F   UNL A   1      44.474  33.731  28.299  1.00  0.00    -0.206 F 
ATOM     64  C   UNL A   1      44.416  35.420  29.926  1.00  0.00     0.059 A 
ATOM     65  C   UNL A   1      44.004  34.847  32.252  1.00  0.00     0.059 A 
ATOM     66  F   UNL A   1      43.701  32.602  32.858  1.00  0.00    -0.206 F 
ATOM     67  C   UNL A   1      44.255  35.797  31.262  1.00  0.00     0.060 A 
BRANCH  67  68
ATOM     68  S   UNL A   1      44.352  37.550  31.681  1.00  0.00     0.124 S 
ATOM     69  O   UNL A   1      43.648  37.582  32.958  1.00  0.00    -0.237 OA
ATOM     70  O   UNL A   1      45.792  37.777  31.744  1.00  0.00    -0.237 OA
ATOM     71  O   UNL A   1      43.666  38.202  30.570  1.00  0.00    -0.744 OA
ENDBRANCH  67  68
ENDBRANCH  46  60
BRANCH  47  72
ATOM     72  C   UNL A   1      42.585  23.679  27.557  1.00  0.00     0.058 A 
ATOM     73  C   UNL A   1      42.440  22.592  28.430  1.00  0.00     0.135 A 
ATOM     74  C   UNL A   1      42.584  23.414  26.179  1.00  0.00     0.135 A 
ATOM     75  F   UNL A   1      42.440  22.794  29.757  1.00  0.00    -0.206 F 
ATOM     76  C   UNL A   1      42.339  21.285  27.961  1.00  0.00     0.059 A 
ATOM     77  C   UNL A   1      42.461  22.119  25.685  1.00  0.00     0.059 A 
ATOM     78  F   UNL A   1      42.700  24.421  25.299  1.00  0.00    -0.206 F 
ATOM     79  C   UNL A   1      42.359  21.058  26.584  1.00  0.00     0.060 A 
BRANCH  79  80
ATOM     80  S   UNL A   1      42.222  19.362  25.980  1.00  0.00     0.124 S 
ATOM     81  O   UNL A   1      43.065  19.408  24.791  1.00  0.00    -0.237 OA
ATOM     82  O   UNL A   1      42.743  18.590  27.103  1.00  0.00    -0.237 OA
ATOM     83  O   UNL A   1      40.790  19.211  25.737  1.00  0.00    -0.744 OA
ENDBRANCH  79  80
ENDBRANCH  47  72
BRANCH  59  84
ATOM     84  C   UNL A   1      48.205  27.303  29.521  1.00  0.00     0.058 A 
ATOM     85  C   UNL A   1      49.117  27.537  28.482  1.00  0.00     0.135 A 
ATOM     86  C   UNL A   1      48.701  26.804  30.736  1.00  0.00     0.135 A 
ATOM     87  F   UNL A   1      48.688  28.007  27.300  1.00  0.00    -0.206 F 
ATOM     88  C   UNL A   1      50.475  27.282  28.641  1.00  0.00     0.059 A 
ATOM     89  C   UNL A   1      50.057  26.563  30.924  1.00  0.00     0.059 A 
ATOM     90  F   UNL A   1      47.867  26.574  31.763  1.00  0.00    -0.206 F 
ATOM     91  C   UNL A   1      50.936  26.801  29.868  1.00  0.00     0.060 A 
BRANCH  91  92
ATOM     92  S   UNL A   1      52.710  26.537  30.086  1.00  0.00     0.124 S 
ATOM     93  O   UNL A   1      53.160  27.870  30.470  1.00  0.00    -0.237 OA
ATOM     94  O   UNL A   1      52.750  25.526  31.137  1.00  0.00    -0.237 OA
ATOM     95  O   UNL A   1      53.147  26.081  28.770  1.00  0.00    -0.744 OA
ENDBRANCH  91  92
ENDBRANCH  59  84
ENDBRANCH  33  34
ENDBRANCH  25  28
ENDBRANCH  23  24
ENDBRANCH   1  23
TORSDOF 15
ENDMDL
MODEL 2
REMARK VINA RESULT:     -11.9      0.759      1.376
REMARK SMILES O=C(NCCCCNC(=O)c1ccc(-c2c3nc(c(-c4c(F)cc(S(=O)(=O)[O-])cc4F)c4ccc([nH]4)c(-c4c(F)cc(S(=O)(=O)[O-])cc4F)c4nc(c(-c5c(F)cc(S(=O)(=O)[O-])cc5F)c5ccc2[nH]5)C=C4)C=C3)cc1)C1=Cc2cc(Cl)ccc2O[C@@H]1C(F)(F)F
REMARK SMILES IDX 6 1 5 2 4 3 3 4 1 5 2 6 77 8 78 9 87 10 79 11 86 12 80 13
REMARK SMILES IDX 85 14 81 15 84 16 82 17 83 18 88 19 89 20 90 21 91 22 7 23
REMARK SMILES IDX 8 24 9 25 10 27 11 28 12 29 76 30 13 31 75 32 14 33 15 34
REMARK SMILES IDX 16 35 69 36 17 37 74 38 68 39 70 40 18 41 73 42 67 43 66 44
REMARK SMILES IDX 19 46 53 47 32 48 52 49 33 50 36 51 51 52 71 53 34 54 35 55
REMARK SMILES IDX 50 57 72 58 37 59 20 60 21 61 30 62 22 63 23 64 29 65 31 66
REMARK SMILES IDX 24 67 25 68 26 69 27 70 28 71 54 72 55 73 64 74 56 75 57 76
REMARK SMILES IDX 63 77 65 78 58 79 59 80 60 81 61 82 62 83 38 84 39 85 48 86
REMARK SMILES IDX 40 87 41 88 47 89 49 90 42 91 43 92 44 93 45 94 46 95
REMARK H PARENT 3 7 8 26 70 45 36 56
REMARK Flexibility Score: inf
ROOT
ATOM      1  C   UNL A   1      32.182  28.709  26.441  1.00  0.00     0.023 C 
ENDROOT
BRANCH   1   2
ATOM      2  C   UNL A   1      31.320  27.532  26.907  1.00  0.00     0.023 C 
BRANCH   2   3
ATOM      3  C   UNL A   1      31.574  26.248  26.110  1.00  0.00     0.116 C 
BRANCH   3   4
ATOM      4  N   UNL A   1      31.421  25.024  26.901  1.00  0.00    -0.352 N 
ATOM      5  O   UNL A   1      32.079  23.010  27.734  1.00  0.00    -0.270 OA
ATOM      6  C   UNL A   1      32.138  23.853  26.850  1.00  0.00     0.251 C 
ATOM      7  H   UNL A   1      30.696  25.044  27.568  1.00  0.00     0.163 HD
BRANCH   6   8
ATOM      8  C   UNL A   1      33.009  23.668  25.677  1.00  0.00     0.067 C 
ATOM      9  C   UNL A   1      34.252  24.143  25.806  1.00  0.00     0.025 C 
ATOM     10  C   UNL A   1      32.601  22.657  24.650  1.00  0.00     0.314 C 
ATOM     11  C   UNL A   1      35.286  23.245  25.296  1.00  0.00     0.019 A 
ATOM     12  O   UNL A   1      33.635  21.669  24.399  1.00  0.00    -0.475 OA
ATOM     13  C   UNL A   1      36.598  23.456  25.729  1.00  0.00     0.032 A 
ATOM     14  C   UNL A   1      34.921  22.007  24.741  1.00  0.00     0.128 A 
ATOM     15  C   UNL A   1      37.506  22.401  25.702  1.00  0.00     0.041 A 
ATOM     16  C   UNL A   1      35.850  20.969  24.682  1.00  0.00     0.048 A 
ATOM     17  Cl  UNL A   1      39.058  22.610  26.413  1.00  0.00    -0.084 Cl
ATOM     18  C   UNL A   1      37.134  21.157  25.196  1.00  0.00     0.024 A 
BRANCH  10  19
ATOM     19  C   UNL A   1      32.163  23.321  23.335  1.00  0.00     0.429 C 
ATOM     20  F   UNL A   1      30.958  22.847  22.929  1.00  0.00    -0.167 F 
ATOM     21  F   UNL A   1      32.031  24.662  23.457  1.00  0.00    -0.167 F 
ATOM     22  F   UNL A   1      33.038  23.093  22.326  1.00  0.00    -0.167 F 
ENDBRANCH  10  19
ENDBRANCH   6   8
ENDBRANCH   3   4
ENDBRANCH   2   3
ENDBRANCH   1   2
BRANCH   1  23
ATOM     23  C   UNL A   1      33.445  28.977  27.256  1.00  0.00     0.116 C 
BRANCH  23  24
ATOM     24  N   UNL A   1      33.498  30.299  27.866  1.00  0.00    -0.352 N 
ATOM     25  C   UNL A   1      34.576  30.904  28.480  1.00  0.00     0.251 C 
ATOM     26  H   UNL A   1      32.665  30.824  27.837  1.00  0.00     0.163 HD
ATOM     27  O   UNL A   1      34.473  32.020  28.980  1.00  0.00    -0.269 OA
BRANCH  25  28
ATOM     28  C   UNL A   1      35.850  30.158  28.564  1.00  0.00     0.039 A 
ATOM     29  C   UNL A   1      36.694  30.122  27.451  1.00  0.00     0.014 A 
ATOM     30  C   UNL A   1      36.262  29.622  29.786  1.00  0.00     0.014 A 
ATOM     31  C   UNL A   1      38.001  29.648  27.593  1.00  0.00     0.010 A 
ATOM     32  C   UNL A   1      37.585  29.218  29.939  1.00  0.00     0.010 A 
ATOM     33  C   UNL A   1      38.476  29.250  28.853  1.00  0.00    -0.014 A 
BRANCH  33  34
ATOM     34  C   UNL A   1      39.903  28.895  29.086  1.00  0.00     0.031 A 
ATOM     35  C   UNL A   1      40.863  29.956  29.555  1.00  0.00     0.074 A 
ATOM     36  C   UNL A   1      40.360  27.670  28.753  1.00  0.00     0.049 A 
ATOM     37  N   UNL A   1      42.168  29.922  29.613  1.00  0.00    -0.248 NA
ATOM     38  C   UNL A   1      40.275  31.240  29.971  1.00  0.00     0.031 C 
ATOM     39  C   UNL A   1      39.545  26.566  28.236  1.00  0.00     0.029 A 
ATOM     40  N   UNL A   1      41.635  27.152  28.768  1.00  0.00    -0.354 N 
ATOM     41  C   UNL A   1      42.561  31.192  30.021  1.00  0.00     0.074 A 
ATOM     42  C   UNL A   1      41.357  31.979  30.174  1.00  0.00     0.031 C 
ATOM     43  C   UNL A   1      40.336  25.508  27.989  1.00  0.00     0.029 A 
ATOM     44  C   UNL A   1      41.719  25.865  28.287  1.00  0.00     0.049 A 
ATOM     45  H   UNL A   1      42.415  27.657  29.093  1.00  0.00     0.167 HD
ATOM     46  C   UNL A   1      43.810  31.652  30.259  1.00  0.00     0.037 A 
ATOM     47  C   UNL A   1      42.789  25.071  28.087  1.00  0.00     0.037 A 
ATOM     48  C   UNL A   1      44.996  30.842  30.183  1.00  0.00     0.049 A 
ATOM     49  C   UNL A   1      44.163  25.593  28.418  1.00  0.00     0.074 A 
ATOM     50  C   UNL A   1      46.297  31.192  30.504  1.00  0.00     0.029 A 
ATOM     51  N   UNL A   1      45.026  29.519  29.772  1.00  0.00    -0.354 N 
ATOM     52  N   UNL A   1      44.507  26.777  28.863  1.00  0.00    -0.248 NA
ATOM     53  C   UNL A   1      45.295  24.674  28.221  1.00  0.00     0.031 C 
ATOM     54  C   UNL A   1      47.118  30.088  30.261  1.00  0.00     0.029 A 
ATOM     55  C   UNL A   1      46.323  29.040  29.824  1.00  0.00     0.049 A 
ATOM     56  H   UNL A   1      44.241  28.998  29.486  1.00  0.00     0.167 HD
ATOM     57  C   UNL A   1      45.887  26.732  29.034  1.00  0.00     0.074 A 
ATOM     58  C   UNL A   1      46.316  25.405  28.647  1.00  0.00     0.031 C 
ATOM     59  C   UNL A   1      46.725  27.703  29.472  1.00  0.00     0.037 A 
BRANCH  46  60
ATOM     60  C   UNL A   1      43.971  33.096  30.643  1.00  0.00     0.058 A 
ATOM     61  C   UNL A   1      43.933  33.510  31.982  1.00  0.00     0.135 A 
ATOM     62  C   UNL A   1      44.239  34.065  29.662  1.00  0.00     0.135 A 
ATOM     63  F   UNL A   1      43.662  32.627  32.956  1.00  0.00    -0.206 F 
ATOM     64  C   UNL A   1      44.144  34.838  32.337  1.00  0.00     0.059 A 
ATOM     65  C   UNL A   1      44.478  35.395  29.995  1.00  0.00     0.059 A 
ATOM     66  F   UNL A   1      44.284  33.719  28.365  1.00  0.00    -0.206 F 
ATOM     67  C   UNL A   1      44.421  35.773  31.336  1.00  0.00     0.060 A 
BRANCH  67  68
ATOM     68  S   UNL A   1      44.733  37.484  31.817  1.00  0.00     0.124 S 
ATOM     69  O   UNL A   1      43.810  38.203  30.945  1.00  0.00    -0.237 OA
ATOM     70  O   UNL A   1      44.391  37.478  33.235  1.00  0.00    -0.237 OA
ATOM     71  O   UNL A   1      46.150  37.667  31.518  1.00  0.00    -0.744 OA
ENDBRANCH  67  68
ENDBRANCH  46  60
BRANCH  47  72
ATOM     72  C   UNL A   1      42.624  23.693  27.549  1.00  0.00     0.058 A 
ATOM     73  C   UNL A   1      42.434  22.602  28.411  1.00  0.00     0.135 A 
ATOM     74  C   UNL A   1      42.689  23.432  26.172  1.00  0.00     0.135 A 
ATOM     75  F   UNL A   1      42.370  22.800  29.736  1.00  0.00    -0.206 F 
ATOM     76  C   UNL A   1      42.352  21.298  27.933  1.00  0.00     0.059 A 
ATOM     77  C   UNL A   1      42.586  22.139  25.667  1.00  0.00     0.059 A 
ATOM     78  F   UNL A   1      42.850  24.441  25.302  1.00  0.00    -0.206 F 
ATOM     79  C   UNL A   1      42.438  21.076  26.557  1.00  0.00     0.060 A 
BRANCH  79  80
ATOM     80  S   UNL A   1      42.325  19.382  25.941  1.00  0.00     0.124 S 
ATOM     81  O   UNL A   1      43.215  19.433  24.787  1.00  0.00    -0.237 OA
ATOM     82  O   UNL A   1      42.802  18.605  27.080  1.00  0.00    -0.237 OA
ATOM     83  O   UNL A   1      40.905  19.231  25.641  1.00  0.00    -0.744 OA
ENDBRANCH  79  80
ENDBRANCH  47  72
BRANCH  59  84
ATOM     84  C   UNL A   1      48.178  27.359  29.620  1.00  0.00     0.058 A 
ATOM     85  C   UNL A   1      49.106  27.631  28.604  1.00  0.00     0.135 A 
ATOM     86  C   UNL A   1      48.658  26.834  30.830  1.00  0.00     0.135 A 
ATOM     87  F   UNL A   1      48.693  28.127  27.427  1.00  0.00    -0.206 F 
ATOM     88  C   UNL A   1      50.464  27.388  28.780  1.00  0.00     0.059 A 
ATOM     89  C   UNL A   1      50.014  26.604  31.036  1.00  0.00     0.059 A 
ATOM     90  F   UNL A   1      47.809  26.566  31.835  1.00  0.00    -0.206 F 
ATOM     91  C   UNL A   1      50.909  26.880  30.003  1.00  0.00     0.060 A 
BRANCH  91  92
ATOM     92  S   UNL A   1      52.681  26.632  30.246  1.00  0.00     0.124 S 
ATOM     93  O   UNL A   1      52.695  25.657  31.331  1.00  0.00    -0.237 OA
ATOM     94  O   UNL A   1      53.110  26.137  28.943  1.00  0.00    -0.237 OA
ATOM     95  O   UNL A   1      53.165  27.965  30.593  1.00  0.00    -0.744 OA
ENDBRANCH  91  92
ENDBRANCH  59  84
ENDBRANCH  33  34
ENDBRANCH  25  28
ENDBRANCH  23  24
ENDBRANCH   1  23
TORSDOF 15
ENDMDL
MODEL 3
REMARK VINA RESULT:     -11.7      2.507      3.684
REMARK SMILES O=C(NCCCCNC(=O)c1ccc(-c2c3nc(c(-c4c(F)cc(S(=O)(=O)[O-])cc4F)c4ccc([nH]4)c(-c4c(F)cc(S(=O)(=O)[O-])cc4F)c4nc(c(-c5c(F)cc(S(=O)(=O)[O-])cc5F)c5ccc2[nH]5)C=C4)C=C3)cc1)C1=Cc2cc(Cl)ccc2O[C@@H]1C(F)(F)F
REMARK SMILES IDX 6 1 5 2 4 3 3 4 1 5 2 6 77 8 78 9 87 10 79 11 86 12 80 13
REMARK SMILES IDX 85 14 81 15 84 16 82 17 83 18 88 19 89 20 90 21 91 22 7 23
REMARK SMILES IDX 8 24 9 25 10 27 11 28 12 29 76 30 13 31 75 32 14 33 15 34
REMARK SMILES IDX 16 35 69 36 17 37 74 38 68 39 70 40 18 41 73 42 67 43 66 44
REMARK SMILES IDX 19 46 53 47 32 48 52 49 33 50 36 51 51 52 71 53 34 54 35 55
REMARK SMILES IDX 50 57 72 58 37 59 20 60 21 61 30 62 22 63 23 64 29 65 31 66
REMARK SMILES IDX 24 67 25 68 26 69 27 70 28 71 54 72 55 73 64 74 56 75 57 76
REMARK SMILES IDX 63 77 65 78 58 79 59 80 60 81 61 82 62 83 38 84 39 85 48 86
REMARK SMILES IDX 40 87 41 88 47 89 49 90 42 91 43 92 44 93 45 94 46 95
REMARK H PARENT 3 7 8 26 70 45 36 56
REMARK Flexibility Score: inf
ROOT
ATOM      1  C   UNL A   1      33.679  28.408  26.238  1.00  0.00     0.023 C 
ENDROOT
BRANCH   1   2
ATOM      2  C   UNL A   1      33.869  26.899  26.054  1.00  0.00     0.023 C 
BRANCH   2   3
ATOM      3  C   UNL A   1      33.044  26.325  24.899  1.00  0.00     0.116 C 
BRANCH   3   4
ATOM      4  N   UNL A   1      33.307  26.971  23.610  1.00  0.00    -0.352 N 
ATOM      5  O   UNL A   1      33.039  28.568  22.010  1.00  0.00    -0.270 OA
ATOM      6  C   UNL A   1      32.580  27.930  22.947  1.00  0.00     0.251 C 
ATOM      7  H   UNL A   1      34.126  26.672  23.151  1.00  0.00     0.163 HD
BRANCH   6   8
ATOM      8  C   UNL A   1      31.213  28.172  23.436  1.00  0.00     0.067 C 
ATOM      9  C   UNL A   1      31.020  29.352  24.036  1.00  0.00     0.025 C 
ATOM     10  C   UNL A   1      30.109  27.317  22.894  1.00  0.00     0.314 C 
ATOM     11  C   UNL A   1      29.780  30.020  23.645  1.00  0.00     0.019 A 
ATOM     12  O   UNL A   1      29.032  28.101  22.314  1.00  0.00    -0.475 OA
ATOM     13  C   UNL A   1      29.677  31.391  23.894  1.00  0.00     0.032 A 
ATOM     14  C   UNL A   1      28.926  29.411  22.710  1.00  0.00     0.128 A 
ATOM     15  C   UNL A   1      28.798  32.160  23.137  1.00  0.00     0.041 A 
ATOM     16  C   UNL A   1      28.020  30.184  21.985  1.00  0.00     0.048 A 
ATOM     17  Cl  UNL A   1      28.813  33.871  23.312  1.00  0.00    -0.084 Cl
ATOM     18  C   UNL A   1      27.982  31.567  22.175  1.00  0.00     0.024 A 
BRANCH  10  19
ATOM     19  C   UNL A   1      29.558  26.351  23.955  1.00  0.00     0.429 C 
ATOM     20  F   UNL A   1      29.961  25.078  23.710  1.00  0.00    -0.167 F 
ATOM     21  F   UNL A   1      29.986  26.659  25.200  1.00  0.00    -0.167 F 
ATOM     22  F   UNL A   1      28.204  26.338  23.987  1.00  0.00    -0.167 F 
ENDBRANCH  10  19
ENDBRANCH   6   8
ENDBRANCH   3   4
ENDBRANCH   2   3
ENDBRANCH   1   2
BRANCH   1  23
ATOM     23  C   UNL A   1      33.299  28.868  27.644  1.00  0.00     0.116 C 
BRANCH  23  24
ATOM     24  N   UNL A   1      33.463  30.298  27.872  1.00  0.00    -0.352 N 
ATOM     25  C   UNL A   1      34.621  30.974  28.200  1.00  0.00     0.251 C 
ATOM     26  H   UNL A   1      32.651  30.848  27.782  1.00  0.00     0.163 HD
ATOM     27  O   UNL A   1      34.612  32.186  28.393  1.00  0.00    -0.269 OA
BRANCH  25  28
ATOM     28  C   UNL A   1      35.870  30.198  28.362  1.00  0.00     0.039 A 
ATOM     29  C   UNL A   1      36.751  30.093  27.282  1.00  0.00     0.014 A 
ATOM     30  C   UNL A   1      36.222  29.701  29.618  1.00  0.00     0.014 A 
ATOM     31  C   UNL A   1      38.039  29.590  27.491  1.00  0.00     0.010 A 
ATOM     32  C   UNL A   1      37.526  29.268  29.836  1.00  0.00     0.010 A 
ATOM     33  C   UNL A   1      38.457  29.231  28.783  1.00  0.00    -0.014 A 
BRANCH  33  34
ATOM     34  C   UNL A   1      39.864  28.847  29.083  1.00  0.00     0.031 A 
ATOM     35  C   UNL A   1      40.817  29.886  29.612  1.00  0.00     0.074 A 
ATOM     36  C   UNL A   1      40.315  27.618  28.758  1.00  0.00     0.049 A 
ATOM     37  N   UNL A   1      42.117  29.828  29.735  1.00  0.00    -0.248 NA
ATOM     38  C   UNL A   1      40.233  31.176  30.014  1.00  0.00     0.031 C 
ATOM     39  C   UNL A   1      39.508  26.536  28.187  1.00  0.00     0.029 A 
ATOM     40  N   UNL A   1      41.578  27.078  28.831  1.00  0.00    -0.354 N 
ATOM     41  C   UNL A   1      42.511  31.085  30.177  1.00  0.00     0.074 A 
ATOM     42  C   UNL A   1      41.316  31.893  30.280  1.00  0.00     0.031 C 
ATOM     43  C   UNL A   1      40.291  25.466  27.968  1.00  0.00     0.029 A 
ATOM     44  C   UNL A   1      41.663  25.795  28.338  1.00  0.00     0.049 A 
ATOM     45  H   UNL A   1      42.350  27.564  29.200  1.00  0.00     0.167 HD
ATOM     46  C   UNL A   1      43.755  31.520  30.483  1.00  0.00     0.037 A 
ATOM     47  C   UNL A   1      42.729  24.983  28.183  1.00  0.00     0.037 A 
ATOM     48  C   UNL A   1      44.929  30.690  30.456  1.00  0.00     0.049 A 
ATOM     49  C   UNL A   1      44.093  25.477  28.588  1.00  0.00     0.074 A 
ATOM     50  C   UNL A   1      46.218  31.012  30.845  1.00  0.00     0.029 A 
ATOM     51  N   UNL A   1      44.957  29.371  30.031  1.00  0.00    -0.354 N 
ATOM     52  N   UNL A   1      44.435  26.649  29.064  1.00  0.00    -0.248 NA
ATOM     53  C   UNL A   1      45.217  24.540  28.436  1.00  0.00     0.031 C 
ATOM     54  C   UNL A   1      47.030  29.896  30.631  1.00  0.00     0.029 A 
ATOM     55  C   UNL A   1      46.240  28.868  30.142  1.00  0.00     0.049 A 
ATOM     56  H   UNL A   1      44.178  28.867  29.700  1.00  0.00     0.167 HD
ATOM     57  C   UNL A   1      45.804  26.577  29.303  1.00  0.00     0.074 A 
ATOM     58  C   UNL A   1      46.228  25.247  28.921  1.00  0.00     0.031 C 
ATOM     59  C   UNL A   1      46.635  27.527  29.794  1.00  0.00     0.037 A 
BRANCH  46  60
ATOM     60  C   UNL A   1      43.921  32.956  30.892  1.00  0.00     0.058 A 
ATOM     61  C   UNL A   1      44.092  33.976  29.944  1.00  0.00     0.135 A 
ATOM     62  C   UNL A   1      43.834  33.323  32.245  1.00  0.00     0.135 A 
ATOM     63  F   UNL A   1      44.200  33.677  28.640  1.00  0.00    -0.206 F 
ATOM     64  C   UNL A   1      44.183  35.311  30.324  1.00  0.00     0.059 A 
ATOM     65  C   UNL A   1      43.897  34.654  32.646  1.00  0.00     0.059 A 
ATOM     66  F   UNL A   1      43.673  32.384  33.190  1.00  0.00    -0.206 F 
ATOM     67  C   UNL A   1      44.078  35.641  31.677  1.00  0.00     0.060 A 
BRANCH  67  68
ATOM     68  S   UNL A   1      44.157  37.381  32.149  1.00  0.00     0.124 S 
ATOM     69  O   UNL A   1      43.188  37.430  33.240  1.00  0.00    -0.237 OA
ATOM     70  O   UNL A   1      45.555  37.538  32.536  1.00  0.00    -0.237 OA
ATOM     71  O   UNL A   1      43.764  38.080  30.930  1.00  0.00    -0.744 OA
ENDBRANCH  67  68
ENDBRANCH  46  60
BRANCH  47  72
ATOM     72  C   UNL A   1      42.566  23.615  27.620  1.00  0.00     0.058 A 
ATOM     73  C   UNL A   1      42.384  22.508  28.463  1.00  0.00     0.135 A 
ATOM     74  C   UNL A   1      42.626  23.380  26.238  1.00  0.00     0.135 A 
ATOM     75  F   UNL A   1      42.326  22.681  29.792  1.00  0.00    -0.206 F 
ATOM     76  C   UNL A   1      42.305  21.212  27.961  1.00  0.00     0.059 A 
ATOM     77  C   UNL A   1      42.525  22.095  25.710  1.00  0.00     0.059 A 
ATOM     78  F   UNL A   1      42.778  24.405  25.386  1.00  0.00    -0.206 F 
ATOM     79  C   UNL A   1      42.386  21.015  26.582  1.00  0.00     0.060 A 
BRANCH  79  80
ATOM     80  S   UNL A   1      42.277  19.333  25.935  1.00  0.00     0.124 S 
ATOM     81  O   UNL A   1      43.113  19.425  24.743  1.00  0.00    -0.237 OA
ATOM     82  O   UNL A   1      42.818  18.542  27.035  1.00  0.00    -0.237 OA
ATOM     83  O   UNL A   1      40.847  19.161  25.695  1.00  0.00    -0.744 OA
ENDBRANCH  79  80
ENDBRANCH  47  72
BRANCH  59  84
ATOM     84  C   UNL A   1      48.073  27.156  30.010  1.00  0.00     0.058 A 
ATOM     85  C   UNL A   1      49.061  27.453  29.060  1.00  0.00     0.135 A 
ATOM     86  C   UNL A   1      48.476  26.576  31.223  1.00  0.00     0.135 A 
ATOM     87  F   UNL A   1      48.722  28.000  27.882  1.00  0.00    -0.206 F 
ATOM     88  C   UNL A   1      50.403  27.182  29.303  1.00  0.00     0.059 A 
ATOM     89  C   UNL A   1      49.815  26.318  31.497  1.00  0.00     0.059 A 
ATOM     90  F   UNL A   1      47.568  26.283  32.167  1.00  0.00    -0.206 F 
ATOM     91  C   UNL A   1      50.771  26.620  30.528  1.00  0.00     0.060 A 
BRANCH  91  92
ATOM     92  S   UNL A   1      52.523  26.335  30.861  1.00  0.00     0.124 S 
ATOM     93  O   UNL A   1      52.474  25.134  31.686  1.00  0.00    -0.237 OA
ATOM     94  O   UNL A   1      53.073  26.160  29.520  1.00  0.00    -0.237 OA
ATOM     95  O   UNL A   1      52.939  27.554  31.548  1.00  0.00    -0.744 OA
ENDBRANCH  91  92
ENDBRANCH  59  84
ENDBRANCH  33  34
ENDBRANCH  25  28
ENDBRANCH  23  24
ENDBRANCH   1  23
TORSDOF 15
ENDMDL
