MODEL 1
REMARK VINA RESULT:     -12.5      0.000      0.000
REMARK SMILES Cc1ccc(O[C@H](C)C(=O)NNC(=O)[C@@H]2[C@@H](C(=O)NCCCCNC(=O)c3ccc(-c4c5nc(c(-c6c(F)cc(S(=O)(=O)[O-])cc6F)c6ccc([nH]6)c(-c6c(F)cc(S(=O)(=O)[O-])cc6F)c6nc(c(-c7c(F)cc(S(=O)(=O)[O-])cc7F)c7ccc4[nH]7)C=C6)C=C5)cc3)[C@@H]3C=C[C@H]2C3)cc1C
REMARK SMILES IDX 20 1 19 2 17 3 18 4 16 6 15 7 96 8 93 9 95 10 97 11 94 12
REMARK SMILES IDX 13 13 12 14 14 16 11 17 9 18 10 19 7 21 8 22 6 23 5 24 1 25
REMARK SMILES IDX 2 26 3 27 99 28 4 29 98 30 100 31 21 32 22 33 23 34 24 35
REMARK SMILES IDX 25 36 26 38 27 39 28 40 92 41 29 42 91 43 30 44 31 45 32 46
REMARK SMILES IDX 85 47 33 48 90 49 84 50 86 51 34 52 89 53 83 54 82 55 35 57
REMARK SMILES IDX 69 58 48 59 68 60 49 61 52 62 67 63 87 64 50 65 51 66 66 68
REMARK SMILES IDX 88 69 53 70 36 71 37 72 46 73 38 74 39 75 45 76 47 77 40 78
REMARK SMILES IDX 41 79 42 80 43 81 44 82 70 83 71 84 80 85 72 86 73 87 79 88
REMARK SMILES IDX 81 89 74 90 75 91 76 92 77 93 78 94 54 95 55 96 64 97 56 98
REMARK SMILES IDX 57 99 63 100 65 101 58 102 59 103 60 104 61 105 62 106
REMARK H PARENT 19 5 12 15 11 20 24 37 86 56 52 67
REMARK Flexibility Score: inf
ROOT
ATOM      1  C   UNL A   1      36.971  22.730  25.709  1.00  0.00     0.116 C 
ENDROOT
BRANCH   1   2
ATOM      2  N   UNL A   1      35.843  22.920  26.594  1.00  0.00    -0.356 N 
ATOM      3  C   UNL A   1      34.513  22.901  26.311  1.00  0.00     0.224 C 
ATOM      4  O   UNL A   1      33.736  23.069  27.253  1.00  0.00    -0.275 OA
ATOM      5  H   UNL A   1      36.071  23.090  27.536  1.00  0.00     0.163 HD
BRANCH   3   6
ATOM      6  C   UNL A   1      34.023  22.658  24.882  1.00  0.00     0.098 C 
ATOM      7  C   UNL A   1      32.723  23.482  24.498  1.00  0.00     0.100 C 
ATOM      8  C   UNL A   1      31.695  22.349  24.232  1.00  0.00     0.025 C 
ATOM      9  C   UNL A   1      33.530  21.190  24.741  1.00  0.00     0.025 C 
ATOM     10  C   UNL A   1      32.099  21.607  22.984  1.00  0.00    -0.027 C 
ATOM     11  C   UNL A   1      32.097  21.295  25.265  1.00  0.00     0.017 C 
ATOM     12  C   UNL A   1      33.216  20.928  23.282  1.00  0.00    -0.027 C 
BRANCH   7  13
ATOM     13  C   UNL A   1      33.012  24.454  23.340  1.00  0.00     0.242 C 
ATOM     14  N   UNL A   1      32.101  25.366  22.884  1.00  0.00    -0.267 N 
ATOM     15  H   UNL A   1      32.459  26.145  22.400  1.00  0.00     0.191 HD
ATOM     16  O   UNL A   1      34.137  24.537  22.836  1.00  0.00    -0.273 OA
BRANCH  14  17
ATOM     17  N   UNL A   1      30.730  25.303  23.035  1.00  0.00    -0.264 N 
ATOM     18  C   UNL A   1      30.024  26.132  23.876  1.00  0.00     0.279 C 
ATOM     19  O   UNL A   1      28.797  26.196  23.754  1.00  0.00    -0.269 OA
ATOM     20  H   UNL A   1      30.233  24.632  22.514  1.00  0.00     0.191 HD
BRANCH  18  21
ATOM     21  C   UNL A   1      30.752  26.851  25.031  1.00  0.00     0.260 C 
ATOM     22  C   UNL A   1      30.951  25.837  26.166  1.00  0.00     0.064 C 
BRANCH  21  23
ATOM     23  O   UNL A   1      31.993  27.426  24.620  1.00  0.00    -0.481 OA
BRANCH  23  24
ATOM     24  C   UNL A   1      32.593  28.338  25.456  1.00  0.00     0.120 A 
ATOM     25  C   UNL A   1      34.308  31.504  27.870  1.00  0.00     0.044 C 
ATOM     26  C   UNL A   1      33.667  30.420  27.049  1.00  0.00    -0.048 A 
ATOM     27  C   UNL A   1      34.366  29.222  26.851  1.00  0.00     0.007 A 
ATOM     28  C   UNL A   1      32.394  30.565  26.468  1.00  0.00    -0.045 A 
ATOM     29  C   UNL A   1      33.832  28.190  26.073  1.00  0.00     0.047 A 
ATOM     30  C   UNL A   1      31.876  29.518  25.673  1.00  0.00     0.050 A 
ATOM     31  C   UNL A   1      31.548  31.796  26.654  1.00  0.00     0.045 C 
ENDBRANCH  23  24
ENDBRANCH  21  23
ENDBRANCH  18  21
ENDBRANCH  14  17
ENDBRANCH   7  13
ENDBRANCH   3   6
ENDBRANCH   1   2
BRANCH   1  32
ATOM     32  C   UNL A   1      38.161  23.582  26.147  1.00  0.00     0.023 C 
BRANCH  32  33
ATOM     33  C   UNL A   1      39.374  22.771  26.609  1.00  0.00     0.023 C 
BRANCH  33  34
ATOM     34  C   UNL A   1      40.558  23.604  27.085  1.00  0.00     0.116 C 
BRANCH  34  35
ATOM     35  N   UNL A   1      41.318  24.204  25.998  1.00  0.00    -0.352 N 
ATOM     36  C   UNL A   1      41.664  25.526  25.831  1.00  0.00     0.251 C 
ATOM     37  H   UNL A   1      41.624  23.586  25.294  1.00  0.00     0.163 HD
ATOM     38  O   UNL A   1      42.218  25.901  24.809  1.00  0.00    -0.269 OA
BRANCH  36  39
ATOM     39  C   UNL A   1      41.311  26.486  26.896  1.00  0.00     0.039 A 
ATOM     40  C   UNL A   1      40.421  26.087  27.895  1.00  0.00     0.014 A 
ATOM     41  C   UNL A   1      41.908  27.748  26.936  1.00  0.00     0.014 A 
ATOM     42  C   UNL A   1      40.184  26.933  28.979  1.00  0.00     0.010 A 
ATOM     43  C   UNL A   1      41.727  28.558  28.051  1.00  0.00     0.010 A 
ATOM     44  C   UNL A   1      40.864  28.157  29.084  1.00  0.00    -0.014 A 
BRANCH  44  45
ATOM     45  C   UNL A   1      40.691  29.036  30.267  1.00  0.00     0.031 A 
ATOM     46  C   UNL A   1      41.547  28.829  31.485  1.00  0.00     0.074 A 
ATOM     47  C   UNL A   1      39.716  29.965  30.268  1.00  0.00     0.049 A 
ATOM     48  N   UNL A   1      41.497  29.437  32.642  1.00  0.00    -0.248 NA
ATOM     49  C   UNL A   1      42.574  27.777  31.403  1.00  0.00     0.031 C 
ATOM     50  C   UNL A   1      38.783  30.217  29.167  1.00  0.00     0.029 A 
ATOM     51  N   UNL A   1      39.337  30.864  31.232  1.00  0.00    -0.354 N 
ATOM     52  C   UNL A   1      42.469  28.832  33.429  1.00  0.00     0.074 A 
ATOM     53  C   UNL A   1      43.056  27.773  32.638  1.00  0.00     0.031 C 
ATOM     54  C   UNL A   1      37.956  31.217  29.510  1.00  0.00     0.029 A 
ATOM     55  C   UNL A   1      38.276  31.657  30.864  1.00  0.00     0.049 A 
ATOM     56  H   UNL A   1      39.784  30.935  32.107  1.00  0.00     0.167 HD
ATOM     57  C   UNL A   1      42.854  29.147  34.689  1.00  0.00     0.037 A 
ATOM     58  C   UNL A   1      37.632  32.627  31.543  1.00  0.00     0.037 A 
ATOM     59  C   UNL A   1      42.288  30.224  35.455  1.00  0.00     0.049 A 
ATOM     60  C   UNL A   1      38.096  32.978  32.930  1.00  0.00     0.074 A 
ATOM     61  C   UNL A   1      42.649  30.667  36.716  1.00  0.00     0.029 A 
ATOM     62  N   UNL A   1      41.242  31.032  35.032  1.00  0.00    -0.354 N 
ATOM     63  N   UNL A   1      39.061  32.437  33.637  1.00  0.00    -0.248 NA
ATOM     64  C   UNL A   1      37.394  34.074  33.610  1.00  0.00     0.031 C 
ATOM     65  C   UNL A   1      41.800  31.722  37.068  1.00  0.00     0.029 A 
ATOM     66  C   UNL A   1      40.937  31.965  36.010  1.00  0.00     0.049 A 
ATOM     67  H   UNL A   1      40.785  30.955  34.163  1.00  0.00     0.167 HD
ATOM     68  C   UNL A   1      39.098  33.145  34.833  1.00  0.00     0.074 A 
ATOM     69  C   UNL A   1      38.066  34.158  34.750  1.00  0.00     0.031 C 
ATOM     70  C   UNL A   1      39.913  32.972  35.903  1.00  0.00     0.037 A 
BRANCH  57  71
ATOM     71  C   UNL A   1      43.945  28.318  35.308  1.00  0.00     0.058 A 
ATOM     72  C   UNL A   1      45.299  28.661  35.161  1.00  0.00     0.135 A 
ATOM     73  C   UNL A   1      43.636  27.184  36.075  1.00  0.00     0.135 A 
ATOM     74  F   UNL A   1      45.652  29.725  34.424  1.00  0.00    -0.206 F 
ATOM     75  C   UNL A   1      46.310  27.889  35.725  1.00  0.00     0.059 A 
ATOM     76  C   UNL A   1      44.630  26.414  36.672  1.00  0.00     0.059 A 
ATOM     77  F   UNL A   1      42.358  26.812  36.247  1.00  0.00    -0.206 F 
ATOM     78  C   UNL A   1      45.965  26.766  36.477  1.00  0.00     0.060 A 
BRANCH  78  79
ATOM     79  S   UNL A   1      47.288  25.774  37.203  1.00  0.00     0.124 S 
ATOM     80  O   UNL A   1      48.182  26.811  37.710  1.00  0.00    -0.237 OA
ATOM     81  O   UNL A   1      46.579  25.000  38.217  1.00  0.00    -0.237 OA
ATOM     82  O   UNL A   1      47.796  25.005  36.072  1.00  0.00    -0.744 OA
ENDBRANCH  78  79
ENDBRANCH  57  71
BRANCH  58  83
ATOM     83  C   UNL A   1      36.505  33.356  30.907  1.00  0.00     0.058 A 
ATOM     84  C   UNL A   1      35.193  33.208  31.382  1.00  0.00     0.135 A 
ATOM     85  C   UNL A   1      36.714  34.225  29.826  1.00  0.00     0.135 A 
ATOM     86  F   UNL A   1      34.942  32.385  32.412  1.00  0.00    -0.206 F 
ATOM     87  C   UNL A   1      34.125  33.884  30.800  1.00  0.00     0.059 A 
ATOM     88  C   UNL A   1      35.665  34.930  29.241  1.00  0.00     0.059 A 
ATOM     89  F   UNL A   1      37.952  34.416  29.346  1.00  0.00    -0.206 F 
ATOM     90  C   UNL A   1      34.373  34.744  29.730  1.00  0.00     0.060 A 
BRANCH  90  91
ATOM     91  S   UNL A   1      32.987  35.656  29.013  1.00  0.00     0.124 S 
ATOM     92  O   UNL A   1      32.204  35.981  30.198  1.00  0.00    -0.237 OA
ATOM     93  O   UNL A   1      33.661  36.777  28.364  1.00  0.00    -0.237 OA
ATOM     94  O   UNL A   1      32.386  34.686  28.101  1.00  0.00    -0.744 OA
ENDBRANCH  90  91
ENDBRANCH  58  83
BRANCH  70  95
ATOM     95  C   UNL A   1      39.748  33.921  37.056  1.00  0.00     0.058 A 
ATOM     96  C   UNL A   1      40.317  35.205  37.041  1.00  0.00     0.135 A 
ATOM     97  C   UNL A   1      38.967  33.561  38.165  1.00  0.00     0.135 A 
ATOM     98  F   UNL A   1      41.078  35.593  36.006  1.00  0.00    -0.206 F 
ATOM     99  C   UNL A   1      40.134  36.090  38.097  1.00  0.00     0.059 A 
ATOM    100  C   UNL A   1      38.749  34.441  39.221  1.00  0.00     0.059 A 
ATOM    101  F   UNL A   1      38.392  32.349  38.223  1.00  0.00    -0.206 F 
ATOM    102  C   UNL A   1      39.347  35.700  39.182  1.00  0.00     0.060 A 
BRANCH 102 103
ATOM    103  S   UNL A   1      39.087  36.871  40.531  1.00  0.00     0.124 S 
ATOM    104  O   UNL A   1      40.438  37.009  41.064  1.00  0.00    -0.237 OA
ATOM    105  O   UNL A   1      38.557  38.040  39.835  1.00  0.00    -0.237 OA
ATOM    106  O   UNL A   1      38.136  36.183  41.399  1.00  0.00    -0.744 OA
ENDBRANCH 102 103
ENDBRANCH  70  95
ENDBRANCH  44  45
ENDBRANCH  36  39
ENDBRANCH  34  35
ENDBRANCH  33  34
ENDBRANCH  32  33
ENDBRANCH   1  32
TORSDOF 19
ENDMDL
MODEL 2
REMARK VINA RESULT:     -12.4      6.188     11.909
REMARK SMILES Cc1ccc(O[C@H](C)C(=O)NNC(=O)[C@@H]2[C@@H](C(=O)NCCCCNC(=O)c3ccc(-c4c5nc(c(-c6c(F)cc(S(=O)(=O)[O-])cc6F)c6ccc([nH]6)c(-c6c(F)cc(S(=O)(=O)[O-])cc6F)c6nc(c(-c7c(F)cc(S(=O)(=O)[O-])cc7F)c7ccc4[nH]7)C=C6)C=C5)cc3)[C@@H]3C=C[C@H]2C3)cc1C
REMARK SMILES IDX 20 1 19 2 17 3 18 4 16 6 15 7 96 8 93 9 95 10 97 11 94 12
REMARK SMILES IDX 13 13 12 14 14 16 11 17 9 18 10 19 7 21 8 22 6 23 5 24 1 25
REMARK SMILES IDX 2 26 3 27 99 28 4 29 98 30 100 31 21 32 22 33 23 34 24 35
REMARK SMILES IDX 25 36 26 38 27 39 28 40 92 41 29 42 91 43 30 44 31 45 32 46
REMARK SMILES IDX 85 47 33 48 90 49 84 50 86 51 34 52 89 53 83 54 82 55 35 57
REMARK SMILES IDX 69 58 48 59 68 60 49 61 52 62 67 63 87 64 50 65 51 66 66 68
REMARK SMILES IDX 88 69 53 70 36 71 37 72 46 73 38 74 39 75 45 76 47 77 40 78
REMARK SMILES IDX 41 79 42 80 43 81 44 82 70 83 71 84 80 85 72 86 73 87 79 88
REMARK SMILES IDX 81 89 74 90 75 91 76 92 77 93 78 94 54 95 55 96 64 97 56 98
REMARK SMILES IDX 57 99 63 100 65 101 58 102 59 103 60 104 61 105 62 106
REMARK H PARENT 19 5 12 15 11 20 24 37 86 56 52 67
REMARK Flexibility Score: inf
ROOT
ATOM      1  C   UNL A   1      33.947  28.501  26.417  1.00  0.00     0.116 C 
ENDROOT
BRANCH   1   2
ATOM      2  N   UNL A   1      34.086  28.629  24.983  1.00  0.00    -0.356 N 
ATOM      3  C   UNL A   1      33.159  28.439  24.006  1.00  0.00     0.224 C 
ATOM      4  O   UNL A   1      33.520  28.636  22.844  1.00  0.00    -0.275 OA
ATOM      5  H   UNL A   1      34.982  28.891  24.669  1.00  0.00     0.163 HD
BRANCH   3   6
ATOM      6  C   UNL A   1      31.731  28.019  24.358  1.00  0.00     0.098 C 
ATOM      7  C   UNL A   1      31.571  26.471  24.663  1.00  0.00     0.100 C 
ATOM      8  C   UNL A   1      30.613  26.020  23.527  1.00  0.00     0.025 C 
ATOM      9  C   UNL A   1      30.812  28.202  23.117  1.00  0.00     0.025 C 
ATOM     10  C   UNL A   1      29.255  26.632  23.762  1.00  0.00    -0.027 C 
ATOM     11  C   UNL A   1      31.059  26.898  22.356  1.00  0.00     0.017 C 
ATOM     12  C   UNL A   1      29.379  27.948  23.539  1.00  0.00    -0.027 C 
BRANCH   7  13
ATOM     13  C   UNL A   1      31.099  26.243  26.109  1.00  0.00     0.242 C 
ATOM     14  N   UNL A   1      30.898  25.000  26.644  1.00  0.00    -0.267 N 
ATOM     15  H   UNL A   1      30.931  24.930  27.625  1.00  0.00     0.191 HD
ATOM     16  O   UNL A   1      30.991  27.181  26.906  1.00  0.00    -0.273 OA
BRANCH  14  17
ATOM     17  N   UNL A   1      30.653  23.835  25.944  1.00  0.00    -0.264 N 
ATOM     18  C   UNL A   1      31.536  22.782  25.898  1.00  0.00     0.279 C 
ATOM     19  O   UNL A   1      31.136  21.689  25.485  1.00  0.00    -0.269 OA
ATOM     20  H   UNL A   1      29.803  23.755  25.453  1.00  0.00     0.191 HD
BRANCH  18  21
ATOM     21  C   UNL A   1      33.025  23.015  26.228  1.00  0.00     0.260 C 
ATOM     22  C   UNL A   1      33.413  22.055  27.361  1.00  0.00     0.064 C 
BRANCH  21  23
ATOM     23  O   UNL A   1      33.870  22.848  25.089  1.00  0.00    -0.481 OA
BRANCH  23  24
ATOM     24  C   UNL A   1      35.175  22.473  25.299  1.00  0.00     0.120 A 
ATOM     25  C   UNL A   1      39.397  21.670  25.875  1.00  0.00     0.044 C 
ATOM     26  C   UNL A   1      37.933  21.980  25.715  1.00  0.00    -0.048 A 
ATOM     27  C   UNL A   1      37.083  20.980  25.228  1.00  0.00     0.007 A 
ATOM     28  C   UNL A   1      37.388  23.238  26.032  1.00  0.00    -0.045 A 
ATOM     29  C   UNL A   1      35.719  21.219  25.032  1.00  0.00     0.047 A 
ATOM     30  C   UNL A   1      36.012  23.467  25.814  1.00  0.00     0.050 A 
ATOM     31  C   UNL A   1      38.212  24.364  26.598  1.00  0.00     0.045 C 
ENDBRANCH  23  24
ENDBRANCH  21  23
ENDBRANCH  18  21
ENDBRANCH  14  17
ENDBRANCH   7  13
ENDBRANCH   3   6
ENDBRANCH   1   2
BRANCH   1  32
ATOM     32  C   UNL A   1      35.129  29.140  27.142  1.00  0.00     0.023 C 
BRANCH  32  33
ATOM     33  C   UNL A   1      34.833  30.528  27.717  1.00  0.00     0.023 C 
BRANCH  33  34
ATOM     34  C   UNL A   1      35.952  31.123  28.564  1.00  0.00     0.116 C 
BRANCH  34  35
ATOM     35  N   UNL A   1      35.778  30.900  29.992  1.00  0.00    -0.352 N 
ATOM     36  C   UNL A   1      36.596  30.199  30.848  1.00  0.00     0.251 C 
ATOM     37  H   UNL A   1      34.974  31.301  30.396  1.00  0.00     0.163 HD
ATOM     38  O   UNL A   1      36.266  30.006  32.008  1.00  0.00    -0.269 OA
BRANCH  36  39
ATOM     39  C   UNL A   1      37.861  29.647  30.321  1.00  0.00     0.039 A 
ATOM     40  C   UNL A   1      38.146  29.796  28.963  1.00  0.00     0.014 A 
ATOM     41  C   UNL A   1      38.782  29.046  31.181  1.00  0.00     0.014 A 
ATOM     42  C   UNL A   1      39.393  29.402  28.477  1.00  0.00     0.010 A 
ATOM     43  C   UNL A   1      40.049  28.721  30.711  1.00  0.00     0.010 A 
ATOM     44  C   UNL A   1      40.368  28.898  29.355  1.00  0.00    -0.014 A 
BRANCH  44  45
ATOM     45  C   UNL A   1      41.729  28.550  28.877  1.00  0.00     0.031 A 
ATOM     46  C   UNL A   1      42.782  29.617  28.775  1.00  0.00     0.074 A 
ATOM     47  C   UNL A   1      41.988  27.293  28.468  1.00  0.00     0.049 A 
ATOM     48  N   UNL A   1      44.001  29.531  28.309  1.00  0.00    -0.248 NA
ATOM     49  C   UNL A   1      42.404  30.967  29.224  1.00  0.00     0.031 C 
ATOM     50  C   UNL A   1      41.028  26.187  28.463  1.00  0.00     0.029 A 
ATOM     51  N   UNL A   1      43.135  26.734  27.964  1.00  0.00    -0.354 N 
ATOM     52  C   UNL A   1      44.529  30.814  28.393  1.00  0.00     0.074 A 
ATOM     53  C   UNL A   1      43.480  31.671  28.901  1.00  0.00     0.031 C 
ATOM     54  C   UNL A   1      41.632  25.080  28.002  1.00  0.00     0.029 A 
ATOM     55  C   UNL A   1      43.011  25.403  27.647  1.00  0.00     0.049 A 
ATOM     56  H   UNL A   1      43.971  27.240  27.841  1.00  0.00     0.167 HD
ATOM     57  C   UNL A   1      45.781  31.234  28.095  1.00  0.00     0.037 A 
ATOM     58  C   UNL A   1      43.905  24.540  27.126  1.00  0.00     0.037 A 
ATOM     59  C   UNL A   1      46.827  30.368  27.622  1.00  0.00     0.049 A 
ATOM     60  C   UNL A   1      45.298  25.024  26.830  1.00  0.00     0.074 A 
ATOM     61  C   UNL A   1      48.148  30.681  27.351  1.00  0.00     0.029 A 
ATOM     62  N   UNL A   1      46.673  29.015  27.353  1.00  0.00    -0.354 N 
ATOM     63  N   UNL A   1      45.800  26.228  26.975  1.00  0.00    -0.248 NA
ATOM     64  C   UNL A   1      46.250  24.034  26.309  1.00  0.00     0.031 C 
ATOM     65  C   UNL A   1      48.784  29.525  26.887  1.00  0.00     0.029 A 
ATOM     66  C   UNL A   1      47.872  28.481  26.908  1.00  0.00     0.049 A 
ATOM     67  H   UNL A   1      45.836  28.510  27.462  1.00  0.00     0.167 HD
ATOM     68  C   UNL A   1      47.132  26.134  26.589  1.00  0.00     0.074 A 
ATOM     69  C   UNL A   1      47.360  24.753  26.213  1.00  0.00     0.031 C 
ATOM     70  C   UNL A   1      48.081  27.102  26.549  1.00  0.00     0.037 A 
BRANCH  57  71
ATOM     71  C   UNL A   1      46.085  32.695  28.283  1.00  0.00     0.058 A 
ATOM     72  C   UNL A   1      46.585  33.189  29.499  1.00  0.00     0.135 A 
ATOM     73  C   UNL A   1      45.898  33.606  27.233  1.00  0.00     0.135 A 
ATOM     74  F   UNL A   1      46.766  32.364  30.542  1.00  0.00    -0.206 F 
ATOM     75  C   UNL A   1      46.856  34.542  29.677  1.00  0.00     0.059 A 
ATOM     76  C   UNL A   1      46.191  34.960  27.380  1.00  0.00     0.059 A 
ATOM     77  F   UNL A   1      45.423  33.187  26.049  1.00  0.00    -0.206 F 
ATOM     78  C   UNL A   1      46.654  35.419  28.612  1.00  0.00     0.060 A 
BRANCH  78  79
ATOM     79  S   UNL A   1      47.012  37.172  28.858  1.00  0.00     0.124 S 
ATOM     80  O   UNL A   1      47.844  37.464  27.694  1.00  0.00    -0.237 OA
ATOM     81  O   UNL A   1      45.680  37.769  28.849  1.00  0.00    -0.237 OA
ATOM     82  O   UNL A   1      47.700  37.201  30.144  1.00  0.00    -0.744 OA
ENDBRANCH  78  79
ENDBRANCH  57  71
BRANCH  58  83
ATOM     83  C   UNL A   1      43.520  23.125  26.885  1.00  0.00     0.058 A 
ATOM     84  C   UNL A   1      43.320  22.646  25.581  1.00  0.00     0.135 A 
ATOM     85  C   UNL A   1      43.359  22.221  27.945  1.00  0.00     0.135 A 
ATOM     86  F   UNL A   1      43.458  23.474  24.535  1.00  0.00    -0.206 F 
ATOM     87  C   UNL A   1      42.961  21.325  25.337  1.00  0.00     0.059 A 
ATOM     88  C   UNL A   1      43.022  20.888  27.724  1.00  0.00     0.059 A 
ATOM     89  F   UNL A   1      43.557  22.624  29.210  1.00  0.00    -0.206 F 
ATOM     90  C   UNL A   1      42.815  20.453  26.416  1.00  0.00     0.060 A 
BRANCH  90  91
ATOM     91  S   UNL A   1      42.397  18.726  26.086  1.00  0.00     0.124 S 
ATOM     92  O   UNL A   1      41.015  18.840  25.638  1.00  0.00    -0.237 OA
ATOM     93  O   UNL A   1      43.373  18.365  25.062  1.00  0.00    -0.237 OA
ATOM     94  O   UNL A   1      42.593  18.081  27.381  1.00  0.00    -0.744 OA
ENDBRANCH  90  91
ENDBRANCH  58  83
BRANCH  70  95
ATOM     95  C   UNL A   1      49.462  26.697  26.120  1.00  0.00     0.058 A 
ATOM     96  C   UNL A   1      49.897  26.851  24.794  1.00  0.00     0.135 A 
ATOM     97  C   UNL A   1      50.378  26.198  27.059  1.00  0.00     0.135 A 
ATOM     98  F   UNL A   1      49.056  27.317  23.858  1.00  0.00    -0.206 F 
ATOM     99  C   UNL A   1      51.187  26.504  24.410  1.00  0.00     0.059 A 
ATOM    100  C   UNL A   1      51.682  25.868  26.702  1.00  0.00     0.059 A 
ATOM    101  F   UNL A   1      50.015  26.041  28.342  1.00  0.00    -0.206 F 
ATOM    102  C   UNL A   1      52.073  26.014  25.372  1.00  0.00     0.060 A 
BRANCH 102 103
ATOM    103  S   UNL A   1      53.757  25.600  24.869  1.00  0.00     0.124 S 
ATOM    104  O   UNL A   1      53.820  26.192  23.538  1.00  0.00    -0.237 OA
ATOM    105  O   UNL A   1      54.562  26.259  25.895  1.00  0.00    -0.237 OA
ATOM    106  O   UNL A   1      53.775  24.141  24.911  1.00  0.00    -0.744 OA
ENDBRANCH 102 103
ENDBRANCH  70  95
ENDBRANCH  44  45
ENDBRANCH  36  39
ENDBRANCH  34  35
ENDBRANCH  33  34
ENDBRANCH  32  33
ENDBRANCH   1  32
TORSDOF 19
ENDMDL
MODEL 3
REMARK VINA RESULT:     -12.4      4.662      9.927
REMARK SMILES Cc1ccc(O[C@H](C)C(=O)NNC(=O)[C@@H]2[C@@H](C(=O)NCCCCNC(=O)c3ccc(-c4c5nc(c(-c6c(F)cc(S(=O)(=O)[O-])cc6F)c6ccc([nH]6)c(-c6c(F)cc(S(=O)(=O)[O-])cc6F)c6nc(c(-c7c(F)cc(S(=O)(=O)[O-])cc7F)c7ccc4[nH]7)C=C6)C=C5)cc3)[C@@H]3C=C[C@H]2C3)cc1C
REMARK SMILES IDX 20 1 19 2 17 3 18 4 16 6 15 7 96 8 93 9 95 10 97 11 94 12
REMARK SMILES IDX 13 13 12 14 14 16 11 17 9 18 10 19 7 21 8 22 6 23 5 24 1 25
REMARK SMILES IDX 2 26 3 27 99 28 4 29 98 30 100 31 21 32 22 33 23 34 24 35
REMARK SMILES IDX 25 36 26 38 27 39 28 40 92 41 29 42 91 43 30 44 31 45 32 46
REMARK SMILES IDX 85 47 33 48 90 49 84 50 86 51 34 52 89 53 83 54 82 55 35 57
REMARK SMILES IDX 69 58 48 59 68 60 49 61 52 62 67 63 87 64 50 65 51 66 66 68
REMARK SMILES IDX 88 69 53 70 36 71 37 72 46 73 38 74 39 75 45 76 47 77 40 78
REMARK SMILES IDX 41 79 42 80 43 81 44 82 70 83 71 84 80 85 72 86 73 87 79 88
REMARK SMILES IDX 81 89 74 90 75 91 76 92 77 93 78 94 54 95 55 96 64 97 56 98
REMARK SMILES IDX 57 99 63 100 65 101 58 102 59 103 60 104 61 105 62 106
REMARK H PARENT 19 5 12 15 11 20 24 37 86 56 52 67
REMARK Flexibility Score: inf
ROOT
ATOM      1  C   UNL A   1      30.838  26.288  25.819  1.00  0.00     0.116 C 
ENDROOT
BRANCH   1   2
ATOM      2  N   UNL A   1      30.286  25.140  26.505  1.00  0.00    -0.356 N 
ATOM      3  C   UNL A   1      30.885  23.967  26.842  1.00  0.00     0.224 C 
ATOM      4  O   UNL A   1      30.201  23.143  27.452  1.00  0.00    -0.275 OA
ATOM      5  H   UNL A   1      29.339  25.219  26.763  1.00  0.00     0.163 HD
BRANCH   3   6
ATOM      6  C   UNL A   1      32.351  23.709  26.489  1.00  0.00     0.098 C 
ATOM      7  C   UNL A   1      32.658  23.766  24.934  1.00  0.00     0.100 C 
ATOM      8  C   UNL A   1      33.125  22.312  24.649  1.00  0.00     0.025 C 
ATOM      9  C   UNL A   1      32.723  22.241  26.840  1.00  0.00     0.025 C 
ATOM     10  C   UNL A   1      34.452  22.084  25.325  1.00  0.00    -0.027 C 
ATOM     11  C   UNL A   1      32.242  21.495  25.595  1.00  0.00     0.017 C 
ATOM     12  C   UNL A   1      34.216  22.065  26.645  1.00  0.00    -0.027 C 
BRANCH   7  13
ATOM     13  C   UNL A   1      33.650  24.896  24.611  1.00  0.00     0.242 C 
ATOM     14  N   UNL A   1      33.523  25.718  23.525  1.00  0.00    -0.267 N 
ATOM     15  H   UNL A   1      33.975  26.590  23.574  1.00  0.00     0.191 HD
ATOM     16  O   UNL A   1      34.559  25.197  25.393  1.00  0.00    -0.273 OA
BRANCH  14  17
ATOM     17  N   UNL A   1      32.822  25.444  22.366  1.00  0.00    -0.264 N 
ATOM     18  C   UNL A   1      31.998  26.356  21.749  1.00  0.00     0.279 C 
ATOM     19  O   UNL A   1      31.627  26.133  20.593  1.00  0.00    -0.269 OA
ATOM     20  H   UNL A   1      32.917  24.551  21.963  1.00  0.00     0.191 HD
BRANCH  18  21
ATOM     21  C   UNL A   1      31.447  27.555  22.549  1.00  0.00     0.260 C 
ATOM     22  C   UNL A   1      32.498  28.673  22.507  1.00  0.00     0.064 C 
BRANCH  21  23
ATOM     23  O   UNL A   1      30.184  28.006  22.056  1.00  0.00    -0.481 OA
BRANCH  23  24
ATOM     24  C   UNL A   1      29.761  29.263  22.415  1.00  0.00     0.120 A 
ATOM     25  C   UNL A   1      28.512  33.347  23.166  1.00  0.00     0.044 C 
ATOM     26  C   UNL A   1      28.907  31.926  22.872  1.00  0.00    -0.048 A 
ATOM     27  C   UNL A   1      29.478  31.160  23.897  1.00  0.00     0.007 A 
ATOM     28  C   UNL A   1      28.729  31.338  21.606  1.00  0.00    -0.045 A 
ATOM     29  C   UNL A   1      29.889  29.842  23.674  1.00  0.00     0.047 A 
ATOM     30  C   UNL A   1      29.164  30.011  21.394  1.00  0.00     0.050 A 
ATOM     31  C   UNL A   1      28.090  32.066  20.453  1.00  0.00     0.045 C 
ENDBRANCH  23  24
ENDBRANCH  21  23
ENDBRANCH  18  21
ENDBRANCH  14  17
ENDBRANCH   7  13
ENDBRANCH   3   6
ENDBRANCH   1   2
BRANCH   1  32
ATOM     32  C   UNL A   1      31.476  27.262  26.807  1.00  0.00     0.023 C 
BRANCH  32  33
ATOM     33  C   UNL A   1      32.593  28.119  26.207  1.00  0.00     0.023 C 
BRANCH  33  34
ATOM     34  C   UNL A   1      33.672  28.550  27.193  1.00  0.00     0.116 C 
BRANCH  34  35
ATOM     35  N   UNL A   1      33.562  29.943  27.599  1.00  0.00    -0.352 N 
ATOM     36  C   UNL A   1      34.518  30.731  28.200  1.00  0.00     0.251 C 
ATOM     37  H   UNL A   1      32.696  30.377  27.422  1.00  0.00     0.163 HD
ATOM     38  O   UNL A   1      34.246  31.860  28.581  1.00  0.00    -0.269 OA
BRANCH  36  39
ATOM     39  C   UNL A   1      35.865  30.165  28.413  1.00  0.00     0.039 A 
ATOM     40  C   UNL A   1      36.785  30.201  27.363  1.00  0.00     0.014 A 
ATOM     41  C   UNL A   1      36.231  29.663  29.664  1.00  0.00     0.014 A 
ATOM     42  C   UNL A   1      38.100  29.795  27.591  1.00  0.00     0.010 A 
ATOM     43  C   UNL A   1      37.557  29.328  29.908  1.00  0.00     0.010 A 
ATOM     44  C   UNL A   1      38.505  29.393  28.874  1.00  0.00    -0.014 A 
BRANCH  44  45
ATOM     45  C   UNL A   1      39.916  29.036  29.160  1.00  0.00     0.031 A 
ATOM     46  C   UNL A   1      40.839  30.056  29.765  1.00  0.00     0.074 A 
ATOM     47  C   UNL A   1      40.380  27.821  28.806  1.00  0.00     0.049 A 
ATOM     48  N   UNL A   1      42.119  29.965  30.016  1.00  0.00    -0.248 NA
ATOM     49  C   UNL A   1      40.253  31.364  30.101  1.00  0.00     0.031 C 
ATOM     50  C   UNL A   1      39.594  26.770  28.157  1.00  0.00     0.029 A 
ATOM     51  N   UNL A   1      41.629  27.269  28.930  1.00  0.00    -0.354 N 
ATOM     52  C   UNL A   1      42.494  31.204  30.522  1.00  0.00     0.074 A 
ATOM     53  C   UNL A   1      41.320  32.047  30.490  1.00  0.00     0.031 C 
ATOM     54  C   UNL A   1      40.373  25.694  27.961  1.00  0.00     0.029 A 
ATOM     55  C   UNL A   1      41.721  25.988  28.439  1.00  0.00     0.049 A 
ATOM     56  H   UNL A   1      42.391  27.745  29.334  1.00  0.00     0.167 HD
ATOM     57  C   UNL A   1      43.702  31.595  30.992  1.00  0.00     0.037 A 
ATOM     58  C   UNL A   1      42.772  25.147  28.378  1.00  0.00     0.037 A 
ATOM     59  C   UNL A   1      44.856  30.738  31.052  1.00  0.00     0.049 A 
ATOM     60  C   UNL A   1      44.097  25.595  28.933  1.00  0.00     0.074 A 
ATOM     61  C   UNL A   1      46.110  31.017  31.568  1.00  0.00     0.029 A 
ATOM     62  N   UNL A   1      44.898  29.433  30.582  1.00  0.00    -0.354 N 
ATOM     63  N   UNL A   1      44.418  26.750  29.466  1.00  0.00    -0.248 NA
ATOM     64  C   UNL A   1      45.199  24.625  28.887  1.00  0.00     0.031 C 
ATOM     65  C   UNL A   1      46.919  29.890  31.381  1.00  0.00     0.029 A 
ATOM     66  C   UNL A   1      46.158  28.895  30.787  1.00  0.00     0.049 A 
ATOM     67  H   UNL A   1      44.142  28.958  30.166  1.00  0.00     0.167 HD
ATOM     68  C   UNL A   1      45.751  26.636  29.844  1.00  0.00     0.074 A 
ATOM     69  C   UNL A   1      46.173  25.296  29.486  1.00  0.00     0.031 C 
ATOM     70  C   UNL A   1      46.554  27.556  30.433  1.00  0.00     0.037 A 
BRANCH  57  71
ATOM     71  C   UNL A   1      43.829  33.009  31.487  1.00  0.00     0.058 A 
ATOM     72  C   UNL A   1      43.533  33.351  32.817  1.00  0.00     0.135 A 
ATOM     73  C   UNL A   1      44.273  34.030  30.632  1.00  0.00     0.135 A 
ATOM     74  F   UNL A   1      43.089  32.417  33.672  1.00  0.00    -0.206 F 
ATOM     75  C   UNL A   1      43.640  34.661  33.272  1.00  0.00     0.059 A 
ATOM     76  C   UNL A   1      44.414  35.342  31.075  1.00  0.00     0.059 A 
ATOM     77  F   UNL A   1      44.569  33.759  29.351  1.00  0.00    -0.206 F 
ATOM     78  C   UNL A   1      44.080  35.650  32.393  1.00  0.00     0.060 A 
BRANCH  78  79
ATOM     79  S   UNL A   1      44.215  37.345  32.999  1.00  0.00     0.124 S 
ATOM     80  O   UNL A   1      43.540  38.087  31.937  1.00  0.00    -0.237 OA
ATOM     81  O   UNL A   1      43.506  37.281  34.273  1.00  0.00    -0.237 OA
ATOM     82  O   UNL A   1      45.655  37.558  33.096  1.00  0.00    -0.744 OA
ENDBRANCH  78  79
ENDBRANCH  57  71
BRANCH  58  83
ATOM     83  C   UNL A   1      42.604  23.788  27.801  1.00  0.00     0.058 A 
ATOM     84  C   UNL A   1      42.473  22.665  28.632  1.00  0.00     0.135 A 
ATOM     85  C   UNL A   1      42.553  23.585  26.414  1.00  0.00     0.135 A 
ATOM     86  F   UNL A   1      42.518  22.809  29.965  1.00  0.00    -0.206 F 
ATOM     87  C   UNL A   1      42.313  21.386  28.109  1.00  0.00     0.059 A 
ATOM     88  C   UNL A   1      42.371  22.317  25.868  1.00  0.00     0.059 A 
ATOM     89  F   UNL A   1      42.654  24.628  25.577  1.00  0.00    -0.206 F 
ATOM     90  C   UNL A   1      42.262  21.223  26.725  1.00  0.00     0.060 A 
BRANCH  90  91
ATOM     91  S   UNL A   1      42.004  19.564  26.056  1.00  0.00     0.124 S 
ATOM     92  O   UNL A   1      42.919  19.559  24.922  1.00  0.00    -0.237 OA
ATOM     93  O   UNL A   1      42.380  18.717  27.184  1.00  0.00    -0.237 OA
ATOM     94  O   UNL A   1      40.582  19.555  25.724  1.00  0.00    -0.744 OA
ENDBRANCH  90  91
ENDBRANCH  58  83
BRANCH  70  95
ATOM     95  C   UNL A   1      47.958  27.136  30.763  1.00  0.00     0.058 A 
ATOM     96  C   UNL A   1      48.276  26.521  31.985  1.00  0.00     0.135 A 
ATOM     97  C   UNL A   1      48.987  27.303  29.824  1.00  0.00     0.135 A 
ATOM     98  F   UNL A   1      47.328  26.346  32.919  1.00  0.00    -0.206 F 
ATOM     99  C   UNL A   1      49.571  26.106  32.271  1.00  0.00     0.059 A 
ATOM    100  C   UNL A   1      50.285  26.871  30.079  1.00  0.00     0.059 A 
ATOM    101  F   UNL A   1      48.734  27.876  28.636  1.00  0.00    -0.206 F 
ATOM    102  C   UNL A   1      50.569  26.284  31.311  1.00  0.00     0.060 A 
BRANCH 102 103
ATOM    103  S   UNL A   1      52.240  25.708  31.680  1.00  0.00     0.124 S 
ATOM    104  O   UNL A   1      52.610  26.577  32.792  1.00  0.00    -0.237 OA
ATOM    105  O   UNL A   1      52.021  24.304  32.017  1.00  0.00    -0.237 OA
ATOM    106  O   UNL A   1      52.962  25.940  30.432  1.00  0.00    -0.744 OA
ENDBRANCH 102 103
ENDBRANCH  70  95
ENDBRANCH  44  45
ENDBRANCH  36  39
ENDBRANCH  34  35
ENDBRANCH  33  34
ENDBRANCH  32  33
ENDBRANCH   1  32
TORSDOF 19
ENDMDL
