MODEL 1
REMARK VINA RESULT:     -13.6      0.000      0.000
REMARK SMILES Cc1ccc(C(C)(C)C)c(OCC(=O)c2nc(C)c(C(=O)NCCCCNC(=O)c3ccc(-c4c5nc(c(-c6c(F)cc(S(=O)(=O)[O-])cc6F)c6ccc([nH]6)c(-c6c(F)cc(S(=O)(=O)[O-])cc6F)c6nc(c(-c7c(F)cc(S(=O)(=O)[O-])cc7F)c7ccc4[nH]7)C=C6)C=C5)cc3)s2)c1
REMARK SMILES IDX 23 1 22 2 20 3 21 4 19 6 15 7 16 8 96 9 17 10 18 11 13 12
REMARK SMILES IDX 14 13 12 14 11 15 10 16 1 17 2 18 3 19 97 20 4 21 5 22 6 23
REMARK SMILES IDX 7 24 8 25 9 26 24 27 25 28 26 29 27 30 28 31 29 33 30 34
REMARK SMILES IDX 31 35 95 36 32 37 94 38 33 39 34 40 35 41 88 42 36 43 93 44
REMARK SMILES IDX 87 45 89 46 37 47 92 48 86 49 85 50 38 52 72 53 51 54 71 55
REMARK SMILES IDX 52 56 55 57 70 58 90 59 53 60 54 61 69 63 91 64 56 65 39 66
REMARK SMILES IDX 40 67 49 68 41 69 42 70 48 71 50 72 43 73 44 74 45 75 46 76
REMARK SMILES IDX 47 77 73 78 74 79 83 80 75 81 76 82 82 83 84 84 77 85 78 86
REMARK SMILES IDX 79 87 80 88 81 89 57 90 58 91 67 92 59 93 60 94 66 95 68 96
REMARK SMILES IDX 61 97 62 98 63 99 64 100 65 101
REMARK H PARENT 22 5 27 32 89 51 55 62
REMARK Flexibility Score: inf
ROOT
ATOM      1  C   UNL A   1      32.785  29.519  24.884  1.00  0.00     0.116 C 
ENDROOT
BRANCH   1   2
ATOM      2  N   UNL A   1      31.717  29.237  23.950  1.00  0.00    -0.351 N 
ATOM      3  C   UNL A   1      31.075  28.105  23.529  1.00  0.00     0.263 C 
ATOM      4  O   UNL A   1      30.191  28.356  22.696  1.00  0.00    -0.268 OA
ATOM      5  H   UNL A   1      31.370  30.050  23.517  1.00  0.00     0.163 HD
BRANCH   3   6
ATOM      6  C   UNL A   1      31.348  26.736  23.973  1.00  0.00     0.115 A 
ATOM      7  C   UNL A   1      31.290  24.786  25.492  1.00  0.00     0.164 A 
ATOM      8  N   UNL A   1      31.935  24.496  24.391  1.00  0.00    -0.237 NA
ATOM      9  S   UNL A   1      30.703  26.370  25.565  1.00  0.00    -0.105 S 
ATOM     10  C   UNL A   1      31.959  25.572  23.504  1.00  0.00     0.062 A 
ATOM     11  C   UNL A   1      32.624  25.228  22.223  1.00  0.00     0.068 C 
BRANCH   7  12
ATOM     12  C   UNL A   1      31.119  23.794  26.544  1.00  0.00     0.228 C 
ATOM     13  O   UNL A   1      30.067  23.660  27.182  1.00  0.00    -0.288 OA
BRANCH  12  14
ATOM     14  C   UNL A   1      32.333  22.962  26.984  1.00  0.00     0.313 C 
BRANCH  14  15
ATOM     15  O   UNL A   1      32.797  21.861  26.234  1.00  0.00    -0.485 OA
BRANCH  15  16
ATOM     16  C   UNL A   1      34.104  21.787  25.850  1.00  0.00     0.123 A 
ATOM     17  C   UNL A   1      37.350  23.796  26.083  1.00  0.00     0.044 C 
ATOM     18  C   UNL A   1      36.378  22.697  25.774  1.00  0.00    -0.047 A 
ATOM     19  C   UNL A   1      36.813  21.524  25.172  1.00  0.00     0.004 A 
ATOM     20  C   UNL A   1      35.020  22.830  26.080  1.00  0.00     0.050 A 
ATOM     21  C   UNL A   1      35.903  20.504  24.888  1.00  0.00     0.008 A 
ATOM     22  C   UNL A   1      34.528  20.597  25.216  1.00  0.00    -0.000 A 
BRANCH  22  23
ATOM     23  C   UNL A   1      33.619  19.397  24.841  1.00  0.00    -0.010 C 
ATOM     24  C   UNL A   1      34.515  18.242  24.328  1.00  0.00     0.016 C 
ATOM     25  C   UNL A   1      32.843  18.918  26.092  1.00  0.00     0.016 C 
ATOM     26  C   UNL A   1      32.557  19.628  23.742  1.00  0.00     0.016 C 
ENDBRANCH  22  23
ENDBRANCH  15  16
ENDBRANCH  14  15
ENDBRANCH  12  14
ENDBRANCH   7  12
ENDBRANCH   3   6
ENDBRANCH   1   2
BRANCH   1  27
ATOM     27  C   UNL A   1      32.256  30.188  26.161  1.00  0.00     0.023 C 
BRANCH  27  28
ATOM     28  C   UNL A   1      32.954  29.746  27.449  1.00  0.00     0.023 C 
BRANCH  28  29
ATOM     29  C   UNL A   1      34.470  29.772  27.330  1.00  0.00     0.116 C 
BRANCH  29  30
ATOM     30  N   UNL A   1      35.122  30.933  27.906  1.00  0.00    -0.352 N 
ATOM     31  C   UNL A   1      36.242  30.951  28.732  1.00  0.00     0.251 C 
ATOM     32  H   UNL A   1      34.726  31.808  27.689  1.00  0.00     0.163 HD
ATOM     33  O   UNL A   1      36.530  31.912  29.402  1.00  0.00    -0.269 OA
BRANCH  31  34
ATOM     34  C   UNL A   1      37.140  29.767  28.663  1.00  0.00     0.039 A 
ATOM     35  C   UNL A   1      37.383  29.078  29.858  1.00  0.00     0.014 A 
ATOM     36  C   UNL A   1      37.923  29.534  27.537  1.00  0.00     0.014 A 
ATOM     37  C   UNL A   1      38.535  28.299  29.979  1.00  0.00     0.010 A 
ATOM     38  C   UNL A   1      39.115  28.850  27.692  1.00  0.00     0.010 A 
ATOM     39  C   UNL A   1      39.446  28.265  28.922  1.00  0.00    -0.014 A 
BRANCH  39  40
ATOM     40  C   UNL A   1      40.795  27.710  29.029  1.00  0.00     0.031 A 
ATOM     41  C   UNL A   1      41.068  26.322  28.558  1.00  0.00     0.074 A 
ATOM     42  C   UNL A   1      41.829  28.463  29.476  1.00  0.00     0.049 A 
ATOM     43  N   UNL A   1      42.027  25.577  29.005  1.00  0.00    -0.248 NA
ATOM     44  C   UNL A   1      40.259  25.652  27.539  1.00  0.00     0.031 C 
ATOM     45  C   UNL A   1      43.249  28.121  29.354  1.00  0.00     0.029 A 
ATOM     46  N   UNL A   1      41.866  29.635  30.232  1.00  0.00    -0.354 N 
ATOM     47  C   UNL A   1      42.145  24.496  28.162  1.00  0.00     0.074 A 
ATOM     48  C   UNL A   1      40.984  24.555  27.303  1.00  0.00     0.031 C 
ATOM     49  C   UNL A   1      43.946  28.837  30.248  1.00  0.00     0.029 A 
ATOM     50  C   UNL A   1      42.981  29.531  31.078  1.00  0.00     0.049 A 
ATOM     51  H   UNL A   1      41.234  30.389  30.182  1.00  0.00     0.167 HD
ATOM     52  C   UNL A   1      43.279  23.736  28.163  1.00  0.00     0.037 A 
ATOM     53  C   UNL A   1      42.959  29.474  32.444  1.00  0.00     0.037 A 
ATOM     54  C   UNL A   1      44.257  24.222  29.130  1.00  0.00     0.049 A 
ATOM     55  C   UNL A   1      43.658  28.253  33.021  1.00  0.00     0.074 A 
ATOM     56  C   UNL A   1      45.360  25.049  28.997  1.00  0.00     0.029 A 
ATOM     57  N   UNL A   1      44.008  24.117  30.493  1.00  0.00    -0.354 N 
ATOM     58  N   UNL A   1      43.983  27.206  32.316  1.00  0.00    -0.248 NA
ATOM     59  C   UNL A   1      44.001  28.090  34.433  1.00  0.00     0.031 C 
ATOM     60  C   UNL A   1      45.753  25.475  30.286  1.00  0.00     0.029 A 
ATOM     61  C   UNL A   1      44.892  24.904  31.206  1.00  0.00     0.049 A 
ATOM     62  H   UNL A   1      43.301  23.560  30.895  1.00  0.00     0.167 HD
ATOM     63  C   UNL A   1      44.494  26.232  33.135  1.00  0.00     0.074 A 
ATOM     64  C   UNL A   1      44.523  26.849  34.446  1.00  0.00     0.031 C 
ATOM     65  C   UNL A   1      44.827  24.994  32.657  1.00  0.00     0.037 A 
BRANCH  52  66
ATOM     66  C   UNL A   1      43.595  22.765  27.048  1.00  0.00     0.058 A 
ATOM     67  C   UNL A   1      42.929  21.527  26.942  1.00  0.00     0.135 A 
ATOM     68  C   UNL A   1      44.601  22.984  26.085  1.00  0.00     0.135 A 
ATOM     69  F   UNL A   1      41.892  21.213  27.729  1.00  0.00    -0.206 F 
ATOM     70  C   UNL A   1      43.311  20.535  26.039  1.00  0.00     0.059 A 
ATOM     71  C   UNL A   1      45.036  21.988  25.203  1.00  0.00     0.059 A 
ATOM     72  F   UNL A   1      45.191  24.184  25.970  1.00  0.00    -0.206 F 
ATOM     73  C   UNL A   1      44.393  20.756  25.200  1.00  0.00     0.060 A 
BRANCH  73  74
ATOM     74  S   UNL A   1      44.960  19.407  24.146  1.00  0.00     0.124 S 
ATOM     75  O   UNL A   1      44.459  19.807  22.833  1.00  0.00    -0.237 OA
ATOM     76  O   UNL A   1      46.406  19.474  24.321  1.00  0.00    -0.237 OA
ATOM     77  O   UNL A   1      44.309  18.234  24.721  1.00  0.00    -0.744 OA
ENDBRANCH  73  74
ENDBRANCH  52  66
BRANCH  53  78
ATOM     78  C   UNL A   1      41.793  30.141  33.071  1.00  0.00     0.058 A 
ATOM     79  C   UNL A   1      41.857  31.532  33.259  1.00  0.00     0.135 A 
ATOM     80  C   UNL A   1      40.528  29.535  33.065  1.00  0.00     0.135 A 
ATOM     81  F   UNL A   1      43.048  32.150  33.305  1.00  0.00    -0.206 F 
ATOM     82  C   UNL A   1      40.712  32.316  33.244  1.00  0.00     0.059 A 
ATOM     83  C   UNL A   1      39.366  30.303  33.054  1.00  0.00     0.059 A 
ATOM     84  F   UNL A   1      40.415  28.209  32.908  1.00  0.00    -0.206 F 
ATOM     85  C   UNL A   1      39.478  31.694  33.063  1.00  0.00     0.060 A 
BRANCH  85  86
ATOM     86  S   UNL A   1      38.074  32.742  32.619  1.00  0.00     0.124 S 
ATOM     87  O   UNL A   1      37.009  31.763  32.434  1.00  0.00    -0.237 OA
ATOM     88  O   UNL A   1      37.964  33.583  33.811  1.00  0.00    -0.237 OA
ATOM     89  O   UNL A   1      38.533  33.417  31.412  1.00  0.00    -0.744 OA
ENDBRANCH  85  86
ENDBRANCH  53  78
BRANCH  65  90
ATOM     90  C   UNL A   1      45.215  23.790  33.485  1.00  0.00     0.058 A 
ATOM     91  C   UNL A   1      46.514  23.543  33.958  1.00  0.00     0.135 A 
ATOM     92  C   UNL A   1      44.220  22.891  33.946  1.00  0.00     0.135 A 
ATOM     93  F   UNL A   1      47.524  24.383  33.691  1.00  0.00    -0.206 F 
ATOM     94  C   UNL A   1      46.823  22.445  34.765  1.00  0.00     0.059 A 
ATOM     95  C   UNL A   1      44.497  21.822  34.795  1.00  0.00     0.059 A 
ATOM     96  F   UNL A   1      42.933  23.030  33.593  1.00  0.00    -0.206 F 
ATOM     97  C   UNL A   1      45.809  21.587  35.177  1.00  0.00     0.060 A 
BRANCH  97  98
ATOM     98  S   UNL A   1      46.184  20.198  36.262  1.00  0.00     0.124 S 
ATOM     99  O   UNL A   1      45.480  19.108  35.595  1.00  0.00    -0.237 OA
ATOM    100  O   UNL A   1      47.642  20.128  36.213  1.00  0.00    -0.237 OA
ATOM    101  O   UNL A   1      45.629  20.620  37.544  1.00  0.00    -0.744 OA
ENDBRANCH  97  98
ENDBRANCH  65  90
ENDBRANCH  39  40
ENDBRANCH  31  34
ENDBRANCH  29  30
ENDBRANCH  28  29
ENDBRANCH  27  28
ENDBRANCH   1  27
TORSDOF 19
ENDMDL
MODEL 2
REMARK VINA RESULT:     -13.4      1.026      2.261
REMARK SMILES Cc1ccc(C(C)(C)C)c(OCC(=O)c2nc(C)c(C(=O)NCCCCNC(=O)c3ccc(-c4c5nc(c(-c6c(F)cc(S(=O)(=O)[O-])cc6F)c6ccc([nH]6)c(-c6c(F)cc(S(=O)(=O)[O-])cc6F)c6nc(c(-c7c(F)cc(S(=O)(=O)[O-])cc7F)c7ccc4[nH]7)C=C6)C=C5)cc3)s2)c1
REMARK SMILES IDX 23 1 22 2 20 3 21 4 19 6 15 7 16 8 96 9 17 10 18 11 13 12
REMARK SMILES IDX 14 13 12 14 11 15 10 16 1 17 2 18 3 19 97 20 4 21 5 22 6 23
REMARK SMILES IDX 7 24 8 25 9 26 24 27 25 28 26 29 27 30 28 31 29 33 30 34
REMARK SMILES IDX 31 35 95 36 32 37 94 38 33 39 34 40 35 41 88 42 36 43 93 44
REMARK SMILES IDX 87 45 89 46 37 47 92 48 86 49 85 50 38 52 72 53 51 54 71 55
REMARK SMILES IDX 52 56 55 57 70 58 90 59 53 60 54 61 69 63 91 64 56 65 39 66
REMARK SMILES IDX 40 67 49 68 41 69 42 70 48 71 50 72 43 73 44 74 45 75 46 76
REMARK SMILES IDX 47 77 73 78 74 79 83 80 75 81 76 82 82 83 84 84 77 85 78 86
REMARK SMILES IDX 79 87 80 88 81 89 57 90 58 91 67 92 59 93 60 94 66 95 68 96
REMARK SMILES IDX 61 97 62 98 63 99 64 100 65 101
REMARK H PARENT 22 5 27 32 89 51 55 62
REMARK Flexibility Score: inf
ROOT
ATOM      1  C   UNL A   1      32.483  29.676  24.825  1.00  0.00     0.116 C 
ENDROOT
BRANCH   1   2
ATOM      2  N   UNL A   1      31.379  29.368  23.943  1.00  0.00    -0.351 N 
ATOM      3  C   UNL A   1      30.788  28.216  23.500  1.00  0.00     0.263 C 
ATOM      4  O   UNL A   1      29.839  28.447  22.735  1.00  0.00    -0.268 OA
ATOM      5  H   UNL A   1      30.954  30.175  23.575  1.00  0.00     0.163 HD
BRANCH   3   6
ATOM      6  C   UNL A   1      31.177  26.849  23.853  1.00  0.00     0.115 A 
ATOM      7  C   UNL A   1      31.158  24.744  25.150  1.00  0.00     0.164 A 
ATOM      8  N   UNL A   1      31.999  24.664  24.151  1.00  0.00    -0.237 NA
ATOM      9  S   UNL A   1      30.353  26.226  25.273  1.00  0.00    -0.105 S 
ATOM     10  C   UNL A   1      32.009  25.830  23.386  1.00  0.00     0.062 A 
ATOM     11  C   UNL A   1      32.904  25.720  22.207  1.00  0.00     0.068 C 
BRANCH   7  12
ATOM     12  C   UNL A   1      30.967  23.624  26.061  1.00  0.00     0.228 C 
ATOM     13  O   UNL A   1      30.515  23.754  27.206  1.00  0.00    -0.288 OA
BRANCH  12  14
ATOM     14  C   UNL A   1      31.473  22.236  25.645  1.00  0.00     0.313 C 
BRANCH  14  15
ATOM     15  O   UNL A   1      32.608  22.067  24.826  1.00  0.00    -0.485 OA
BRANCH  15  16
ATOM     16  C   UNL A   1      33.297  20.889  24.831  1.00  0.00     0.123 A 
ATOM     17  C   UNL A   1      32.662  17.118  24.750  1.00  0.00     0.044 C 
ATOM     18  C   UNL A   1      33.369  18.440  24.770  1.00  0.00    -0.047 A 
ATOM     19  C   UNL A   1      34.755  18.496  24.694  1.00  0.00     0.004 A 
ATOM     20  C   UNL A   1      32.654  19.638  24.869  1.00  0.00     0.050 A 
ATOM     21  C   UNL A   1      35.407  19.730  24.712  1.00  0.00     0.008 A 
ATOM     22  C   UNL A   1      34.707  20.960  24.778  1.00  0.00    -0.000 A 
BRANCH  22  23
ATOM     23  C   UNL A   1      35.549  22.263  24.799  1.00  0.00    -0.010 C 
ATOM     24  C   UNL A   1      35.255  23.061  23.504  1.00  0.00     0.016 C 
ATOM     25  C   UNL A   1      35.153  23.123  26.024  1.00  0.00     0.016 C 
ATOM     26  C   UNL A   1      37.086  22.113  24.862  1.00  0.00     0.016 C 
ENDBRANCH  22  23
ENDBRANCH  15  16
ENDBRANCH  14  15
ENDBRANCH  12  14
ENDBRANCH   7  12
ENDBRANCH   3   6
ENDBRANCH   1   2
BRANCH   1  27
ATOM     27  C   UNL A   1      31.998  29.977  26.251  1.00  0.00     0.023 C 
BRANCH  27  28
ATOM     28  C   UNL A   1      32.960  29.541  27.358  1.00  0.00     0.023 C 
BRANCH  28  29
ATOM     29  C   UNL A   1      34.419  29.671  26.948  1.00  0.00     0.116 C 
BRANCH  29  30
ATOM     30  N   UNL A   1      35.078  30.894  27.368  1.00  0.00    -0.352 N 
ATOM     31  C   UNL A   1      36.274  31.011  28.070  1.00  0.00     0.251 C 
ATOM     32  H   UNL A   1      34.628  31.736  27.127  1.00  0.00     0.163 HD
ATOM     33  O   UNL A   1      36.589  32.030  28.635  1.00  0.00    -0.269 OA
BRANCH  31  34
ATOM     34  C   UNL A   1      37.207  29.855  27.998  1.00  0.00     0.039 A 
ATOM     35  C   UNL A   1      37.320  29.051  29.139  1.00  0.00     0.014 A 
ATOM     36  C   UNL A   1      38.129  29.751  26.962  1.00  0.00     0.014 A 
ATOM     37  C   UNL A   1      38.469  28.283  29.326  1.00  0.00     0.010 A 
ATOM     38  C   UNL A   1      39.312  29.074  27.197  1.00  0.00     0.010 A 
ATOM     39  C   UNL A   1      39.504  28.371  28.394  1.00  0.00    -0.014 A 
BRANCH  39  40
ATOM     40  C   UNL A   1      40.845  27.829  28.615  1.00  0.00     0.031 A 
ATOM     41  C   UNL A   1      41.158  26.429  28.207  1.00  0.00     0.074 A 
ATOM     42  C   UNL A   1      41.841  28.603  29.111  1.00  0.00     0.049 A 
ATOM     43  N   UNL A   1      42.086  25.705  28.745  1.00  0.00    -0.248 NA
ATOM     44  C   UNL A   1      40.428  25.723  27.154  1.00  0.00     0.031 C 
ATOM     45  C   UNL A   1      43.267  28.268  29.102  1.00  0.00     0.029 A 
ATOM     46  N   UNL A   1      41.818  29.798  29.832  1.00  0.00    -0.354 N 
ATOM     47  C   UNL A   1      42.270  24.600  27.946  1.00  0.00     0.074 A 
ATOM     48  C   UNL A   1      41.174  24.624  27.004  1.00  0.00     0.031 C 
ATOM     49  C   UNL A   1      43.895  29.016  30.021  1.00  0.00     0.029 A 
ATOM     50  C   UNL A   1      42.869  29.727  30.758  1.00  0.00     0.049 A 
ATOM     51  H   UNL A   1      41.187  30.545  29.714  1.00  0.00     0.167 HD
ATOM     52  C   UNL A   1      43.405  23.848  28.052  1.00  0.00     0.037 A 
ATOM     53  C   UNL A   1      42.749  29.711  32.120  1.00  0.00     0.037 A 
ATOM     54  C   UNL A   1      44.308  24.371  29.070  1.00  0.00     0.049 A 
ATOM     55  C   UNL A   1      43.412  28.514  32.783  1.00  0.00     0.074 A 
ATOM     56  C   UNL A   1      45.414  25.202  28.992  1.00  0.00     0.029 A 
ATOM     57  N   UNL A   1      43.962  24.305  30.415  1.00  0.00    -0.354 N 
ATOM     58  N   UNL A   1      43.791  27.448  32.136  1.00  0.00    -0.248 NA
ATOM     59  C   UNL A   1      43.653  28.396  34.220  1.00  0.00     0.031 C 
ATOM     60  C   UNL A   1      45.712  25.669  30.292  1.00  0.00     0.029 A 
ATOM     61  C   UNL A   1      44.789  25.120  31.165  1.00  0.00     0.049 A 
ATOM     62  H   UNL A   1      43.231  23.756  30.782  1.00  0.00     0.167 HD
ATOM     63  C   UNL A   1      44.248  26.503  33.018  1.00  0.00     0.074 A 
ATOM     64  C   UNL A   1      44.179  27.160  34.308  1.00  0.00     0.031 C 
ATOM     65  C   UNL A   1      44.620  25.254  32.604  1.00  0.00     0.037 A 
BRANCH  52  66
ATOM     66  C   UNL A   1      43.806  22.847  26.992  1.00  0.00     0.058 A 
ATOM     67  C   UNL A   1      43.043  21.684  26.756  1.00  0.00     0.135 A 
ATOM     68  C   UNL A   1      44.978  22.957  26.218  1.00  0.00     0.135 A 
ATOM     69  F   UNL A   1      41.860  21.483  27.351  1.00  0.00    -0.206 F 
ATOM     70  C   UNL A   1      43.470  20.655  25.917  1.00  0.00     0.059 A 
ATOM     71  C   UNL A   1      45.453  21.918  25.409  1.00  0.00     0.059 A 
ATOM     72  F   UNL A   1      45.699  24.089  26.222  1.00  0.00    -0.206 F 
ATOM     73  C   UNL A   1      44.696  20.761  25.277  1.00  0.00     0.060 A 
BRANCH  73  74
ATOM     74  S   UNL A   1      45.292  19.356  24.316  1.00  0.00     0.124 S 
ATOM     75  O   UNL A   1      46.722  19.637  24.209  1.00  0.00    -0.237 OA
ATOM     76  O   UNL A   1      44.929  18.230  25.169  1.00  0.00    -0.237 OA
ATOM     77  O   UNL A   1      44.550  19.465  23.064  1.00  0.00    -0.744 OA
ENDBRANCH  73  74
ENDBRANCH  52  66
BRANCH  53  78
ATOM     78  C   UNL A   1      41.538  30.388  32.641  1.00  0.00     0.058 A 
ATOM     79  C   UNL A   1      40.400  29.599  32.885  1.00  0.00     0.135 A 
ATOM     80  C   UNL A   1      41.628  31.630  33.287  1.00  0.00     0.135 A 
ATOM     81  F   UNL A   1      40.256  28.418  32.263  1.00  0.00    -0.206 F 
ATOM     82  C   UNL A   1      39.489  29.935  33.876  1.00  0.00     0.059 A 
ATOM     83  C   UNL A   1      40.721  31.989  34.281  1.00  0.00     0.059 A 
ATOM     84  F   UNL A   1      42.684  32.427  33.073  1.00  0.00    -0.206 F 
ATOM     85  C   UNL A   1      39.704  31.094  34.619  1.00  0.00     0.060 A 
BRANCH  85  86
ATOM     86  S   UNL A   1      38.772  31.284  36.156  1.00  0.00     0.124 S 
ATOM     87  O   UNL A   1      37.603  32.033  35.714  1.00  0.00    -0.237 OA
ATOM     88  O   UNL A   1      38.533  29.886  36.513  1.00  0.00    -0.237 OA
ATOM     89  O   UNL A   1      39.701  32.004  37.018  1.00  0.00    -0.744 OA
ENDBRANCH  85  86
ENDBRANCH  53  78
BRANCH  65  90
ATOM     90  C   UNL A   1      44.953  24.078  33.494  1.00  0.00     0.058 A 
ATOM     91  C   UNL A   1      44.105  22.979  33.701  1.00  0.00     0.135 A 
ATOM     92  C   UNL A   1      46.241  23.970  34.080  1.00  0.00     0.135 A 
ATOM     93  F   UNL A   1      42.905  22.904  33.107  1.00  0.00    -0.206 F 
ATOM     94  C   UNL A   1      44.470  21.886  34.490  1.00  0.00     0.059 A 
ATOM     95  C   UNL A   1      46.646  22.864  34.825  1.00  0.00     0.059 A 
ATOM     96  F   UNL A   1      47.159  24.937  33.936  1.00  0.00    -0.206 F 
ATOM     97  C   UNL A   1      45.743  21.837  35.052  1.00  0.00     0.060 A 
BRANCH  97  98
ATOM     98  S   UNL A   1      46.248  20.408  36.028  1.00  0.00     0.124 S 
ATOM     99  O   UNL A   1      45.968  20.868  37.383  1.00  0.00    -0.237 OA
ATOM    100  O   UNL A   1      45.375  19.348  35.531  1.00  0.00    -0.237 OA
ATOM    101  O   UNL A   1      47.659  20.258  35.688  1.00  0.00    -0.744 OA
ENDBRANCH  97  98
ENDBRANCH  65  90
ENDBRANCH  39  40
ENDBRANCH  31  34
ENDBRANCH  29  30
ENDBRANCH  28  29
ENDBRANCH  27  28
ENDBRANCH   1  27
TORSDOF 19
ENDMDL
MODEL 3
REMARK VINA RESULT:     -13.3      4.750     11.443
REMARK SMILES Cc1ccc(C(C)(C)C)c(OCC(=O)c2nc(C)c(C(=O)NCCCCNC(=O)c3ccc(-c4c5nc(c(-c6c(F)cc(S(=O)(=O)[O-])cc6F)c6ccc([nH]6)c(-c6c(F)cc(S(=O)(=O)[O-])cc6F)c6nc(c(-c7c(F)cc(S(=O)(=O)[O-])cc7F)c7ccc4[nH]7)C=C6)C=C5)cc3)s2)c1
REMARK SMILES IDX 23 1 22 2 20 3 21 4 19 6 15 7 16 8 96 9 17 10 18 11 13 12
REMARK SMILES IDX 14 13 12 14 11 15 10 16 1 17 2 18 3 19 97 20 4 21 5 22 6 23
REMARK SMILES IDX 7 24 8 25 9 26 24 27 25 28 26 29 27 30 28 31 29 33 30 34
REMARK SMILES IDX 31 35 95 36 32 37 94 38 33 39 34 40 35 41 88 42 36 43 93 44
REMARK SMILES IDX 87 45 89 46 37 47 92 48 86 49 85 50 38 52 72 53 51 54 71 55
REMARK SMILES IDX 52 56 55 57 70 58 90 59 53 60 54 61 69 63 91 64 56 65 39 66
REMARK SMILES IDX 40 67 49 68 41 69 42 70 48 71 50 72 43 73 44 74 45 75 46 76
REMARK SMILES IDX 47 77 73 78 74 79 83 80 75 81 76 82 82 83 84 84 77 85 78 86
REMARK SMILES IDX 79 87 80 88 81 89 57 90 58 91 67 92 59 93 60 94 66 95 68 96
REMARK SMILES IDX 61 97 62 98 63 99 64 100 65 101
REMARK H PARENT 22 5 27 32 89 51 55 62
REMARK Flexibility Score: inf
ROOT
ATOM      1  C   UNL A   1      35.572  20.401  25.119  1.00  0.00     0.116 C 
ENDROOT
BRANCH   1   2
ATOM      2  N   UNL A   1      34.476  20.945  25.891  1.00  0.00    -0.351 N 
ATOM      3  C   UNL A   1      33.432  21.789  25.626  1.00  0.00     0.263 C 
ATOM      4  O   UNL A   1      32.719  21.972  26.624  1.00  0.00    -0.268 OA
ATOM      5  H   UNL A   1      34.481  20.634  26.825  1.00  0.00     0.163 HD
BRANCH   3   6
ATOM      6  C   UNL A   1      33.137  22.428  24.341  1.00  0.00     0.115 A 
ATOM      7  C   UNL A   1      33.079  24.249  22.670  1.00  0.00     0.164 A 
ATOM      8  N   UNL A   1      32.544  23.158  22.184  1.00  0.00    -0.237 NA
ATOM      9  S   UNL A   1      33.634  24.111  24.261  1.00  0.00    -0.105 S 
ATOM     10  C   UNL A   1      32.590  22.107  23.099  1.00  0.00     0.062 A 
ATOM     11  C   UNL A   1      32.053  20.845  22.529  1.00  0.00     0.068 C 
BRANCH   7  12
ATOM     12  C   UNL A   1      33.164  25.463  21.869  1.00  0.00     0.228 C 
ATOM     13  O   UNL A   1      33.094  25.462  20.633  1.00  0.00    -0.288 OA
BRANCH  12  14
ATOM     14  C   UNL A   1      33.488  26.791  22.567  1.00  0.00     0.313 C 
BRANCH  14  15
ATOM     15  O   UNL A   1      32.512  27.789  22.769  1.00  0.00    -0.485 OA
BRANCH  15  16
ATOM     16  C   UNL A   1      32.456  28.473  23.948  1.00  0.00     0.123 A 
ATOM     17  C   UNL A   1      34.574  29.130  27.064  1.00  0.00     0.044 C 
ATOM     18  C   UNL A   1      33.450  29.182  26.072  1.00  0.00    -0.047 A 
ATOM     19  C   UNL A   1      32.360  30.014  26.290  1.00  0.00     0.004 A 
ATOM     20  C   UNL A   1      33.473  28.395  24.917  1.00  0.00     0.050 A 
ATOM     21  C   UNL A   1      31.318  30.059  25.362  1.00  0.00     0.008 A 
ATOM     22  C   UNL A   1      31.329  29.298  24.167  1.00  0.00    -0.000 A 
BRANCH  22  23
ATOM     23  C   UNL A   1      30.106  29.431  23.222  1.00  0.00    -0.010 C 
ATOM     24  C   UNL A   1      29.292  28.114  23.279  1.00  0.00     0.016 C 
ATOM     25  C   UNL A   1      29.208  30.601  23.691  1.00  0.00     0.016 C 
ATOM     26  C   UNL A   1      30.391  29.685  21.724  1.00  0.00     0.016 C 
ENDBRANCH  22  23
ENDBRANCH  15  16
ENDBRANCH  14  15
ENDBRANCH  12  14
ENDBRANCH   7  12
ENDBRANCH   3   6
ENDBRANCH   1   2
BRANCH   1  27
ATOM     27  C   UNL A   1      36.717  21.415  24.974  1.00  0.00     0.023 C 
BRANCH  27  28
ATOM     28  C   UNL A   1      36.744  22.506  26.047  1.00  0.00     0.023 C 
BRANCH  28  29
ATOM     29  C   UNL A   1      37.948  23.426  25.913  1.00  0.00     0.116 C 
BRANCH  29  30
ATOM     30  N   UNL A   1      39.126  23.024  26.659  1.00  0.00    -0.352 N 
ATOM     31  C   UNL A   1      40.064  23.852  27.268  1.00  0.00     0.251 C 
ATOM     32  H   UNL A   1      39.278  22.055  26.745  1.00  0.00     0.163 HD
ATOM     33  O   UNL A   1      41.154  23.454  27.598  1.00  0.00    -0.269 OA
BRANCH  31  34
ATOM     34  C   UNL A   1      39.618  25.232  27.601  1.00  0.00     0.039 A 
ATOM     35  C   UNL A   1      40.144  26.278  26.831  1.00  0.00     0.014 A 
ATOM     36  C   UNL A   1      38.951  25.494  28.792  1.00  0.00     0.014 A 
ATOM     37  C   UNL A   1      40.168  27.570  27.355  1.00  0.00     0.010 A 
ATOM     38  C   UNL A   1      39.071  26.752  29.354  1.00  0.00     0.010 A 
ATOM     39  C   UNL A   1      39.715  27.784  28.658  1.00  0.00    -0.014 A 
BRANCH  39  40
ATOM     40  C   UNL A   1      39.934  29.024  29.402  1.00  0.00     0.031 A 
ATOM     41  C   UNL A   1      38.893  30.092  29.393  1.00  0.00     0.074 A 
ATOM     42  C   UNL A   1      41.036  29.194  30.172  1.00  0.00     0.049 A 
ATOM     43  N   UNL A   1      39.136  31.348  29.586  1.00  0.00    -0.248 NA
ATOM     44  C   UNL A   1      37.476  29.821  29.148  1.00  0.00     0.031 C 
ATOM     45  C   UNL A   1      41.224  30.247  31.174  1.00  0.00     0.029 A 
ATOM     46  N   UNL A   1      42.277  28.556  30.171  1.00  0.00    -0.354 N 
ATOM     47  C   UNL A   1      37.931  31.983  29.784  1.00  0.00     0.074 A 
ATOM     48  C   UNL A   1      36.925  31.004  29.440  1.00  0.00     0.031 C 
ATOM     49  C   UNL A   1      42.534  30.380  31.424  1.00  0.00     0.029 A 
ATOM     50  C   UNL A   1      43.233  29.538  30.473  1.00  0.00     0.049 A 
ATOM     51  H   UNL A   1      42.450  27.602  29.993  1.00  0.00     0.167 HD
ATOM     52  C   UNL A   1      37.885  33.220  30.359  1.00  0.00     0.037 A 
ATOM     53  C   UNL A   1      44.235  29.974  29.650  1.00  0.00     0.037 A 
ATOM     54  C   UNL A   1      39.216  33.712  30.695  1.00  0.00     0.049 A 
ATOM     55  C   UNL A   1      44.226  31.475  29.412  1.00  0.00     0.074 A 
ATOM     56  C   UNL A   1      39.941  33.694  31.875  1.00  0.00     0.029 A 
ATOM     57  N   UNL A   1      40.113  34.051  29.689  1.00  0.00    -0.354 N 
ATOM     58  N   UNL A   1      43.214  32.246  29.694  1.00  0.00    -0.248 NA
ATOM     59  C   UNL A   1      45.324  32.218  28.795  1.00  0.00     0.031 C 
ATOM     60  C   UNL A   1      41.290  33.986  31.572  1.00  0.00     0.029 A 
ATOM     61  C   UNL A   1      41.388  34.186  30.207  1.00  0.00     0.049 A 
ATOM     62  H   UNL A   1      39.875  34.176  28.741  1.00  0.00     0.167 HD
ATOM     63  C   UNL A   1      43.464  33.524  29.263  1.00  0.00     0.074 A 
ATOM     64  C   UNL A   1      44.816  33.464  28.744  1.00  0.00     0.031 C 
ATOM     65  C   UNL A   1      42.522  34.510  29.354  1.00  0.00     0.037 A 
BRANCH  52  66
ATOM     66  C   UNL A   1      36.600  33.806  30.898  1.00  0.00     0.058 A 
ATOM     67  C   UNL A   1      35.528  34.137  30.042  1.00  0.00     0.135 A 
ATOM     68  C   UNL A   1      36.396  34.122  32.256  1.00  0.00     0.135 A 
ATOM     69  F   UNL A   1      35.539  33.818  28.742  1.00  0.00    -0.206 F 
ATOM     70  C   UNL A   1      34.402  34.838  30.473  1.00  0.00     0.059 A 
ATOM     71  C   UNL A   1      35.300  34.868  32.705  1.00  0.00     0.059 A 
ATOM     72  F   UNL A   1      37.262  33.707  33.195  1.00  0.00    -0.206 F 
ATOM     73  C   UNL A   1      34.313  35.237  31.799  1.00  0.00     0.060 A 
BRANCH  73  74
ATOM     74  S   UNL A   1      32.920  36.266  32.299  1.00  0.00     0.124 S 
ATOM     75  O   UNL A   1      32.783  37.176  31.164  1.00  0.00    -0.237 OA
ATOM     76  O   UNL A   1      31.856  35.281  32.453  1.00  0.00    -0.237 OA
ATOM     77  O   UNL A   1      33.387  36.889  33.534  1.00  0.00    -0.744 OA
ENDBRANCH  73  74
ENDBRANCH  52  66
BRANCH  53  78
ATOM     78  C   UNL A   1      44.697  28.974  28.657  1.00  0.00     0.058 A 
ATOM     79  C   UNL A   1      44.116  29.006  27.378  1.00  0.00     0.135 A 
ATOM     80  C   UNL A   1      45.937  28.337  28.803  1.00  0.00     0.135 A 
ATOM     81  F   UNL A   1      42.915  29.576  27.198  1.00  0.00    -0.206 F 
ATOM     82  C   UNL A   1      44.823  28.598  26.255  1.00  0.00     0.059 A 
ATOM     83  C   UNL A   1      46.661  27.916  27.689  1.00  0.00     0.059 A 
ATOM     84  F   UNL A   1      46.524  28.264  30.005  1.00  0.00    -0.206 F 
ATOM     85  C   UNL A   1      46.124  28.127  26.418  1.00  0.00     0.060 A 
BRANCH  85  86
ATOM     86  S   UNL A   1      47.161  28.014  24.941  1.00  0.00     0.124 S 
ATOM     87  O   UNL A   1      46.886  26.659  24.479  1.00  0.00    -0.237 OA
ATOM     88  O   UNL A   1      46.601  29.090  24.124  1.00  0.00    -0.237 OA
ATOM     89  O   UNL A   1      48.502  28.249  25.460  1.00  0.00    -0.744 OA
ENDBRANCH  85  86
ENDBRANCH  53  78
BRANCH  65  90
ATOM     90  C   UNL A   1      42.611  35.892  28.747  1.00  0.00     0.058 A 
ATOM     91  C   UNL A   1      42.196  36.209  27.443  1.00  0.00     0.135 A 
ATOM     92  C   UNL A   1      43.014  36.996  29.541  1.00  0.00     0.135 A 
ATOM     93  F   UNL A   1      41.683  35.276  26.629  1.00  0.00    -0.206 F 
ATOM     94  C   UNL A   1      42.245  37.510  26.935  1.00  0.00     0.059 A 
ATOM     95  C   UNL A   1      43.019  38.308  29.072  1.00  0.00     0.059 A 
ATOM     96  F   UNL A   1      43.407  36.836  30.813  1.00  0.00    -0.206 F 
ATOM     97  C   UNL A   1      42.661  38.554  27.755  1.00  0.00     0.060 A 
BRANCH  97  98
ATOM     98  S   UNL A   1      42.679  40.244  27.130  1.00  0.00     0.124 S 
ATOM     99  O   UNL A   1      43.508  40.914  28.126  1.00  0.00    -0.237 OA
ATOM    100  O   UNL A   1      43.280  40.098  25.807  1.00  0.00    -0.237 OA
ATOM    101  O   UNL A   1      41.266  40.611  27.129  1.00  0.00    -0.744 OA
ENDBRANCH  97  98
ENDBRANCH  65  90
ENDBRANCH  39  40
ENDBRANCH  31  34
ENDBRANCH  29  30
ENDBRANCH  28  29
ENDBRANCH  27  28
ENDBRANCH   1  27
TORSDOF 19
ENDMDL
