MODEL 1
REMARK VINA RESULT:     -12.3      0.000      0.000
REMARK SMILES Cc1ccc(S(=O)(=O)n2cc(C(=O)C(=O)NCC(=O)N[C@H](Cc3c[nH]c4ccccc34)C(=O)NCCCCNC(=O)c3ccc(-c4c5nc(c(-c6c(F)cc(S(=O)(=O)[O-])cc6F)c6ccc([nH]6)c(-c6c(F)cc(S(=O)(=O)[O-])cc6F)c6nc(c(-c7c(F)cc(S(=O)(=O)[O-])cc7F)c7ccc4[nH]7)C=C6)C=C5)cc3)c3ccccc32)cc1
REMARK SMILES IDX 32 1 33 2 34 3 21 5 20 6 18 7 19 8 17 10 16 11 14 12 15 13
REMARK SMILES IDX 12 15 13 16 11 17 9 18 10 19 113 20 108 21 112 22 109 23
REMARK SMILES IDX 111 24 110 25 6 26 7 27 8 28 5 29 1 30 2 31 3 32 115 33 4 34
REMARK SMILES IDX 114 35 22 36 23 37 24 38 31 39 25 40 26 41 30 42 27 44 29 45
REMARK SMILES IDX 28 46 35 47 36 48 37 49 38 50 39 51 40 52 41 54 42 55 43 56
REMARK SMILES IDX 107 57 44 58 106 59 45 60 46 61 47 62 100 63 48 64 105 65
REMARK SMILES IDX 99 66 101 67 49 68 104 69 98 70 97 71 50 73 84 74 63 75
REMARK SMILES IDX 83 76 64 77 67 78 82 79 102 80 65 81 66 82 81 84 103 85
REMARK SMILES IDX 68 86 51 87 52 88 61 89 53 90 54 91 60 92 62 93 55 94 56 95
REMARK SMILES IDX 57 96 58 97 59 98 85 99 86 100 95 101 87 102 88 103 94 104
REMARK SMILES IDX 96 105 89 106 90 107 91 108 92 109 93 110 69 111 70 112
REMARK SMILES IDX 79 113 71 114 72 115 78 116 80 117 73 118 74 119 75 120
REMARK SMILES IDX 76 121 77 122
REMARK H PARENT 34 4 20 9 16 14 25 43 39 53 101 72 67 83
REMARK Flexibility Score: inf
ROOT
ATOM      1  C   UNL A   1      41.446  23.648  28.107  1.00  0.00     0.242 C 
ATOM      2  O   UNL A   1      41.877  22.885  28.983  1.00  0.00    -0.273 OA
ATOM      3  N   UNL A   1      41.826  24.942  28.223  1.00  0.00    -0.354 N 
ATOM      4  H   UNL A   1      42.391  25.108  29.012  1.00  0.00     0.163 HD
ENDROOT
BRANCH   1   5
ATOM      5  C   UNL A   1      40.531  23.080  27.004  1.00  0.00     0.175 C 
BRANCH   5   6
ATOM      6  N   UNL A   1      39.168  23.562  27.259  1.00  0.00    -0.342 N 
ATOM      7  C   UNL A   1      38.106  23.666  26.412  1.00  0.00     0.240 C 
ATOM      8  O   UNL A   1      37.077  24.166  26.878  1.00  0.00    -0.273 OA
ATOM      9  H   UNL A   1      38.995  23.855  28.184  1.00  0.00     0.164 HD
BRANCH   7  10
ATOM     10  C   UNL A   1      38.084  22.989  25.024  1.00  0.00     0.216 C 
BRANCH  10  11
ATOM     11  N   UNL A   1      37.851  21.551  24.937  1.00  0.00    -0.340 N 
ATOM     12  C   UNL A   1      36.681  20.851  25.180  1.00  0.00     0.292 C 
ATOM     13  O   UNL A   1      36.581  19.643  25.000  1.00  0.00    -0.265 OA
ATOM     14  H   UNL A   1      38.629  21.007  24.671  1.00  0.00     0.164 HD
BRANCH  12  15
ATOM     15  C   UNL A   1      35.463  21.610  25.695  1.00  0.00     0.252 C 
ATOM     16  O   UNL A   1      35.170  21.453  26.880  1.00  0.00    -0.283 OA
BRANCH  15  17
ATOM     17  C   UNL A   1      34.585  22.337  24.769  1.00  0.00     0.054 A 
ATOM     18  N   UNL A   1      33.481  23.879  23.540  1.00  0.00    -0.240 N 
ATOM     19  C   UNL A   1      34.447  23.709  24.530  1.00  0.00     0.117 A 
ATOM     20  C   UNL A   1      33.198  22.611  23.004  1.00  0.00     0.065 A 
ATOM     21  C   UNL A   1      33.600  21.690  23.966  1.00  0.00     0.012 A 
ATOM     22  C   UNL A   1      32.384  22.231  21.918  1.00  0.00     0.028 A 
ATOM     23  C   UNL A   1      33.034  20.398  23.945  1.00  0.00     0.011 A 
ATOM     24  C   UNL A   1      31.782  20.973  21.961  1.00  0.00     0.002 A 
ATOM     25  C   UNL A   1      32.072  20.082  22.983  1.00  0.00     0.001 A 
BRANCH  18  26
ATOM     26  S   UNL A   1      32.034  24.844  23.682  1.00  0.00     0.268 S 
ATOM     27  O   UNL A   1      31.093  23.938  24.322  1.00  0.00    -0.201 OA
ATOM     28  O   UNL A   1      31.820  25.299  22.314  1.00  0.00    -0.201 OA
BRANCH  26  29
ATOM     29  C   UNL A   1      31.887  26.353  24.568  1.00  0.00     0.088 A 
ATOM     30  C   UNL A   1      31.404  30.480  25.751  1.00  0.00     0.044 C 
ATOM     31  C   UNL A   1      31.544  29.027  25.394  1.00  0.00    -0.051 A 
ATOM     32  C   UNL A   1      31.032  28.621  24.170  1.00  0.00     0.005 A 
ATOM     33  C   UNL A   1      32.210  28.082  26.206  1.00  0.00     0.005 A 
ATOM     34  C   UNL A   1      31.193  27.305  23.778  1.00  0.00     0.022 A 
ATOM     35  C   UNL A   1      32.393  26.734  25.798  1.00  0.00     0.022 A 
ENDBRANCH  26  29
ENDBRANCH  18  26
ENDBRANCH  15  17
ENDBRANCH  12  15
ENDBRANCH  10  11
ENDBRANCH   7  10
ENDBRANCH   5   6
BRANCH   5  36
ATOM     36  C   UNL A   1      40.567  21.561  26.728  1.00  0.00     0.072 C 
BRANCH  36  37
ATOM     37  C   UNL A   1      41.875  20.856  26.471  1.00  0.00    -0.020 A 
ATOM     38  C   UNL A   1      42.279  19.586  26.832  1.00  0.00     0.087 A 
ATOM     39  C   UNL A   1      42.976  21.405  25.715  1.00  0.00     0.003 A 
ATOM     40  N   UNL A   1      43.394  19.259  26.109  1.00  0.00    -0.361 N 
ATOM     41  C   UNL A   1      43.852  20.357  25.430  1.00  0.00     0.046 A 
ATOM     42  C   UNL A   1      43.286  22.679  25.195  1.00  0.00     0.010 A 
ATOM     43  H   UNL A   1      43.807  18.365  26.080  1.00  0.00     0.166 HD
ATOM     44  C   UNL A   1      44.959  20.485  24.585  1.00  0.00     0.026 A 
ATOM     45  C   UNL A   1      44.434  22.845  24.407  1.00  0.00     0.001 A 
ATOM     46  C   UNL A   1      45.240  21.756  24.084  1.00  0.00     0.002 A 
ENDBRANCH  36  37
ENDBRANCH   5  36
ENDBRANCH   1   5
BRANCH   3  47
ATOM     47  C   UNL A   1      41.583  26.139  27.439  1.00  0.00     0.116 C 
BRANCH  47  48
ATOM     48  C   UNL A   1      42.840  26.762  26.832  1.00  0.00     0.023 C 
BRANCH  48  49
ATOM     49  C   UNL A   1      43.421  27.966  27.577  1.00  0.00     0.023 C 
BRANCH  49  50
ATOM     50  C   UNL A   1      44.738  27.697  28.288  1.00  0.00     0.116 C 
BRANCH  50  51
ATOM     51  N   UNL A   1      45.770  27.198  27.378  1.00  0.00    -0.352 N 
ATOM     52  C   UNL A   1      46.683  26.173  27.595  1.00  0.00     0.251 C 
ATOM     53  H   UNL A   1      45.824  27.644  26.503  1.00  0.00     0.163 HD
ATOM     54  O   UNL A   1      47.561  25.884  26.814  1.00  0.00    -0.269 OA
BRANCH  52  55
ATOM     55  C   UNL A   1      46.476  25.395  28.832  1.00  0.00     0.039 A 
ATOM     56  C   UNL A   1      45.326  24.599  28.891  1.00  0.00     0.014 A 
ATOM     57  C   UNL A   1      47.141  25.816  29.978  1.00  0.00     0.014 A 
ATOM     58  C   UNL A   1      44.702  24.405  30.117  1.00  0.00     0.010 A 
ATOM     59  C   UNL A   1      46.468  25.705  31.177  1.00  0.00     0.010 A 
ATOM     60  C   UNL A   1      45.221  25.055  31.235  1.00  0.00    -0.014 A 
BRANCH  60  61
ATOM     61  C   UNL A   1      44.500  25.192  32.497  1.00  0.00     0.031 A 
ATOM     62  C   UNL A   1      43.972  26.522  32.881  1.00  0.00     0.074 A 
ATOM     63  C   UNL A   1      44.238  24.110  33.263  1.00  0.00     0.049 A 
ATOM     64  N   UNL A   1      43.542  26.836  34.054  1.00  0.00    -0.248 NA
ATOM     65  C   UNL A   1      43.943  27.645  31.950  1.00  0.00     0.031 C 
ATOM     66  C   UNL A   1      43.246  24.009  34.330  1.00  0.00     0.029 A 
ATOM     67  N   UNL A   1      44.945  22.917  33.356  1.00  0.00    -0.354 N 
ATOM     68  C   UNL A   1      42.957  28.083  33.982  1.00  0.00     0.074 A 
ATOM     69  C   UNL A   1      43.273  28.556  32.657  1.00  0.00     0.031 C 
ATOM     70  C   UNL A   1      43.536  22.952  35.105  1.00  0.00     0.029 A 
ATOM     71  C   UNL A   1      44.813  22.421  34.662  1.00  0.00     0.049 A 
ATOM     72  H   UNL A   1      45.453  22.491  32.628  1.00  0.00     0.167 HD
ATOM     73  C   UNL A   1      42.186  28.511  35.024  1.00  0.00     0.037 A 
ATOM     74  C   UNL A   1      45.901  22.268  35.478  1.00  0.00     0.037 A 
ATOM     75  C   UNL A   1      42.303  27.592  36.158  1.00  0.00     0.049 A 
ATOM     76  C   UNL A   1      45.898  23.177  36.689  1.00  0.00     0.074 A 
ATOM     77  C   UNL A   1      41.530  26.529  36.598  1.00  0.00     0.029 A 
ATOM     78  N   UNL A   1      43.516  27.500  36.831  1.00  0.00    -0.354 N 
ATOM     79  N   UNL A   1      45.094  24.195  36.836  1.00  0.00    -0.248 NA
ATOM     80  C   UNL A   1      46.809  23.028  37.822  1.00  0.00     0.031 C 
ATOM     81  C   UNL A   1      42.324  25.744  37.473  1.00  0.00     0.029 A 
ATOM     82  C   UNL A   1      43.566  26.345  37.590  1.00  0.00     0.049 A 
ATOM     83  H   UNL A   1      44.241  28.164  36.775  1.00  0.00     0.167 HD
ATOM     84  C   UNL A   1      45.392  24.858  37.998  1.00  0.00     0.074 A 
ATOM     85  C   UNL A   1      46.449  24.066  38.599  1.00  0.00     0.031 C 
ATOM     86  C   UNL A   1      44.758  26.014  38.358  1.00  0.00     0.037 A 
BRANCH  73  87
ATOM     87  C   UNL A   1      41.129  29.600  34.927  1.00  0.00     0.058 A 
ATOM     88  C   UNL A   1      41.187  30.732  35.774  1.00  0.00     0.135 A 
ATOM     89  C   UNL A   1      39.996  29.568  34.089  1.00  0.00     0.135 A 
ATOM     90  F   UNL A   1      42.243  30.960  36.566  1.00  0.00    -0.206 F 
ATOM     91  C   UNL A   1      40.161  31.679  35.860  1.00  0.00     0.059 A 
ATOM     92  C   UNL A   1      38.932  30.469  34.194  1.00  0.00     0.059 A 
ATOM     93  F   UNL A   1      39.892  28.697  33.081  1.00  0.00    -0.206 F 
ATOM     94  C   UNL A   1      39.017  31.519  35.093  1.00  0.00     0.060 A 
BRANCH  94  95
ATOM     95  S   UNL A   1      37.667  32.700  35.265  1.00  0.00     0.124 S 
ATOM     96  O   UNL A   1      36.833  32.385  34.110  1.00  0.00    -0.237 OA
ATOM     97  O   UNL A   1      37.114  32.343  36.566  1.00  0.00    -0.237 OA
ATOM     98  O   UNL A   1      38.339  33.996  35.206  1.00  0.00    -0.744 OA
ENDBRANCH  94  95
ENDBRANCH  73  87
BRANCH  74  99
ATOM     99  C   UNL A   1      47.106  21.782  34.751  1.00  0.00     0.058 A 
ATOM    100  C   UNL A   1      48.130  22.720  34.523  1.00  0.00     0.135 A 
ATOM    101  C   UNL A   1      47.454  20.424  34.749  1.00  0.00     0.135 A 
ATOM    102  F   UNL A   1      47.844  24.032  34.489  1.00  0.00    -0.206 F 
ATOM    103  C   UNL A   1      49.468  22.345  34.499  1.00  0.00     0.059 A 
ATOM    104  C   UNL A   1      48.792  20.025  34.719  1.00  0.00     0.059 A 
ATOM    105  F   UNL A   1      46.517  19.486  34.950  1.00  0.00    -0.206 F 
ATOM    106  C   UNL A   1      49.788  21.002  34.679  1.00  0.00     0.060 A 
BRANCH 106 107
ATOM    107  S   UNL A   1      51.503  20.603  35.093  1.00  0.00     0.124 S 
ATOM    108  O   UNL A   1      52.244  21.554  34.273  1.00  0.00    -0.237 OA
ATOM    109  O   UNL A   1      51.518  20.861  36.533  1.00  0.00    -0.237 OA
ATOM    110  O   UNL A   1      51.624  19.203  34.706  1.00  0.00    -0.744 OA
ENDBRANCH 106 107
ENDBRANCH  74  99
BRANCH  86 111
ATOM    111  C   UNL A   1      45.156  26.913  39.505  1.00  0.00     0.058 A 
ATOM    112  C   UNL A   1      44.755  26.713  40.836  1.00  0.00     0.135 A 
ATOM    113  C   UNL A   1      46.105  27.944  39.300  1.00  0.00     0.135 A 
ATOM    114  F   UNL A   1      43.941  25.701  41.173  1.00  0.00    -0.206 F 
ATOM    115  C   UNL A   1      45.213  27.514  41.883  1.00  0.00     0.059 A 
ATOM    116  C   UNL A   1      46.617  28.720  40.337  1.00  0.00     0.059 A 
ATOM    117  F   UNL A   1      46.578  28.223  38.076  1.00  0.00    -0.206 F 
ATOM    118  C   UNL A   1      46.144  28.515  41.626  1.00  0.00     0.060 A 
BRANCH 118 119
ATOM    119  S   UNL A   1      46.790  29.518  42.978  1.00  0.00     0.124 S 
ATOM    120  O   UNL A   1      46.120  30.792  42.740  1.00  0.00    -0.237 OA
ATOM    121  O   UNL A   1      46.350  28.787  44.164  1.00  0.00    -0.237 OA
ATOM    122  O   UNL A   1      48.230  29.505  42.742  1.00  0.00    -0.744 OA
ENDBRANCH 118 119
ENDBRANCH  86 111
ENDBRANCH  60  61
ENDBRANCH  52  55
ENDBRANCH  50  51
ENDBRANCH  49  50
ENDBRANCH  48  49
ENDBRANCH  47  48
ENDBRANCH   3  47
TORSDOF 23
ENDMDL
MODEL 2
REMARK VINA RESULT:     -12.2      5.220     12.095
REMARK SMILES Cc1ccc(S(=O)(=O)n2cc(C(=O)C(=O)NCC(=O)N[C@H](Cc3c[nH]c4ccccc34)C(=O)NCCCCNC(=O)c3ccc(-c4c5nc(c(-c6c(F)cc(S(=O)(=O)[O-])cc6F)c6ccc([nH]6)c(-c6c(F)cc(S(=O)(=O)[O-])cc6F)c6nc(c(-c7c(F)cc(S(=O)(=O)[O-])cc7F)c7ccc4[nH]7)C=C6)C=C5)cc3)c3ccccc32)cc1
REMARK SMILES IDX 32 1 33 2 34 3 21 5 20 6 18 7 19 8 17 10 16 11 14 12 15 13
REMARK SMILES IDX 12 15 13 16 11 17 9 18 10 19 113 20 108 21 112 22 109 23
REMARK SMILES IDX 111 24 110 25 6 26 7 27 8 28 5 29 1 30 2 31 3 32 115 33 4 34
REMARK SMILES IDX 114 35 22 36 23 37 24 38 31 39 25 40 26 41 30 42 27 44 29 45
REMARK SMILES IDX 28 46 35 47 36 48 37 49 38 50 39 51 40 52 41 54 42 55 43 56
REMARK SMILES IDX 107 57 44 58 106 59 45 60 46 61 47 62 100 63 48 64 105 65
REMARK SMILES IDX 99 66 101 67 49 68 104 69 98 70 97 71 50 73 84 74 63 75
REMARK SMILES IDX 83 76 64 77 67 78 82 79 102 80 65 81 66 82 81 84 103 85
REMARK SMILES IDX 68 86 51 87 52 88 61 89 53 90 54 91 60 92 62 93 55 94 56 95
REMARK SMILES IDX 57 96 58 97 59 98 85 99 86 100 95 101 87 102 88 103 94 104
REMARK SMILES IDX 96 105 89 106 90 107 91 108 92 109 93 110 69 111 70 112
REMARK SMILES IDX 79 113 71 114 72 115 78 116 80 117 73 118 74 119 75 120
REMARK SMILES IDX 76 121 77 122
REMARK H PARENT 34 4 20 9 16 14 25 43 39 53 101 72 67 83
REMARK Flexibility Score: inf
ROOT
ATOM      1  C   UNL A   1      45.645  25.344  33.118  1.00  0.00     0.242 C 
ATOM      2  O   UNL A   1      46.838  25.563  33.369  1.00  0.00    -0.273 OA
ATOM      3  N   UNL A   1      45.394  24.807  31.901  1.00  0.00    -0.354 N 
ATOM      4  H   UNL A   1      46.208  24.676  31.363  1.00  0.00     0.163 HD
ENDROOT
BRANCH   1   5
ATOM      5  C   UNL A   1      44.580  25.704  34.173  1.00  0.00     0.175 C 
BRANCH   5   6
ATOM      6  N   UNL A   1      45.225  26.534  35.197  1.00  0.00    -0.342 N 
ATOM      7  C   UNL A   1      45.171  27.882  35.390  1.00  0.00     0.240 C 
ATOM      8  O   UNL A   1      45.867  28.335  36.306  1.00  0.00    -0.273 OA
ATOM      9  H   UNL A   1      45.783  26.041  35.844  1.00  0.00     0.164 HD
BRANCH   7  10
ATOM     10  C   UNL A   1      44.132  28.779  34.684  1.00  0.00     0.216 C 
BRANCH  10  11
ATOM     11  N   UNL A   1      42.945  28.166  34.097  1.00  0.00    -0.340 N 
ATOM     12  C   UNL A   1      41.614  28.392  34.409  1.00  0.00     0.292 C 
ATOM     13  O   UNL A   1      40.691  27.873  33.794  1.00  0.00    -0.265 OA
ATOM     14  H   UNL A   1      43.112  27.505  33.387  1.00  0.00     0.164 HD
BRANCH  12  15
ATOM     15  C   UNL A   1      41.278  29.324  35.568  1.00  0.00     0.252 C 
ATOM     16  O   UNL A   1      40.966  28.796  36.635  1.00  0.00    -0.283 OA
BRANCH  15  17
ATOM     17  C   UNL A   1      41.155  30.772  35.355  1.00  0.00     0.054 A 
ATOM     18  N   UNL A   1      41.483  32.967  34.925  1.00  0.00    -0.240 N 
ATOM     19  C   UNL A   1      42.120  31.732  35.024  1.00  0.00     0.117 A 
ATOM     20  C   UNL A   1      40.098  32.732  34.961  1.00  0.00     0.065 A 
ATOM     21  C   UNL A   1      39.935  31.484  35.553  1.00  0.00     0.012 A 
ATOM     22  C   UNL A   1      39.010  33.612  34.792  1.00  0.00     0.028 A 
ATOM     23  C   UNL A   1      38.697  31.174  36.153  1.00  0.00     0.011 A 
ATOM     24  C   UNL A   1      37.819  33.315  35.455  1.00  0.00     0.002 A 
ATOM     25  C   UNL A   1      37.676  32.129  36.160  1.00  0.00     0.001 A 
BRANCH  18  26
ATOM     26  S   UNL A   1      41.904  34.405  35.820  1.00  0.00     0.268 S 
ATOM     27  O   UNL A   1      41.877  35.447  34.805  1.00  0.00    -0.201 OA
ATOM     28  O   UNL A   1      43.155  34.023  36.463  1.00  0.00    -0.201 OA
BRANCH  26  29
ATOM     29  C   UNL A   1      41.014  35.070  37.178  1.00  0.00     0.088 A 
ATOM     30  C   UNL A   1      38.573  35.665  40.693  1.00  0.00     0.044 C 
ATOM     31  C   UNL A   1      39.457  35.509  39.489  1.00  0.00    -0.051 A 
ATOM     32  C   UNL A   1      40.046  34.268  39.289  1.00  0.00     0.005 A 
ATOM     33  C   UNL A   1      39.668  36.529  38.535  1.00  0.00     0.005 A 
ATOM     34  C   UNL A   1      40.818  34.065  38.160  1.00  0.00     0.022 A 
ATOM     35  C   UNL A   1      40.447  36.318  37.365  1.00  0.00     0.022 A 
ENDBRANCH  26  29
ENDBRANCH  18  26
ENDBRANCH  15  17
ENDBRANCH  12  15
ENDBRANCH  10  11
ENDBRANCH   7  10
ENDBRANCH   5   6
BRANCH   5  36
ATOM     36  C   UNL A   1      43.744  24.563  34.794  1.00  0.00     0.072 C 
BRANCH  36  37
ATOM     37  C   UNL A   1      44.412  23.449  35.560  1.00  0.00    -0.020 A 
ATOM     38  C   UNL A   1      44.787  22.189  35.138  1.00  0.00     0.087 A 
ATOM     39  C   UNL A   1      44.847  23.534  36.934  1.00  0.00     0.003 A 
ATOM     40  N   UNL A   1      45.646  21.655  36.060  1.00  0.00    -0.361 N 
ATOM     41  C   UNL A   1      45.689  22.448  37.175  1.00  0.00     0.046 A 
ATOM     42  C   UNL A   1      44.652  24.459  37.982  1.00  0.00     0.010 A 
ATOM     43  H   UNL A   1      46.159  20.823  35.939  1.00  0.00     0.166 HD
ATOM     44  C   UNL A   1      46.416  22.284  38.358  1.00  0.00     0.026 A 
ATOM     45  C   UNL A   1      45.314  24.272  39.203  1.00  0.00     0.001 A 
ATOM     46  C   UNL A   1      46.206  23.215  39.376  1.00  0.00     0.002 A 
ENDBRANCH  36  37
ENDBRANCH   5  36
ENDBRANCH   1   5
BRANCH   3  47
ATOM     47  C   UNL A   1      44.187  24.384  31.214  1.00  0.00     0.116 C 
BRANCH  47  48
ATOM     48  C   UNL A   1      44.435  23.506  29.987  1.00  0.00     0.023 C 
BRANCH  48  49
ATOM     49  C   UNL A   1      43.189  22.925  29.314  1.00  0.00     0.023 C 
BRANCH  49  50
ATOM     50  C   UNL A   1      42.828  23.570  27.984  1.00  0.00     0.116 C 
BRANCH  50  51
ATOM     51  N   UNL A   1      42.057  22.672  27.122  1.00  0.00    -0.352 N 
ATOM     52  C   UNL A   1      40.798  22.881  26.573  1.00  0.00     0.251 C 
ATOM     53  H   UNL A   1      42.485  21.813  26.905  1.00  0.00     0.163 HD
ATOM     54  O   UNL A   1      40.199  22.043  25.938  1.00  0.00    -0.269 OA
BRANCH  52  55
ATOM     55  C   UNL A   1      40.247  24.238  26.756  1.00  0.00     0.039 A 
ATOM     56  C   UNL A   1      40.861  25.270  26.035  1.00  0.00     0.014 A 
ATOM     57  C   UNL A   1      39.501  24.482  27.902  1.00  0.00     0.014 A 
ATOM     58  C   UNL A   1      40.916  26.541  26.593  1.00  0.00     0.010 A 
ATOM     59  C   UNL A   1      39.642  25.719  28.498  1.00  0.00     0.010 A 
ATOM     60  C   UNL A   1      40.400  26.727  27.874  1.00  0.00    -0.014 A 
BRANCH  60  61
ATOM     61  C   UNL A   1      40.667  27.906  28.690  1.00  0.00     0.031 A 
ATOM     62  C   UNL A   1      39.646  28.977  28.759  1.00  0.00     0.074 A 
ATOM     63  C   UNL A   1      41.786  27.984  29.446  1.00  0.00     0.049 A 
ATOM     64  N   UNL A   1      39.846  30.159  29.231  1.00  0.00    -0.248 NA
ATOM     65  C   UNL A   1      38.298  28.801  28.231  1.00  0.00     0.031 C 
ATOM     66  C   UNL A   1      42.028  28.889  30.566  1.00  0.00     0.029 A 
ATOM     67  N   UNL A   1      43.018  27.376  29.241  1.00  0.00    -0.354 N 
ATOM     68  C   UNL A   1      38.631  30.807  29.307  1.00  0.00     0.074 A 
ATOM     69  C   UNL A   1      37.708  29.928  28.632  1.00  0.00     0.031 C 
ATOM     70  C   UNL A   1      43.347  28.954  30.805  1.00  0.00     0.029 A 
ATOM     71  C   UNL A   1      44.020  28.215  29.752  1.00  0.00     0.049 A 
ATOM     72  H   UNL A   1      43.165  26.503  28.810  1.00  0.00     0.167 HD
ATOM     73  C   UNL A   1      38.542  31.961  30.030  1.00  0.00     0.037 A 
ATOM     74  C   UNL A   1      44.982  28.750  28.939  1.00  0.00     0.037 A 
ATOM     75  C   UNL A   1      39.874  32.413  30.436  1.00  0.00     0.049 A 
ATOM     76  C   UNL A   1      44.915  30.258  28.810  1.00  0.00     0.074 A 
ATOM     77  C   UNL A   1      40.611  32.259  31.601  1.00  0.00     0.029 A 
ATOM     78  N   UNL A   1      40.766  32.853  29.464  1.00  0.00    -0.354 N 
ATOM     79  N   UNL A   1      43.902  30.979  29.206  1.00  0.00    -0.248 NA
ATOM     80  C   UNL A   1      45.970  31.072  28.211  1.00  0.00     0.031 C 
ATOM     81  C   UNL A   1      41.972  32.523  31.296  1.00  0.00     0.029 A 
ATOM     82  C   UNL A   1      42.058  32.867  29.958  1.00  0.00     0.049 A 
ATOM     83  H   UNL A   1      40.513  33.118  28.550  1.00  0.00     0.167 HD
ATOM     84  C   UNL A   1      44.114  32.294  28.882  1.00  0.00     0.074 A 
ATOM     85  C   UNL A   1      45.440  32.306  28.292  1.00  0.00     0.031 C 
ATOM     86  C   UNL A   1      43.172  33.259  29.106  1.00  0.00     0.037 A 
BRANCH  73  87
ATOM     87  C   UNL A   1      37.250  32.533  30.593  1.00  0.00     0.058 A 
ATOM     88  C   UNL A   1      36.432  33.371  29.800  1.00  0.00     0.135 A 
ATOM     89  C   UNL A   1      36.792  32.368  31.916  1.00  0.00     0.135 A 
ATOM     90  F   UNL A   1      36.678  33.558  28.496  1.00  0.00    -0.206 F 
ATOM     91  C   UNL A   1      35.329  34.067  30.305  1.00  0.00     0.059 A 
ATOM     92  C   UNL A   1      35.727  33.094  32.460  1.00  0.00     0.059 A 
ATOM     93  F   UNL A   1      37.312  31.446  32.731  1.00  0.00    -0.206 F 
ATOM     94  C   UNL A   1      35.005  33.953  31.649  1.00  0.00     0.060 A 
BRANCH  94  95
ATOM     95  S   UNL A   1      33.631  34.912  32.309  1.00  0.00     0.124 S 
ATOM     96  O   UNL A   1      34.316  36.018  32.969  1.00  0.00    -0.237 OA
ATOM     97  O   UNL A   1      32.888  35.253  31.101  1.00  0.00    -0.237 OA
ATOM     98  O   UNL A   1      32.963  33.974  33.210  1.00  0.00    -0.744 OA
ENDBRANCH  94  95
ENDBRANCH  73  87
BRANCH  74  99
ATOM     99  C   UNL A   1      45.447  27.802  27.890  1.00  0.00     0.058 A 
ATOM    100  C   UNL A   1      44.844  27.914  26.623  1.00  0.00     0.135 A 
ATOM    101  C   UNL A   1      46.715  27.208  27.958  1.00  0.00     0.135 A 
ATOM    102  F   UNL A   1      43.620  28.453  26.507  1.00  0.00    -0.206 F 
ATOM    103  C   UNL A   1      45.547  27.639  25.456  1.00  0.00     0.059 A 
ATOM    104  C   UNL A   1      47.437  26.917  26.798  1.00  0.00     0.059 A 
ATOM    105  F   UNL A   1      47.331  27.065  29.140  1.00  0.00    -0.206 F 
ATOM    106  C   UNL A   1      46.871  27.217  25.558  1.00  0.00     0.060 A 
BRANCH 106 107
ATOM    107  S   UNL A   1      47.889  27.301  24.064  1.00  0.00     0.124 S 
ATOM    108  O   UNL A   1      49.095  27.957  24.553  1.00  0.00    -0.237 OA
ATOM    109  O   UNL A   1      48.029  25.882  23.734  1.00  0.00    -0.237 OA
ATOM    110  O   UNL A   1      47.069  28.081  23.145  1.00  0.00    -0.744 OA
ENDBRANCH 106 107
ENDBRANCH  74  99
BRANCH  86 111
ATOM    111  C   UNL A   1      43.234  34.681  28.602  1.00  0.00     0.058 A 
ATOM    112  C   UNL A   1      43.168  35.037  27.244  1.00  0.00     0.135 A 
ATOM    113  C   UNL A   1      43.210  35.760  29.519  1.00  0.00     0.135 A 
ATOM    114  F   UNL A   1      43.079  34.105  26.284  1.00  0.00    -0.206 F 
ATOM    115  C   UNL A   1      43.141  36.367  26.821  1.00  0.00     0.059 A 
ATOM    116  C   UNL A   1      43.129  37.092  29.121  1.00  0.00     0.059 A 
ATOM    117  F   UNL A   1      43.253  35.550  30.844  1.00  0.00    -0.206 F 
ATOM    118  C   UNL A   1      43.122  37.389  27.766  1.00  0.00     0.060 A 
BRANCH 118 119
ATOM    119  S   UNL A   1      43.026  39.109  27.234  1.00  0.00     0.124 S 
ATOM    120  O   UNL A   1      44.275  39.253  26.494  1.00  0.00    -0.237 OA
ATOM    121  O   UNL A   1      41.809  39.133  26.426  1.00  0.00    -0.237 OA
ATOM    122  O   UNL A   1      42.947  39.842  28.493  1.00  0.00    -0.744 OA
ENDBRANCH 118 119
ENDBRANCH  86 111
ENDBRANCH  60  61
ENDBRANCH  52  55
ENDBRANCH  50  51
ENDBRANCH  49  50
ENDBRANCH  48  49
ENDBRANCH  47  48
ENDBRANCH   3  47
TORSDOF 23
ENDMDL
MODEL 3
REMARK VINA RESULT:     -11.5      5.306     12.496
REMARK SMILES Cc1ccc(S(=O)(=O)n2cc(C(=O)C(=O)NCC(=O)N[C@H](Cc3c[nH]c4ccccc34)C(=O)NCCCCNC(=O)c3ccc(-c4c5nc(c(-c6c(F)cc(S(=O)(=O)[O-])cc6F)c6ccc([nH]6)c(-c6c(F)cc(S(=O)(=O)[O-])cc6F)c6nc(c(-c7c(F)cc(S(=O)(=O)[O-])cc7F)c7ccc4[nH]7)C=C6)C=C5)cc3)c3ccccc32)cc1
REMARK SMILES IDX 32 1 33 2 34 3 21 5 20 6 18 7 19 8 17 10 16 11 14 12 15 13
REMARK SMILES IDX 12 15 13 16 11 17 9 18 10 19 113 20 108 21 112 22 109 23
REMARK SMILES IDX 111 24 110 25 6 26 7 27 8 28 5 29 1 30 2 31 3 32 115 33 4 34
REMARK SMILES IDX 114 35 22 36 23 37 24 38 31 39 25 40 26 41 30 42 27 44 29 45
REMARK SMILES IDX 28 46 35 47 36 48 37 49 38 50 39 51 40 52 41 54 42 55 43 56
REMARK SMILES IDX 107 57 44 58 106 59 45 60 46 61 47 62 100 63 48 64 105 65
REMARK SMILES IDX 99 66 101 67 49 68 104 69 98 70 97 71 50 73 84 74 63 75
REMARK SMILES IDX 83 76 64 77 67 78 82 79 102 80 65 81 66 82 81 84 103 85
REMARK SMILES IDX 68 86 51 87 52 88 61 89 53 90 54 91 60 92 62 93 55 94 56 95
REMARK SMILES IDX 57 96 58 97 59 98 85 99 86 100 95 101 87 102 88 103 94 104
REMARK SMILES IDX 96 105 89 106 90 107 91 108 92 109 93 110 69 111 70 112
REMARK SMILES IDX 79 113 71 114 72 115 78 116 80 117 73 118 74 119 75 120
REMARK SMILES IDX 76 121 77 122
REMARK H PARENT 34 4 20 9 16 14 25 43 39 53 101 72 67 83
REMARK Flexibility Score: inf
ROOT
ATOM      1  C   UNL A   1      45.558  26.148  32.671  1.00  0.00     0.242 C 
ATOM      2  O   UNL A   1      46.717  26.568  32.798  1.00  0.00    -0.273 OA
ATOM      3  N   UNL A   1      45.323  25.413  31.559  1.00  0.00    -0.354 N 
ATOM      4  H   UNL A   1      46.116  25.324  30.982  1.00  0.00     0.163 HD
ENDROOT
BRANCH   1   5
ATOM      5  C   UNL A   1      44.513  26.499  33.749  1.00  0.00     0.175 C 
BRANCH   5   6
ATOM      6  N   UNL A   1      45.157  27.381  34.729  1.00  0.00    -0.342 N 
ATOM      7  C   UNL A   1      44.937  28.700  34.994  1.00  0.00     0.240 C 
ATOM      8  O   UNL A   1      45.671  29.221  35.841  1.00  0.00    -0.273 OA
ATOM      9  H   UNL A   1      45.855  26.955  35.279  1.00  0.00     0.164 HD
BRANCH   7  10
ATOM     10  C   UNL A   1      43.701  29.457  34.462  1.00  0.00     0.216 C 
BRANCH  10  11
ATOM     11  N   UNL A   1      42.378  29.101  34.966  1.00  0.00    -0.340 N 
ATOM     12  C   UNL A   1      41.596  29.776  35.888  1.00  0.00     0.292 C 
ATOM     13  O   UNL A   1      40.460  29.422  36.180  1.00  0.00    -0.265 OA
ATOM     14  H   UNL A   1      41.991  28.271  34.602  1.00  0.00     0.164 HD
BRANCH  12  15
ATOM     15  C   UNL A   1      42.169  31.013  36.573  1.00  0.00     0.252 C 
ATOM     16  O   UNL A   1      42.555  30.877  37.733  1.00  0.00    -0.283 OA
BRANCH  15  17
ATOM     17  C   UNL A   1      42.083  32.332  35.933  1.00  0.00     0.054 A 
ATOM     18  N   UNL A   1      42.364  34.186  34.672  1.00  0.00    -0.240 N 
ATOM     19  C   UNL A   1      42.875  32.917  34.938  1.00  0.00     0.117 A 
ATOM     20  C   UNL A   1      41.126  34.290  35.328  1.00  0.00     0.065 A 
ATOM     21  C   UNL A   1      41.142  33.327  36.332  1.00  0.00     0.012 A 
ATOM     22  C   UNL A   1      40.153  35.309  35.304  1.00  0.00     0.028 A 
ATOM     23  C   UNL A   1      40.280  33.485  37.437  1.00  0.00     0.011 A 
ATOM     24  C   UNL A   1      39.362  35.486  36.439  1.00  0.00     0.002 A 
ATOM     25  C   UNL A   1      39.452  34.609  37.510  1.00  0.00     0.001 A 
BRANCH  18  26
ATOM     26  S   UNL A   1      43.256  35.683  34.764  1.00  0.00     0.268 S 
ATOM     27  O   UNL A   1      42.606  36.519  33.767  1.00  0.00    -0.201 OA
ATOM     28  O   UNL A   1      44.634  35.242  34.582  1.00  0.00    -0.201 OA
BRANCH  26  29
ATOM     29  C   UNL A   1      43.411  36.704  36.184  1.00  0.00     0.088 A 
ATOM     30  C   UNL A   1      44.562  39.693  39.082  1.00  0.00     0.044 C 
ATOM     31  C   UNL A   1      44.102  38.657  38.097  1.00  0.00    -0.051 A 
ATOM     32  C   UNL A   1      44.357  38.898  36.755  1.00  0.00     0.005 A 
ATOM     33  C   UNL A   1      43.485  37.441  38.470  1.00  0.00     0.005 A 
ATOM     34  C   UNL A   1      44.004  37.940  35.822  1.00  0.00     0.022 A 
ATOM     35  C   UNL A   1      43.137  36.449  37.515  1.00  0.00     0.022 A 
ENDBRANCH  26  29
ENDBRANCH  18  26
ENDBRANCH  15  17
ENDBRANCH  12  15
ENDBRANCH  10  11
ENDBRANCH   7  10
ENDBRANCH   5   6
BRANCH   5  36
ATOM     36  C   UNL A   1      43.740  25.346  34.427  1.00  0.00     0.072 C 
BRANCH  36  37
ATOM     37  C   UNL A   1      44.387  24.519  35.509  1.00  0.00    -0.020 A 
ATOM     38  C   UNL A   1      44.395  24.706  36.877  1.00  0.00     0.087 A 
ATOM     39  C   UNL A   1      45.108  23.288  35.290  1.00  0.00     0.003 A 
ATOM     40  N   UNL A   1      44.811  23.548  37.476  1.00  0.00    -0.361 N 
ATOM     41  C   UNL A   1      45.269  22.669  36.530  1.00  0.00     0.046 A 
ATOM     42  C   UNL A   1      45.593  22.610  34.151  1.00  0.00     0.010 A 
ATOM     43  H   UNL A   1      44.784  23.371  38.444  1.00  0.00     0.166 HD
ATOM     44  C   UNL A   1      45.793  21.383  36.688  1.00  0.00     0.026 A 
ATOM     45  C   UNL A   1      46.191  21.351  34.297  1.00  0.00     0.001 A 
ATOM     46  C   UNL A   1      46.262  20.735  35.545  1.00  0.00     0.002 A 
ENDBRANCH  36  37
ENDBRANCH   5  36
ENDBRANCH   1   5
BRANCH   3  47
ATOM     47  C   UNL A   1      44.157  24.728  31.030  1.00  0.00     0.116 C 
BRANCH  47  48
ATOM     48  C   UNL A   1      44.452  23.801  29.851  1.00  0.00     0.023 C 
BRANCH  48  49
ATOM     49  C   UNL A   1      43.239  23.123  29.210  1.00  0.00     0.023 C 
BRANCH  49  50
ATOM     50  C   UNL A   1      42.662  23.859  28.010  1.00  0.00     0.116 C 
BRANCH  50  51
ATOM     51  N   UNL A   1      41.911  22.971  27.121  1.00  0.00    -0.352 N 
ATOM     52  C   UNL A   1      40.645  23.167  26.582  1.00  0.00     0.251 C 
ATOM     53  H   UNL A   1      42.359  22.131  26.874  1.00  0.00     0.163 HD
ATOM     54  O   UNL A   1      40.065  22.336  25.922  1.00  0.00    -0.269 OA
BRANCH  52  55
ATOM     55  C   UNL A   1      40.062  24.503  26.811  1.00  0.00     0.039 A 
ATOM     56  C   UNL A   1      40.648  25.573  26.124  1.00  0.00     0.014 A 
ATOM     57  C   UNL A   1      39.312  24.691  27.967  1.00  0.00     0.014 A 
ATOM     58  C   UNL A   1      40.674  26.826  26.725  1.00  0.00     0.010 A 
ATOM     59  C   UNL A   1      39.424  25.910  28.603  1.00  0.00     0.010 A 
ATOM     60  C   UNL A   1      40.156  26.956  28.012  1.00  0.00    -0.014 A 
BRANCH  60  61
ATOM     61  C   UNL A   1      40.396  28.114  28.867  1.00  0.00     0.031 A 
ATOM     62  C   UNL A   1      39.384  29.195  28.911  1.00  0.00     0.074 A 
ATOM     63  C   UNL A   1      41.478  28.162  29.676  1.00  0.00     0.049 A 
ATOM     64  N   UNL A   1      39.573  30.364  29.418  1.00  0.00    -0.248 NA
ATOM     65  C   UNL A   1      38.061  29.046  28.315  1.00  0.00     0.031 C 
ATOM     66  C   UNL A   1      41.675  29.040  30.826  1.00  0.00     0.029 A 
ATOM     67  N   UNL A   1      42.712  27.545  29.516  1.00  0.00    -0.354 N 
ATOM     68  C   UNL A   1      38.362  31.024  29.452  1.00  0.00     0.074 A 
ATOM     69  C   UNL A   1      37.464  30.170  28.714  1.00  0.00     0.031 C 
ATOM     70  C   UNL A   1      42.982  29.084  31.129  1.00  0.00     0.029 A 
ATOM     71  C   UNL A   1      43.697  28.361  30.093  1.00  0.00     0.049 A 
ATOM     72  H   UNL A   1      42.870  26.680  29.073  1.00  0.00     0.167 HD
ATOM     73  C   UNL A   1      38.252  32.162  30.196  1.00  0.00     0.037 A 
ATOM     74  C   UNL A   1      44.702  28.903  29.340  1.00  0.00     0.037 A 
ATOM     75  C   UNL A   1      39.567  32.589  30.675  1.00  0.00     0.049 A 
ATOM     76  C   UNL A   1      44.657  30.413  29.242  1.00  0.00     0.074 A 
ATOM     77  C   UNL A   1      40.245  32.402  31.869  1.00  0.00     0.029 A 
ATOM     78  N   UNL A   1      40.509  33.041  29.757  1.00  0.00    -0.354 N 
ATOM     79  N   UNL A   1      43.634  31.138  29.606  1.00  0.00    -0.248 NA
ATOM     80  C   UNL A   1      45.748  31.229  28.712  1.00  0.00     0.031 C 
ATOM     81  C   UNL A   1      41.622  32.656  31.636  1.00  0.00     0.029 A 
ATOM     82  C   UNL A   1      41.775  33.029  30.311  1.00  0.00     0.049 A 
ATOM     83  H   UNL A   1      40.303  33.329  28.838  1.00  0.00     0.167 HD
ATOM     84  C   UNL A   1      43.874  32.457  29.322  1.00  0.00     0.074 A 
ATOM     85  C   UNL A   1      45.228  32.467  28.797  1.00  0.00     0.031 C 
ATOM     86  C   UNL A   1      42.933  33.427  29.523  1.00  0.00     0.037 A 
BRANCH  73  87
ATOM     87  C   UNL A   1      36.940  32.736  30.709  1.00  0.00     0.058 A 
ATOM     88  C   UNL A   1      36.244  33.714  29.961  1.00  0.00     0.135 A 
ATOM     89  C   UNL A   1      36.347  32.435  31.952  1.00  0.00     0.135 A 
ATOM     90  F   UNL A   1      36.624  34.048  28.720  1.00  0.00    -0.206 F 
ATOM     91  C   UNL A   1      35.132  34.407  30.451  1.00  0.00     0.059 A 
ATOM     92  C   UNL A   1      35.271  33.150  32.488  1.00  0.00     0.059 A 
ATOM     93  F   UNL A   1      36.741  31.389  32.685  1.00  0.00    -0.206 F 
ATOM     94  C   UNL A   1      34.674  34.146  31.734  1.00  0.00     0.060 A 
BRANCH  94  95
ATOM     95  S   UNL A   1      33.290  35.096  32.387  1.00  0.00     0.124 S 
ATOM     96  O   UNL A   1      32.567  34.093  33.164  1.00  0.00    -0.237 OA
ATOM     97  O   UNL A   1      33.967  36.132  33.158  1.00  0.00    -0.237 OA
ATOM     98  O   UNL A   1      32.599  35.561  31.186  1.00  0.00    -0.744 OA
ENDBRANCH  94  95
ENDBRANCH  73  87
BRANCH  74  99
ATOM     99  C   UNL A   1      45.207  27.973  28.292  1.00  0.00     0.058 A 
ATOM    100  C   UNL A   1      44.600  28.056  27.025  1.00  0.00     0.135 A 
ATOM    101  C   UNL A   1      46.500  27.434  28.361  1.00  0.00     0.135 A 
ATOM    102  F   UNL A   1      43.353  28.541  26.909  1.00  0.00    -0.206 F 
ATOM    103  C   UNL A   1      45.313  27.808  25.859  1.00  0.00     0.059 A 
ATOM    104  C   UNL A   1      47.232  27.172  27.201  1.00  0.00     0.059 A 
ATOM    105  F   UNL A   1      47.122  27.320  29.543  1.00  0.00    -0.206 F 
ATOM    106  C   UNL A   1      46.654  27.444  25.961  1.00  0.00     0.060 A 
BRANCH 106 107
ATOM    107  S   UNL A   1      47.666  27.568  24.466  1.00  0.00     0.124 S 
ATOM    108  O   UNL A   1      47.675  26.191  23.988  1.00  0.00    -0.237 OA
ATOM    109  O   UNL A   1      46.882  28.511  23.668  1.00  0.00    -0.237 OA
ATOM    110  O   UNL A   1      48.938  28.076  24.965  1.00  0.00    -0.744 OA
ENDBRANCH 106 107
ENDBRANCH  74  99
BRANCH  86 111
ATOM    111  C   UNL A   1      43.034  34.860  29.055  1.00  0.00     0.058 A 
ATOM    112  C   UNL A   1      42.548  35.319  27.819  1.00  0.00     0.135 A 
ATOM    113  C   UNL A   1      43.506  35.862  29.938  1.00  0.00     0.135 A 
ATOM    114  F   UNL A   1      41.980  34.480  26.940  1.00  0.00    -0.206 F 
ATOM    115  C   UNL A   1      42.581  36.666  27.457  1.00  0.00     0.059 A 
ATOM    116  C   UNL A   1      43.497  37.217  29.619  1.00  0.00     0.059 A 
ATOM    117  F   UNL A   1      43.981  35.552  31.153  1.00  0.00    -0.206 F 
ATOM    118  C   UNL A   1      43.057  37.610  28.363  1.00  0.00     0.060 A 
BRANCH 118 119
ATOM    119  S   UNL A   1      43.049  39.360  27.931  1.00  0.00     0.124 S 
ATOM    120  O   UNL A   1      42.939  39.300  26.477  1.00  0.00    -0.237 OA
ATOM    121  O   UNL A   1      41.870  39.863  28.631  1.00  0.00    -0.237 OA
ATOM    122  O   UNL A   1      44.327  39.836  28.450  1.00  0.00    -0.744 OA
ENDBRANCH 118 119
ENDBRANCH  86 111
ENDBRANCH  60  61
ENDBRANCH  52  55
ENDBRANCH  50  51
ENDBRANCH  49  50
ENDBRANCH  48  49
ENDBRANCH  47  48
ENDBRANCH   3  47
TORSDOF 23
ENDMDL
