MODEL 1
REMARK VINA RESULT:     -10.9      0.000      0.000
REMARK SMILES O=C(NCCCCNC(=O)[C@@H]1[C@H](C(=O)NCc2ccncc2)[C@H]2C=C[C@@H]1O2)c1ccc(-c2c3nc(c(-c4c(F)cc(S(=O)(=O)[O-])cc4F)c4ccc([nH]4)c(-c4c(F)cc(S(=O)(=O)[O-])cc4F)c4nc(c(-c5c(F)cc(S(=O)(=O)[O-])cc5F)c5ccc2[nH]5)C=C4)C=C3)cc1
REMARK SMILES IDX 5 1 4 2 3 3 1 4 2 5 28 7 29 8 93 9 30 10 92 11 31 12 32 13
REMARK SMILES IDX 33 14 86 15 34 16 91 17 85 18 87 19 35 20 90 21 84 22 83 23
REMARK SMILES IDX 36 25 70 26 49 27 69 28 50 29 53 30 68 31 88 32 51 33 52 34
REMARK SMILES IDX 67 36 89 37 54 38 37 39 38 40 47 41 39 42 40 43 46 44 48 45
REMARK SMILES IDX 41 46 42 47 43 48 44 49 45 50 71 51 72 52 81 53 73 54 74 55
REMARK SMILES IDX 80 56 82 57 75 58 76 59 77 60 78 61 79 62 55 63 56 64 65 65
REMARK SMILES IDX 57 66 58 67 64 68 66 69 59 70 60 71 61 72 62 73 63 74 6 75
REMARK SMILES IDX 7 76 8 77 9 78 10 80 11 81 12 82 26 83 23 84 25 85 27 86
REMARK SMILES IDX 24 87 13 88 14 89 15 90 16 92 17 93 18 94 22 95 19 96 21 97
REMARK SMILES IDX 20 98
REMARK H PARENT 3 6 87 24 53 35 8 79 15 91
REMARK Flexibility Score: inf
ROOT
ATOM      1  C   UNL A   1      35.173  33.219  28.044  1.00  0.00     0.023 C 
ENDROOT
BRANCH   1   2
ATOM      2  C   UNL A   1      34.501  32.280  29.013  1.00  0.00     0.116 C 
BRANCH   2   3
ATOM      3  N   UNL A   1      34.028  31.050  28.376  1.00  0.00    -0.352 N 
ATOM      4  O   UNL A   1      34.138  29.056  27.319  1.00  0.00    -0.269 OA
ATOM      5  C   UNL A   1      34.710  29.915  27.964  1.00  0.00     0.251 C 
ATOM      6  H   UNL A   1      33.057  31.024  28.210  1.00  0.00     0.163 HD
BRANCH   5   7
ATOM      7  C   UNL A   1      36.150  29.780  28.284  1.00  0.00     0.039 A 
ATOM      8  C   UNL A   1      37.089  30.055  27.304  1.00  0.00     0.014 A 
ATOM      9  C   UNL A   1      36.574  29.320  29.534  1.00  0.00     0.014 A 
ATOM     10  C   UNL A   1      38.370  29.560  27.435  1.00  0.00     0.010 A 
ATOM     11  C   UNL A   1      37.934  29.049  29.748  1.00  0.00     0.010 A 
ATOM     12  C   UNL A   1      38.843  29.122  28.681  1.00  0.00    -0.014 A 
BRANCH  12  13
ATOM     13  C   UNL A   1      40.302  28.848  28.810  1.00  0.00     0.031 A 
ATOM     14  C   UNL A   1      40.915  27.552  28.349  1.00  0.00     0.074 A 
ATOM     15  C   UNL A   1      41.089  29.837  29.288  1.00  0.00     0.049 A 
ATOM     16  N   UNL A   1      42.165  27.171  28.420  1.00  0.00    -0.248 NA
ATOM     17  C   UNL A   1      40.020  26.548  27.755  1.00  0.00     0.031 C 
ATOM     18  C   UNL A   1      40.606  31.137  29.779  1.00  0.00     0.029 A 
ATOM     19  N   UNL A   1      42.450  29.947  29.392  1.00  0.00    -0.354 N 
ATOM     20  C   UNL A   1      42.197  25.863  27.947  1.00  0.00     0.074 A 
ATOM     21  C   UNL A   1      40.840  25.518  27.581  1.00  0.00     0.031 C 
ATOM     22  C   UNL A   1      41.646  31.949  29.995  1.00  0.00     0.029 A 
ATOM     23  C   UNL A   1      42.870  31.187  29.816  1.00  0.00     0.049 A 
ATOM     24  H   UNL A   1      43.069  29.210  29.183  1.00  0.00     0.167 HD
ATOM     25  C   UNL A   1      43.264  25.033  27.840  1.00  0.00     0.037 A 
ATOM     26  C   UNL A   1      44.101  31.660  30.082  1.00  0.00     0.037 A 
ATOM     27  C   UNL A   1      44.617  25.420  28.161  1.00  0.00     0.049 A 
ATOM     28  C   UNL A   1      45.260  30.727  29.936  1.00  0.00     0.074 A 
ATOM     29  C   UNL A   1      45.774  24.665  28.065  1.00  0.00     0.029 A 
ATOM     30  N   UNL A   1      44.996  26.672  28.627  1.00  0.00    -0.354 N 
ATOM     31  N   UNL A   1      45.262  29.481  29.525  1.00  0.00    -0.248 NA
ATOM     32  C   UNL A   1      46.577  31.248  30.313  1.00  0.00     0.031 C 
ATOM     33  C   UNL A   1      46.845  25.448  28.511  1.00  0.00     0.029 A 
ATOM     34  C   UNL A   1      46.366  26.707  28.836  1.00  0.00     0.049 A 
ATOM     35  H   UNL A   1      44.382  27.425  28.787  1.00  0.00     0.167 HD
ATOM     36  C   UNL A   1      46.584  29.067  29.588  1.00  0.00     0.074 A 
ATOM     37  C   UNL A   1      47.354  30.206  30.051  1.00  0.00     0.031 C 
ATOM     38  C   UNL A   1      47.111  27.853  29.296  1.00  0.00     0.037 A 
BRANCH  25  39
ATOM     39  C   UNL A   1      43.014  23.612  27.404  1.00  0.00     0.058 A 
ATOM     40  C   UNL A   1      42.543  22.625  28.282  1.00  0.00     0.135 A 
ATOM     41  C   UNL A   1      43.213  23.244  26.060  1.00  0.00     0.135 A 
ATOM     42  F   UNL A   1      42.347  22.913  29.579  1.00  0.00    -0.206 F 
ATOM     43  C   UNL A   1      42.304  21.320  27.856  1.00  0.00     0.059 A 
ATOM     44  C   UNL A   1      42.956  21.954  25.605  1.00  0.00     0.059 A 
ATOM     45  F   UNL A   1      43.661  24.146  25.173  1.00  0.00    -0.206 F 
ATOM     46  C   UNL A   1      42.516  20.994  26.514  1.00  0.00     0.060 A 
BRANCH  46  47
ATOM     47  S   UNL A   1      42.205  19.298  25.973  1.00  0.00     0.124 S 
ATOM     48  O   UNL A   1      40.763  19.323  25.751  1.00  0.00    -0.237 OA
ATOM     49  O   UNL A   1      43.028  19.196  24.772  1.00  0.00    -0.237 OA
ATOM     50  O   UNL A   1      42.653  18.492  27.104  1.00  0.00    -0.744 OA
ENDBRANCH  46  47
ENDBRANCH  25  39
BRANCH  26  51
ATOM     51  C   UNL A   1      44.272  33.061  30.551  1.00  0.00     0.058 A 
ATOM     52  C   UNL A   1      44.429  34.115  29.641  1.00  0.00     0.135 A 
ATOM     53  C   UNL A   1      44.229  33.380  31.919  1.00  0.00     0.135 A 
ATOM     54  F   UNL A   1      44.479  33.863  28.324  1.00  0.00    -0.206 F 
ATOM     55  C   UNL A   1      44.542  35.434  30.068  1.00  0.00     0.059 A 
ATOM     56  C   UNL A   1      44.304  34.694  32.368  1.00  0.00     0.059 A 
ATOM     57  F   UNL A   1      44.058  32.411  32.832  1.00  0.00    -0.206 F 
ATOM     58  C   UNL A   1      44.472  35.714  31.433  1.00  0.00     0.060 A 
BRANCH  58  59
ATOM     59  S   UNL A   1      44.556  37.434  31.976  1.00  0.00     0.124 S 
ATOM     60  O   UNL A   1      43.638  37.426  33.110  1.00  0.00    -0.237 OA
ATOM     61  O   UNL A   1      45.971  37.586  32.300  1.00  0.00    -0.237 OA
ATOM     62  O   UNL A   1      44.106  38.178  30.803  1.00  0.00    -0.744 OA
ENDBRANCH  58  59
ENDBRANCH  26  51
BRANCH  38  63
ATOM     63  C   UNL A   1      48.600  27.721  29.429  1.00  0.00     0.058 A 
ATOM     64  C   UNL A   1      49.466  28.019  28.366  1.00  0.00     0.135 A 
ATOM     65  C   UNL A   1      49.164  27.291  30.639  1.00  0.00     0.135 A 
ATOM     66  F   UNL A   1      48.973  28.422  27.184  1.00  0.00    -0.206 F 
ATOM     67  C   UNL A   1      50.842  27.860  28.487  1.00  0.00     0.059 A 
ATOM     68  C   UNL A   1      50.538  27.152  30.792  1.00  0.00     0.059 A 
ATOM     69  F   UNL A   1      48.377  27.000  31.687  1.00  0.00    -0.206 F 
ATOM     70  C   UNL A   1      51.368  27.421  29.704  1.00  0.00     0.060 A 
BRANCH  70  71
ATOM     71  S   UNL A   1      53.154  27.221  29.854  1.00  0.00     0.124 S 
ATOM     72  O   UNL A   1      53.527  28.441  30.562  1.00  0.00    -0.237 OA
ATOM     73  O   UNL A   1      53.269  25.983  30.619  1.00  0.00    -0.237 OA
ATOM     74  O   UNL A   1      53.603  27.136  28.467  1.00  0.00    -0.744 OA
ENDBRANCH  70  71
ENDBRANCH  38  63
ENDBRANCH  12  13
ENDBRANCH   5   7
ENDBRANCH   2   3
ENDBRANCH   1   2
BRANCH   1  75
ATOM     75  C   UNL A   1      36.281  34.029  28.697  1.00  0.00     0.023 C 
BRANCH  75  76
ATOM     76  C   UNL A   1      37.439  33.286  29.390  1.00  0.00     0.116 C 
BRANCH  76  77
ATOM     77  N   UNL A   1      38.036  34.000  30.523  1.00  0.00    -0.356 N 
ATOM     78  C   UNL A   1      38.378  33.677  31.806  1.00  0.00     0.227 C 
ATOM     79  H   UNL A   1      38.238  34.939  30.308  1.00  0.00     0.163 HD
ATOM     80  O   UNL A   1      38.908  34.578  32.465  1.00  0.00    -0.275 OA
BRANCH  78  81
ATOM     81  C   UNL A   1      38.330  32.273  32.381  1.00  0.00     0.127 C 
ATOM     82  C   UNL A   1      37.220  31.801  33.317  1.00  0.00     0.127 C 
ATOM     83  C   UNL A   1      39.586  31.900  33.240  1.00  0.00     0.155 C 
ATOM     84  C   UNL A   1      37.968  30.967  34.361  1.00  0.00     0.155 C 
ATOM     85  C   UNL A   1      39.819  30.420  33.142  1.00  0.00     0.004 C 
ATOM     86  O   UNL A   1      39.064  31.874  34.607  1.00  0.00    -0.365 OA
ATOM     87  C   UNL A   1      38.787  29.845  33.780  1.00  0.00     0.004 C 
BRANCH  82  88
ATOM     88  C   UNL A   1      36.345  32.809  34.035  1.00  0.00     0.227 C 
ATOM     89  O   UNL A   1      36.652  33.068  35.210  1.00  0.00    -0.275 OA
ATOM     90  N   UNL A   1      35.262  33.469  33.540  1.00  0.00    -0.352 N 
ATOM     91  H   UNL A   1      34.735  33.903  34.249  1.00  0.00     0.163 HD
BRANCH  90  92
ATOM     92  C   UNL A   1      34.696  33.686  32.218  1.00  0.00     0.151 C 
BRANCH  92  93
ATOM     93  C   UNL A   1      33.986  34.982  31.888  1.00  0.00    -0.026 A 
ATOM     94  C   UNL A   1      34.126  36.030  32.809  1.00  0.00     0.025 A 
ATOM     95  C   UNL A   1      33.333  35.294  30.701  1.00  0.00     0.025 A 
ATOM     96  C   UNL A   1      33.646  37.295  32.498  1.00  0.00     0.111 A 
ATOM     97  C   UNL A   1      32.903  36.596  30.457  1.00  0.00     0.111 A 
ATOM     98  N   UNL A   1      33.046  37.605  31.334  1.00  0.00    -0.265 NA
ENDBRANCH  92  93
ENDBRANCH  90  92
ENDBRANCH  82  88
ENDBRANCH  78  81
ENDBRANCH  76  77
ENDBRANCH  75  76
ENDBRANCH   1  75
TORSDOF 17
ENDMDL
MODEL 2
REMARK VINA RESULT:     -10.6      2.105      8.496
REMARK SMILES O=C(NCCCCNC(=O)[C@@H]1[C@H](C(=O)NCc2ccncc2)[C@H]2C=C[C@@H]1O2)c1ccc(-c2c3nc(c(-c4c(F)cc(S(=O)(=O)[O-])cc4F)c4ccc([nH]4)c(-c4c(F)cc(S(=O)(=O)[O-])cc4F)c4nc(c(-c5c(F)cc(S(=O)(=O)[O-])cc5F)c5ccc2[nH]5)C=C4)C=C3)cc1
REMARK SMILES IDX 5 1 4 2 3 3 1 4 2 5 28 7 29 8 93 9 30 10 92 11 31 12 32 13
REMARK SMILES IDX 33 14 86 15 34 16 91 17 85 18 87 19 35 20 90 21 84 22 83 23
REMARK SMILES IDX 36 25 70 26 49 27 69 28 50 29 53 30 68 31 88 32 51 33 52 34
REMARK SMILES IDX 67 36 89 37 54 38 37 39 38 40 47 41 39 42 40 43 46 44 48 45
REMARK SMILES IDX 41 46 42 47 43 48 44 49 45 50 71 51 72 52 81 53 73 54 74 55
REMARK SMILES IDX 80 56 82 57 75 58 76 59 77 60 78 61 79 62 55 63 56 64 65 65
REMARK SMILES IDX 57 66 58 67 64 68 66 69 59 70 60 71 61 72 62 73 63 74 6 75
REMARK SMILES IDX 7 76 8 77 9 78 10 80 11 81 12 82 26 83 23 84 25 85 27 86
REMARK SMILES IDX 24 87 13 88 14 89 15 90 16 92 17 93 18 94 22 95 19 96 21 97
REMARK SMILES IDX 20 98
REMARK H PARENT 3 6 87 24 53 35 8 79 15 91
REMARK Flexibility Score: inf
ROOT
ATOM      1  C   UNL A   1      34.878  32.597  28.098  1.00  0.00     0.023 C 
ENDROOT
BRANCH   1   2
ATOM      2  C   UNL A   1      35.607  31.291  28.292  1.00  0.00     0.116 C 
BRANCH   2   3
ATOM      3  N   UNL A   1      35.536  30.801  29.670  1.00  0.00    -0.352 N 
ATOM      4  O   UNL A   1      36.064  29.575  31.492  1.00  0.00    -0.269 OA
ATOM      5  C   UNL A   1      36.388  29.979  30.391  1.00  0.00     0.251 C 
ATOM      6  H   UNL A   1      34.746  31.108  30.171  1.00  0.00     0.163 HD
BRANCH   5   7
ATOM      7  C   UNL A   1      37.678  29.566  29.789  1.00  0.00     0.039 A 
ATOM      8  C   UNL A   1      38.567  28.819  30.543  1.00  0.00     0.014 A 
ATOM      9  C   UNL A   1      38.038  29.972  28.500  1.00  0.00     0.014 A 
ATOM     10  C   UNL A   1      39.895  28.773  30.174  1.00  0.00     0.010 A 
ATOM     11  C   UNL A   1      39.331  29.700  28.025  1.00  0.00     0.010 A 
ATOM     12  C   UNL A   1      40.291  29.139  28.879  1.00  0.00    -0.014 A 
BRANCH  12  13
ATOM     13  C   UNL A   1      41.688  28.820  28.467  1.00  0.00     0.031 A 
ATOM     14  C   UNL A   1      42.803  29.824  28.585  1.00  0.00     0.074 A 
ATOM     15  C   UNL A   1      41.950  27.561  28.049  1.00  0.00     0.049 A 
ATOM     16  N   UNL A   1      44.060  29.690  28.243  1.00  0.00    -0.248 NA
ATOM     17  C   UNL A   1      42.473  31.149  29.130  1.00  0.00     0.031 C 
ATOM     18  C   UNL A   1      40.944  26.501  27.881  1.00  0.00     0.029 A 
ATOM     19  N   UNL A   1      43.127  26.931  27.744  1.00  0.00    -0.354 N 
ATOM     20  C   UNL A   1      44.654  30.928  28.466  1.00  0.00     0.074 A 
ATOM     21  C   UNL A   1      43.621  31.800  28.983  1.00  0.00     0.031 C 
ATOM     22  C   UNL A   1      41.557  25.337  27.645  1.00  0.00     0.029 A 
ATOM     23  C   UNL A   1      42.978  25.588  27.483  1.00  0.00     0.049 A 
ATOM     24  H   UNL A   1      43.996  27.394  27.715  1.00  0.00     0.167 HD
ATOM     25  C   UNL A   1      45.941  31.295  28.248  1.00  0.00     0.037 A 
ATOM     26  C   UNL A   1      43.873  24.657  27.107  1.00  0.00     0.037 A 
ATOM     27  C   UNL A   1      46.966  30.391  27.784  1.00  0.00     0.049 A 
ATOM     28  C   UNL A   1      45.289  25.087  26.894  1.00  0.00     0.074 A 
ATOM     29  C   UNL A   1      48.306  30.652  27.554  1.00  0.00     0.029 A 
ATOM     30  N   UNL A   1      46.767  29.048  27.491  1.00  0.00    -0.354 N 
ATOM     31  N   UNL A   1      45.820  26.273  27.072  1.00  0.00    -0.248 NA
ATOM     32  C   UNL A   1      46.221  24.068  26.404  1.00  0.00     0.031 C 
ATOM     33  C   UNL A   1      48.906  29.479  27.085  1.00  0.00     0.029 A 
ATOM     34  C   UNL A   1      47.955  28.472  27.070  1.00  0.00     0.049 A 
ATOM     35  H   UNL A   1      45.907  28.574  27.570  1.00  0.00     0.167 HD
ATOM     36  C   UNL A   1      47.156  26.143  26.722  1.00  0.00     0.074 A 
ATOM     37  C   UNL A   1      47.353  24.755  26.347  1.00  0.00     0.031 C 
ATOM     38  C   UNL A   1      48.128  27.087  26.705  1.00  0.00     0.037 A 
BRANCH  25  39
ATOM     39  C   UNL A   1      46.311  32.741  28.462  1.00  0.00     0.058 A 
ATOM     40  C   UNL A   1      46.180  33.709  27.455  1.00  0.00     0.135 A 
ATOM     41  C   UNL A   1      46.768  33.171  29.721  1.00  0.00     0.135 A 
ATOM     42  F   UNL A   1      45.762  33.356  26.229  1.00  0.00    -0.206 F 
ATOM     43  C   UNL A   1      46.514  35.044  27.677  1.00  0.00     0.059 A 
ATOM     44  C   UNL A   1      47.082  34.503  29.974  1.00  0.00     0.059 A 
ATOM     45  F   UNL A   1      46.911  32.291  30.724  1.00  0.00    -0.206 F 
ATOM     46  C   UNL A   1      46.966  35.431  28.941  1.00  0.00     0.060 A 
BRANCH  46  47
ATOM     47  S   UNL A   1      47.398  37.163  29.216  1.00  0.00     0.124 S 
ATOM     48  O   UNL A   1      47.789  37.583  27.874  1.00  0.00    -0.237 OA
ATOM     49  O   UNL A   1      46.146  37.723  29.715  1.00  0.00    -0.237 OA
ATOM     50  O   UNL A   1      48.481  37.094  30.191  1.00  0.00    -0.744 OA
ENDBRANCH  46  47
ENDBRANCH  25  39
BRANCH  26  51
ATOM     51  C   UNL A   1      43.432  23.257  26.871  1.00  0.00     0.058 A 
ATOM     52  C   UNL A   1      43.347  22.734  25.573  1.00  0.00     0.135 A 
ATOM     53  C   UNL A   1      43.139  22.395  27.943  1.00  0.00     0.135 A 
ATOM     54  F   UNL A   1      43.615  23.515  24.516  1.00  0.00    -0.206 F 
ATOM     55  C   UNL A   1      42.981  21.411  25.345  1.00  0.00     0.059 A 
ATOM     56  C   UNL A   1      42.807  21.061  27.741  1.00  0.00     0.059 A 
ATOM     57  F   UNL A   1      43.227  22.839  29.207  1.00  0.00    -0.206 F 
ATOM     58  C   UNL A   1      42.719  20.581  26.435  1.00  0.00     0.060 A 
BRANCH  58  59
ATOM     59  S   UNL A   1      42.308  18.849  26.134  1.00  0.00     0.124 S 
ATOM     60  O   UNL A   1      40.901  18.945  25.761  1.00  0.00    -0.237 OA
ATOM     61  O   UNL A   1      43.232  18.495  25.061  1.00  0.00    -0.237 OA
ATOM     62  O   UNL A   1      42.579  18.212  27.420  1.00  0.00    -0.744 OA
ENDBRANCH  58  59
ENDBRANCH  26  51
BRANCH  38  63
ATOM     63  C   UNL A   1      49.500  26.627  26.308  1.00  0.00     0.058 A 
ATOM     64  C   UNL A   1      49.984  26.788  25.001  1.00  0.00     0.135 A 
ATOM     65  C   UNL A   1      50.339  26.016  27.253  1.00  0.00     0.135 A 
ATOM     66  F   UNL A   1      49.215  27.355  24.059  1.00  0.00    -0.206 F 
ATOM     67  C   UNL A   1      51.243  26.326  24.635  1.00  0.00     0.059 A 
ATOM     68  C   UNL A   1      51.612  25.572  26.915  1.00  0.00     0.059 A 
ATOM     69  F   UNL A   1      49.922  25.845  28.517  1.00  0.00    -0.206 F 
ATOM     70  C   UNL A   1      52.048  25.715  25.599  1.00  0.00     0.060 A 
BRANCH  70  71
ATOM     71  S   UNL A   1      53.681  25.122  25.115  1.00  0.00     0.124 S 
ATOM     72  O   UNL A   1      53.776  25.612  23.744  1.00  0.00    -0.237 OA
ATOM     73  O   UNL A   1      54.554  25.778  26.084  1.00  0.00    -0.237 OA
ATOM     74  O   UNL A   1      53.572  23.673  25.259  1.00  0.00    -0.744 OA
ENDBRANCH  70  71
ENDBRANCH  38  63
ENDBRANCH  12  13
ENDBRANCH   5   7
ENDBRANCH   2   3
ENDBRANCH   1   2
BRANCH   1  75
ATOM     75  C   UNL A   1      35.724  33.796  28.492  1.00  0.00     0.023 C 
BRANCH  75  76
ATOM     76  C   UNL A   1      36.981  33.572  29.355  1.00  0.00     0.116 C 
BRANCH  76  77
ATOM     77  N   UNL A   1      37.063  34.414  30.552  1.00  0.00    -0.356 N 
ATOM     78  C   UNL A   1      37.223  34.190  31.890  1.00  0.00     0.227 C 
ATOM     79  H   UNL A   1      36.981  35.372  30.341  1.00  0.00     0.163 HD
ATOM     80  O   UNL A   1      37.278  35.199  32.601  1.00  0.00    -0.275 OA
BRANCH  78  81
ATOM     81  C   UNL A   1      37.528  32.837  32.506  1.00  0.00     0.127 C 
ATOM     82  C   UNL A   1      36.746  32.273  33.691  1.00  0.00     0.127 C 
ATOM     83  C   UNL A   1      38.988  32.709  33.058  1.00  0.00     0.155 C 
ATOM     84  C   UNL A   1      37.833  31.630  34.556  1.00  0.00     0.155 C 
ATOM     85  C   UNL A   1      39.422  31.276  32.957  1.00  0.00     0.004 C 
ATOM     86  O   UNL A   1      38.800  32.700  34.510  1.00  0.00    -0.365 OA
ATOM     87  C   UNL A   1      38.664  30.602  33.837  1.00  0.00     0.004 C 
BRANCH  82  88
ATOM     88  C   UNL A   1      35.910  33.190  34.560  1.00  0.00     0.227 C 
ATOM     89  O   UNL A   1      36.383  33.481  35.671  1.00  0.00    -0.275 OA
ATOM     90  N   UNL A   1      34.699  33.737  34.264  1.00  0.00    -0.352 N 
ATOM     91  H   UNL A   1      34.258  34.118  35.058  1.00  0.00     0.163 HD
BRANCH  90  92
ATOM     92  C   UNL A   1      33.899  33.893  33.060  1.00  0.00     0.151 C 
BRANCH  92  93
ATOM     93  C   UNL A   1      33.783  35.242  32.382  1.00  0.00    -0.026 A 
ATOM     94  C   UNL A   1      33.275  35.252  31.076  1.00  0.00     0.025 A 
ATOM     95  C   UNL A   1      33.989  36.487  32.968  1.00  0.00     0.025 A 
ATOM     96  C   UNL A   1      32.983  36.458  30.454  1.00  0.00     0.111 A 
ATOM     97  C   UNL A   1      33.647  37.650  32.283  1.00  0.00     0.111 A 
ATOM     98  N   UNL A   1      33.148  37.661  31.034  1.00  0.00    -0.265 NA
ENDBRANCH  92  93
ENDBRANCH  90  92
ENDBRANCH  82  88
ENDBRANCH  78  81
ENDBRANCH  76  77
ENDBRANCH  75  76
ENDBRANCH   1  75
TORSDOF 17
ENDMDL
MODEL 3
REMARK VINA RESULT:     -10.6      4.249      7.739
REMARK SMILES O=C(NCCCCNC(=O)[C@@H]1[C@H](C(=O)NCc2ccncc2)[C@H]2C=C[C@@H]1O2)c1ccc(-c2c3nc(c(-c4c(F)cc(S(=O)(=O)[O-])cc4F)c4ccc([nH]4)c(-c4c(F)cc(S(=O)(=O)[O-])cc4F)c4nc(c(-c5c(F)cc(S(=O)(=O)[O-])cc5F)c5ccc2[nH]5)C=C4)C=C3)cc1
REMARK SMILES IDX 5 1 4 2 3 3 1 4 2 5 28 7 29 8 93 9 30 10 92 11 31 12 32 13
REMARK SMILES IDX 33 14 86 15 34 16 91 17 85 18 87 19 35 20 90 21 84 22 83 23
REMARK SMILES IDX 36 25 70 26 49 27 69 28 50 29 53 30 68 31 88 32 51 33 52 34
REMARK SMILES IDX 67 36 89 37 54 38 37 39 38 40 47 41 39 42 40 43 46 44 48 45
REMARK SMILES IDX 41 46 42 47 43 48 44 49 45 50 71 51 72 52 81 53 73 54 74 55
REMARK SMILES IDX 80 56 82 57 75 58 76 59 77 60 78 61 79 62 55 63 56 64 65 65
REMARK SMILES IDX 57 66 58 67 64 68 66 69 59 70 60 71 61 72 62 73 63 74 6 75
REMARK SMILES IDX 7 76 8 77 9 78 10 80 11 81 12 82 26 83 23 84 25 85 27 86
REMARK SMILES IDX 24 87 13 88 14 89 15 90 16 92 17 93 18 94 22 95 19 96 21 97
REMARK SMILES IDX 20 98
REMARK H PARENT 3 6 87 24 53 35 8 79 15 91
REMARK Flexibility Score: inf
ROOT
ATOM      1  C   UNL A   1      33.270  27.147  25.676  1.00  0.00     0.023 C 
ENDROOT
BRANCH   1   2
ATOM      2  C   UNL A   1      34.293  27.909  26.479  1.00  0.00     0.116 C 
BRANCH   2   3
ATOM      3  N   UNL A   1      33.815  29.227  26.903  1.00  0.00    -0.352 N 
ATOM      4  O   UNL A   1      33.765  31.175  28.046  1.00  0.00    -0.269 OA
ATOM      5  C   UNL A   1      34.403  30.199  27.697  1.00  0.00     0.251 C 
ATOM      6  H   UNL A   1      32.920  29.462  26.567  1.00  0.00     0.163 HD
BRANCH   5   7
ATOM      7  C   UNL A   1      35.803  30.016  28.147  1.00  0.00     0.039 A 
ATOM      8  C   UNL A   1      36.838  30.358  27.292  1.00  0.00     0.014 A 
ATOM      9  C   UNL A   1      36.095  29.448  29.391  1.00  0.00     0.014 A 
ATOM     10  C   UNL A   1      38.095  29.835  27.510  1.00  0.00     0.010 A 
ATOM     11  C   UNL A   1      37.426  29.141  29.716  1.00  0.00     0.010 A 
ATOM     12  C   UNL A   1      38.438  29.288  28.755  1.00  0.00    -0.014 A 
BRANCH  12  13
ATOM     13  C   UNL A   1      39.875  28.984  29.006  1.00  0.00     0.031 A 
ATOM     14  C   UNL A   1      40.511  27.700  28.543  1.00  0.00     0.074 A 
ATOM     15  C   UNL A   1      40.627  29.937  29.601  1.00  0.00     0.049 A 
ATOM     16  N   UNL A   1      41.744  27.294  28.713  1.00  0.00    -0.248 NA
ATOM     17  C   UNL A   1      39.663  26.739  27.823  1.00  0.00     0.031 C 
ATOM     18  C   UNL A   1      40.117  31.221  30.106  1.00  0.00     0.029 A 
ATOM     19  N   UNL A   1      41.973  30.017  29.836  1.00  0.00    -0.354 N 
ATOM     20  C   UNL A   1      41.803  26.009  28.184  1.00  0.00     0.074 A 
ATOM     21  C   UNL A   1      40.482  25.705  27.677  1.00  0.00     0.031 C 
ATOM     22  C   UNL A   1      41.142  32.004  30.455  1.00  0.00     0.029 A 
ATOM     23  C   UNL A   1      42.368  31.230  30.355  1.00  0.00     0.049 A 
ATOM     24  H   UNL A   1      42.600  29.280  29.651  1.00  0.00     0.167 HD
ATOM     25  C   UNL A   1      42.864  25.166  28.138  1.00  0.00     0.037 A 
ATOM     26  C   UNL A   1      43.574  31.668  30.756  1.00  0.00     0.037 A 
ATOM     27  C   UNL A   1      44.186  25.514  28.601  1.00  0.00     0.049 A 
ATOM     28  C   UNL A   1      44.730  30.723  30.675  1.00  0.00     0.074 A 
ATOM     29  C   UNL A   1      45.337  24.745  28.577  1.00  0.00     0.029 A 
ATOM     30  N   UNL A   1      44.536  26.737  29.158  1.00  0.00    -0.354 N 
ATOM     31  N   UNL A   1      44.754  29.497  30.208  1.00  0.00    -0.248 NA
ATOM     32  C   UNL A   1      46.012  31.203  31.197  1.00  0.00     0.031 C 
ATOM     33  C   UNL A   1      46.372  25.488  29.157  1.00  0.00     0.029 A 
ATOM     34  C   UNL A   1      45.881  26.738  29.494  1.00  0.00     0.049 A 
ATOM     35  H   UNL A   1      43.920  27.492  29.295  1.00  0.00     0.167 HD
ATOM     36  C   UNL A   1      46.059  29.058  30.374  1.00  0.00     0.074 A 
ATOM     37  C   UNL A   1      46.797  30.161  30.959  1.00  0.00     0.031 C 
ATOM     38  C   UNL A   1      46.595  27.849  30.075  1.00  0.00     0.037 A 
BRANCH  25  39
ATOM     39  C   UNL A   1      42.638  23.771  27.613  1.00  0.00     0.058 A 
ATOM     40  C   UNL A   1      42.639  23.471  26.243  1.00  0.00     0.135 A 
ATOM     41  C   UNL A   1      42.455  22.703  28.511  1.00  0.00     0.135 A 
ATOM     42  F   UNL A   1      42.794  24.450  25.338  1.00  0.00    -0.206 F 
ATOM     43  C   UNL A   1      42.442  22.172  25.779  1.00  0.00     0.059 A 
ATOM     44  C   UNL A   1      42.283  21.394  28.072  1.00  0.00     0.059 A 
ATOM     45  F   UNL A   1      42.447  22.928  29.835  1.00  0.00    -0.206 F 
ATOM     46  C   UNL A   1      42.263  21.140  26.702  1.00  0.00     0.060 A 
BRANCH  46  47
ATOM     47  S   UNL A   1      42.006  19.460  26.089  1.00  0.00     0.124 S 
ATOM     48  O   UNL A   1      42.856  19.450  24.902  1.00  0.00    -0.237 OA
ATOM     49  O   UNL A   1      42.469  18.643  27.206  1.00  0.00    -0.237 OA
ATOM     50  O   UNL A   1      40.570  19.407  25.831  1.00  0.00    -0.744 OA
ENDBRANCH  46  47
ENDBRANCH  25  39
BRANCH  26  51
ATOM     51  C   UNL A   1      43.720  33.043  31.305  1.00  0.00     0.058 A 
ATOM     52  C   UNL A   1      43.988  34.132  30.464  1.00  0.00     0.135 A 
ATOM     53  C   UNL A   1      43.539  33.303  32.674  1.00  0.00     0.135 A 
ATOM     54  F   UNL A   1      44.170  33.938  29.150  1.00  0.00    -0.206 F 
ATOM     55  C   UNL A   1      44.078  35.429  30.961  1.00  0.00     0.059 A 
ATOM     56  C   UNL A   1      43.589  34.594  33.188  1.00  0.00     0.059 A 
ATOM     57  F   UNL A   1      43.258  32.298  33.519  1.00  0.00    -0.206 F 
ATOM     58  C   UNL A   1      43.871  35.650  32.324  1.00  0.00     0.060 A 
BRANCH  58  59
ATOM     59  S   UNL A   1      43.926  37.342  32.951  1.00  0.00     0.124 S 
ATOM     60  O   UNL A   1      42.795  37.348  33.871  1.00  0.00    -0.237 OA
ATOM     61  O   UNL A   1      45.249  37.401  33.564  1.00  0.00    -0.237 OA
ATOM     62  O   UNL A   1      43.766  38.151  31.746  1.00  0.00    -0.744 OA
ENDBRANCH  58  59
ENDBRANCH  26  51
BRANCH  38  63
ATOM     63  C   UNL A   1      48.062  27.686  30.339  1.00  0.00     0.058 A 
ATOM     64  C   UNL A   1      49.023  27.921  29.344  1.00  0.00     0.135 A 
ATOM     65  C   UNL A   1      48.510  27.289  31.609  1.00  0.00     0.135 A 
ATOM     66  F   UNL A   1      48.644  28.290  28.111  1.00  0.00    -0.206 F 
ATOM     67  C   UNL A   1      50.379  27.732  29.588  1.00  0.00     0.059 A 
ATOM     68  C   UNL A   1      49.863  27.121  31.883  1.00  0.00     0.059 A 
ATOM     69  F   UNL A   1      47.630  27.058  32.595  1.00  0.00    -0.206 F 
ATOM     70  C   UNL A   1      50.788  27.327  30.861  1.00  0.00     0.060 A 
BRANCH  70  71
ATOM     71  S   UNL A   1      52.549  27.089  31.170  1.00  0.00     0.124 S 
ATOM     72  O   UNL A   1      52.687  25.649  30.979  1.00  0.00    -0.237 OA
ATOM     73  O   UNL A   1      53.164  27.927  30.145  1.00  0.00    -0.237 OA
ATOM     74  O   UNL A   1      52.720  27.561  32.542  1.00  0.00    -0.744 OA
ENDBRANCH  70  71
ENDBRANCH  38  63
ENDBRANCH  12  13
ENDBRANCH   5   7
ENDBRANCH   2   3
ENDBRANCH   1   2
BRANCH   1  75
ATOM     75  C   UNL A   1      31.987  26.903  26.454  1.00  0.00     0.023 C 
BRANCH  75  76
ATOM     76  C   UNL A   1      31.138  25.662  26.122  1.00  0.00     0.116 C 
BRANCH  76  77
ATOM     77  N   UNL A   1      31.463  24.466  26.906  1.00  0.00    -0.356 N 
ATOM     78  C   UNL A   1      32.440  23.512  26.867  1.00  0.00     0.227 C 
ATOM     79  H   UNL A   1      30.821  24.314  27.637  1.00  0.00     0.163 HD
ATOM     80  O   UNL A   1      32.389  22.653  27.753  1.00  0.00    -0.275 OA
BRANCH  78  81
ATOM     81  C   UNL A   1      33.652  23.560  25.955  1.00  0.00     0.127 C 
ATOM     82  C   UNL A   1      33.626  23.039  24.519  1.00  0.00     0.127 C 
ATOM     83  C   UNL A   1      34.889  22.773  26.507  1.00  0.00     0.155 C 
ATOM     84  C   UNL A   1      34.977  22.333  24.376  1.00  0.00     0.155 C 
ATOM     85  C   UNL A   1      36.143  23.427  26.005  1.00  0.00     0.004 C 
ATOM     86  O   UNL A   1      34.969  21.608  25.624  1.00  0.00    -0.365 OA
ATOM     87  C   UNL A   1      36.164  23.207  24.680  1.00  0.00     0.004 C 
BRANCH  82  88
ATOM     88  C   UNL A   1      32.532  22.093  24.069  1.00  0.00     0.227 C 
ATOM     89  O   UNL A   1      31.808  22.488  23.140  1.00  0.00    -0.275 OA
ATOM     90  N   UNL A   1      32.250  20.855  24.562  1.00  0.00    -0.352 N 
ATOM     91  H   UNL A   1      31.372  20.526  24.261  1.00  0.00     0.163 HD
BRANCH  90  92
ATOM     92  C   UNL A   1      32.932  19.904  25.425  1.00  0.00     0.151 C 
BRANCH  92  93
ATOM     93  C   UNL A   1      33.037  18.446  25.031  1.00  0.00    -0.026 A 
ATOM     94  C   UNL A   1      33.736  18.160  23.850  1.00  0.00     0.025 A 
ATOM     95  C   UNL A   1      32.643  17.349  25.790  1.00  0.00     0.025 A 
ATOM     96  C   UNL A   1      34.017  16.843  23.512  1.00  0.00     0.111 A 
ATOM     97  C   UNL A   1      32.987  16.059  25.391  1.00  0.00     0.111 A 
ATOM     98  N   UNL A   1      33.667  15.784  24.265  1.00  0.00    -0.265 NA
ENDBRANCH  92  93
ENDBRANCH  90  92
ENDBRANCH  82  88
ENDBRANCH  78  81
ENDBRANCH  76  77
ENDBRANCH  75  76
ENDBRANCH   1  75
TORSDOF 17
ENDMDL
