MODEL 1
REMARK VINA RESULT:     -11.7      0.000      0.000
REMARK SMILES C[C@H](NC(=O)OCc1ccccc1)C(=O)NCC(=O)N1CCC[C@H]1C(=O)NCCCCNC(=O)c1ccc(-c2c3nc(c(-c4c(F)cc(S(=O)(=O)[O-])cc4F)c4ccc([nH]4)c(-c4c(F)cc(S(=O)(=O)[O-])cc4F)c4nc(c(-c5c(F)cc(S(=O)(=O)[O-])cc5F)c5ccc2[nH]5)C=C4)C=C3)cc1
REMARK SMILES IDX 25 1 26 2 27 3 24 5 20 6 21 7 22 8 23 9 18 10 19 11 17 12
REMARK SMILES IDX 16 13 14 14 15 15 2 17 1 18 3 19 4 20 5 22 6 23 7 24 8 25
REMARK SMILES IDX 9 26 13 27 10 28 12 29 11 30 28 31 29 32 30 33 31 34 32 35
REMARK SMILES IDX 33 36 34 38 35 39 36 40 100 41 37 42 99 43 38 44 39 45 40 46
REMARK SMILES IDX 93 47 41 48 98 49 92 50 94 51 42 52 97 53 91 54 90 55 43 57
REMARK SMILES IDX 77 58 56 59 76 60 57 61 60 62 75 63 95 64 58 65 59 66 74 68
REMARK SMILES IDX 96 69 61 70 44 71 45 72 54 73 46 74 47 75 53 76 55 77 48 78
REMARK SMILES IDX 49 79 50 80 51 81 52 82 78 83 79 84 88 85 80 86 81 87 87 88
REMARK SMILES IDX 89 89 82 90 83 91 84 92 85 93 86 94 62 95 63 96 72 97 64 98
REMARK SMILES IDX 65 99 71 100 73 101 66 102 67 103 68 104 69 105 70 106
REMARK H PARENT 27 4 16 16 3 21 32 37 94 56 60 67
REMARK Flexibility Score: inf
ROOT
ATOM      1  C   UNL A   1      31.405  29.322  24.583  1.00  0.00     0.242 C 
ATOM      2  O   UNL A   1      30.424  29.772  23.983  1.00  0.00    -0.273 OA
ATOM      3  N   UNL A   1      31.946  30.116  25.555  1.00  0.00    -0.354 N 
ATOM      4  H   UNL A   1      31.381  30.870  25.840  1.00  0.00     0.163 HD
ENDROOT
BRANCH   1   5
ATOM      5  C   UNL A   1      31.957  27.889  24.327  1.00  0.00     0.174 C 
ATOM      6  N   UNL A   1      30.922  27.030  23.731  1.00  0.00    -0.329 N 
ATOM      7  C   UNL A   1      31.120  26.996  22.296  1.00  0.00     0.120 C 
ATOM      8  C   UNL A   1      32.622  26.886  22.191  1.00  0.00     0.024 C 
ATOM      9  C   UNL A   1      33.104  27.797  23.309  1.00  0.00     0.037 C 
BRANCH   6  10
ATOM     10  C   UNL A   1      29.990  26.427  24.537  1.00  0.00     0.242 C 
ATOM     11  O   UNL A   1      28.800  26.389  24.197  1.00  0.00    -0.273 OA
BRANCH  10  12
ATOM     12  C   UNL A   1      30.319  25.989  25.976  1.00  0.00     0.216 C 
BRANCH  12  13
ATOM     13  N   UNL A   1      29.840  24.745  26.536  1.00  0.00    -0.345 N 
ATOM     14  C   UNL A   1      30.301  23.468  26.419  1.00  0.00     0.242 C 
ATOM     15  O   UNL A   1      29.720  22.605  27.084  1.00  0.00    -0.273 OA
ATOM     16  H   UNL A   1      29.039  24.836  27.102  1.00  0.00     0.164 HD
BRANCH  14  17
ATOM     17  C   UNL A   1      31.549  23.094  25.594  1.00  0.00     0.171 C 
ATOM     18  C   UNL A   1      31.223  23.036  24.104  1.00  0.00     0.042 C 
BRANCH  17  19
ATOM     19  N   UNL A   1      32.234  21.870  25.999  1.00  0.00    -0.310 N 
ATOM     20  C   UNL A   1      33.527  21.571  25.685  1.00  0.00     0.408 C 
ATOM     21  H   UNL A   1      31.728  21.217  26.534  1.00  0.00     0.167 HD
ATOM     22  O   UNL A   1      33.958  20.426  25.799  1.00  0.00    -0.225 OA
BRANCH  20  23
ATOM     23  O   UNL A   1      34.241  22.641  25.268  1.00  0.00    -0.445 OA
BRANCH  23  24
ATOM     24  C   UNL A   1      35.436  22.379  24.517  1.00  0.00     0.270 C 
BRANCH  24  25
ATOM     25  C   UNL A   1      36.722  22.587  25.288  1.00  0.00    -0.011 A 
ATOM     26  C   UNL A   1      37.723  21.606  25.339  1.00  0.00     0.007 A 
ATOM     27  C   UNL A   1      36.986  23.833  25.881  1.00  0.00     0.007 A 
ATOM     28  C   UNL A   1      38.946  21.858  25.963  1.00  0.00     0.000 A 
ATOM     29  C   UNL A   1      38.210  24.085  26.506  1.00  0.00     0.000 A 
ATOM     30  C   UNL A   1      39.192  23.098  26.543  1.00  0.00     0.000 A 
ENDBRANCH  24  25
ENDBRANCH  23  24
ENDBRANCH  20  23
ENDBRANCH  17  19
ENDBRANCH  14  17
ENDBRANCH  12  13
ENDBRANCH  10  12
ENDBRANCH   6  10
ENDBRANCH   1   5
BRANCH   3  31
ATOM     31  C   UNL A   1      33.224  30.017  26.228  1.00  0.00     0.116 C 
BRANCH  31  32
ATOM     32  C   UNL A   1      33.264  30.952  27.444  1.00  0.00     0.023 C 
BRANCH  32  33
ATOM     33  C   UNL A   1      34.602  31.649  27.663  1.00  0.00     0.023 C 
BRANCH  33  34
ATOM     34  C   UNL A   1      35.672  30.769  28.281  1.00  0.00     0.116 C 
BRANCH  34  35
ATOM     35  N   UNL A   1      35.529  30.645  29.724  1.00  0.00    -0.352 N 
ATOM     36  C   UNL A   1      36.471  30.249  30.642  1.00  0.00     0.251 C 
ATOM     37  H   UNL A   1      34.644  30.874  30.089  1.00  0.00     0.163 HD
ATOM     38  O   UNL A   1      36.151  30.044  31.808  1.00  0.00    -0.269 OA
BRANCH  36  39
ATOM     39  C   UNL A   1      37.860  30.040  30.189  1.00  0.00     0.039 A 
ATOM     40  C   UNL A   1      38.847  29.765  31.137  1.00  0.00     0.014 A 
ATOM     41  C   UNL A   1      38.168  30.054  28.826  1.00  0.00     0.014 A 
ATOM     42  C   UNL A   1      40.134  29.439  30.709  1.00  0.00     0.010 A 
ATOM     43  C   UNL A   1      39.423  29.639  28.400  1.00  0.00     0.010 A 
ATOM     44  C   UNL A   1      40.421  29.332  29.336  1.00  0.00    -0.014 A 
BRANCH  44  45
ATOM     45  C   UNL A   1      41.764  28.915  28.860  1.00  0.00     0.031 A 
ATOM     46  C   UNL A   1      42.873  29.929  28.766  1.00  0.00     0.074 A 
ATOM     47  C   UNL A   1      41.968  27.643  28.463  1.00  0.00     0.049 A 
ATOM     48  N   UNL A   1      44.088  29.782  28.309  1.00  0.00    -0.248 NA
ATOM     49  C   UNL A   1      42.565  31.295  29.224  1.00  0.00     0.031 C 
ATOM     50  C   UNL A   1      40.959  26.580  28.467  1.00  0.00     0.029 A 
ATOM     51  N   UNL A   1      43.091  27.026  27.973  1.00  0.00    -0.354 N 
ATOM     52  C   UNL A   1      44.690  31.029  28.428  1.00  0.00     0.074 A 
ATOM     53  C   UNL A   1      43.684  31.939  28.927  1.00  0.00     0.031 C 
ATOM     54  C   UNL A   1      41.516  25.440  28.030  1.00  0.00     0.029 A 
ATOM     55  C   UNL A   1      42.908  25.697  27.672  1.00  0.00     0.049 A 
ATOM     56  H   UNL A   1      43.949  27.494  27.847  1.00  0.00     0.167 HD
ATOM     57  C   UNL A   1      45.974  31.377  28.177  1.00  0.00     0.037 A 
ATOM     58  C   UNL A   1      43.763  24.791  27.159  1.00  0.00     0.037 A 
ATOM     59  C   UNL A   1      46.973  30.464  27.691  1.00  0.00     0.049 A 
ATOM     60  C   UNL A   1      45.174  25.218  26.846  1.00  0.00     0.074 A 
ATOM     61  C   UNL A   1      48.309  30.712  27.424  1.00  0.00     0.029 A 
ATOM     62  N   UNL A   1      46.750  29.125  27.404  1.00  0.00    -0.354 N 
ATOM     63  N   UNL A   1      45.739  26.391  27.010  1.00  0.00    -0.248 NA
ATOM     64  C   UNL A   1      46.067  24.195  26.282  1.00  0.00     0.031 C 
ATOM     65  C   UNL A   1      48.883  29.534  26.935  1.00  0.00     0.029 A 
ATOM     66  C   UNL A   1      47.919  28.538  26.949  1.00  0.00     0.049 A 
ATOM     67  H   UNL A   1      45.888  28.660  27.508  1.00  0.00     0.167 HD
ATOM     68  C   UNL A   1      47.061  26.235  26.608  1.00  0.00     0.074 A 
ATOM     69  C   UNL A   1      47.215  24.853  26.204  1.00  0.00     0.031 C 
ATOM     70  C   UNL A   1      48.059  27.154  26.574  1.00  0.00     0.037 A 
BRANCH  57  71
ATOM     71  C   UNL A   1      46.375  32.802  28.447  1.00  0.00     0.058 A 
ATOM     72  C   UNL A   1      46.289  33.787  27.449  1.00  0.00     0.135 A 
ATOM     73  C   UNL A   1      46.805  33.202  29.722  1.00  0.00     0.135 A 
ATOM     74  F   UNL A   1      45.902  33.458  26.206  1.00  0.00    -0.206 F 
ATOM     75  C   UNL A   1      46.637  35.110  27.698  1.00  0.00     0.059 A 
ATOM     76  C   UNL A   1      47.129  34.526  30.004  1.00  0.00     0.059 A 
ATOM     77  F   UNL A   1      46.910  32.302  30.713  1.00  0.00    -0.206 F 
ATOM     78  C   UNL A   1      47.051  35.471  28.980  1.00  0.00     0.060 A 
BRANCH  78  79
ATOM     79  S   UNL A   1      47.476  37.197  29.289  1.00  0.00     0.124 S 
ATOM     80  O   UNL A   1      46.154  37.811  29.382  1.00  0.00    -0.237 OA
ATOM     81  O   UNL A   1      48.225  37.114  30.539  1.00  0.00    -0.237 OA
ATOM     82  O   UNL A   1      48.259  37.571  28.116  1.00  0.00    -0.744 OA
ENDBRANCH  78  79
ENDBRANCH  57  71
BRANCH  58  83
ATOM     83  C   UNL A   1      43.325  23.389  26.914  1.00  0.00     0.058 A 
ATOM     84  C   UNL A   1      43.158  22.489  27.979  1.00  0.00     0.135 A 
ATOM     85  C   UNL A   1      43.097  22.909  25.615  1.00  0.00     0.135 A 
ATOM     86  F   UNL A   1      43.366  22.898  29.240  1.00  0.00    -0.206 F 
ATOM     87  C   UNL A   1      42.824  21.157  27.763  1.00  0.00     0.059 A 
ATOM     88  C   UNL A   1      42.731  21.588  25.376  1.00  0.00     0.059 A 
ATOM     89  F   UNL A   1      43.223  23.731  24.562  1.00  0.00    -0.206 F 
ATOM     90  C   UNL A   1      42.617  20.715  26.456  1.00  0.00     0.060 A 
BRANCH  90  91
ATOM     91  S   UNL A   1      42.183  18.983  26.186  1.00  0.00     0.124 S 
ATOM     92  O   UNL A   1      40.776  19.088  25.816  1.00  0.00    -0.237 OA
ATOM     93  O   UNL A   1      43.097  18.600  25.115  1.00  0.00    -0.237 OA
ATOM     94  O   UNL A   1      42.451  18.364  27.481  1.00  0.00    -0.744 OA
ENDBRANCH  90  91
ENDBRANCH  58  83
BRANCH  70  95
ATOM     95  C   UNL A   1      49.419  26.683  26.138  1.00  0.00     0.058 A 
ATOM     96  C   UNL A   1      49.855  26.802  24.808  1.00  0.00     0.135 A 
ATOM     97  C   UNL A   1      50.320  26.154  27.077  1.00  0.00     0.135 A 
ATOM     98  F   UNL A   1      49.032  27.295  23.869  1.00  0.00    -0.206 F 
ATOM     99  C   UNL A   1      51.125  26.388  24.421  1.00  0.00     0.059 A 
ATOM    100  C   UNL A   1      51.606  25.763  26.718  1.00  0.00     0.059 A 
ATOM    101  F   UNL A   1      49.959  26.027  28.363  1.00  0.00    -0.206 F 
ATOM    102  C   UNL A   1      51.995  25.874  25.384  1.00  0.00     0.060 A 
BRANCH 102 103
ATOM    103  S   UNL A   1      53.652  25.375  24.873  1.00  0.00     0.124 S 
ATOM    104  O   UNL A   1      53.768  26.023  23.571  1.00  0.00    -0.237 OA
ATOM    105  O   UNL A   1      54.486  25.931  25.935  1.00  0.00    -0.237 OA
ATOM    106  O   UNL A   1      53.576  23.917  24.844  1.00  0.00    -0.744 OA
ENDBRANCH 102 103
ENDBRANCH  70  95
ENDBRANCH  44  45
ENDBRANCH  36  39
ENDBRANCH  34  35
ENDBRANCH  33  34
ENDBRANCH  32  33
ENDBRANCH  31  32
ENDBRANCH   3  31
TORSDOF 22
ENDMDL
MODEL 2
REMARK VINA RESULT:     -11.5      1.597      2.735
REMARK SMILES C[C@H](NC(=O)OCc1ccccc1)C(=O)NCC(=O)N1CCC[C@H]1C(=O)NCCCCNC(=O)c1ccc(-c2c3nc(c(-c4c(F)cc(S(=O)(=O)[O-])cc4F)c4ccc([nH]4)c(-c4c(F)cc(S(=O)(=O)[O-])cc4F)c4nc(c(-c5c(F)cc(S(=O)(=O)[O-])cc5F)c5ccc2[nH]5)C=C4)C=C3)cc1
REMARK SMILES IDX 25 1 26 2 27 3 24 5 20 6 21 7 22 8 23 9 18 10 19 11 17 12
REMARK SMILES IDX 16 13 14 14 15 15 2 17 1 18 3 19 4 20 5 22 6 23 7 24 8 25
REMARK SMILES IDX 9 26 13 27 10 28 12 29 11 30 28 31 29 32 30 33 31 34 32 35
REMARK SMILES IDX 33 36 34 38 35 39 36 40 100 41 37 42 99 43 38 44 39 45 40 46
REMARK SMILES IDX 93 47 41 48 98 49 92 50 94 51 42 52 97 53 91 54 90 55 43 57
REMARK SMILES IDX 77 58 56 59 76 60 57 61 60 62 75 63 95 64 58 65 59 66 74 68
REMARK SMILES IDX 96 69 61 70 44 71 45 72 54 73 46 74 47 75 53 76 55 77 48 78
REMARK SMILES IDX 49 79 50 80 51 81 52 82 78 83 79 84 88 85 80 86 81 87 87 88
REMARK SMILES IDX 89 89 82 90 83 91 84 92 85 93 86 94 62 95 63 96 72 97 64 98
REMARK SMILES IDX 65 99 71 100 73 101 66 102 67 103 68 104 69 105 70 106
REMARK H PARENT 27 4 16 16 3 21 32 37 94 56 60 67
REMARK Flexibility Score: inf
ROOT
ATOM      1  C   UNL A   1      31.891  28.398  27.164  1.00  0.00     0.242 C 
ATOM      2  O   UNL A   1      31.086  27.893  27.954  1.00  0.00    -0.273 OA
ATOM      3  N   UNL A   1      32.637  29.442  27.633  1.00  0.00    -0.354 N 
ATOM      4  H   UNL A   1      32.628  29.556  28.611  1.00  0.00     0.163 HD
ENDROOT
BRANCH   1   5
ATOM      5  C   UNL A   1      32.126  27.830  25.733  1.00  0.00     0.174 C 
ATOM      6  N   UNL A   1      31.587  26.466  25.619  1.00  0.00    -0.329 N 
ATOM      7  C   UNL A   1      30.275  26.536  25.008  1.00  0.00     0.120 C 
ATOM      8  C   UNL A   1      30.491  27.567  23.926  1.00  0.00     0.024 C 
ATOM      9  C   UNL A   1      31.404  28.577  24.601  1.00  0.00     0.037 C 
BRANCH   6  10
ATOM     10  C   UNL A   1      32.331  25.401  26.063  1.00  0.00     0.242 C 
ATOM     11  O   UNL A   1      31.839  24.582  26.850  1.00  0.00    -0.273 OA
BRANCH  10  12
ATOM     12  C   UNL A   1      33.845  25.301  25.805  1.00  0.00     0.216 C 
BRANCH  12  13
ATOM     13  N   UNL A   1      34.388  24.744  24.585  1.00  0.00    -0.345 N 
ATOM     14  C   UNL A   1      34.843  23.495  24.290  1.00  0.00     0.242 C 
ATOM     15  O   UNL A   1      35.184  23.289  23.121  1.00  0.00    -0.273 OA
ATOM     16  H   UNL A   1      34.436  25.381  23.835  1.00  0.00     0.164 HD
BRANCH  14  17
ATOM     17  C   UNL A   1      34.846  22.336  25.308  1.00  0.00     0.171 C 
ATOM     18  C   UNL A   1      35.553  21.108  24.739  1.00  0.00     0.042 C 
BRANCH  17  19
ATOM     19  N   UNL A   1      33.541  21.954  25.839  1.00  0.00    -0.310 N 
ATOM     20  C   UNL A   1      32.526  21.437  25.088  1.00  0.00     0.408 C 
ATOM     21  H   UNL A   1      33.384  22.077  26.803  1.00  0.00     0.167 HD
ATOM     22  O   UNL A   1      31.375  21.403  25.518  1.00  0.00    -0.225 OA
BRANCH  20  23
ATOM     23  O   UNL A   1      32.928  20.979  23.882  1.00  0.00    -0.445 OA
BRANCH  23  24
ATOM     24  C   UNL A   1      32.285  19.797  23.382  1.00  0.00     0.270 C 
BRANCH  24  25
ATOM     25  C   UNL A   1      32.824  18.500  23.948  1.00  0.00    -0.011 A 
ATOM     26  C   UNL A   1      32.508  18.069  25.245  1.00  0.00     0.007 A 
ATOM     27  C   UNL A   1      33.571  17.638  23.128  1.00  0.00     0.007 A 
ATOM     28  C   UNL A   1      32.926  16.820  25.709  1.00  0.00     0.000 A 
ATOM     29  C   UNL A   1      33.989  16.389  23.593  1.00  0.00     0.000 A 
ATOM     30  C   UNL A   1      33.663  15.978  24.883  1.00  0.00     0.000 A 
ENDBRANCH  24  25
ENDBRANCH  23  24
ENDBRANCH  20  23
ENDBRANCH  17  19
ENDBRANCH  14  17
ENDBRANCH  12  13
ENDBRANCH  10  12
ENDBRANCH   6  10
ENDBRANCH   1   5
BRANCH   3  31
ATOM     31  C   UNL A   1      33.438  30.407  26.909  1.00  0.00     0.116 C 
BRANCH  31  32
ATOM     32  C   UNL A   1      34.831  30.528  27.541  1.00  0.00     0.023 C 
BRANCH  32  33
ATOM     33  C   UNL A   1      35.260  31.956  27.859  1.00  0.00     0.023 C 
BRANCH  33  34
ATOM     34  C   UNL A   1      36.409  32.060  28.844  1.00  0.00     0.116 C 
BRANCH  34  35
ATOM     35  N   UNL A   1      36.055  31.573  30.169  1.00  0.00    -0.352 N 
ATOM     36  C   UNL A   1      36.660  30.579  30.900  1.00  0.00     0.251 C 
ATOM     37  H   UNL A   1      35.283  32.010  30.595  1.00  0.00     0.163 HD
ATOM     38  O   UNL A   1      36.146  30.176  31.938  1.00  0.00    -0.269 OA
BRANCH  36  39
ATOM     39  C   UNL A   1      37.913  29.987  30.394  1.00  0.00     0.039 A 
ATOM     40  C   UNL A   1      38.128  29.931  29.016  1.00  0.00     0.014 A 
ATOM     41  C   UNL A   1      38.897  29.550  31.285  1.00  0.00     0.014 A 
ATOM     42  C   UNL A   1      39.362  29.494  28.534  1.00  0.00     0.010 A 
ATOM     43  C   UNL A   1      40.154  29.204  30.806  1.00  0.00     0.010 A 
ATOM     44  C   UNL A   1      40.398  29.167  29.426  1.00  0.00    -0.014 A 
BRANCH  44  45
ATOM     45  C   UNL A   1      41.742  28.770  28.934  1.00  0.00     0.031 A 
ATOM     46  C   UNL A   1      42.836  29.799  28.840  1.00  0.00     0.074 A 
ATOM     47  C   UNL A   1      41.959  27.504  28.525  1.00  0.00     0.049 A 
ATOM     48  N   UNL A   1      44.050  29.672  28.371  1.00  0.00    -0.248 NA
ATOM     49  C   UNL A   1      42.515  31.158  29.311  1.00  0.00     0.031 C 
ATOM     50  C   UNL A   1      40.963  26.428  28.529  1.00  0.00     0.029 A 
ATOM     51  N   UNL A   1      43.086  26.906  28.020  1.00  0.00    -0.354 N 
ATOM     52  C   UNL A   1      44.636  30.926  28.495  1.00  0.00     0.074 A 
ATOM     53  C   UNL A   1      43.623  31.819  29.010  1.00  0.00     0.031 C 
ATOM     54  C   UNL A   1      41.532  25.299  28.078  1.00  0.00     0.029 A 
ATOM     55  C   UNL A   1      42.917  25.577  27.711  1.00  0.00     0.049 A 
ATOM     56  H   UNL A   1      43.936  27.386  27.891  1.00  0.00     0.167 HD
ATOM     57  C   UNL A   1      45.913  31.293  28.236  1.00  0.00     0.037 A 
ATOM     58  C   UNL A   1      43.779  24.687  27.182  1.00  0.00     0.037 A 
ATOM     59  C   UNL A   1      46.920  30.397  27.734  1.00  0.00     0.049 A 
ATOM     60  C   UNL A   1      45.182  25.135  26.861  1.00  0.00     0.074 A 
ATOM     61  C   UNL A   1      48.250  30.664  27.457  1.00  0.00     0.029 A 
ATOM     62  N   UNL A   1      46.712  29.058  27.438  1.00  0.00    -0.354 N 
ATOM     63  N   UNL A   1      45.733  26.314  27.030  1.00  0.00    -0.248 NA
ATOM     64  C   UNL A   1      46.084  24.129  26.281  1.00  0.00     0.031 C 
ATOM     65  C   UNL A   1      48.835  29.498  26.954  1.00  0.00     0.029 A 
ATOM     66  C   UNL A   1      47.884  28.489  26.968  1.00  0.00     0.049 A 
ATOM     67  H   UNL A   1      45.857  28.581  27.545  1.00  0.00     0.167 HD
ATOM     68  C   UNL A   1      47.053  26.178  26.615  1.00  0.00     0.074 A 
ATOM     69  C   UNL A   1      47.222  24.802  26.198  1.00  0.00     0.031 C 
ATOM     70  C   UNL A   1      48.039  27.110  26.580  1.00  0.00     0.037 A 
BRANCH  57  71
ATOM     71  C   UNL A   1      46.299  32.721  28.514  1.00  0.00     0.058 A 
ATOM     72  C   UNL A   1      46.741  33.124  29.784  1.00  0.00     0.135 A 
ATOM     73  C   UNL A   1      46.273  33.686  27.495  1.00  0.00     0.135 A 
ATOM     74  F   UNL A   1      46.769  32.247  30.801  1.00  0.00    -0.206 F 
ATOM     75  C   UNL A   1      47.121  34.437  30.041  1.00  0.00     0.059 A 
ATOM     76  C   UNL A   1      46.677  34.999  27.720  1.00  0.00     0.059 A 
ATOM     77  F   UNL A   1      45.855  33.358  26.262  1.00  0.00    -0.206 F 
ATOM     78  C   UNL A   1      47.090  35.367  29.002  1.00  0.00     0.060 A 
BRANCH  78  79
ATOM     79  S   UNL A   1      47.608  37.060  29.350  1.00  0.00     0.124 S 
ATOM     80  O   UNL A   1      46.323  37.750  29.414  1.00  0.00    -0.237 OA
ATOM     81  O   UNL A   1      48.313  36.914  30.620  1.00  0.00    -0.237 OA
ATOM     82  O   UNL A   1      48.447  37.402  28.206  1.00  0.00    -0.744 OA
ENDBRANCH  78  79
ENDBRANCH  57  71
BRANCH  58  83
ATOM     83  C   UNL A   1      43.357  23.281  26.930  1.00  0.00     0.058 A 
ATOM     84  C   UNL A   1      43.175  22.382  27.991  1.00  0.00     0.135 A 
ATOM     85  C   UNL A   1      43.161  22.799  25.627  1.00  0.00     0.135 A 
ATOM     86  F   UNL A   1      43.352  22.793  29.257  1.00  0.00    -0.206 F 
ATOM     87  C   UNL A   1      42.856  21.046  27.770  1.00  0.00     0.059 A 
ATOM     88  C   UNL A   1      42.810  21.475  25.381  1.00  0.00     0.059 A 
ATOM     89  F   UNL A   1      43.303  23.621  24.575  1.00  0.00    -0.206 F 
ATOM     90  C   UNL A   1      42.680  20.601  26.459  1.00  0.00     0.060 A 
BRANCH  90  91
ATOM     91  S   UNL A   1      42.265  18.866  26.182  1.00  0.00     0.124 S 
ATOM     92  O   UNL A   1      42.442  18.306  27.517  1.00  0.00    -0.237 OA
ATOM     93  O   UNL A   1      40.889  18.952  25.703  1.00  0.00    -0.237 OA
ATOM     94  O   UNL A   1      43.243  18.442  25.185  1.00  0.00    -0.744 OA
ENDBRANCH  90  91
ENDBRANCH  58  83
BRANCH  70  95
ATOM     95  C   UNL A   1      49.402  26.661  26.128  1.00  0.00     0.058 A 
ATOM     96  C   UNL A   1      49.842  26.840  24.807  1.00  0.00     0.135 A 
ATOM     97  C   UNL A   1      50.299  26.090  27.046  1.00  0.00     0.135 A 
ATOM     98  F   UNL A   1      49.023  27.375  23.888  1.00  0.00    -0.206 F 
ATOM     99  C   UNL A   1      51.114  26.446  24.407  1.00  0.00     0.059 A 
ATOM    100  C   UNL A   1      51.587  25.717  26.675  1.00  0.00     0.059 A 
ATOM    101  F   UNL A   1      49.933  25.905  28.324  1.00  0.00    -0.206 F 
ATOM    102  C   UNL A   1      51.981  25.888  25.349  1.00  0.00     0.060 A 
BRANCH 102 103
ATOM    103  S   UNL A   1      53.641  25.415  24.823  1.00  0.00     0.124 S 
ATOM    104  O   UNL A   1      53.746  26.088  23.532  1.00  0.00    -0.237 OA
ATOM    105  O   UNL A   1      54.474  25.959  25.892  1.00  0.00    -0.237 OA
ATOM    106  O   UNL A   1      53.578  23.957  24.767  1.00  0.00    -0.744 OA
ENDBRANCH 102 103
ENDBRANCH  70  95
ENDBRANCH  44  45
ENDBRANCH  36  39
ENDBRANCH  34  35
ENDBRANCH  33  34
ENDBRANCH  32  33
ENDBRANCH  31  32
ENDBRANCH   3  31
TORSDOF 22
ENDMDL
MODEL 3
REMARK VINA RESULT:     -11.5      1.165      2.150
REMARK SMILES C[C@H](NC(=O)OCc1ccccc1)C(=O)NCC(=O)N1CCC[C@H]1C(=O)NCCCCNC(=O)c1ccc(-c2c3nc(c(-c4c(F)cc(S(=O)(=O)[O-])cc4F)c4ccc([nH]4)c(-c4c(F)cc(S(=O)(=O)[O-])cc4F)c4nc(c(-c5c(F)cc(S(=O)(=O)[O-])cc5F)c5ccc2[nH]5)C=C4)C=C3)cc1
REMARK SMILES IDX 25 1 26 2 27 3 24 5 20 6 21 7 22 8 23 9 18 10 19 11 17 12
REMARK SMILES IDX 16 13 14 14 15 15 2 17 1 18 3 19 4 20 5 22 6 23 7 24 8 25
REMARK SMILES IDX 9 26 13 27 10 28 12 29 11 30 28 31 29 32 30 33 31 34 32 35
REMARK SMILES IDX 33 36 34 38 35 39 36 40 100 41 37 42 99 43 38 44 39 45 40 46
REMARK SMILES IDX 93 47 41 48 98 49 92 50 94 51 42 52 97 53 91 54 90 55 43 57
REMARK SMILES IDX 77 58 56 59 76 60 57 61 60 62 75 63 95 64 58 65 59 66 74 68
REMARK SMILES IDX 96 69 61 70 44 71 45 72 54 73 46 74 47 75 53 76 55 77 48 78
REMARK SMILES IDX 49 79 50 80 51 81 52 82 78 83 79 84 88 85 80 86 81 87 87 88
REMARK SMILES IDX 89 89 82 90 83 91 84 92 85 93 86 94 62 95 63 96 72 97 64 98
REMARK SMILES IDX 65 99 71 100 73 101 66 102 67 103 68 104 69 105 70 106
REMARK H PARENT 27 4 16 16 3 21 32 37 94 56 60 67
REMARK Flexibility Score: inf
ROOT
ATOM      1  C   UNL A   1      30.952  27.296  25.487  1.00  0.00     0.242 C 
ATOM      2  O   UNL A   1      30.244  26.353  25.118  1.00  0.00    -0.273 OA
ATOM      3  N   UNL A   1      31.373  27.274  26.787  1.00  0.00    -0.354 N 
ATOM      4  H   UNL A   1      31.263  26.411  27.247  1.00  0.00     0.163 HD
ENDROOT
BRANCH   1   5
ATOM      5  C   UNL A   1      31.428  28.414  24.515  1.00  0.00     0.174 C 
ATOM      6  N   UNL A   1      31.793  27.847  23.207  1.00  0.00    -0.329 N 
ATOM      7  C   UNL A   1      30.672  28.009  22.303  1.00  0.00     0.120 C 
ATOM      8  C   UNL A   1      30.203  29.405  22.636  1.00  0.00     0.024 C 
ATOM      9  C   UNL A   1      30.367  29.463  24.146  1.00  0.00     0.037 C 
BRANCH   6  10
ATOM     10  C   UNL A   1      33.035  27.292  23.029  1.00  0.00     0.242 C 
ATOM     11  O   UNL A   1      33.674  27.509  21.990  1.00  0.00    -0.273 OA
BRANCH  10  12
ATOM     12  C   UNL A   1      33.586  26.208  23.974  1.00  0.00     0.216 C 
BRANCH  12  13
ATOM     13  N   UNL A   1      34.203  24.995  23.485  1.00  0.00    -0.345 N 
ATOM     14  C   UNL A   1      33.780  23.700  23.502  1.00  0.00     0.242 C 
ATOM     15  O   UNL A   1      34.501  22.873  22.933  1.00  0.00    -0.273 OA
ATOM     16  H   UNL A   1      35.085  25.128  23.067  1.00  0.00     0.164 HD
BRANCH  14  17
ATOM     17  C   UNL A   1      32.425  23.262  24.094  1.00  0.00     0.171 C 
ATOM     18  C   UNL A   1      31.344  23.222  23.017  1.00  0.00     0.042 C 
BRANCH  17  19
ATOM     19  N   UNL A   1      31.954  24.035  25.239  1.00  0.00    -0.310 N 
ATOM     20  C   UNL A   1      32.036  23.618  26.536  1.00  0.00     0.408 C 
ATOM     21  H   UNL A   1      31.551  24.916  25.064  1.00  0.00     0.167 HD
ATOM     22  O   UNL A   1      31.378  24.164  27.419  1.00  0.00    -0.225 OA
BRANCH  20  23
ATOM     23  O   UNL A   1      32.897  22.592  26.718  1.00  0.00    -0.445 OA
BRANCH  23  24
ATOM     24  C   UNL A   1      34.191  22.910  27.252  1.00  0.00     0.270 C 
BRANCH  24  25
ATOM     25  C   UNL A   1      35.354  22.459  26.394  1.00  0.00    -0.011 A 
ATOM     26  C   UNL A   1      35.410  21.172  25.838  1.00  0.00     0.007 A 
ATOM     27  C   UNL A   1      36.358  23.376  26.041  1.00  0.00     0.007 A 
ATOM     28  C   UNL A   1      36.435  20.811  24.962  1.00  0.00     0.000 A 
ATOM     29  C   UNL A   1      37.384  23.015  25.164  1.00  0.00     0.000 A 
ATOM     30  C   UNL A   1      37.420  21.732  24.621  1.00  0.00     0.000 A 
ENDBRANCH  24  25
ENDBRANCH  23  24
ENDBRANCH  20  23
ENDBRANCH  17  19
ENDBRANCH  14  17
ENDBRANCH  12  13
ENDBRANCH  10  12
ENDBRANCH   6  10
ENDBRANCH   1   5
BRANCH   3  31
ATOM     31  C   UNL A   1      31.956  28.328  27.590  1.00  0.00     0.116 C 
BRANCH  31  32
ATOM     32  C   UNL A   1      33.437  28.513  27.238  1.00  0.00     0.023 C 
BRANCH  32  33
ATOM     33  C   UNL A   1      33.913  29.962  27.243  1.00  0.00     0.023 C 
BRANCH  33  34
ATOM     34  C   UNL A   1      35.320  30.156  27.776  1.00  0.00     0.116 C 
BRANCH  34  35
ATOM     35  N   UNL A   1      35.336  30.630  29.153  1.00  0.00    -0.352 N 
ATOM     36  C   UNL A   1      36.325  30.476  30.094  1.00  0.00     0.251 C 
ATOM     37  H   UNL A   1      34.536  31.122  29.446  1.00  0.00     0.163 HD
ATOM     38  O   UNL A   1      36.124  30.797  31.260  1.00  0.00    -0.269 OA
BRANCH  36  39
ATOM     39  C   UNL A   1      37.614  29.887  29.681  1.00  0.00     0.039 A 
ATOM     40  C   UNL A   1      37.980  29.934  28.335  1.00  0.00     0.014 A 
ATOM     41  C   UNL A   1      38.482  29.350  30.635  1.00  0.00     0.014 A 
ATOM     42  C   UNL A   1      39.250  29.499  27.956  1.00  0.00     0.010 A 
ATOM     43  C   UNL A   1      39.777  29.004  30.269  1.00  0.00     0.010 A 
ATOM     44  C   UNL A   1      40.172  29.069  28.926  1.00  0.00    -0.014 A 
BRANCH  44  45
ATOM     45  C   UNL A   1      41.553  28.672  28.553  1.00  0.00     0.031 A 
ATOM     46  C   UNL A   1      42.647  29.706  28.527  1.00  0.00     0.074 A 
ATOM     47  C   UNL A   1      41.809  27.399  28.189  1.00  0.00     0.049 A 
ATOM     48  N   UNL A   1      43.895  29.577  28.161  1.00  0.00    -0.248 NA
ATOM     49  C   UNL A   1      42.282  31.071  28.942  1.00  0.00     0.031 C 
ATOM     50  C   UNL A   1      40.822  26.318  28.134  1.00  0.00     0.029 A 
ATOM     51  N   UNL A   1      42.976  26.799  27.789  1.00  0.00    -0.354 N 
ATOM     52  C   UNL A   1      44.464  30.837  28.306  1.00  0.00     0.074 A 
ATOM     53  C   UNL A   1      43.408  31.733  28.720  1.00  0.00     0.031 C 
ATOM     54  C   UNL A   1      41.431  25.183  27.754  1.00  0.00     0.029 A 
ATOM     55  C   UNL A   1      42.839  25.463  27.494  1.00  0.00     0.049 A 
ATOM     56  H   UNL A   1      43.832  27.281  27.720  1.00  0.00     0.167 HD
ATOM     57  C   UNL A   1      45.756  31.207  28.145  1.00  0.00     0.037 A 
ATOM     58  C   UNL A   1      43.746  24.568  27.056  1.00  0.00     0.037 A 
ATOM     59  C   UNL A   1      46.805  30.307  27.744  1.00  0.00     0.049 A 
ATOM     60  C   UNL A   1      45.168  25.017  26.840  1.00  0.00     0.074 A 
ATOM     61  C   UNL A   1      48.151  30.577  27.571  1.00  0.00     0.029 A 
ATOM     62  N   UNL A   1      46.628  28.961  27.459  1.00  0.00    -0.354 N 
ATOM     63  N   UNL A   1      45.698  26.203  27.030  1.00  0.00    -0.248 NA
ATOM     64  C   UNL A   1      46.119  24.006  26.356  1.00  0.00     0.031 C 
ATOM     65  C   UNL A   1      48.781  29.405  27.141  1.00  0.00     0.029 A 
ATOM     66  C   UNL A   1      47.837  28.391  27.098  1.00  0.00     0.049 A 
ATOM     67  H   UNL A   1      45.769  28.481  27.507  1.00  0.00     0.167 HD
ATOM     68  C   UNL A   1      47.048  26.068  26.726  1.00  0.00     0.074 A 
ATOM     69  C   UNL A   1      47.257  24.685  26.353  1.00  0.00     0.031 C 
ATOM     70  C   UNL A   1      48.029  27.005  26.752  1.00  0.00     0.037 A 
BRANCH  57  71
ATOM     71  C   UNL A   1      46.111  32.642  28.424  1.00  0.00     0.058 A 
ATOM     72  C   UNL A   1      46.486  33.066  29.709  1.00  0.00     0.135 A 
ATOM     73  C   UNL A   1      46.124  33.595  27.393  1.00  0.00     0.135 A 
ATOM     74  F   UNL A   1      46.473  32.201  30.736  1.00  0.00    -0.206 F 
ATOM     75  C   UNL A   1      46.837  34.386  29.969  1.00  0.00     0.059 A 
ATOM     76  C   UNL A   1      46.502  34.915  27.622  1.00  0.00     0.059 A 
ATOM     77  F   UNL A   1      45.771  33.247  26.145  1.00  0.00    -0.206 F 
ATOM     78  C   UNL A   1      46.847  35.303  28.917  1.00  0.00     0.060 A 
BRANCH  78  79
ATOM     79  S   UNL A   1      47.328  37.006  29.270  1.00  0.00     0.124 S 
ATOM     80  O   UNL A   1      48.773  36.947  29.075  1.00  0.00    -0.237 OA
ATOM     81  O   UNL A   1      46.582  37.754  28.263  1.00  0.00    -0.237 OA
ATOM     82  O   UNL A   1      46.889  37.206  30.647  1.00  0.00    -0.744 OA
ENDBRANCH  78  79
ENDBRANCH  57  71
BRANCH  58  83
ATOM     83  C   UNL A   1      43.352  23.154  26.799  1.00  0.00     0.058 A 
ATOM     84  C   UNL A   1      43.060  22.283  27.859  1.00  0.00     0.135 A 
ATOM     85  C   UNL A   1      43.293  22.637  25.496  1.00  0.00     0.135 A 
ATOM     86  F   UNL A   1      43.105  22.728  29.124  1.00  0.00    -0.206 F 
ATOM     87  C   UNL A   1      42.766  20.941  27.642  1.00  0.00     0.059 A 
ATOM     88  C   UNL A   1      42.970  21.306  25.251  1.00  0.00     0.059 A 
ATOM     89  F   UNL A   1      43.544  23.431  24.443  1.00  0.00    -0.206 F 
ATOM     90  C   UNL A   1      42.728  20.461  26.332  1.00  0.00     0.060 A 
BRANCH  90  91
ATOM     91  S   UNL A   1      42.344  18.718  26.060  1.00  0.00     0.124 S 
ATOM     92  O   UNL A   1      42.654  18.142  27.364  1.00  0.00    -0.237 OA
ATOM     93  O   UNL A   1      40.929  18.767  25.705  1.00  0.00    -0.237 OA
ATOM     94  O   UNL A   1      43.243  18.341  24.973  1.00  0.00    -0.744 OA
ENDBRANCH  90  91
ENDBRANCH  58  83
BRANCH  70  95
ATOM     95  C   UNL A   1      49.426  26.555  26.422  1.00  0.00     0.058 A 
ATOM     96  C   UNL A   1      49.927  26.593  25.111  1.00  0.00     0.135 A 
ATOM     97  C   UNL A   1      50.293  26.131  27.442  1.00  0.00     0.135 A 
ATOM     98  F   UNL A   1      49.140  26.985  24.097  1.00  0.00    -0.206 F 
ATOM     99  C   UNL A   1      51.230  26.201  24.820  1.00  0.00     0.059 A 
ATOM    100  C   UNL A   1      51.609  25.764  27.180  1.00  0.00     0.059 A 
ATOM    101  F   UNL A   1      49.868  26.086  28.715  1.00  0.00    -0.206 F 
ATOM    102  C   UNL A   1      52.064  25.791  25.862  1.00  0.00     0.060 A 
BRANCH 102 103
ATOM    103  S   UNL A   1      53.762  25.319  25.475  1.00  0.00     0.124 S 
ATOM    104  O   UNL A   1      54.523  26.212  26.343  1.00  0.00    -0.237 OA
ATOM    105  O   UNL A   1      53.784  23.906  25.842  1.00  0.00    -0.237 OA
ATOM    106  O   UNL A   1      53.874  25.590  24.044  1.00  0.00    -0.744 OA
ENDBRANCH 102 103
ENDBRANCH  70  95
ENDBRANCH  44  45
ENDBRANCH  36  39
ENDBRANCH  34  35
ENDBRANCH  33  34
ENDBRANCH  32  33
ENDBRANCH  31  32
ENDBRANCH   3  31
TORSDOF 22
ENDMDL
