MODEL 1
REMARK VINA RESULT:     -11.2      0.000      0.000
REMARK SMILES CC[C@@](C)([NH2+]Cc1ccc(C(N)=O)cc1F)C(=O)NCCCCNC(=O)c1ccc(-c2c3nc(c(-c4c(F)cc(S(=O)(=O)[O-])cc4F)c4ccc([nH]4)c(-c4c(F)cc(S(=O)(=O)[O-])cc4F)c4nc(c(-c5c(F)cc(S(=O)(=O)[O-])cc5F)c5ccc2[nH]5)C=C4)C=C3)cc1
REMARK SMILES IDX 21 1 20 2 19 3 17 4 18 5 3 7 4 8 2 9 1 10 5 11 6 14 7 15
REMARK SMILES IDX 8 16 15 17 9 18 14 19 16 20 10 21 11 22 12 23 13 24 22 27
REMARK SMILES IDX 23 28 24 29 25 30 26 32 27 33 28 34 92 35 29 36 91 37 30 38
REMARK SMILES IDX 31 39 32 40 85 41 33 42 90 43 84 44 86 45 34 46 89 47 83 48
REMARK SMILES IDX 82 49 35 51 69 52 48 53 68 54 49 55 52 56 67 57 87 58 50 59
REMARK SMILES IDX 51 60 66 62 88 63 53 64 36 65 37 66 46 67 38 68 39 69 45 70
REMARK SMILES IDX 47 71 40 72 41 73 42 74 43 75 44 76 70 77 71 78 80 79 72 80
REMARK SMILES IDX 73 81 79 82 81 83 74 84 75 85 76 86 77 87 78 88 54 89 55 90
REMARK SMILES IDX 64 91 56 92 57 93 63 94 65 95 58 96 59 97 60 98 61 99 62 100
REMARK H PARENT 19 6 5 12 5 13 12 25 12 26 24 31 86 50 52 61
REMARK Flexibility Score: inf
ROOT
ATOM      1  C   UNL A   1      32.798  29.415  24.982  1.00  0.00     0.023 C 
ENDROOT
BRANCH   1   2
ATOM      2  C   UNL A   1      31.844  28.719  24.012  1.00  0.00     0.116 C 
BRANCH   2   3
ATOM      3  N   UNL A   1      30.952  27.848  24.735  1.00  0.00    -0.351 N 
ATOM      4  C   UNL A   1      30.551  26.568  24.496  1.00  0.00     0.281 C 
ATOM      5  O   UNL A   1      29.559  26.211  25.145  1.00  0.00    -0.268 OA
ATOM      6  H   UNL A   1      30.564  28.248  25.546  1.00  0.00     0.163 HD
BRANCH   4   7
ATOM      7  C   UNL A   1      31.328  25.573  23.556  1.00  0.00     0.172 C 
ATOM      8  C   UNL A   1      30.469  24.331  23.261  1.00  0.00     0.090 C 
BRANCH   7   9
ATOM      9  C   UNL A   1      31.530  26.333  22.180  1.00  0.00     0.075 C 
ATOM     10  C   UNL A   1      32.949  26.353  21.614  1.00  0.00     0.011 C 
ENDBRANCH   7   9
BRANCH   7  11
ATOM     11  N   UNL A   1      32.747  25.349  23.969  1.00  0.00    -0.330 N 
ATOM     12  H   UNL A   1      33.163  26.279  24.014  1.00  0.00     0.347 HD
ATOM     13  H   UNL A   1      33.023  24.656  23.273  1.00  0.00     0.347 HD
BRANCH  11  14
ATOM     14  C   UNL A   1      33.187  24.673  25.185  1.00  0.00     0.301 C 
BRANCH  14  15
ATOM     15  C   UNL A   1      33.316  23.168  25.140  1.00  0.00     0.042 A 
ATOM     16  C   UNL A   1      33.216  22.433  23.954  1.00  0.00     0.013 A 
ATOM     17  C   UNL A   1      33.515  22.455  26.330  1.00  0.00     0.132 A 
ATOM     18  C   UNL A   1      33.066  21.043  23.995  1.00  0.00     0.014 A 
ATOM     19  C   UNL A   1      33.384  21.073  26.387  1.00  0.00     0.053 A 
ATOM     20  F   UNL A   1      33.782  23.115  27.464  1.00  0.00    -0.206 F 
ATOM     21  C   UNL A   1      33.087  20.368  25.221  1.00  0.00     0.042 A 
BRANCH  21  22
ATOM     22  C   UNL A   1      32.784  18.919  25.329  1.00  0.00     0.248 C 
ATOM     23  N   UNL A   1      32.877  18.346  26.566  1.00  0.00    -0.366 N 
ATOM     24  O   UNL A   1      32.514  18.244  24.343  1.00  0.00    -0.270 OA
ATOM     25  H   UNL A   1      33.096  18.901  27.350  1.00  0.00     0.159 HD
ATOM     26  H   UNL A   1      32.724  17.380  26.675  1.00  0.00     0.159 HD
ENDBRANCH  21  22
ENDBRANCH  14  15
ENDBRANCH  11  14
ENDBRANCH   7  11
ENDBRANCH   4   7
ENDBRANCH   2   3
ENDBRANCH   1   2
BRANCH   1  27
ATOM     27  C   UNL A   1      33.690  28.472  25.769  1.00  0.00     0.023 C 
BRANCH  27  28
ATOM     28  C   UNL A   1      33.545  28.596  27.277  1.00  0.00     0.116 C 
BRANCH  28  29
ATOM     29  N   UNL A   1      33.526  29.973  27.761  1.00  0.00    -0.352 N 
ATOM     30  C   UNL A   1      34.565  30.681  28.323  1.00  0.00     0.251 C 
ATOM     31  H   UNL A   1      32.670  30.452  27.675  1.00  0.00     0.163 HD
ATOM     32  O   UNL A   1      34.392  31.805  28.779  1.00  0.00    -0.269 OA
BRANCH  30  33
ATOM     33  C   UNL A   1      35.883  30.023  28.407  1.00  0.00     0.039 A 
ATOM     34  C   UNL A   1      36.747  30.097  27.317  1.00  0.00     0.014 A 
ATOM     35  C   UNL A   1      36.302  29.466  29.619  1.00  0.00     0.014 A 
ATOM     36  C   UNL A   1      38.072  29.687  27.471  1.00  0.00     0.010 A 
ATOM     37  C   UNL A   1      37.643  29.164  29.799  1.00  0.00     0.010 A 
ATOM     38  C   UNL A   1      38.543  29.266  28.727  1.00  0.00    -0.014 A 
BRANCH  38  39
ATOM     39  C   UNL A   1      39.971  28.921  28.943  1.00  0.00     0.031 A 
ATOM     40  C   UNL A   1      40.905  29.950  29.517  1.00  0.00     0.074 A 
ATOM     41  C   UNL A   1      40.435  27.710  28.571  1.00  0.00     0.049 A 
ATOM     42  N   UNL A   1      42.194  29.872  29.718  1.00  0.00    -0.248 NA
ATOM     43  C   UNL A   1      40.322  31.253  29.883  1.00  0.00     0.031 C 
ATOM     44  C   UNL A   1      39.636  26.647  27.957  1.00  0.00     0.029 A 
ATOM     45  N   UNL A   1      41.694  27.167  28.654  1.00  0.00    -0.354 N 
ATOM     46  C   UNL A   1      42.573  31.109  30.224  1.00  0.00     0.074 A 
ATOM     47  C   UNL A   1      41.395  31.945  30.232  1.00  0.00     0.031 C 
ATOM     48  C   UNL A   1      40.411  25.569  27.758  1.00  0.00     0.029 A 
ATOM     49  C   UNL A   1      41.773  25.875  28.187  1.00  0.00     0.049 A 
ATOM     50  H   UNL A   1      42.467  27.657  29.016  1.00  0.00     0.167 HD
ATOM     51  C   UNL A   1      43.785  31.501  30.679  1.00  0.00     0.037 A 
ATOM     52  C   UNL A   1      42.824  25.034  28.110  1.00  0.00     0.037 A 
ATOM     53  C   UNL A   1      44.944  30.650  30.701  1.00  0.00     0.049 A 
ATOM     54  C   UNL A   1      44.166  25.499  28.607  1.00  0.00     0.074 A 
ATOM     55  C   UNL A   1      46.206  30.935  31.189  1.00  0.00     0.029 A 
ATOM     56  N   UNL A   1      44.983  29.349  30.221  1.00  0.00    -0.354 N 
ATOM     57  N   UNL A   1      44.494  26.655  29.134  1.00  0.00    -0.248 NA
ATOM     58  C   UNL A   1      45.283  24.548  28.502  1.00  0.00     0.031 C 
ATOM     59  C   UNL A   1      47.023  29.825  30.957  1.00  0.00     0.029 A 
ATOM     60  C   UNL A   1      46.255  28.826  30.380  1.00  0.00     0.049 A 
ATOM     61  H   UNL A   1      44.220  28.869  29.826  1.00  0.00     0.167 HD
ATOM     62  C   UNL A   1      45.846  26.563  29.447  1.00  0.00     0.074 A 
ATOM     63  C   UNL A   1      46.273  25.233  29.062  1.00  0.00     0.031 C 
ATOM     64  C   UNL A   1      46.660  27.495  30.000  1.00  0.00     0.037 A 
BRANCH  51  65
ATOM     65  C   UNL A   1      43.918  32.900  31.214  1.00  0.00     0.058 A 
ATOM     66  C   UNL A   1      43.677  33.173  32.569  1.00  0.00     0.135 A 
ATOM     67  C   UNL A   1      44.220  33.983  30.371  1.00  0.00     0.135 A 
ATOM     68  F   UNL A   1      43.394  32.175  33.422  1.00  0.00    -0.206 F 
ATOM     69  C   UNL A   1      43.707  34.472  33.065  1.00  0.00     0.059 A 
ATOM     70  C   UNL A   1      44.286  35.286  30.852  1.00  0.00     0.059 A 
ATOM     71  F   UNL A   1      44.486  33.774  29.071  1.00  0.00    -0.206 F 
ATOM     72  C   UNL A   1      44.011  35.523  32.198  1.00  0.00     0.060 A 
BRANCH  72  73
ATOM     73  S   UNL A   1      44.059  37.200  32.862  1.00  0.00     0.124 S 
ATOM     74  O   UNL A   1      43.978  38.006  31.649  1.00  0.00    -0.237 OA
ATOM     75  O   UNL A   1      42.879  37.221  33.722  1.00  0.00    -0.237 OA
ATOM     76  O   UNL A   1      45.337  37.249  33.565  1.00  0.00    -0.744 OA
ENDBRANCH  72  73
ENDBRANCH  51  65
BRANCH  52  77
ATOM     77  C   UNL A   1      42.637  23.657  27.574  1.00  0.00     0.058 A 
ATOM     78  C   UNL A   1      42.386  22.569  28.425  1.00  0.00     0.135 A 
ATOM     79  C   UNL A   1      42.735  23.399  26.198  1.00  0.00     0.135 A 
ATOM     80  F   UNL A   1      42.291  22.756  29.750  1.00  0.00    -0.206 F 
ATOM     81  C   UNL A   1      42.265  21.273  27.934  1.00  0.00     0.059 A 
ATOM     82  C   UNL A   1      42.589  22.115  25.680  1.00  0.00     0.059 A 
ATOM     83  F   UNL A   1      42.962  24.408  25.343  1.00  0.00    -0.206 F 
ATOM     84  C   UNL A   1      42.370  21.055  26.559  1.00  0.00     0.060 A 
BRANCH  84  85
ATOM     85  S   UNL A   1      42.218  19.364  25.946  1.00  0.00     0.124 S 
ATOM     86  O   UNL A   1      40.778  19.261  25.727  1.00  0.00    -0.237 OA
ATOM     87  O   UNL A   1      43.041  19.401  24.743  1.00  0.00    -0.237 OA
ATOM     88  O   UNL A   1      42.746  18.557  27.042  1.00  0.00    -0.744 OA
ENDBRANCH  84  85
ENDBRANCH  52  77
BRANCH  64  89
ATOM     89  C   UNL A   1      48.094  27.117  30.252  1.00  0.00     0.058 A 
ATOM     90  C   UNL A   1      48.452  26.432  31.425  1.00  0.00     0.135 A 
ATOM     91  C   UNL A   1      49.123  27.517  29.386  1.00  0.00     0.135 A 
ATOM     92  F   UNL A   1      47.506  26.033  32.291  1.00  0.00    -0.206 F 
ATOM     93  C   UNL A   1      49.781  26.179  31.743  1.00  0.00     0.059 A 
ATOM     94  C   UNL A   1      50.459  27.247  29.669  1.00  0.00     0.059 A 
ATOM     95  F   UNL A   1      48.833  28.166  28.248  1.00  0.00    -0.206 F 
ATOM     96  C   UNL A   1      50.778  26.595  30.859  1.00  0.00     0.060 A 
BRANCH  96  97
ATOM     97  S   UNL A   1      52.499  26.259  31.290  1.00  0.00     0.124 S 
ATOM     98  O   UNL A   1      52.378  25.033  32.071  1.00  0.00    -0.237 OA
ATOM     99  O   UNL A   1      53.121  26.117  29.977  1.00  0.00    -0.237 OA
ATOM    100  O   UNL A   1      52.898  27.446  32.041  1.00  0.00    -0.744 OA
ENDBRANCH  96  97
ENDBRANCH  64  89
ENDBRANCH  38  39
ENDBRANCH  30  33
ENDBRANCH  28  29
ENDBRANCH  27  28
ENDBRANCH   1  27
TORSDOF 19
ENDMDL
MODEL 2
REMARK VINA RESULT:     -11.0      3.774      7.997
REMARK SMILES CC[C@@](C)([NH2+]Cc1ccc(C(N)=O)cc1F)C(=O)NCCCCNC(=O)c1ccc(-c2c3nc(c(-c4c(F)cc(S(=O)(=O)[O-])cc4F)c4ccc([nH]4)c(-c4c(F)cc(S(=O)(=O)[O-])cc4F)c4nc(c(-c5c(F)cc(S(=O)(=O)[O-])cc5F)c5ccc2[nH]5)C=C4)C=C3)cc1
REMARK SMILES IDX 21 1 20 2 19 3 17 4 18 5 3 7 4 8 2 9 1 10 5 11 6 14 7 15
REMARK SMILES IDX 8 16 15 17 9 18 14 19 16 20 10 21 11 22 12 23 13 24 22 27
REMARK SMILES IDX 23 28 24 29 25 30 26 32 27 33 28 34 92 35 29 36 91 37 30 38
REMARK SMILES IDX 31 39 32 40 85 41 33 42 90 43 84 44 86 45 34 46 89 47 83 48
REMARK SMILES IDX 82 49 35 51 69 52 48 53 68 54 49 55 52 56 67 57 87 58 50 59
REMARK SMILES IDX 51 60 66 62 88 63 53 64 36 65 37 66 46 67 38 68 39 69 45 70
REMARK SMILES IDX 47 71 40 72 41 73 42 74 43 75 44 76 70 77 71 78 80 79 72 80
REMARK SMILES IDX 73 81 79 82 81 83 74 84 75 85 76 86 77 87 78 88 54 89 55 90
REMARK SMILES IDX 64 91 56 92 57 93 63 94 65 95 58 96 59 97 60 98 61 99 62 100
REMARK H PARENT 19 6 5 12 5 13 12 25 12 26 24 31 86 50 52 61
REMARK Flexibility Score: inf
ROOT
ATOM      1  C   UNL A   1      37.400  20.127  24.975  1.00  0.00     0.023 C 
ENDROOT
BRANCH   1   2
ATOM      2  C   UNL A   1      35.889  20.357  24.990  1.00  0.00     0.116 C 
BRANCH   2   3
ATOM      3  N   UNL A   1      35.525  21.180  26.116  1.00  0.00    -0.351 N 
ATOM      4  C   UNL A   1      34.648  22.215  26.230  1.00  0.00     0.281 C 
ATOM      5  O   UNL A   1      34.781  22.891  27.258  1.00  0.00    -0.268 OA
ATOM      6  H   UNL A   1      35.993  20.952  26.952  1.00  0.00     0.163 HD
BRANCH   4   7
ATOM      7  C   UNL A   1      33.485  22.488  25.206  1.00  0.00     0.172 C 
ATOM      8  C   UNL A   1      32.139  22.607  25.940  1.00  0.00     0.090 C 
BRANCH   7   9
ATOM      9  C   UNL A   1      33.788  23.904  24.561  1.00  0.00     0.075 C 
ATOM     10  C   UNL A   1      35.188  24.105  23.981  1.00  0.00     0.011 C 
ENDBRANCH   7   9
BRANCH   7  11
ATOM     11  N   UNL A   1      33.536  21.609  23.998  1.00  0.00    -0.330 N 
ATOM     12  H   UNL A   1      34.346  21.005  24.139  1.00  0.00     0.347 HD
ATOM     13  H   UNL A   1      33.500  22.317  23.264  1.00  0.00     0.347 HD
BRANCH  11  14
ATOM     14  C   UNL A   1      32.472  20.721  23.540  1.00  0.00     0.301 C 
BRANCH  14  15
ATOM     15  C   UNL A   1      32.496  19.292  24.031  1.00  0.00     0.042 A 
ATOM     16  C   UNL A   1      32.480  18.955  25.388  1.00  0.00     0.013 A 
ATOM     17  C   UNL A   1      32.567  18.244  23.102  1.00  0.00     0.132 A 
ATOM     18  C   UNL A   1      32.779  17.652  25.795  1.00  0.00     0.014 A 
ATOM     19  C   UNL A   1      32.849  16.940  23.490  1.00  0.00     0.053 A 
ATOM     20  F   UNL A   1      32.417  18.500  21.797  1.00  0.00    -0.206 F 
ATOM     21  C   UNL A   1      33.027  16.655  24.843  1.00  0.00     0.042 A 
BRANCH  21  22
ATOM     22  C   UNL A   1      33.492  15.298  25.225  1.00  0.00     0.248 C 
ATOM     23  N   UNL A   1      32.547  14.396  25.623  1.00  0.00    -0.366 N 
ATOM     24  O   UNL A   1      34.682  15.007  25.237  1.00  0.00    -0.270 OA
ATOM     25  H   UNL A   1      31.593  14.644  25.609  1.00  0.00     0.159 HD
ATOM     26  H   UNL A   1      32.817  13.498  25.923  1.00  0.00     0.159 HD
ENDBRANCH  21  22
ENDBRANCH  14  15
ENDBRANCH  11  14
ENDBRANCH   7  11
ENDBRANCH   4   7
ENDBRANCH   2   3
ENDBRANCH   1   2
BRANCH   1  27
ATOM     27  C   UNL A   1      38.225  21.362  25.289  1.00  0.00     0.023 C 
BRANCH  27  28
ATOM     28  C   UNL A   1      39.329  21.127  26.307  1.00  0.00     0.116 C 
BRANCH  28  29
ATOM     29  N   UNL A   1      40.057  19.876  26.117  1.00  0.00    -0.352 N 
ATOM     30  C   UNL A   1      41.422  19.692  26.097  1.00  0.00     0.251 C 
ATOM     31  H   UNL A   1      39.507  19.069  25.989  1.00  0.00     0.163 HD
ATOM     32  O   UNL A   1      41.910  18.601  25.830  1.00  0.00    -0.269 OA
BRANCH  30  33
ATOM     33  C   UNL A   1      42.280  20.865  26.354  1.00  0.00     0.039 A 
ATOM     34  C   UNL A   1      42.715  21.635  25.277  1.00  0.00     0.014 A 
ATOM     35  C   UNL A   1      42.520  21.270  27.670  1.00  0.00     0.014 A 
ATOM     36  C   UNL A   1      43.321  22.867  25.524  1.00  0.00     0.010 A 
ATOM     37  C   UNL A   1      43.022  22.541  27.907  1.00  0.00     0.010 A 
ATOM     38  C   UNL A   1      43.432  23.352  26.838  1.00  0.00    -0.014 A 
BRANCH  38  39
ATOM     39  C   UNL A   1      43.981  24.703  27.122  1.00  0.00     0.031 A 
ATOM     40  C   UNL A   1      43.059  25.797  27.584  1.00  0.00     0.074 A 
ATOM     41  C   UNL A   1      45.288  24.957  26.908  1.00  0.00     0.049 A 
ATOM     42  N   UNL A   1      43.325  27.055  27.818  1.00  0.00    -0.248 NA
ATOM     43  C   UNL A   1      41.642  25.441  27.779  1.00  0.00     0.031 C 
ATOM     44  C   UNL A   1      46.271  23.991  26.413  1.00  0.00     0.029 A 
ATOM     45  N   UNL A   1      46.019  26.108  27.081  1.00  0.00    -0.354 N 
ATOM     46  C   UNL A   1      42.116  27.636  28.177  1.00  0.00     0.074 A 
ATOM     47  C   UNL A   1      41.100  26.615  28.061  1.00  0.00     0.031 C 
ATOM     48  C   UNL A   1      47.479  24.575  26.361  1.00  0.00     0.029 A 
ATOM     49  C   UNL A   1      47.353  25.969  26.775  1.00  0.00     0.049 A 
ATOM     50  H   UNL A   1      45.624  26.953  27.395  1.00  0.00     0.167 HD
ATOM     51  C   UNL A   1      41.878  28.897  28.605  1.00  0.00     0.037 A 
ATOM     52  C   UNL A   1      48.360  26.864  26.820  1.00  0.00     0.037 A 
ATOM     53  C   UNL A   1      42.900  29.898  28.752  1.00  0.00     0.049 A 
ATOM     54  C   UNL A   1      48.067  28.266  27.283  1.00  0.00     0.074 A 
ATOM     55  C   UNL A   1      42.771  31.191  29.226  1.00  0.00     0.029 A 
ATOM     56  N   UNL A   1      44.238  29.718  28.433  1.00  0.00    -0.354 N 
ATOM     57  N   UNL A   1      46.926  28.784  27.672  1.00  0.00    -0.248 NA
ATOM     58  C   UNL A   1      49.196  29.208  27.316  1.00  0.00     0.031 C 
ATOM     59  C   UNL A   1      44.021  31.810  29.145  1.00  0.00     0.029 A 
ATOM     60  C   UNL A   1      44.942  30.885  28.679  1.00  0.00     0.049 A 
ATOM     61  H   UNL A   1      44.630  28.885  28.085  1.00  0.00     0.167 HD
ATOM     62  C   UNL A   1      47.203  30.102  28.019  1.00  0.00     0.074 A 
ATOM     63  C   UNL A   1      48.622  30.299  27.806  1.00  0.00     0.031 C 
ATOM     64  C   UNL A   1      46.358  31.061  28.470  1.00  0.00     0.037 A 
BRANCH  51  65
ATOM     65  C   UNL A   1      40.465  29.264  28.969  1.00  0.00     0.058 A 
ATOM     66  C   UNL A   1      39.522  29.553  27.971  1.00  0.00     0.135 A 
ATOM     67  C   UNL A   1      40.063  29.396  30.309  1.00  0.00     0.135 A 
ATOM     68  F   UNL A   1      39.849  29.434  26.674  1.00  0.00    -0.206 F 
ATOM     69  C   UNL A   1      38.237  29.981  28.288  1.00  0.00     0.059 A 
ATOM     70  C   UNL A   1      38.774  29.792  30.648  1.00  0.00     0.059 A 
ATOM     71  F   UNL A   1      40.919  29.107  31.303  1.00  0.00    -0.206 F 
ATOM     72  C   UNL A   1      37.873  30.100  29.630  1.00  0.00     0.060 A 
BRANCH  72  73
ATOM     73  S   UNL A   1      36.198  30.643  30.022  1.00  0.00     0.124 S 
ATOM     74  O   UNL A   1      35.955  29.973  31.294  1.00  0.00    -0.237 OA
ATOM     75  O   UNL A   1      36.354  32.093  30.083  1.00  0.00    -0.237 OA
ATOM     76  O   UNL A   1      35.410  30.154  28.894  1.00  0.00    -0.744 OA
ENDBRANCH  72  73
ENDBRANCH  51  65
BRANCH  52  77
ATOM     77  C   UNL A   1      49.742  26.448  26.452  1.00  0.00     0.058 A 
ATOM     78  C   UNL A   1      50.196  26.514  25.125  1.00  0.00     0.135 A 
ATOM     79  C   UNL A   1      50.627  25.949  27.419  1.00  0.00     0.135 A 
ATOM     80  F   UNL A   1      49.389  26.975  24.157  1.00  0.00    -0.206 F 
ATOM     81  C   UNL A   1      51.467  26.076  24.767  1.00  0.00     0.059 A 
ATOM     82  C   UNL A   1      51.914  25.531  27.090  1.00  0.00     0.059 A 
ATOM     83  F   UNL A   1      50.244  25.878  28.703  1.00  0.00    -0.206 F 
ATOM     84  C   UNL A   1      52.319  25.584  25.757  1.00  0.00     0.060 A 
BRANCH  84  85
ATOM     85  S   UNL A   1      53.961  25.012  25.268  1.00  0.00     0.124 S 
ATOM     86  O   UNL A   1      54.710  25.182  26.509  1.00  0.00    -0.237 OA
ATOM     87  O   UNL A   1      53.698  23.635  24.869  1.00  0.00    -0.237 OA
ATOM     88  O   UNL A   1      54.326  25.920  24.185  1.00  0.00    -0.744 OA
ENDBRANCH  84  85
ENDBRANCH  52  77
BRANCH  64  89
ATOM     89  C   UNL A   1      46.936  32.411  28.793  1.00  0.00     0.058 A 
ATOM     90  C   UNL A   1      47.038  33.396  27.797  1.00  0.00     0.135 A 
ATOM     91  C   UNL A   1      47.476  32.697  30.056  1.00  0.00     0.135 A 
ATOM     92  F   UNL A   1      46.544  33.171  26.569  1.00  0.00    -0.206 F 
ATOM     93  C   UNL A   1      47.678  34.607  28.035  1.00  0.00     0.059 A 
ATOM     94  C   UNL A   1      48.094  33.915  30.326  1.00  0.00     0.059 A 
ATOM     95  F   UNL A   1      47.396  31.793  31.045  1.00  0.00    -0.206 F 
ATOM     96  C   UNL A   1      48.207  34.856  29.302  1.00  0.00     0.060 A 
BRANCH  96  97
ATOM     97  S   UNL A   1      49.036  36.433  29.591  1.00  0.00     0.124 S 
ATOM     98  O   UNL A   1      48.293  36.959  30.730  1.00  0.00    -0.237 OA
ATOM     99  O   UNL A   1      50.407  36.013  29.865  1.00  0.00    -0.237 OA
ATOM    100  O   UNL A   1      48.848  37.150  28.333  1.00  0.00    -0.744 OA
ENDBRANCH  96  97
ENDBRANCH  64  89
ENDBRANCH  38  39
ENDBRANCH  30  33
ENDBRANCH  28  29
ENDBRANCH  27  28
ENDBRANCH   1  27
TORSDOF 19
ENDMDL
MODEL 3
REMARK VINA RESULT:     -11.0      3.166      9.542
REMARK SMILES CC[C@@](C)([NH2+]Cc1ccc(C(N)=O)cc1F)C(=O)NCCCCNC(=O)c1ccc(-c2c3nc(c(-c4c(F)cc(S(=O)(=O)[O-])cc4F)c4ccc([nH]4)c(-c4c(F)cc(S(=O)(=O)[O-])cc4F)c4nc(c(-c5c(F)cc(S(=O)(=O)[O-])cc5F)c5ccc2[nH]5)C=C4)C=C3)cc1
REMARK SMILES IDX 21 1 20 2 19 3 17 4 18 5 3 7 4 8 2 9 1 10 5 11 6 14 7 15
REMARK SMILES IDX 8 16 15 17 9 18 14 19 16 20 10 21 11 22 12 23 13 24 22 27
REMARK SMILES IDX 23 28 24 29 25 30 26 32 27 33 28 34 92 35 29 36 91 37 30 38
REMARK SMILES IDX 31 39 32 40 85 41 33 42 90 43 84 44 86 45 34 46 89 47 83 48
REMARK SMILES IDX 82 49 35 51 69 52 48 53 68 54 49 55 52 56 67 57 87 58 50 59
REMARK SMILES IDX 51 60 66 62 88 63 53 64 36 65 37 66 46 67 38 68 39 69 45 70
REMARK SMILES IDX 47 71 40 72 41 73 42 74 43 75 44 76 70 77 71 78 80 79 72 80
REMARK SMILES IDX 73 81 79 82 81 83 74 84 75 85 76 86 77 87 78 88 54 89 55 90
REMARK SMILES IDX 64 91 56 92 57 93 63 94 65 95 58 96 59 97 60 98 61 99 62 100
REMARK H PARENT 19 6 5 12 5 13 12 25 12 26 24 31 86 50 52 61
REMARK Flexibility Score: inf
ROOT
ATOM      1  C   UNL A   1      36.251  21.365  24.627  1.00  0.00     0.023 C 
ENDROOT
BRANCH   1   2
ATOM      2  C   UNL A   1      34.924  20.718  25.022  1.00  0.00     0.116 C 
BRANCH   2   3
ATOM      3  N   UNL A   1      34.567  21.101  26.365  1.00  0.00    -0.351 N 
ATOM      4  C   UNL A   1      33.671  22.012  26.835  1.00  0.00     0.281 C 
ATOM      5  O   UNL A   1      33.812  22.304  28.029  1.00  0.00    -0.268 OA
ATOM      6  H   UNL A   1      35.059  20.617  27.068  1.00  0.00     0.163 HD
BRANCH   4   7
ATOM      7  C   UNL A   1      32.479  22.582  25.979  1.00  0.00     0.172 C 
ATOM      8  C   UNL A   1      31.669  21.434  25.353  1.00  0.00     0.090 C 
BRANCH   7   9
ATOM      9  C   UNL A   1      31.520  23.323  26.999  1.00  0.00     0.075 C 
ATOM     10  C   UNL A   1      30.034  22.978  26.914  1.00  0.00     0.011 C 
ENDBRANCH   7   9
BRANCH   7  11
ATOM     11  N   UNL A   1      32.874  23.714  25.087  1.00  0.00    -0.330 N 
ATOM     12  H   UNL A   1      32.338  23.580  24.230  1.00  0.00     0.347 HD
ATOM     13  H   UNL A   1      33.889  23.618  25.120  1.00  0.00     0.347 HD
BRANCH  11  14
ATOM     14  C   UNL A   1      32.748  25.134  25.399  1.00  0.00     0.301 C 
BRANCH  14  15
ATOM     15  C   UNL A   1      31.925  25.985  24.460  1.00  0.00     0.042 A 
ATOM     16  C   UNL A   1      32.152  26.029  23.081  1.00  0.00     0.013 A 
ATOM     17  C   UNL A   1      30.905  26.797  24.976  1.00  0.00     0.132 A 
ATOM     18  C   UNL A   1      31.559  27.025  22.299  1.00  0.00     0.014 A 
ATOM     19  C   UNL A   1      30.294  27.782  24.211  1.00  0.00     0.053 A 
ATOM     20  F   UNL A   1      30.538  26.669  26.258  1.00  0.00    -0.206 F 
ATOM     21  C   UNL A   1      30.676  27.944  22.879  1.00  0.00     0.042 A 
BRANCH  21  22
ATOM     22  C   UNL A   1      30.139  29.105  22.126  1.00  0.00     0.248 C 
ATOM     23  N   UNL A   1      31.034  30.040  21.688  1.00  0.00    -0.366 N 
ATOM     24  O   UNL A   1      28.937  29.254  21.947  1.00  0.00    -0.270 OA
ATOM     25  H   UNL A   1      31.999  29.907  21.839  1.00  0.00     0.159 HD
ATOM     26  H   UNL A   1      30.717  30.846  21.220  1.00  0.00     0.159 HD
ENDBRANCH  21  22
ENDBRANCH  14  15
ENDBRANCH  11  14
ENDBRANCH   7  11
ENDBRANCH   4   7
ENDBRANCH   2   3
ENDBRANCH   1   2
BRANCH   1  27
ATOM     27  C   UNL A   1      36.209  22.881  24.543  1.00  0.00     0.023 C 
BRANCH  27  28
ATOM     28  C   UNL A   1      37.323  23.575  25.310  1.00  0.00     0.116 C 
BRANCH  28  29
ATOM     29  N   UNL A   1      38.511  22.752  25.508  1.00  0.00    -0.352 N 
ATOM     30  C   UNL A   1      39.659  23.083  26.193  1.00  0.00     0.251 C 
ATOM     31  H   UNL A   1      38.490  21.853  25.104  1.00  0.00     0.163 HD
ATOM     32  O   UNL A   1      40.629  22.335  26.205  1.00  0.00    -0.269 OA
BRANCH  30  33
ATOM     33  C   UNL A   1      39.704  24.393  26.871  1.00  0.00     0.039 A 
ATOM     34  C   UNL A   1      39.161  24.514  28.148  1.00  0.00     0.014 A 
ATOM     35  C   UNL A   1      40.414  25.448  26.289  1.00  0.00     0.014 A 
ATOM     36  C   UNL A   1      39.408  25.674  28.884  1.00  0.00     0.010 A 
ATOM     37  C   UNL A   1      40.748  26.549  27.064  1.00  0.00     0.010 A 
ATOM     38  C   UNL A   1      40.245  26.677  28.368  1.00  0.00    -0.014 A 
BRANCH  38  39
ATOM     39  C   UNL A   1      40.606  27.874  29.169  1.00  0.00     0.031 A 
ATOM     40  C   UNL A   1      41.927  27.918  29.886  1.00  0.00     0.074 A 
ATOM     41  C   UNL A   1      39.726  28.888  29.299  1.00  0.00     0.049 A 
ATOM     42  N   UNL A   1      42.399  28.835  30.689  1.00  0.00    -0.248 NA
ATOM     43  C   UNL A   1      42.825  26.763  29.705  1.00  0.00     0.031 C 
ATOM     44  C   UNL A   1      38.393  28.937  28.693  1.00  0.00     0.029 A 
ATOM     45  N   UNL A   1      39.818  30.075  29.984  1.00  0.00    -0.354 N 
ATOM     46  C   UNL A   1      43.637  28.366  31.109  1.00  0.00     0.074 A 
ATOM     47  C   UNL A   1      43.815  27.053  30.535  1.00  0.00     0.031 C 
ATOM     48  C   UNL A   1      37.811  30.109  28.997  1.00  0.00     0.029 A 
ATOM     49  C   UNL A   1      38.707  30.877  29.857  1.00  0.00     0.049 A 
ATOM     50  H   UNL A   1      40.607  30.328  30.515  1.00  0.00     0.167 HD
ATOM     51  C   UNL A   1      44.562  28.991  31.874  1.00  0.00     0.037 A 
ATOM     52  C   UNL A   1      38.439  32.092  30.377  1.00  0.00     0.037 A 
ATOM     53  C   UNL A   1      44.393  30.314  32.412  1.00  0.00     0.049 A 
ATOM     54  C   UNL A   1      39.477  32.759  31.239  1.00  0.00     0.074 A 
ATOM     55  C   UNL A   1      45.291  31.057  33.157  1.00  0.00     0.029 A 
ATOM     56  N   UNL A   1      43.255  31.093  32.261  1.00  0.00    -0.354 N 
ATOM     57  N   UNL A   1      40.666  32.324  31.582  1.00  0.00    -0.248 NA
ATOM     58  C   UNL A   1      39.141  34.083  31.784  1.00  0.00     0.031 C 
ATOM     59  C   UNL A   1      44.677  32.265  33.500  1.00  0.00     0.029 A 
ATOM     60  C   UNL A   1      43.420  32.300  32.919  1.00  0.00     0.049 A 
ATOM     61  H   UNL A   1      42.450  30.828  31.760  1.00  0.00     0.167 HD
ATOM     62  C   UNL A   1      41.231  33.329  32.361  1.00  0.00     0.074 A 
ATOM     63  C   UNL A   1      40.257  34.400  32.428  1.00  0.00     0.031 C 
ATOM     64  C   UNL A   1      42.442  33.361  32.967  1.00  0.00     0.037 A 
BRANCH  51  65
ATOM     65  C   UNL A   1      45.850  28.268  32.155  1.00  0.00     0.058 A 
ATOM     66  C   UNL A   1      45.991  27.482  33.309  1.00  0.00     0.135 A 
ATOM     67  C   UNL A   1      46.969  28.407  31.316  1.00  0.00     0.135 A 
ATOM     68  F   UNL A   1      44.952  27.306  34.142  1.00  0.00    -0.206 F 
ATOM     69  C   UNL A   1      47.202  26.878  33.634  1.00  0.00     0.059 A 
ATOM     70  C   UNL A   1      48.179  27.787  31.605  1.00  0.00     0.059 A 
ATOM     71  F   UNL A   1      46.880  29.126  30.186  1.00  0.00    -0.206 F 
ATOM     72  C   UNL A   1      48.291  27.038  32.776  1.00  0.00     0.060 A 
BRANCH  72  73
ATOM     73  S   UNL A   1      49.849  26.236  33.206  1.00  0.00     0.124 S 
ATOM     74  O   UNL A   1      50.817  27.292  32.930  1.00  0.00    -0.237 OA
ATOM     75  O   UNL A   1      49.645  25.909  34.614  1.00  0.00    -0.237 OA
ATOM     76  O   UNL A   1      49.898  25.087  32.306  1.00  0.00    -0.744 OA
ENDBRANCH  72  73
ENDBRANCH  51  65
BRANCH  52  77
ATOM     77  C   UNL A   1      37.149  32.766  30.065  1.00  0.00     0.058 A 
ATOM     78  C   UNL A   1      37.041  33.686  29.009  1.00  0.00     0.135 A 
ATOM     79  C   UNL A   1      36.003  32.525  30.837  1.00  0.00     0.135 A 
ATOM     80  F   UNL A   1      38.107  33.963  28.243  1.00  0.00    -0.206 F 
ATOM     81  C   UNL A   1      35.852  34.359  28.748  1.00  0.00     0.059 A 
ATOM     82  C   UNL A   1      34.794  33.165  30.577  1.00  0.00     0.059 A 
ATOM     83  F   UNL A   1      36.052  31.645  31.850  1.00  0.00    -0.206 F 
ATOM     84  C   UNL A   1      34.733  34.093  29.540  1.00  0.00     0.060 A 
BRANCH  84  85
ATOM     85  S   UNL A   1      33.203  34.985  29.188  1.00  0.00     0.124 S 
ATOM     86  O   UNL A   1      32.561  34.992  30.498  1.00  0.00    -0.237 OA
ATOM     87  O   UNL A   1      33.702  36.273  28.719  1.00  0.00    -0.237 OA
ATOM     88  O   UNL A   1      32.555  34.158  28.175  1.00  0.00    -0.744 OA
ENDBRANCH  84  85
ENDBRANCH  52  77
BRANCH  64  89
ATOM     89  C   UNL A   1      42.811  34.596  33.740  1.00  0.00     0.058 A 
ATOM     90  C   UNL A   1      43.475  35.659  33.106  1.00  0.00     0.135 A 
ATOM     91  C   UNL A   1      42.597  34.689  35.124  1.00  0.00     0.135 A 
ATOM     92  F   UNL A   1      43.711  35.618  31.785  1.00  0.00    -0.206 F 
ATOM     93  C   UNL A   1      43.937  36.758  33.820  1.00  0.00     0.059 A 
ATOM     94  C   UNL A   1      43.023  35.795  35.854  1.00  0.00     0.059 A 
ATOM     95  F   UNL A   1      41.959  33.705  35.776  1.00  0.00    -0.206 F 
ATOM     96  C   UNL A   1      43.709  36.815  35.196  1.00  0.00     0.060 A 
BRANCH  96  97
ATOM     97  S   UNL A   1      44.318  38.250  36.107  1.00  0.00     0.124 S 
ATOM     98  O   UNL A   1      45.741  37.953  36.219  1.00  0.00    -0.237 OA
ATOM     99  O   UNL A   1      43.967  39.351  35.214  1.00  0.00    -0.237 OA
ATOM    100  O   UNL A   1      43.565  38.202  37.357  1.00  0.00    -0.744 OA
ENDBRANCH  96  97
ENDBRANCH  64  89
ENDBRANCH  38  39
ENDBRANCH  30  33
ENDBRANCH  28  29
ENDBRANCH  27  28
ENDBRANCH   1  27
TORSDOF 19
ENDMDL
