MODEL 1
REMARK VINA RESULT:     -13.9      0.000      0.000
REMARK SMILES O=C(NCCCCNC(=O)[C@@]12C[C@H]3C[C@@H](C1)C[C@](n1cc([N+](=O)[O-])cn1)(C3)C2)c1ccc(-c2c3nc(c(-c4c(F)cc(S(=O)(=O)[O-])cc4F)c4ccc([nH]4)c(-c4c(F)cc(S(=O)(=O)[O-])cc4F)c4nc(c(-c5c(F)cc(S(=O)(=O)[O-])cc5F)c5ccc2[nH]5)C=C4)C=C3)cc1
REMARK SMILES IDX 5 1 4 2 3 3 1 4 2 5 29 7 30 8 94 9 31 10 93 11 32 12 33 13
REMARK SMILES IDX 34 14 87 15 35 16 92 17 86 18 88 19 36 20 91 21 85 22 84 23
REMARK SMILES IDX 37 25 71 26 50 27 70 28 51 29 54 30 69 31 89 32 52 33 53 34
REMARK SMILES IDX 68 36 90 37 55 38 38 39 39 40 48 41 40 42 41 43 47 44 49 45
REMARK SMILES IDX 42 46 43 47 44 48 45 49 46 50 72 51 73 52 82 53 74 54 75 55
REMARK SMILES IDX 81 56 83 57 76 58 77 59 78 60 79 61 80 62 56 63 57 64 66 65
REMARK SMILES IDX 58 66 59 67 65 68 67 69 60 70 61 71 62 72 63 73 64 74 6 75
REMARK SMILES IDX 7 76 8 77 9 78 10 80 11 81 12 82 16 83 28 84 13 85 15 86
REMARK SMILES IDX 18 87 14 88 27 89 17 90 19 91 20 92 26 93 21 94 25 95 22 96
REMARK SMILES IDX 23 97 24 98
REMARK H PARENT 3 6 88 24 54 35 8 79
REMARK Flexibility Score: inf
ROOT
ATOM      1  C   UNL A   1      32.614  28.433  26.988  1.00  0.00     0.023 C 
ENDROOT
BRANCH   1   2
ATOM      2  C   UNL A   1      33.480  29.602  26.510  1.00  0.00     0.116 C 
BRANCH   2   3
ATOM      3  N   UNL A   1      33.375  30.820  27.290  1.00  0.00    -0.352 N 
ATOM      4  O   UNL A   1      33.852  32.671  28.406  1.00  0.00    -0.269 OA
ATOM      5  C   UNL A   1      34.267  31.585  27.995  1.00  0.00     0.251 C 
ATOM      6  H   UNL A   1      32.459  31.178  27.319  1.00  0.00     0.163 HD
BRANCH   5   7
ATOM      7  C   UNL A   1      35.652  31.167  28.348  1.00  0.00     0.039 A 
ATOM      8  C   UNL A   1      36.657  32.013  28.819  1.00  0.00     0.014 A 
ATOM      9  C   UNL A   1      35.954  29.803  28.173  1.00  0.00     0.014 A 
ATOM     10  C   UNL A   1      37.953  31.540  29.005  1.00  0.00     0.010 A 
ATOM     11  C   UNL A   1      37.240  29.317  28.390  1.00  0.00     0.010 A 
ATOM     12  C   UNL A   1      38.250  30.197  28.771  1.00  0.00    -0.014 A 
BRANCH  12  13
ATOM     13  C   UNL A   1      39.607  29.735  29.061  1.00  0.00     0.031 A 
ATOM     14  C   UNL A   1      39.942  29.565  30.506  1.00  0.00     0.074 A 
ATOM     15  C   UNL A   1      40.468  29.319  28.109  1.00  0.00     0.049 A 
ATOM     16  N   UNL A   1      40.888  30.121  31.192  1.00  0.00    -0.248 NA
ATOM     17  C   UNL A   1      39.052  28.708  31.307  1.00  0.00     0.031 C 
ATOM     18  C   UNL A   1      40.196  29.111  26.686  1.00  0.00     0.029 A 
ATOM     19  N   UNL A   1      41.749  28.874  28.251  1.00  0.00    -0.354 N 
ATOM     20  C   UNL A   1      40.832  29.552  32.465  1.00  0.00     0.074 A 
ATOM     21  C   UNL A   1      39.612  28.787  32.513  1.00  0.00     0.031 C 
ATOM     22  C   UNL A   1      41.194  28.374  26.151  1.00  0.00     0.029 A 
ATOM     23  C   UNL A   1      42.225  28.168  27.155  1.00  0.00     0.049 A 
ATOM     24  H   UNL A   1      42.287  29.038  29.059  1.00  0.00     0.167 HD
ATOM     25  C   UNL A   1      41.876  29.597  33.340  1.00  0.00     0.037 A 
ATOM     26  C   UNL A   1      43.341  27.398  27.108  1.00  0.00     0.037 A 
ATOM     27  C   UNL A   1      42.842  30.595  32.973  1.00  0.00     0.049 A 
ATOM     28  C   UNL A   1      44.224  27.809  28.230  1.00  0.00     0.074 A 
ATOM     29  C   UNL A   1      42.818  31.966  32.814  1.00  0.00     0.029 A 
ATOM     30  N   UNL A   1      44.018  30.178  32.400  1.00  0.00    -0.354 N 
ATOM     31  N   UNL A   1      44.831  28.960  28.308  1.00  0.00    -0.248 NA
ATOM     32  C   UNL A   1      44.128  27.071  29.480  1.00  0.00     0.031 C 
ATOM     33  C   UNL A   1      43.721  32.233  31.744  1.00  0.00     0.029 A 
ATOM     34  C   UNL A   1      44.261  31.011  31.340  1.00  0.00     0.049 A 
ATOM     35  H   UNL A   1      44.579  29.424  32.695  1.00  0.00     0.167 HD
ATOM     36  C   UNL A   1      44.821  29.278  29.658  1.00  0.00     0.074 A 
ATOM     37  C   UNL A   1      44.475  28.034  30.337  1.00  0.00     0.031 C 
ATOM     38  C   UNL A   1      44.824  30.575  30.082  1.00  0.00     0.037 A 
BRANCH  25  39
ATOM     39  C   UNL A   1      42.187  28.529  34.363  1.00  0.00     0.058 A 
ATOM     40  C   UNL A   1      42.180  28.852  35.736  1.00  0.00     0.135 A 
ATOM     41  C   UNL A   1      42.772  27.288  34.030  1.00  0.00     0.135 A 
ATOM     42  F   UNL A   1      41.655  30.011  36.165  1.00  0.00    -0.206 F 
ATOM     43  C   UNL A   1      42.780  28.037  36.699  1.00  0.00     0.059 A 
ATOM     44  C   UNL A   1      43.326  26.436  34.980  1.00  0.00     0.059 A 
ATOM     45  F   UNL A   1      42.923  26.893  32.759  1.00  0.00    -0.206 F 
ATOM     46  C   UNL A   1      43.370  26.840  36.305  1.00  0.00     0.060 A 
BRANCH  46  47
ATOM     47  S   UNL A   1      44.266  25.853  37.518  1.00  0.00     0.124 S 
ATOM     48  O   UNL A   1      43.847  24.505  37.158  1.00  0.00    -0.237 OA
ATOM     49  O   UNL A   1      45.655  26.192  37.223  1.00  0.00    -0.237 OA
ATOM     50  O   UNL A   1      43.763  26.354  38.794  1.00  0.00    -0.744 OA
ENDBRANCH  46  47
ENDBRANCH  25  39
BRANCH  26  51
ATOM     51  C   UNL A   1      43.539  26.128  26.360  1.00  0.00     0.058 A 
ATOM     52  C   UNL A   1      44.624  25.960  25.481  1.00  0.00     0.135 A 
ATOM     53  C   UNL A   1      42.827  24.958  26.698  1.00  0.00     0.135 A 
ATOM     54  F   UNL A   1      45.376  27.013  25.128  1.00  0.00    -0.206 F 
ATOM     55  C   UNL A   1      45.006  24.703  25.000  1.00  0.00     0.059 A 
ATOM     56  C   UNL A   1      43.179  23.698  26.219  1.00  0.00     0.059 A 
ATOM     57  F   UNL A   1      41.821  24.990  27.584  1.00  0.00    -0.206 F 
ATOM     58  C   UNL A   1      44.287  23.574  25.391  1.00  0.00     0.060 A 
BRANCH  58  59
ATOM     59  S   UNL A   1      44.877  21.932  24.917  1.00  0.00     0.124 S 
ATOM     60  O   UNL A   1      44.009  21.061  25.702  1.00  0.00    -0.237 OA
ATOM     61  O   UNL A   1      44.652  21.928  23.475  1.00  0.00    -0.237 OA
ATOM     62  O   UNL A   1      46.279  21.945  25.325  1.00  0.00    -0.744 OA
ENDBRANCH  58  59
ENDBRANCH  26  51
BRANCH  38  63
ATOM     63  C   UNL A   1      45.176  31.653  29.092  1.00  0.00     0.058 A 
ATOM     64  C   UNL A   1      46.485  32.107  28.851  1.00  0.00     0.135 A 
ATOM     65  C   UNL A   1      44.167  32.128  28.241  1.00  0.00     0.135 A 
ATOM     66  F   UNL A   1      47.523  31.622  29.547  1.00  0.00    -0.206 F 
ATOM     67  C   UNL A   1      46.769  33.022  27.837  1.00  0.00     0.059 A 
ATOM     68  C   UNL A   1      44.432  33.015  27.202  1.00  0.00     0.059 A 
ATOM     69  F   UNL A   1      42.906  31.682  28.379  1.00  0.00    -0.206 F 
ATOM     70  C   UNL A   1      45.737  33.468  27.013  1.00  0.00     0.060 A 
BRANCH  70  71
ATOM     71  S   UNL A   1      46.122  34.571  25.636  1.00  0.00     0.124 S 
ATOM     72  O   UNL A   1      45.168  34.132  24.617  1.00  0.00    -0.237 OA
ATOM     73  O   UNL A   1      45.864  35.894  26.209  1.00  0.00    -0.237 OA
ATOM     74  O   UNL A   1      47.517  34.289  25.349  1.00  0.00    -0.744 OA
ENDBRANCH  70  71
ENDBRANCH  38  63
ENDBRANCH  12  13
ENDBRANCH   5   7
ENDBRANCH   2   3
ENDBRANCH   1   2
BRANCH   1  75
ATOM     75  C   UNL A   1      33.020  27.056  26.468  1.00  0.00     0.023 C 
BRANCH  75  76
ATOM     76  C   UNL A   1      31.903  26.259  25.811  1.00  0.00     0.116 C 
BRANCH  76  77
ATOM     77  N   UNL A   1      31.376  25.176  26.641  1.00  0.00    -0.356 N 
ATOM     78  C   UNL A   1      31.557  23.816  26.600  1.00  0.00     0.226 C 
ATOM     79  H   UNL A   1      30.781  25.478  27.365  1.00  0.00     0.163 HD
ATOM     80  O   UNL A   1      31.110  23.149  27.535  1.00  0.00    -0.274 OA
BRANCH  78  81
ATOM     81  C   UNL A   1      32.315  23.149  25.440  1.00  0.00     0.052 C 
ATOM     82  C   UNL A   1      31.984  23.751  24.045  1.00  0.00     0.020 C 
ATOM     83  C   UNL A   1      33.840  23.299  25.639  1.00  0.00     0.020 C 
ATOM     84  C   UNL A   1      31.848  21.698  25.335  1.00  0.00     0.047 C 
ATOM     85  C   UNL A   1      32.752  22.983  22.932  1.00  0.00    -0.007 C 
ATOM     86  C   UNL A   1      34.608  22.528  24.560  1.00  0.00    -0.007 C 
ATOM     87  C   UNL A   1      32.689  20.869  24.338  1.00  0.00     0.065 C 
ATOM     88  C   UNL A   1      34.259  23.118  23.187  1.00  0.00     0.007 C 
ATOM     89  C   UNL A   1      32.392  21.477  22.941  1.00  0.00     0.034 C 
ATOM     90  C   UNL A   1      34.203  21.043  24.624  1.00  0.00     0.034 C 
BRANCH  87  91
ATOM     91  N   UNL A   1      32.269  19.461  24.513  1.00  0.00    -0.259 N 
ATOM     92  C   UNL A   1      32.511  18.500  23.540  1.00  0.00     0.195 A 
ATOM     93  N   UNL A   1      32.238  18.903  25.750  1.00  0.00    -0.173 NA
ATOM     94  C   UNL A   1      33.170  17.501  24.229  1.00  0.00     0.307 A 
ATOM     95  C   UNL A   1      32.858  17.728  25.577  1.00  0.00     0.220 A 
BRANCH  94  96
ATOM     96  N   UNL A   1      34.090  16.559  23.684  1.00  0.00     0.066 N 
ATOM     97  O   UNL A   1      34.219  16.545  22.456  1.00  0.00    -0.258 OA
ATOM     98  O   UNL A   1      34.624  15.781  24.489  1.00  0.00    -0.258 OA
ENDBRANCH  94  96
ENDBRANCH  87  91
ENDBRANCH  78  81
ENDBRANCH  76  77
ENDBRANCH  75  76
ENDBRANCH   1  75
TORSDOF 16
ENDMDL
MODEL 2
REMARK VINA RESULT:     -13.3      1.488      2.284
REMARK SMILES O=C(NCCCCNC(=O)[C@@]12C[C@H]3C[C@@H](C1)C[C@](n1cc([N+](=O)[O-])cn1)(C3)C2)c1ccc(-c2c3nc(c(-c4c(F)cc(S(=O)(=O)[O-])cc4F)c4ccc([nH]4)c(-c4c(F)cc(S(=O)(=O)[O-])cc4F)c4nc(c(-c5c(F)cc(S(=O)(=O)[O-])cc5F)c5ccc2[nH]5)C=C4)C=C3)cc1
REMARK SMILES IDX 5 1 4 2 3 3 1 4 2 5 29 7 30 8 94 9 31 10 93 11 32 12 33 13
REMARK SMILES IDX 34 14 87 15 35 16 92 17 86 18 88 19 36 20 91 21 85 22 84 23
REMARK SMILES IDX 37 25 71 26 50 27 70 28 51 29 54 30 69 31 89 32 52 33 53 34
REMARK SMILES IDX 68 36 90 37 55 38 38 39 39 40 48 41 40 42 41 43 47 44 49 45
REMARK SMILES IDX 42 46 43 47 44 48 45 49 46 50 72 51 73 52 82 53 74 54 75 55
REMARK SMILES IDX 81 56 83 57 76 58 77 59 78 60 79 61 80 62 56 63 57 64 66 65
REMARK SMILES IDX 58 66 59 67 65 68 67 69 60 70 61 71 62 72 63 73 64 74 6 75
REMARK SMILES IDX 7 76 8 77 9 78 10 80 11 81 12 82 16 83 28 84 13 85 15 86
REMARK SMILES IDX 18 87 14 88 27 89 17 90 19 91 20 92 26 93 21 94 25 95 22 96
REMARK SMILES IDX 23 97 24 98
REMARK H PARENT 3 6 88 24 54 35 8 79
REMARK Flexibility Score: inf
ROOT
ATOM      1  C   UNL A   1      32.739  29.571  25.156  1.00  0.00     0.023 C 
ENDROOT
BRANCH   1   2
ATOM      2  C   UNL A   1      33.676  29.579  26.368  1.00  0.00     0.116 C 
BRANCH   2   3
ATOM      3  N   UNL A   1      33.574  30.740  27.232  1.00  0.00    -0.352 N 
ATOM      4  O   UNL A   1      34.055  32.503  28.479  1.00  0.00    -0.269 OA
ATOM      5  C   UNL A   1      34.466  31.445  27.996  1.00  0.00     0.251 C 
ATOM      6  H   UNL A   1      32.660  31.101  27.279  1.00  0.00     0.163 HD
BRANCH   5   7
ATOM      7  C   UNL A   1      35.845  30.993  28.329  1.00  0.00     0.039 A 
ATOM      8  C   UNL A   1      36.883  31.817  28.765  1.00  0.00     0.014 A 
ATOM      9  C   UNL A   1      36.103  29.618  28.170  1.00  0.00     0.014 A 
ATOM     10  C   UNL A   1      38.169  31.308  28.934  1.00  0.00     0.010 A 
ATOM     11  C   UNL A   1      37.379  29.098  28.369  1.00  0.00     0.010 A 
ATOM     12  C   UNL A   1      38.421  29.953  28.717  1.00  0.00    -0.014 A 
BRANCH  12  13
ATOM     13  C   UNL A   1      39.770  29.456  28.987  1.00  0.00     0.031 A 
ATOM     14  C   UNL A   1      40.151  29.361  30.428  1.00  0.00     0.074 A 
ATOM     15  C   UNL A   1      40.578  28.949  28.034  1.00  0.00     0.049 A 
ATOM     16  N   UNL A   1      41.143  29.921  31.044  1.00  0.00    -0.248 NA
ATOM     17  C   UNL A   1      39.261  28.591  31.311  1.00  0.00     0.031 C 
ATOM     18  C   UNL A   1      40.246  28.666  26.637  1.00  0.00     0.029 A 
ATOM     19  N   UNL A   1      41.846  28.463  28.159  1.00  0.00    -0.354 N 
ATOM     20  C   UNL A   1      41.112  29.433  32.352  1.00  0.00     0.074 A 
ATOM     21  C   UNL A   1      39.867  28.722  32.490  1.00  0.00     0.031 C 
ATOM     22  C   UNL A   1      41.196  27.858  26.114  1.00  0.00     0.029 A 
ATOM     23  C   UNL A   1      42.255  27.673  27.093  1.00  0.00     0.049 A 
ATOM     24  H   UNL A   1      42.420  28.655  28.936  1.00  0.00     0.167 HD
ATOM     25  C   UNL A   1      42.189  29.490  33.185  1.00  0.00     0.037 A 
ATOM     26  C   UNL A   1      43.338  26.858  27.056  1.00  0.00     0.037 A 
ATOM     27  C   UNL A   1      43.178  30.425  32.723  1.00  0.00     0.049 A 
ATOM     28  C   UNL A   1      44.278  27.301  28.118  1.00  0.00     0.074 A 
ATOM     29  C   UNL A   1      43.199  31.784  32.480  1.00  0.00     0.029 A 
ATOM     30  N   UNL A   1      44.315  29.927  32.137  1.00  0.00    -0.354 N 
ATOM     31  N   UNL A   1      44.930  28.430  28.103  1.00  0.00    -0.248 NA
ATOM     32  C   UNL A   1      44.200  26.646  29.415  1.00  0.00     0.031 C 
ATOM     33  C   UNL A   1      44.071  31.948  31.365  1.00  0.00     0.029 A 
ATOM     34  C   UNL A   1      44.549  30.683  31.019  1.00  0.00     0.049 A 
ATOM     35  H   UNL A   1      44.858  29.171  32.459  1.00  0.00     0.167 HD
ATOM     36  C   UNL A   1      44.981  28.830  29.430  1.00  0.00     0.074 A 
ATOM     37  C   UNL A   1      44.614  27.645  30.198  1.00  0.00     0.031 C 
ATOM     38  C   UNL A   1      45.049  30.150  29.772  1.00  0.00     0.037 A 
BRANCH  25  39
ATOM     39  C   UNL A   1      42.497  28.475  34.262  1.00  0.00     0.058 A 
ATOM     40  C   UNL A   1      42.477  28.864  35.618  1.00  0.00     0.135 A 
ATOM     41  C   UNL A   1      43.092  27.223  33.995  1.00  0.00     0.135 A 
ATOM     42  F   UNL A   1      41.942  30.040  35.985  1.00  0.00    -0.206 F 
ATOM     43  C   UNL A   1      43.073  28.101  36.624  1.00  0.00     0.059 A 
ATOM     44  C   UNL A   1      43.644  26.421  34.989  1.00  0.00     0.059 A 
ATOM     45  F   UNL A   1      43.256  26.767  32.746  1.00  0.00    -0.206 F 
ATOM     46  C   UNL A   1      43.674  26.890  36.293  1.00  0.00     0.060 A 
BRANCH  46  47
ATOM     47  S   UNL A   1      44.565  25.969  37.560  1.00  0.00     0.124 S 
ATOM     48  O   UNL A   1      44.092  24.612  37.316  1.00  0.00    -0.237 OA
ATOM     49  O   UNL A   1      45.957  26.234  37.210  1.00  0.00    -0.237 OA
ATOM     50  O   UNL A   1      44.111  26.584  38.804  1.00  0.00    -0.744 OA
ENDBRANCH  46  47
ENDBRANCH  25  39
BRANCH  26  51
ATOM     51  C   UNL A   1      43.461  25.538  26.382  1.00  0.00     0.058 A 
ATOM     52  C   UNL A   1      44.401  25.325  25.358  1.00  0.00     0.135 A 
ATOM     53  C   UNL A   1      42.851  24.383  26.915  1.00  0.00     0.135 A 
ATOM     54  F   UNL A   1      45.051  26.364  24.812  1.00  0.00    -0.206 F 
ATOM     55  C   UNL A   1      44.746  24.043  24.917  1.00  0.00     0.059 A 
ATOM     56  C   UNL A   1      43.167  23.097  26.480  1.00  0.00     0.059 A 
ATOM     57  F   UNL A   1      41.995  24.461  27.944  1.00  0.00    -0.206 F 
ATOM     58  C   UNL A   1      44.136  22.933  25.499  1.00  0.00     0.060 A 
BRANCH  58  59
ATOM     59  S   UNL A   1      44.701  21.272  25.061  1.00  0.00     0.124 S 
ATOM     60  O   UNL A   1      44.580  21.285  23.608  1.00  0.00    -0.237 OA
ATOM     61  O   UNL A   1      46.061  21.260  25.590  1.00  0.00    -0.237 OA
ATOM     62  O   UNL A   1      43.759  20.399  25.757  1.00  0.00    -0.744 OA
ENDBRANCH  58  59
ENDBRANCH  26  51
BRANCH  38  63
ATOM     63  C   UNL A   1      45.405  31.150  28.706  1.00  0.00     0.058 A 
ATOM     64  C   UNL A   1      44.495  31.652  27.759  1.00  0.00     0.135 A 
ATOM     65  C   UNL A   1      46.676  31.743  28.749  1.00  0.00     0.135 A 
ATOM     66  F   UNL A   1      43.227  31.217  27.722  1.00  0.00    -0.206 F 
ATOM     67  C   UNL A   1      44.847  32.668  26.870  1.00  0.00     0.059 A 
ATOM     68  C   UNL A   1      47.038  32.780  27.894  1.00  0.00     0.059 A 
ATOM     69  F   UNL A   1      47.569  31.352  29.674  1.00  0.00    -0.206 F 
ATOM     70  C   UNL A   1      46.120  33.231  26.948  1.00  0.00     0.060 A 
BRANCH  70  71
ATOM     71  S   UNL A   1      46.539  34.615  25.866  1.00  0.00     0.124 S 
ATOM     72  O   UNL A   1      46.354  35.763  26.755  1.00  0.00    -0.237 OA
ATOM     73  O   UNL A   1      47.927  34.322  25.500  1.00  0.00    -0.237 OA
ATOM     74  O   UNL A   1      45.582  34.505  24.779  1.00  0.00    -0.744 OA
ENDBRANCH  70  71
ENDBRANCH  38  63
ENDBRANCH  12  13
ENDBRANCH   5   7
ENDBRANCH   2   3
ENDBRANCH   1   2
BRANCH   1  75
ATOM     75  C   UNL A   1      33.399  29.260  23.815  1.00  0.00     0.023 C 
BRANCH  75  76
ATOM     76  C   UNL A   1      32.473  28.673  22.761  1.00  0.00     0.116 C 
BRANCH  76  77
ATOM     77  N   UNL A   1      33.066  27.580  21.989  1.00  0.00    -0.356 N 
ATOM     78  C   UNL A   1      33.177  26.235  22.238  1.00  0.00     0.226 C 
ATOM     79  H   UNL A   1      33.458  27.862  21.131  1.00  0.00     0.163 HD
ATOM     80  O   UNL A   1      33.591  25.516  21.327  1.00  0.00    -0.274 OA
BRANCH  78  81
ATOM     81  C   UNL A   1      32.775  25.642  23.598  1.00  0.00     0.052 C 
ATOM     82  C   UNL A   1      33.723  26.043  24.764  1.00  0.00     0.020 C 
ATOM     83  C   UNL A   1      31.359  26.118  23.993  1.00  0.00     0.020 C 
ATOM     84  C   UNL A   1      32.913  24.122  23.517  1.00  0.00     0.047 C 
ATOM     85  C   UNL A   1      33.271  25.357  26.084  1.00  0.00    -0.007 C 
ATOM     86  C   UNL A   1      30.894  25.432  25.282  1.00  0.00    -0.007 C 
ATOM     87  C   UNL A   1      32.339  23.402  24.759  1.00  0.00     0.065 C 
ATOM     88  C   UNL A   1      31.848  25.820  26.421  1.00  0.00     0.007 C 
ATOM     89  C   UNL A   1      33.259  23.816  25.939  1.00  0.00     0.034 C 
ATOM     90  C   UNL A   1      30.907  23.906  25.068  1.00  0.00     0.034 C 
BRANCH  87  91
ATOM     91  N   UNL A   1      32.341  21.957  24.436  1.00  0.00    -0.259 N 
ATOM     92  C   UNL A   1      33.419  21.352  23.803  1.00  0.00     0.195 A 
ATOM     93  N   UNL A   1      31.690  21.075  25.236  1.00  0.00    -0.173 NA
ATOM     94  C   UNL A   1      33.737  20.301  24.640  1.00  0.00     0.307 A 
ATOM     95  C   UNL A   1      32.585  20.094  25.411  1.00  0.00     0.220 A 
BRANCH  94  96
ATOM     96  N   UNL A   1      35.015  19.687  24.782  1.00  0.00     0.066 N 
ATOM     97  O   UNL A   1      35.972  20.429  25.026  1.00  0.00    -0.258 OA
ATOM     98  O   UNL A   1      35.066  18.465  24.572  1.00  0.00    -0.258 OA
ENDBRANCH  94  96
ENDBRANCH  87  91
ENDBRANCH  78  81
ENDBRANCH  76  77
ENDBRANCH  75  76
ENDBRANCH   1  75
TORSDOF 16
ENDMDL
MODEL 3
REMARK VINA RESULT:     -13.2      1.843      2.527
REMARK SMILES O=C(NCCCCNC(=O)[C@@]12C[C@H]3C[C@@H](C1)C[C@](n1cc([N+](=O)[O-])cn1)(C3)C2)c1ccc(-c2c3nc(c(-c4c(F)cc(S(=O)(=O)[O-])cc4F)c4ccc([nH]4)c(-c4c(F)cc(S(=O)(=O)[O-])cc4F)c4nc(c(-c5c(F)cc(S(=O)(=O)[O-])cc5F)c5ccc2[nH]5)C=C4)C=C3)cc1
REMARK SMILES IDX 5 1 4 2 3 3 1 4 2 5 29 7 30 8 94 9 31 10 93 11 32 12 33 13
REMARK SMILES IDX 34 14 87 15 35 16 92 17 86 18 88 19 36 20 91 21 85 22 84 23
REMARK SMILES IDX 37 25 71 26 50 27 70 28 51 29 54 30 69 31 89 32 52 33 53 34
REMARK SMILES IDX 68 36 90 37 55 38 38 39 39 40 48 41 40 42 41 43 47 44 49 45
REMARK SMILES IDX 42 46 43 47 44 48 45 49 46 50 72 51 73 52 82 53 74 54 75 55
REMARK SMILES IDX 81 56 83 57 76 58 77 59 78 60 79 61 80 62 56 63 57 64 66 65
REMARK SMILES IDX 58 66 59 67 65 68 67 69 60 70 61 71 62 72 63 73 64 74 6 75
REMARK SMILES IDX 7 76 8 77 9 78 10 80 11 81 12 82 16 83 28 84 13 85 15 86
REMARK SMILES IDX 18 87 14 88 27 89 17 90 19 91 20 92 26 93 21 94 25 95 22 96
REMARK SMILES IDX 23 97 24 98
REMARK H PARENT 3 6 88 24 54 35 8 79
REMARK Flexibility Score: inf
ROOT
ATOM      1  C   UNL A   1      31.792  28.750  26.435  1.00  0.00     0.023 C 
ENDROOT
BRANCH   1   2
ATOM      2  C   UNL A   1      33.006  29.090  27.305  1.00  0.00     0.116 C 
BRANCH   2   3
ATOM      3  N   UNL A   1      33.176  30.495  27.623  1.00  0.00    -0.352 N 
ATOM      4  O   UNL A   1      34.037  32.511  27.926  1.00  0.00    -0.269 OA
ATOM      5  C   UNL A   1      34.262  31.300  27.848  1.00  0.00     0.251 C 
ATOM      6  H   UNL A   1      32.321  30.977  27.692  1.00  0.00     0.163 HD
BRANCH   5   7
ATOM      7  C   UNL A   1      35.651  30.813  28.066  1.00  0.00     0.039 A 
ATOM      8  C   UNL A   1      36.129  29.550  27.718  1.00  0.00     0.014 A 
ATOM      9  C   UNL A   1      36.535  31.715  28.690  1.00  0.00     0.014 A 
ATOM     10  C   UNL A   1      37.416  29.154  28.077  1.00  0.00     0.010 A 
ATOM     11  C   UNL A   1      37.833  31.337  29.021  1.00  0.00     0.010 A 
ATOM     12  C   UNL A   1      38.261  30.040  28.746  1.00  0.00    -0.014 A 
BRANCH  12  13
ATOM     13  C   UNL A   1      39.628  29.603  29.026  1.00  0.00     0.031 A 
ATOM     14  C   UNL A   1      39.971  29.423  30.469  1.00  0.00     0.074 A 
ATOM     15  C   UNL A   1      40.494  29.216  28.068  1.00  0.00     0.049 A 
ATOM     16  N   UNL A   1      40.908  29.991  31.158  1.00  0.00    -0.248 NA
ATOM     17  C   UNL A   1      39.101  28.539  31.261  1.00  0.00     0.031 C 
ATOM     18  C   UNL A   1      40.223  29.019  26.642  1.00  0.00     0.029 A 
ATOM     19  N   UNL A   1      41.785  28.796  28.201  1.00  0.00    -0.354 N 
ATOM     20  C   UNL A   1      40.866  29.406  32.425  1.00  0.00     0.074 A 
ATOM     21  C   UNL A   1      39.663  28.615  32.467  1.00  0.00     0.031 C 
ATOM     22  C   UNL A   1      41.235  28.309  26.096  1.00  0.00     0.029 A 
ATOM     23  C   UNL A   1      42.272  28.113  27.095  1.00  0.00     0.049 A 
ATOM     24  H   UNL A   1      42.322  28.961  29.009  1.00  0.00     0.167 HD
ATOM     25  C   UNL A   1      41.912  29.462  33.297  1.00  0.00     0.037 A 
ATOM     26  C   UNL A   1      43.403  27.366  27.036  1.00  0.00     0.037 A 
ATOM     27  C   UNL A   1      42.856  30.484  32.939  1.00  0.00     0.049 A 
ATOM     28  C   UNL A   1      44.281  27.782  28.160  1.00  0.00     0.074 A 
ATOM     29  C   UNL A   1      42.804  31.856  32.796  1.00  0.00     0.029 A 
ATOM     30  N   UNL A   1      44.039  30.098  32.358  1.00  0.00    -0.354 N 
ATOM     31  N   UNL A   1      44.865  28.945  28.250  1.00  0.00    -0.248 NA
ATOM     32  C   UNL A   1      44.204  27.028  29.402  1.00  0.00     0.031 C 
ATOM     33  C   UNL A   1      43.698  32.154  31.727  1.00  0.00     0.029 A 
ATOM     34  C   UNL A   1      44.261  30.948  31.308  1.00  0.00     0.049 A 
ATOM     35  H   UNL A   1      44.616  29.352  32.643  1.00  0.00     0.167 HD
ATOM     36  C   UNL A   1      44.852  29.247  29.603  1.00  0.00     0.074 A 
ATOM     37  C   UNL A   1      44.533  27.988  30.269  1.00  0.00     0.031 C 
ATOM     38  C   UNL A   1      44.830  30.539  30.043  1.00  0.00     0.037 A 
BRANCH  25  39
ATOM     39  C   UNL A   1      42.248  28.389  34.307  1.00  0.00     0.058 A 
ATOM     40  C   UNL A   1      42.160  28.673  35.686  1.00  0.00     0.135 A 
ATOM     41  C   UNL A   1      42.927  27.198  33.971  1.00  0.00     0.135 A 
ATOM     42  F   UNL A   1      41.543  29.784  36.119  1.00  0.00    -0.206 F 
ATOM     43  C   UNL A   1      42.770  27.873  36.655  1.00  0.00     0.059 A 
ATOM     44  C   UNL A   1      43.495  26.357  34.923  1.00  0.00     0.059 A 
ATOM     45  F   UNL A   1      43.158  26.848  32.699  1.00  0.00    -0.206 F 
ATOM     46  C   UNL A   1      43.455  26.728  36.258  1.00  0.00     0.060 A 
BRANCH  46  47
ATOM     47  S   UNL A   1      44.360  25.768  37.485  1.00  0.00     0.124 S 
ATOM     48  O   UNL A   1      45.735  26.158  37.198  1.00  0.00    -0.237 OA
ATOM     49  O   UNL A   1      43.802  26.266  38.738  1.00  0.00    -0.237 OA
ATOM     50  O   UNL A   1      44.011  24.389  37.156  1.00  0.00    -0.744 OA
ENDBRANCH  46  47
ENDBRANCH  25  39
BRANCH  26  51
ATOM     51  C   UNL A   1      43.626  26.110  26.273  1.00  0.00     0.058 A 
ATOM     52  C   UNL A   1      44.797  25.909  25.521  1.00  0.00     0.135 A 
ATOM     53  C   UNL A   1      42.821  24.971  26.484  1.00  0.00     0.135 A 
ATOM     54  F   UNL A   1      45.637  26.930  25.295  1.00  0.00    -0.206 F 
ATOM     55  C   UNL A   1      45.170  24.648  25.044  1.00  0.00     0.059 A 
ATOM     56  C   UNL A   1      43.164  23.708  26.006  1.00  0.00     0.059 A 
ATOM     57  F   UNL A   1      41.720  25.030  27.247  1.00  0.00    -0.206 F 
ATOM     58  C   UNL A   1      44.355  23.548  25.309  1.00  0.00     0.060 A 
BRANCH  58  59
ATOM     59  S   UNL A   1      44.914  21.891  24.851  1.00  0.00     0.124 S 
ATOM     60  O   UNL A   1      44.126  21.048  25.743  1.00  0.00    -0.237 OA
ATOM     61  O   UNL A   1      44.564  21.828  23.436  1.00  0.00    -0.237 OA
ATOM     62  O   UNL A   1      46.347  21.928  25.132  1.00  0.00    -0.744 OA
ENDBRANCH  58  59
ENDBRANCH  26  51
BRANCH  38  63
ATOM     63  C   UNL A   1      45.157  31.635  29.065  1.00  0.00     0.058 A 
ATOM     64  C   UNL A   1      46.460  32.082  28.787  1.00  0.00     0.135 A 
ATOM     65  C   UNL A   1      44.122  32.137  28.261  1.00  0.00     0.135 A 
ATOM     66  F   UNL A   1      47.518  31.573  29.434  1.00  0.00    -0.206 F 
ATOM     67  C   UNL A   1      46.716  33.017  27.783  1.00  0.00     0.059 A 
ATOM     68  C   UNL A   1      44.359  33.045  27.232  1.00  0.00     0.059 A 
ATOM     69  F   UNL A   1      42.863  31.700  28.434  1.00  0.00    -0.206 F 
ATOM     70  C   UNL A   1      45.660  33.490  27.007  1.00  0.00     0.060 A 
BRANCH  70  71
ATOM     71  S   UNL A   1      46.006  34.621  25.642  1.00  0.00     0.124 S 
ATOM     72  O   UNL A   1      47.421  34.356  25.378  1.00  0.00    -0.237 OA
ATOM     73  O   UNL A   1      45.078  34.162  24.607  1.00  0.00    -0.237 OA
ATOM     74  O   UNL A   1      45.708  35.930  26.195  1.00  0.00    -0.744 OA
ENDBRANCH  70  71
ENDBRANCH  38  63
ENDBRANCH  12  13
ENDBRANCH   5   7
ENDBRANCH   2   3
ENDBRANCH   1   2
BRANCH   1  75
ATOM     75  C   UNL A   1      32.008  28.867  24.928  1.00  0.00     0.023 C 
BRANCH  75  76
ATOM     76  C   UNL A   1      31.575  27.653  24.118  1.00  0.00     0.116 C 
BRANCH  76  77
ATOM     77  N   UNL A   1      32.553  27.227  23.116  1.00  0.00    -0.356 N 
ATOM     78  C   UNL A   1      33.250  26.056  22.955  1.00  0.00     0.226 C 
ATOM     79  H   UNL A   1      32.747  27.906  22.430  1.00  0.00     0.163 HD
ATOM     80  O   UNL A   1      33.898  25.913  21.916  1.00  0.00    -0.274 OA
BRANCH  78  81
ATOM     81  C   UNL A   1      33.205  24.949  24.021  1.00  0.00     0.052 C 
ATOM     82  C   UNL A   1      33.226  25.482  25.482  1.00  0.00     0.020 C 
ATOM     83  C   UNL A   1      31.913  24.113  23.872  1.00  0.00     0.020 C 
ATOM     84  C   UNL A   1      34.487  24.125  23.910  1.00  0.00     0.047 C 
ATOM     85  C   UNL A   1      33.231  24.296  26.487  1.00  0.00    -0.007 C 
ATOM     86  C   UNL A   1      31.917  22.928  24.843  1.00  0.00    -0.007 C 
ATOM     87  C   UNL A   1      34.462  22.857  24.794  1.00  0.00     0.065 C 
ATOM     88  C   UNL A   1      31.958  23.466  26.280  1.00  0.00     0.007 C 
ATOM     89  C   UNL A   1      34.454  23.373  26.258  1.00  0.00     0.034 C 
ATOM     90  C   UNL A   1      33.155  22.056  24.562  1.00  0.00     0.034 C 
BRANCH  87  91
ATOM     91  N   UNL A   1      35.652  22.064  24.414  1.00  0.00    -0.259 N 
ATOM     92  C   UNL A   1      36.924  22.622  24.389  1.00  0.00     0.195 A 
ATOM     93  N   UNL A   1      35.709  20.737  24.690  1.00  0.00    -0.173 NA
ATOM     94  C   UNL A   1      37.664  21.774  25.189  1.00  0.00     0.307 A 
ATOM     95  C   UNL A   1      36.925  20.583  25.232  1.00  0.00     0.220 A 
BRANCH  94  96
ATOM     96  N   UNL A   1      38.835  22.112  25.928  1.00  0.00     0.066 N 
ATOM     97  O   UNL A   1      39.655  21.210  26.127  1.00  0.00    -0.258 OA
ATOM     98  O   UNL A   1      38.890  23.268  26.373  1.00  0.00    -0.258 OA
ENDBRANCH  94  96
ENDBRANCH  87  91
ENDBRANCH  78  81
ENDBRANCH  76  77
ENDBRANCH  75  76
ENDBRANCH   1  75
TORSDOF 16
ENDMDL
