MODEL 1
REMARK VINA RESULT:     -12.7      0.000      0.000
REMARK SMILES O=C(NCCCCNC(=O)[C@H]1CC2=c3ccccc3=N[C@H]2[C@@H](c2ccccc2)[NH2+]1)c1ccc(-c2c3nc(c(-c4c(F)cc(S(=O)(=O)[O-])cc4F)c4ccc([nH]4)c(-c4c(F)cc(S(=O)(=O)[O-])cc4F)c4nc(c(-c5c(F)cc(S(=O)(=O)[O-])cc5F)c5ccc2[nH]5)C=C4)C=C3)cc1
REMARK SMILES IDX 4 1 3 2 1 3 2 4 30 6 31 7 95 8 32 9 94 10 33 11 34 12 35 13
REMARK SMILES IDX 88 14 36 15 93 16 87 17 89 18 37 19 92 20 86 21 85 22 38 24
REMARK SMILES IDX 72 25 51 26 71 27 52 28 55 29 70 30 90 31 53 32 54 33 69 35
REMARK SMILES IDX 91 36 56 37 39 38 40 39 49 40 41 41 42 42 48 43 50 44 43 45
REMARK SMILES IDX 44 46 45 47 46 48 47 49 73 50 74 51 83 52 75 53 76 54 82 55
REMARK SMILES IDX 84 56 77 57 78 58 79 59 80 60 81 61 57 62 58 63 67 64 59 65
REMARK SMILES IDX 60 66 66 67 68 68 61 69 62 70 63 71 64 72 65 73 5 74 6 75
REMARK SMILES IDX 7 76 8 77 9 78 10 80 11 81 12 82 29 83 13 84 22 85 14 88
REMARK SMILES IDX 21 89 15 90 19 91 20 92 16 93 18 94 17 95 23 96 24 97 28 98
REMARK SMILES IDX 25 99 27 100 26 101
REMARK H PARENT 3 5 89 23 55 34 8 79 29 86 29 87
REMARK Flexibility Score: inf
ROOT
ATOM      1  C   UNL A   1      34.252  28.128  26.391  1.00  0.00     0.116 C 
ENDROOT
BRANCH   1   2
ATOM      2  N   UNL A   1      33.831  29.387  26.994  1.00  0.00    -0.352 N 
ATOM      3  O   UNL A   1      33.968  31.190  28.337  1.00  0.00    -0.269 OA
ATOM      4  C   UNL A   1      34.532  30.226  27.827  1.00  0.00     0.251 C 
ATOM      5  H   UNL A   1      32.917  29.676  26.773  1.00  0.00     0.163 HD
BRANCH   4   6
ATOM      6  C   UNL A   1      35.951  29.940  28.128  1.00  0.00     0.039 A 
ATOM      7  C   UNL A   1      36.287  29.395  29.369  1.00  0.00     0.014 A 
ATOM      8  C   UNL A   1      36.945  30.185  27.177  1.00  0.00     0.014 A 
ATOM      9  C   UNL A   1      37.614  29.043  29.631  1.00  0.00     0.010 A 
ATOM     10  C   UNL A   1      38.239  29.733  27.396  1.00  0.00     0.010 A 
ATOM     11  C   UNL A   1      38.595  29.181  28.635  1.00  0.00    -0.014 A 
BRANCH  11  12
ATOM     12  C   UNL A   1      40.014  28.825  28.887  1.00  0.00     0.031 A 
ATOM     13  C   UNL A   1      40.929  29.845  29.517  1.00  0.00     0.074 A 
ATOM     14  C   UNL A   1      40.492  27.622  28.511  1.00  0.00     0.049 A 
ATOM     15  N   UNL A   1      42.214  29.773  29.740  1.00  0.00    -0.248 NA
ATOM     16  C   UNL A   1      40.326  31.131  29.914  1.00  0.00     0.031 C 
ATOM     17  C   UNL A   1      39.718  26.572  27.842  1.00  0.00     0.029 A 
ATOM     18  N   UNL A   1      41.745  27.077  28.637  1.00  0.00    -0.354 N 
ATOM     19  C   UNL A   1      42.573  31.005  30.276  1.00  0.00     0.074 A 
ATOM     20  C   UNL A   1      41.387  31.829  30.284  1.00  0.00     0.031 C 
ATOM     21  C   UNL A   1      40.503  25.497  27.655  1.00  0.00     0.029 A 
ATOM     22  C   UNL A   1      41.843  25.792  28.155  1.00  0.00     0.049 A 
ATOM     23  H   UNL A   1      42.505  27.562  29.034  1.00  0.00     0.167 HD
ATOM     24  C   UNL A   1      43.773  31.400  30.758  1.00  0.00     0.037 A 
ATOM     25  C   UNL A   1      42.893  24.948  28.127  1.00  0.00     0.037 A 
ATOM     26  C   UNL A   1      44.928  30.550  30.822  1.00  0.00     0.049 A 
ATOM     27  C   UNL A   1      44.211  25.401  28.698  1.00  0.00     0.074 A 
ATOM     28  C   UNL A   1      46.170  30.830  31.360  1.00  0.00     0.029 A 
ATOM     29  N   UNL A   1      44.976  29.246  30.352  1.00  0.00    -0.354 N 
ATOM     30  N   UNL A   1      44.517  26.553  29.246  1.00  0.00    -0.248 NA
ATOM     31  C   UNL A   1      45.326  24.444  28.651  1.00  0.00     0.031 C 
ATOM     32  C   UNL A   1      46.979  29.704  31.193  1.00  0.00     0.029 A 
ATOM     33  C   UNL A   1      46.229  28.710  30.582  1.00  0.00     0.049 A 
ATOM     34  H   UNL A   1      44.229  28.772  29.920  1.00  0.00     0.167 HD
ATOM     35  C   UNL A   1      45.848  26.450  29.629  1.00  0.00     0.074 A 
ATOM     36  C   UNL A   1      46.290  25.122  29.260  1.00  0.00     0.031 C 
ATOM     37  C   UNL A   1      46.637  27.374  30.228  1.00  0.00     0.037 A 
BRANCH  24  38
ATOM     38  C   UNL A   1      43.889  32.795  31.304  1.00  0.00     0.058 A 
ATOM     39  C   UNL A   1      44.165  33.885  30.464  1.00  0.00     0.135 A 
ATOM     40  C   UNL A   1      43.653  33.055  32.663  1.00  0.00     0.135 A 
ATOM     41  F   UNL A   1      44.420  33.688  29.161  1.00  0.00    -0.206 F 
ATOM     42  C   UNL A   1      44.212  35.185  30.954  1.00  0.00     0.059 A 
ATOM     43  C   UNL A   1      43.668  34.350  33.170  1.00  0.00     0.059 A 
ATOM     44  F   UNL A   1      43.390  32.046  33.509  1.00  0.00    -0.206 F 
ATOM     45  C   UNL A   1      43.954  35.409  32.307  1.00  0.00     0.060 A 
BRANCH  45  46
ATOM     46  S   UNL A   1      43.974  37.109  32.912  1.00  0.00     0.124 S 
ATOM     47  O   UNL A   1      45.259  37.158  33.602  1.00  0.00    -0.237 OA
ATOM     48  O   UNL A   1      43.889  37.879  31.676  1.00  0.00    -0.237 OA
ATOM     49  O   UNL A   1      42.798  37.178  33.774  1.00  0.00    -0.744 OA
ENDBRANCH  45  46
ENDBRANCH  24  38
BRANCH  25  50
ATOM     50  C   UNL A   1      42.736  23.577  27.572  1.00  0.00     0.058 A 
ATOM     51  C   UNL A   1      42.403  22.500  28.408  1.00  0.00     0.135 A 
ATOM     52  C   UNL A   1      42.909  23.313  26.205  1.00  0.00     0.135 A 
ATOM     53  F   UNL A   1      42.232  22.701  29.723  1.00  0.00    -0.206 F 
ATOM     54  C   UNL A   1      42.264  21.207  27.913  1.00  0.00     0.059 A 
ATOM     55  C   UNL A   1      42.754  22.033  25.682  1.00  0.00     0.059 A 
ATOM     56  F   UNL A   1      43.212  24.312  25.361  1.00  0.00    -0.206 F 
ATOM     57  C   UNL A   1      42.442  20.984  26.547  1.00  0.00     0.060 A 
BRANCH  57  58
ATOM     58  S   UNL A   1      42.225  19.308  25.909  1.00  0.00     0.124 S 
ATOM     59  O   UNL A   1      42.732  18.505  27.016  1.00  0.00    -0.237 OA
ATOM     60  O   UNL A   1      40.784  19.249  25.685  1.00  0.00    -0.237 OA
ATOM     61  O   UNL A   1      43.040  19.301  24.698  1.00  0.00    -0.744 OA
ENDBRANCH  57  58
ENDBRANCH  25  50
BRANCH  37  62
ATOM     62  C   UNL A   1      48.050  26.992  30.555  1.00  0.00     0.058 A 
ATOM     63  C   UNL A   1      49.110  27.334  29.704  1.00  0.00     0.135 A 
ATOM     64  C   UNL A   1      48.358  26.399  31.792  1.00  0.00     0.135 A 
ATOM     65  F   UNL A   1      48.865  27.896  28.510  1.00  0.00    -0.206 F 
ATOM     66  C   UNL A   1      50.432  27.109  30.071  1.00  0.00     0.059 A 
ATOM     67  C   UNL A   1      49.673  26.186  32.188  1.00  0.00     0.059 A 
ATOM     68  F   UNL A   1      47.375  26.065  32.643  1.00  0.00    -0.206 F 
ATOM     69  C   UNL A   1      50.704  26.548  31.321  1.00  0.00     0.060 A 
BRANCH  69  70
ATOM     70  S   UNL A   1      52.428  26.351  31.820  1.00  0.00     0.124 S 
ATOM     71  O   UNL A   1      52.395  25.058  32.493  1.00  0.00    -0.237 OA
ATOM     72  O   UNL A   1      53.127  26.382  30.539  1.00  0.00    -0.237 OA
ATOM     73  O   UNL A   1      52.665  27.503  32.685  1.00  0.00    -0.744 OA
ENDBRANCH  69  70
ENDBRANCH  37  62
ENDBRANCH  11  12
ENDBRANCH   4   6
ENDBRANCH   1   2
BRANCH   1  74
ATOM     74  C   UNL A   1      33.165  27.065  26.378  1.00  0.00     0.023 C 
BRANCH  74  75
ATOM     75  C   UNL A   1      31.767  27.587  26.675  1.00  0.00     0.023 C 
BRANCH  75  76
ATOM     76  C   UNL A   1      30.634  26.858  25.962  1.00  0.00     0.116 C 
BRANCH  76  77
ATOM     77  N   UNL A   1      30.222  25.675  26.687  1.00  0.00    -0.351 N 
ATOM     78  C   UNL A   1      30.313  24.351  26.362  1.00  0.00     0.278 C 
ATOM     79  H   UNL A   1      29.808  25.853  27.562  1.00  0.00     0.163 HD
ATOM     80  O   UNL A   1      29.787  23.540  27.130  1.00  0.00    -0.268 OA
BRANCH  78  81
ATOM     81  C   UNL A   1      31.013  23.875  25.068  1.00  0.00     0.277 C 
ATOM     82  C   UNL A   1      30.526  24.675  23.832  1.00  0.00     0.109 C 
ATOM     83  N   UNL A   1      32.476  23.759  25.297  1.00  0.00    -0.327 N 
ATOM     84  C   UNL A   1      31.669  25.297  23.105  1.00  0.00    -0.024 C 
ATOM     85  C   UNL A   1      33.243  23.511  24.056  1.00  0.00     0.243 C 
ATOM     86  H   UNL A   1      32.643  22.985  25.940  1.00  0.00     0.347 HD
ATOM     87  H   UNL A   1      32.795  24.649  25.678  1.00  0.00     0.347 HD
ATOM     88  C   UNL A   1      31.885  26.567  22.782  1.00  0.00     0.002 A 
ATOM     89  C   UNL A   1      32.878  24.440  22.832  1.00  0.00     0.196 C 
ATOM     90  C   UNL A   1      31.138  27.780  22.844  1.00  0.00     0.010 A 
ATOM     91  C   UNL A   1      33.321  26.562  22.465  1.00  0.00     0.066 A 
ATOM     92  N   UNL A   1      33.930  25.419  22.437  1.00  0.00    -0.270 NA
ATOM     93  C   UNL A   1      31.785  28.947  22.685  1.00  0.00     0.001 A 
ATOM     94  C   UNL A   1      33.965  27.884  22.304  1.00  0.00     0.028 A 
ATOM     95  C   UNL A   1      33.218  28.991  22.448  1.00  0.00     0.002 A 
BRANCH  85  96
ATOM     96  C   UNL A   1      34.726  23.388  24.397  1.00  0.00     0.012 A 
ATOM     97  C   UNL A   1      35.607  22.605  23.632  1.00  0.00     0.010 A 
ATOM     98  C   UNL A   1      35.256  24.100  25.485  1.00  0.00     0.010 A 
ATOM     99  C   UNL A   1      36.947  22.460  23.995  1.00  0.00     0.001 A 
ATOM    100  C   UNL A   1      36.604  23.974  25.836  1.00  0.00     0.001 A 
ATOM    101  C   UNL A   1      37.444  23.139  25.103  1.00  0.00     0.000 A 
ENDBRANCH  85  96
ENDBRANCH  78  81
ENDBRANCH  76  77
ENDBRANCH  75  76
ENDBRANCH  74  75
ENDBRANCH   1  74
TORSDOF 15
ENDMDL
MODEL 2
REMARK VINA RESULT:     -12.5      2.449      3.082
REMARK SMILES O=C(NCCCCNC(=O)[C@H]1CC2=c3ccccc3=N[C@H]2[C@@H](c2ccccc2)[NH2+]1)c1ccc(-c2c3nc(c(-c4c(F)cc(S(=O)(=O)[O-])cc4F)c4ccc([nH]4)c(-c4c(F)cc(S(=O)(=O)[O-])cc4F)c4nc(c(-c5c(F)cc(S(=O)(=O)[O-])cc5F)c5ccc2[nH]5)C=C4)C=C3)cc1
REMARK SMILES IDX 4 1 3 2 1 3 2 4 30 6 31 7 95 8 32 9 94 10 33 11 34 12 35 13
REMARK SMILES IDX 88 14 36 15 93 16 87 17 89 18 37 19 92 20 86 21 85 22 38 24
REMARK SMILES IDX 72 25 51 26 71 27 52 28 55 29 70 30 90 31 53 32 54 33 69 35
REMARK SMILES IDX 91 36 56 37 39 38 40 39 49 40 41 41 42 42 48 43 50 44 43 45
REMARK SMILES IDX 44 46 45 47 46 48 47 49 73 50 74 51 83 52 75 53 76 54 82 55
REMARK SMILES IDX 84 56 77 57 78 58 79 59 80 60 81 61 57 62 58 63 67 64 59 65
REMARK SMILES IDX 60 66 66 67 68 68 61 69 62 70 63 71 64 72 65 73 5 74 6 75
REMARK SMILES IDX 7 76 8 77 9 78 10 80 11 81 12 82 29 83 13 84 22 85 14 88
REMARK SMILES IDX 21 89 15 90 19 91 20 92 16 93 18 94 17 95 23 96 24 97 28 98
REMARK SMILES IDX 25 99 27 100 26 101
REMARK H PARENT 3 5 89 23 55 34 8 79 29 86 29 87
REMARK Flexibility Score: inf
ROOT
ATOM      1  C   UNL A   1      34.413  28.305  25.903  1.00  0.00     0.116 C 
ENDROOT
BRANCH   1   2
ATOM      2  N   UNL A   1      33.863  29.590  26.317  1.00  0.00    -0.352 N 
ATOM      3  O   UNL A   1      33.651  31.445  27.578  1.00  0.00    -0.269 OA
ATOM      4  C   UNL A   1      34.318  30.457  27.282  1.00  0.00     0.251 C 
ATOM      5  H   UNL A   1      33.053  29.877  25.838  1.00  0.00     0.163 HD
BRANCH   4   6
ATOM      6  C   UNL A   1      35.590  30.173  27.979  1.00  0.00     0.039 A 
ATOM      7  C   UNL A   1      35.557  29.577  29.242  1.00  0.00     0.014 A 
ATOM      8  C   UNL A   1      36.815  30.470  27.376  1.00  0.00     0.014 A 
ATOM      9  C   UNL A   1      36.754  29.228  29.871  1.00  0.00     0.010 A 
ATOM     10  C   UNL A   1      37.996  30.023  27.952  1.00  0.00     0.010 A 
ATOM     11  C   UNL A   1      37.983  29.421  29.218  1.00  0.00    -0.014 A 
BRANCH  11  12
ATOM     12  C   UNL A   1      39.271  29.069  29.865  1.00  0.00     0.031 A 
ATOM     13  C   UNL A   1      39.708  29.824  31.095  1.00  0.00     0.074 A 
ATOM     14  C   UNL A   1      40.065  28.119  29.331  1.00  0.00     0.049 A 
ATOM     15  N   UNL A   1      40.830  29.739  31.759  1.00  0.00    -0.248 NA
ATOM     16  C   UNL A   1      38.776  30.836  31.626  1.00  0.00     0.031 C 
ATOM     17  C   UNL A   1      39.777  27.357  28.113  1.00  0.00     0.029 A 
ATOM     18  N   UNL A   1      41.279  27.631  29.745  1.00  0.00    -0.354 N 
ATOM     19  C   UNL A   1      40.747  30.699  32.762  1.00  0.00     0.074 A 
ATOM     20  C   UNL A   1      39.497  31.399  32.583  1.00  0.00     0.031 C 
ATOM     21  C   UNL A   1      40.766  26.472  27.902  1.00  0.00     0.029 A 
ATOM     22  C   UNL A   1      41.774  26.626  28.947  1.00  0.00     0.049 A 
ATOM     23  H   UNL A   1      41.753  27.970  30.539  1.00  0.00     0.167 HD
ATOM     24  C   UNL A   1      41.614  30.945  33.770  1.00  0.00     0.037 A 
ATOM     25  C   UNL A   1      42.911  25.908  29.051  1.00  0.00     0.037 A 
ATOM     26  C   UNL A   1      42.817  30.192  33.993  1.00  0.00     0.049 A 
ATOM     27  C   UNL A   1      43.845  26.181  30.199  1.00  0.00     0.074 A 
ATOM     28  C   UNL A   1      43.726  30.314  35.027  1.00  0.00     0.029 A 
ATOM     29  N   UNL A   1      43.265  29.163  33.179  1.00  0.00    -0.354 N 
ATOM     30  N   UNL A   1      43.724  27.059  31.167  1.00  0.00    -0.248 NA
ATOM     31  C   UNL A   1      45.069  25.369  30.276  1.00  0.00     0.031 C 
ATOM     32  C   UNL A   1      44.739  29.374  34.826  1.00  0.00     0.029 A 
ATOM     33  C   UNL A   1      44.442  28.644  33.685  1.00  0.00     0.049 A 
ATOM     34  H   UNL A   1      42.813  28.848  32.363  1.00  0.00     0.167 HD
ATOM     35  C   UNL A   1      44.840  26.888  31.977  1.00  0.00     0.074 A 
ATOM     36  C   UNL A   1      45.622  25.818  31.394  1.00  0.00     0.031 C 
ATOM     37  C   UNL A   1      45.189  27.560  33.100  1.00  0.00     0.037 A 
BRANCH  24  38
ATOM     38  C   UNL A   1      41.274  32.039  34.742  1.00  0.00     0.058 A 
ATOM     39  C   UNL A   1      41.747  33.348  34.560  1.00  0.00     0.135 A 
ATOM     40  C   UNL A   1      40.411  31.795  35.823  1.00  0.00     0.135 A 
ATOM     41  F   UNL A   1      42.591  33.629  33.556  1.00  0.00    -0.206 F 
ATOM     42  C   UNL A   1      41.384  34.376  35.422  1.00  0.00     0.059 A 
ATOM     43  C   UNL A   1      40.014  32.815  36.682  1.00  0.00     0.059 A 
ATOM     44  F   UNL A   1      39.936  30.558  36.043  1.00  0.00    -0.206 F 
ATOM     45  C   UNL A   1      40.510  34.103  36.475  1.00  0.00     0.060 A 
BRANCH  45  46
ATOM     46  S   UNL A   1      40.015  35.462  37.553  1.00  0.00     0.124 S 
ATOM     47  O   UNL A   1      38.808  34.921  38.170  1.00  0.00    -0.237 OA
ATOM     48  O   UNL A   1      41.170  35.597  38.434  1.00  0.00    -0.237 OA
ATOM     49  O   UNL A   1      39.803  36.571  36.627  1.00  0.00    -0.744 OA
ENDBRANCH  45  46
ENDBRANCH  24  38
BRANCH  25  50
ATOM     50  C   UNL A   1      43.212  24.838  28.063  1.00  0.00     0.058 A 
ATOM     51  C   UNL A   1      42.862  23.504  28.323  1.00  0.00     0.135 A 
ATOM     52  C   UNL A   1      43.847  25.120  26.844  1.00  0.00     0.135 A 
ATOM     53  F   UNL A   1      42.257  23.183  29.476  1.00  0.00    -0.206 F 
ATOM     54  C   UNL A   1      43.146  22.485  27.420  1.00  0.00     0.059 A 
ATOM     55  C   UNL A   1      44.122  24.121  25.915  1.00  0.00     0.059 A 
ATOM     56  F   UNL A   1      44.188  26.382  26.541  1.00  0.00    -0.206 F 
ATOM     57  C   UNL A   1      43.778  22.804  26.217  1.00  0.00     0.060 A 
BRANCH  57  58
ATOM     58  S   UNL A   1      44.111  21.479  25.036  1.00  0.00     0.124 S 
ATOM     59  O   UNL A   1      44.026  22.189  23.766  1.00  0.00    -0.237 OA
ATOM     60  O   UNL A   1      45.445  21.040  25.435  1.00  0.00    -0.237 OA
ATOM     61  O   UNL A   1      43.040  20.520  25.297  1.00  0.00    -0.744 OA
ENDBRANCH  57  58
ENDBRANCH  25  50
BRANCH  37  62
ATOM     62  C   UNL A   1      46.452  27.155  33.801  1.00  0.00     0.058 A 
ATOM     63  C   UNL A   1      46.455  26.127  34.756  1.00  0.00     0.135 A 
ATOM     64  C   UNL A   1      47.686  27.707  33.418  1.00  0.00     0.135 A 
ATOM     65  F   UNL A   1      45.300  25.575  35.157  1.00  0.00    -0.206 F 
ATOM     66  C   UNL A   1      47.642  25.652  35.301  1.00  0.00     0.059 A 
ATOM     67  C   UNL A   1      48.886  27.231  33.933  1.00  0.00     0.059 A 
ATOM     68  F   UNL A   1      47.732  28.685  32.500  1.00  0.00    -0.206 F 
ATOM     69  C   UNL A   1      48.853  26.201  34.873  1.00  0.00     0.060 A 
BRANCH  69  70
ATOM     70  S   UNL A   1      50.389  25.507  35.521  1.00  0.00     0.124 S 
ATOM     71  O   UNL A   1      50.050  25.299  36.924  1.00  0.00    -0.237 OA
ATOM     72  O   UNL A   1      50.546  24.297  34.719  1.00  0.00    -0.237 OA
ATOM     73  O   UNL A   1      51.372  26.555  35.262  1.00  0.00    -0.744 OA
ENDBRANCH  69  70
ENDBRANCH  37  62
ENDBRANCH  11  12
ENDBRANCH   4   6
ENDBRANCH   1   2
BRANCH   1  74
ATOM     74  C   UNL A   1      33.482  27.132  26.165  1.00  0.00     0.023 C 
BRANCH  74  75
ATOM     75  C   UNL A   1      32.138  27.513  26.768  1.00  0.00     0.023 C 
BRANCH  75  76
ATOM     76  C   UNL A   1      30.918  26.935  26.060  1.00  0.00     0.116 C 
BRANCH  76  77
ATOM     77  N   UNL A   1      30.396  25.778  26.755  1.00  0.00    -0.351 N 
ATOM     78  C   UNL A   1      30.369  24.459  26.400  1.00  0.00     0.278 C 
ATOM     79  H   UNL A   1      29.994  25.973  27.633  1.00  0.00     0.163 HD
ATOM     80  O   UNL A   1      29.767  23.682  27.146  1.00  0.00    -0.268 OA
BRANCH  78  81
ATOM     81  C   UNL A   1      31.032  23.952  25.098  1.00  0.00     0.277 C 
ATOM     82  C   UNL A   1      30.534  24.744  23.862  1.00  0.00     0.109 C 
ATOM     83  N   UNL A   1      32.496  23.809  25.297  1.00  0.00    -0.327 N 
ATOM     84  C   UNL A   1      31.673  25.332  23.102  1.00  0.00    -0.024 C 
ATOM     85  C   UNL A   1      33.232  23.529  24.044  1.00  0.00     0.243 C 
ATOM     86  H   UNL A   1      32.662  23.041  25.948  1.00  0.00     0.347 HD
ATOM     87  H   UNL A   1      32.841  24.698  25.659  1.00  0.00     0.347 HD
ATOM     88  C   UNL A   1      31.907  26.594  22.756  1.00  0.00     0.002 A 
ATOM     89  C   UNL A   1      32.859  24.448  22.815  1.00  0.00     0.196 C 
ATOM     90  C   UNL A   1      31.186  27.822  22.816  1.00  0.00     0.010 A 
ATOM     91  C   UNL A   1      33.336  26.556  22.409  1.00  0.00     0.066 A 
ATOM     92  N   UNL A   1      33.921  25.400  22.384  1.00  0.00    -0.270 NA
ATOM     93  C   UNL A   1      31.852  28.973  22.627  1.00  0.00     0.001 A 
ATOM     94  C   UNL A   1      34.001  27.862  22.215  1.00  0.00     0.028 A 
ATOM     95  C   UNL A   1      33.280  28.986  22.359  1.00  0.00     0.002 A 
BRANCH  85  96
ATOM     96  C   UNL A   1      34.719  23.381  24.355  1.00  0.00     0.012 A 
ATOM     97  C   UNL A   1      35.577  22.604  23.558  1.00  0.00     0.010 A 
ATOM     98  C   UNL A   1      35.278  24.064  25.448  1.00  0.00     0.010 A 
ATOM     99  C   UNL A   1      36.920  22.435  23.894  1.00  0.00     0.001 A 
ATOM    100  C   UNL A   1      36.630  23.915  25.771  1.00  0.00     0.001 A 
ATOM    101  C   UNL A   1      37.446  23.084  25.006  1.00  0.00     0.000 A 
ENDBRANCH  85  96
ENDBRANCH  78  81
ENDBRANCH  76  77
ENDBRANCH  75  76
ENDBRANCH  74  75
ENDBRANCH   1  74
TORSDOF 15
ENDMDL
MODEL 3
REMARK VINA RESULT:     -12.1      2.791      9.112
REMARK SMILES O=C(NCCCCNC(=O)[C@H]1CC2=c3ccccc3=N[C@H]2[C@@H](c2ccccc2)[NH2+]1)c1ccc(-c2c3nc(c(-c4c(F)cc(S(=O)(=O)[O-])cc4F)c4ccc([nH]4)c(-c4c(F)cc(S(=O)(=O)[O-])cc4F)c4nc(c(-c5c(F)cc(S(=O)(=O)[O-])cc5F)c5ccc2[nH]5)C=C4)C=C3)cc1
REMARK SMILES IDX 4 1 3 2 1 3 2 4 30 6 31 7 95 8 32 9 94 10 33 11 34 12 35 13
REMARK SMILES IDX 88 14 36 15 93 16 87 17 89 18 37 19 92 20 86 21 85 22 38 24
REMARK SMILES IDX 72 25 51 26 71 27 52 28 55 29 70 30 90 31 53 32 54 33 69 35
REMARK SMILES IDX 91 36 56 37 39 38 40 39 49 40 41 41 42 42 48 43 50 44 43 45
REMARK SMILES IDX 44 46 45 47 46 48 47 49 73 50 74 51 83 52 75 53 76 54 82 55
REMARK SMILES IDX 84 56 77 57 78 58 79 59 80 60 81 61 57 62 58 63 67 64 59 65
REMARK SMILES IDX 60 66 66 67 68 68 61 69 62 70 63 71 64 72 65 73 5 74 6 75
REMARK SMILES IDX 7 76 8 77 9 78 10 80 11 81 12 82 29 83 13 84 22 85 14 88
REMARK SMILES IDX 21 89 15 90 19 91 20 92 16 93 18 94 17 95 23 96 24 97 28 98
REMARK SMILES IDX 25 99 27 100 26 101
REMARK H PARENT 3 5 89 23 55 34 8 79 29 86 29 87
REMARK Flexibility Score: inf
ROOT
ATOM      1  C   UNL A   1      36.739  23.840  25.005  1.00  0.00     0.116 C 
ENDROOT
BRANCH   1   2
ATOM      2  N   UNL A   1      37.718  22.795  25.280  1.00  0.00    -0.352 N 
ATOM      3  O   UNL A   1      39.653  21.910  26.020  1.00  0.00    -0.269 OA
ATOM      4  C   UNL A   1      38.889  22.872  25.996  1.00  0.00     0.251 C 
ATOM      5  H   UNL A   1      37.511  21.911  24.900  1.00  0.00     0.163 HD
BRANCH   4   6
ATOM      6  C   UNL A   1      39.235  24.123  26.701  1.00  0.00     0.039 A 
ATOM      7  C   UNL A   1      38.820  24.297  28.023  1.00  0.00     0.014 A 
ATOM      8  C   UNL A   1      39.989  25.114  26.067  1.00  0.00     0.014 A 
ATOM      9  C   UNL A   1      39.214  25.439  28.725  1.00  0.00     0.010 A 
ATOM     10  C   UNL A   1      40.470  26.191  26.798  1.00  0.00     0.010 A 
ATOM     11  C   UNL A   1      40.067  26.381  28.127  1.00  0.00    -0.014 A 
BRANCH  11  12
ATOM     12  C   UNL A   1      40.494  27.609  28.844  1.00  0.00     0.031 A 
ATOM     13  C   UNL A   1      41.877  27.670  29.441  1.00  0.00     0.074 A 
ATOM     14  C   UNL A   1      39.637  28.637  29.004  1.00  0.00     0.049 A 
ATOM     15  N   UNL A   1      42.416  28.604  30.180  1.00  0.00    -0.248 NA
ATOM     16  C   UNL A   1      42.759  26.511  29.209  1.00  0.00     0.031 C 
ATOM     17  C   UNL A   1      38.254  28.675  28.520  1.00  0.00     0.029 A 
ATOM     18  N   UNL A   1      39.802  29.853  29.620  1.00  0.00    -0.354 N 
ATOM     19  C   UNL A   1      43.680  28.134  30.518  1.00  0.00     0.074 A 
ATOM     20  C   UNL A   1      43.807  26.808  29.961  1.00  0.00     0.031 C 
ATOM     21  C   UNL A   1      37.713  29.867  28.822  1.00  0.00     0.029 A 
ATOM     22  C   UNL A   1      38.695  30.665  29.550  1.00  0.00     0.049 A 
ATOM     23  H   UNL A   1      40.637  30.118  30.070  1.00  0.00     0.167 HD
ATOM     24  C   UNL A   1      44.665  28.768  31.193  1.00  0.00     0.037 A 
ATOM     25  C   UNL A   1      38.497  31.914  30.018  1.00  0.00     0.037 A 
ATOM     26  C   UNL A   1      44.564  30.118  31.675  1.00  0.00     0.049 A 
ATOM     27  C   UNL A   1      39.620  32.610  30.741  1.00  0.00     0.074 A 
ATOM     28  C   UNL A   1      45.531  30.877  32.307  1.00  0.00     0.029 A 
ATOM     29  N   UNL A   1      43.436  30.915  31.557  1.00  0.00    -0.354 N 
ATOM     30  N   UNL A   1      40.826  32.167  31.007  1.00  0.00    -0.248 NA
ATOM     31  C   UNL A   1      39.360  33.974  31.226  1.00  0.00     0.031 C 
ATOM     32  C   UNL A   1      44.980  32.128  32.594  1.00  0.00     0.029 A 
ATOM     33  C   UNL A   1      43.681  32.158  32.110  1.00  0.00     0.049 A 
ATOM     34  H   UNL A   1      42.588  30.638  31.140  1.00  0.00     0.167 HD
ATOM     35  C   UNL A   1      41.474  33.204  31.667  1.00  0.00     0.074 A 
ATOM     36  C   UNL A   1      40.532  34.300  31.754  1.00  0.00     0.031 C 
ATOM     37  C   UNL A   1      42.734  33.243  32.162  1.00  0.00     0.037 A 
BRANCH  24  38
ATOM     38  C   UNL A   1      45.958  28.034  31.411  1.00  0.00     0.058 A 
ATOM     39  C   UNL A   1      46.155  27.226  32.541  1.00  0.00     0.135 A 
ATOM     40  C   UNL A   1      46.979  28.080  30.448  1.00  0.00     0.135 A 
ATOM     41  F   UNL A   1      45.219  27.164  33.501  1.00  0.00    -0.206 F 
ATOM     42  C   UNL A   1      47.325  26.496  32.715  1.00  0.00     0.059 A 
ATOM     43  C   UNL A   1      48.147  27.337  30.589  1.00  0.00     0.059 A 
ATOM     44  F   UNL A   1      46.840  28.843  29.352  1.00  0.00    -0.206 F 
ATOM     45  C   UNL A   1      48.312  26.551  31.730  1.00  0.00     0.060 A 
BRANCH  45  46
ATOM     46  S   UNL A   1      49.802  25.558  31.954  1.00  0.00     0.124 S 
ATOM     47  O   UNL A   1      50.760  26.565  32.400  1.00  0.00    -0.237 OA
ATOM     48  O   UNL A   1      49.383  24.593  32.964  1.00  0.00    -0.237 OA
ATOM     49  O   UNL A   1      50.047  25.006  30.625  1.00  0.00    -0.744 OA
ENDBRANCH  45  46
ENDBRANCH  24  38
BRANCH  25  50
ATOM     50  C   UNL A   1      37.199  32.603  29.786  1.00  0.00     0.058 A 
ATOM     51  C   UNL A   1      37.086  33.610  28.815  1.00  0.00     0.135 A 
ATOM     52  C   UNL A   1      36.050  32.271  30.519  1.00  0.00     0.135 A 
ATOM     53  F   UNL A   1      38.158  33.966  28.092  1.00  0.00    -0.206 F 
ATOM     54  C   UNL A   1      35.886  34.277  28.591  1.00  0.00     0.059 A 
ATOM     55  C   UNL A   1      34.832  32.908  30.298  1.00  0.00     0.059 A 
ATOM     56  F   UNL A   1      36.101  31.303  31.447  1.00  0.00    -0.206 F 
ATOM     57  C   UNL A   1      34.763  33.918  29.339  1.00  0.00     0.060 A 
BRANCH  57  58
ATOM     58  S   UNL A   1      33.202  34.766  29.015  1.00  0.00     0.124 S 
ATOM     59  O   UNL A   1      32.591  33.887  28.025  1.00  0.00    -0.237 OA
ATOM     60  O   UNL A   1      32.577  34.773  30.334  1.00  0.00    -0.237 OA
ATOM     61  O   UNL A   1      33.625  36.074  28.524  1.00  0.00    -0.744 OA
ENDBRANCH  57  58
ENDBRANCH  25  50
BRANCH  37  62
ATOM     62  C   UNL A   1      43.196  34.510  32.819  1.00  0.00     0.058 A 
ATOM     63  C   UNL A   1      43.771  35.548  32.072  1.00  0.00     0.135 A 
ATOM     64  C   UNL A   1      42.937  34.739  34.181  1.00  0.00     0.135 A 
ATOM     65  F   UNL A   1      44.042  35.373  30.769  1.00  0.00    -0.206 F 
ATOM     66  C   UNL A   1      44.067  36.777  32.651  1.00  0.00     0.059 A 
ATOM     67  C   UNL A   1      43.204  35.967  34.775  1.00  0.00     0.059 A 
ATOM     68  F   UNL A   1      42.378  33.777  34.933  1.00  0.00    -0.206 F 
ATOM     69  C   UNL A   1      43.767  36.981  34.000  1.00  0.00     0.060 A 
BRANCH  69  70
ATOM     70  S   UNL A   1      44.070  38.612  34.712  1.00  0.00     0.124 S 
ATOM     71  O   UNL A   1      43.027  39.410  34.076  1.00  0.00    -0.237 OA
ATOM     72  O   UNL A   1      43.898  38.365  36.140  1.00  0.00    -0.237 OA
ATOM     73  O   UNL A   1      45.435  38.917  34.295  1.00  0.00    -0.744 OA
ENDBRANCH  69  70
ENDBRANCH  37  62
ENDBRANCH  11  12
ENDBRANCH   4   6
ENDBRANCH   1   2
BRANCH   1  74
ATOM     74  C   UNL A   1      35.394  23.306  24.535  1.00  0.00     0.023 C 
BRANCH  74  75
ATOM     75  C   UNL A   1      34.721  24.145  23.459  1.00  0.00     0.023 C 
BRANCH  75  76
ATOM     76  C   UNL A   1      33.693  23.410  22.608  1.00  0.00     0.116 C 
BRANCH  76  77
ATOM     77  N   UNL A   1      33.197  24.244  21.533  1.00  0.00    -0.351 N 
ATOM     78  C   UNL A   1      32.148  25.117  21.490  1.00  0.00     0.278 C 
ATOM     79  H   UNL A   1      33.702  24.169  20.690  1.00  0.00     0.163 HD
ATOM     80  O   UNL A   1      31.882  25.633  20.401  1.00  0.00    -0.268 OA
BRANCH  78  81
ATOM     81  C   UNL A   1      31.296  25.429  22.742  1.00  0.00     0.277 C 
ATOM     82  C   UNL A   1      30.673  24.142  23.341  1.00  0.00     0.109 C 
ATOM     83  N   UNL A   1      32.044  26.335  23.651  1.00  0.00    -0.327 N 
ATOM     84  C   UNL A   1      31.033  23.985  24.779  1.00  0.00    -0.024 C 
ATOM     85  C   UNL A   1      31.388  26.516  24.965  1.00  0.00     0.243 C 
ATOM     86  H   UNL A   1      32.128  27.248  23.202  1.00  0.00     0.347 HD
ATOM     87  H   UNL A   1      32.954  25.909  23.823  1.00  0.00     0.347 HD
ATOM     88  C   UNL A   1      31.623  22.973  25.405  1.00  0.00     0.002 A 
ATOM     89  C   UNL A   1      30.901  25.191  25.672  1.00  0.00     0.196 C 
ATOM     90  C   UNL A   1      32.016  21.647  25.062  1.00  0.00     0.010 A 
ATOM     91  C   UNL A   1      32.044  23.599  26.668  1.00  0.00     0.066 A 
ATOM     92  N   UNL A   1      31.652  24.811  26.902  1.00  0.00    -0.270 NA
ATOM     93  C   UNL A   1      32.855  20.989  25.879  1.00  0.00     0.001 A 
ATOM     94  C   UNL A   1      32.967  22.814  27.516  1.00  0.00     0.028 A 
ATOM     95  C   UNL A   1      33.357  21.599  27.098  1.00  0.00     0.002 A 
BRANCH  85  96
ATOM     96  C   UNL A   1      32.219  27.475  25.814  1.00  0.00     0.012 A 
ATOM     97  C   UNL A   1      33.624  27.445  25.817  1.00  0.00     0.010 A 
ATOM     98  C   UNL A   1      31.582  28.450  26.598  1.00  0.00     0.010 A 
ATOM     99  C   UNL A   1      34.364  28.291  26.644  1.00  0.00     0.001 A 
ATOM    100  C   UNL A   1      32.323  29.315  27.409  1.00  0.00     0.001 A 
ATOM    101  C   UNL A   1      33.712  29.221  27.448  1.00  0.00     0.000 A 
ENDBRANCH  85  96
ENDBRANCH  78  81
ENDBRANCH  76  77
ENDBRANCH  75  76
ENDBRANCH  74  75
ENDBRANCH   1  74
TORSDOF 15
ENDMDL
