MODEL 1
REMARK VINA RESULT:     -11.6      0.000      0.000
REMARK SMILES Nc1cc(C(=O)NCCCCNC(=O)c2ccc(-c3c4nc(c(-c5c(F)cc(S(=O)(=O)[O-])cc5F)c5ccc([nH]5)c(-c5c(F)cc(S(=O)(=O)[O-])cc5F)c5nc(c(-c6c(F)cc(S(=O)(=O)[O-])cc6F)c6ccc3[nH]6)C=C5)C=C4)cc2)c(-c2ccc(F)cc2O)cn1
REMARK SMILES IDX 10 1 9 2 8 3 7 4 5 5 6 6 4 8 2 9 3 10 91 11 90 12 81 13 1 14
REMARK SMILES IDX 82 17 83 18 88 19 84 20 87 21 85 22 86 23 89 24 11 26 12 27
REMARK SMILES IDX 13 28 14 30 15 31 16 32 80 33 17 34 79 35 18 36 19 37 20 38
REMARK SMILES IDX 73 39 21 40 78 41 72 42 74 43 22 44 77 45 71 46 70 47 23 49
REMARK SMILES IDX 57 50 36 51 56 52 37 53 40 54 55 55 75 56 38 57 39 58 54 60
REMARK SMILES IDX 76 61 41 62 24 63 25 64 34 65 26 66 27 67 33 68 35 69 28 70
REMARK SMILES IDX 29 71 30 72 31 73 32 74 58 75 59 76 68 77 60 78 61 79 67 80
REMARK SMILES IDX 69 81 62 82 63 83 64 84 65 85 66 86 42 87 43 88 52 89 44 90
REMARK SMILES IDX 45 91 51 92 53 93 46 94 47 95 48 96 49 97 50 98
REMARK H PARENT 7 7 1 15 1 16 89 25 12 29 74 48 40 59
REMARK Flexibility Score: inf
ROOT
ATOM      1  C   UNL A   1      33.542  28.207  25.427  1.00  0.00     0.023 C 
ENDROOT
BRANCH   1   2
ATOM      2  C   UNL A   1      33.772  26.807  24.841  1.00  0.00     0.023 C 
BRANCH   2   3
ATOM      3  C   UNL A   1      33.020  26.542  23.532  1.00  0.00     0.116 C 
BRANCH   3   4
ATOM      4  N   UNL A   1      33.280  25.190  23.084  1.00  0.00    -0.352 N 
ATOM      5  C   UNL A   1      33.330  23.970  23.706  1.00  0.00     0.252 C 
ATOM      6  O   UNL A   1      33.885  23.086  23.051  1.00  0.00    -0.269 OA
ATOM      7  H   UNL A   1      33.459  25.134  22.117  1.00  0.00     0.163 HD
BRANCH   5   8
ATOM      8  C   UNL A   1      32.774  23.662  25.068  1.00  0.00     0.052 A 
ATOM      9  C   UNL A   1      30.909  23.567  26.610  1.00  0.00     0.124 A 
ATOM     10  C   UNL A   1      31.442  23.954  25.391  1.00  0.00     0.061 A 
ATOM     11  N   UNL A   1      31.642  22.982  27.557  1.00  0.00    -0.239 NA
ATOM     12  C   UNL A   1      32.950  22.782  27.281  1.00  0.00     0.123 A 
ATOM     13  C   UNL A   1      33.590  23.089  26.072  1.00  0.00     0.017 A 
BRANCH   9  14
ATOM     14  N   UNL A   1      29.590  23.827  26.921  1.00  0.00    -0.384 N 
ATOM     15  H   UNL A   1      29.348  24.123  27.829  1.00  0.00     0.158 HD
ATOM     16  H   UNL A   1      28.891  23.718  26.236  1.00  0.00     0.158 HD
ENDBRANCH   9  14
BRANCH  13  17
ATOM     17  C   UNL A   1      35.043  22.816  25.995  1.00  0.00     0.026 A 
ATOM     18  C   UNL A   1      35.971  23.870  26.089  1.00  0.00     0.015 A 
ATOM     19  C   UNL A   1      35.558  21.533  25.724  1.00  0.00     0.126 A 
ATOM     20  C   UNL A   1      37.343  23.637  25.928  1.00  0.00     0.040 A 
ATOM     21  C   UNL A   1      36.918  21.290  25.561  1.00  0.00     0.086 A 
ATOM     22  C   UNL A   1      37.801  22.351  25.667  1.00  0.00     0.126 A 
ATOM     23  F   UNL A   1      39.115  22.136  25.519  1.00  0.00    -0.207 F 
BRANCH  19  24
ATOM     24  O   UNL A   1      34.733  20.440  25.685  1.00  0.00    -0.507 OA
ATOM     25  H   UNL A   1      35.089  19.590  25.515  1.00  0.00     0.293 HD
ENDBRANCH  19  24
ENDBRANCH  13  17
ENDBRANCH   5   8
ENDBRANCH   3   4
ENDBRANCH   2   3
ENDBRANCH   1   2
BRANCH   1  26
ATOM     26  C   UNL A   1      33.767  28.325  26.932  1.00  0.00     0.116 C 
BRANCH  26  27
ATOM     27  N   UNL A   1      33.594  29.679  27.429  1.00  0.00    -0.352 N 
ATOM     28  C   UNL A   1      34.495  30.469  28.103  1.00  0.00     0.251 C 
ATOM     29  H   UNL A   1      32.713  30.085  27.261  1.00  0.00     0.163 HD
ATOM     30  O   UNL A   1      34.146  31.555  28.545  1.00  0.00    -0.269 OA
BRANCH  28  31
ATOM     31  C   UNL A   1      35.868  29.972  28.323  1.00  0.00     0.039 A 
ATOM     32  C   UNL A   1      36.787  30.062  27.273  1.00  0.00     0.014 A 
ATOM     33  C   UNL A   1      36.253  29.448  29.559  1.00  0.00     0.014 A 
ATOM     34  C   UNL A   1      38.113  29.682  27.485  1.00  0.00     0.010 A 
ATOM     35  C   UNL A   1      37.588  29.125  29.784  1.00  0.00     0.010 A 
ATOM     36  C   UNL A   1      38.531  29.243  28.752  1.00  0.00    -0.014 A 
BRANCH  36  37
ATOM     37  C   UNL A   1      39.952  28.913  29.018  1.00  0.00     0.031 A 
ATOM     38  C   UNL A   1      40.877  29.955  29.582  1.00  0.00     0.074 A 
ATOM     39  C   UNL A   1      40.423  27.694  28.687  1.00  0.00     0.049 A 
ATOM     40  N   UNL A   1      42.162  29.881  29.810  1.00  0.00    -0.248 NA
ATOM     41  C   UNL A   1      40.283  31.262  29.907  1.00  0.00     0.031 C 
ATOM     42  C   UNL A   1      39.632  26.616  28.086  1.00  0.00     0.029 A 
ATOM     43  N   UNL A   1      41.681  27.159  28.797  1.00  0.00    -0.354 N 
ATOM     44  C   UNL A   1      42.534  31.130  30.291  1.00  0.00     0.074 A 
ATOM     45  C   UNL A   1      41.348  31.959  30.279  1.00  0.00     0.031 C 
ATOM     46  C   UNL A   1      40.420  25.545  27.895  1.00  0.00     0.029 A 
ATOM     47  C   UNL A   1      41.775  25.868  28.329  1.00  0.00     0.049 A 
ATOM     48  H   UNL A   1      42.444  27.652  29.175  1.00  0.00     0.167 HD
ATOM     49  C   UNL A   1      43.749  31.542  30.727  1.00  0.00     0.037 A 
ATOM     50  C   UNL A   1      42.838  25.043  28.253  1.00  0.00     0.037 A 
ATOM     51  C   UNL A   1      44.918  30.703  30.765  1.00  0.00     0.049 A 
ATOM     52  C   UNL A   1      44.174  25.520  28.755  1.00  0.00     0.074 A 
ATOM     53  C   UNL A   1      46.181  31.008  31.241  1.00  0.00     0.029 A 
ATOM     54  N   UNL A   1      44.967  29.392  30.314  1.00  0.00    -0.354 N 
ATOM     55  N   UNL A   1      44.494  26.686  29.263  1.00  0.00    -0.248 NA
ATOM     56  C   UNL A   1      45.290  24.568  28.680  1.00  0.00     0.031 C 
ATOM     57  C   UNL A   1      47.003  29.892  31.047  1.00  0.00     0.029 A 
ATOM     58  C   UNL A   1      46.241  28.879  30.488  1.00  0.00     0.049 A 
ATOM     59  H   UNL A   1      44.207  28.899  29.927  1.00  0.00     0.167 HD
ATOM     60  C   UNL A   1      45.842  26.599  29.591  1.00  0.00     0.074 A 
ATOM     61  C   UNL A   1      46.274  25.264  29.236  1.00  0.00     0.031 C 
ATOM     62  C   UNL A   1      46.649  27.542  30.137  1.00  0.00     0.037 A 
BRANCH  49  63
ATOM     63  C   UNL A   1      43.872  32.959  31.210  1.00  0.00     0.058 A 
ATOM     64  C   UNL A   1      44.238  34.000  30.341  1.00  0.00     0.135 A 
ATOM     65  C   UNL A   1      43.586  33.289  32.544  1.00  0.00     0.135 A 
ATOM     66  F   UNL A   1      44.539  33.738  29.060  1.00  0.00    -0.206 F 
ATOM     67  C   UNL A   1      44.340  35.314  30.785  1.00  0.00     0.059 A 
ATOM     68  C   UNL A   1      43.657  34.601  33.003  1.00  0.00     0.059 A 
ATOM     69  F   UNL A   1      43.233  32.332  33.416  1.00  0.00    -0.206 F 
ATOM     70  C   UNL A   1      44.048  35.605  32.118  1.00  0.00     0.060 A 
BRANCH  70  71
ATOM     71  S   UNL A   1      44.177  37.318  32.675  1.00  0.00     0.124 S 
ATOM     72  O   UNL A   1      43.946  38.046  31.431  1.00  0.00    -0.237 OA
ATOM     73  O   UNL A   1      43.110  37.406  33.667  1.00  0.00    -0.237 OA
ATOM     74  O   UNL A   1      45.533  37.401  33.208  1.00  0.00    -0.744 OA
ENDBRANCH  70  71
ENDBRANCH  49  63
BRANCH  50  75
ATOM     75  C   UNL A   1      42.678  23.672  27.700  1.00  0.00     0.058 A 
ATOM     76  C   UNL A   1      42.770  23.438  26.320  1.00  0.00     0.135 A 
ATOM     77  C   UNL A   1      42.434  22.573  28.536  1.00  0.00     0.135 A 
ATOM     78  F   UNL A   1      42.999  24.460  25.480  1.00  0.00    -0.206 F 
ATOM     79  C   UNL A   1      42.605  22.166  25.784  1.00  0.00     0.059 A 
ATOM     80  C   UNL A   1      42.287  21.286  28.025  1.00  0.00     0.059 A 
ATOM     81  F   UNL A   1      42.356  22.741  29.865  1.00  0.00    -0.206 F 
ATOM     82  C   UNL A   1      42.361  21.096  26.646  1.00  0.00     0.060 A 
BRANCH  82  83
ATOM     83  S   UNL A   1      42.184  19.440  25.946  1.00  0.00     0.124 S 
ATOM     84  O   UNL A   1      40.744  19.364  25.735  1.00  0.00    -0.237 OA
ATOM     85  O   UNL A   1      43.003  19.526  24.740  1.00  0.00    -0.237 OA
ATOM     86  O   UNL A   1      42.718  18.575  26.994  1.00  0.00    -0.744 OA
ENDBRANCH  82  83
ENDBRANCH  50  75
BRANCH  62  87
ATOM     87  C   UNL A   1      48.074  27.152  30.414  1.00  0.00     0.058 A 
ATOM     88  C   UNL A   1      49.097  27.397  29.486  1.00  0.00     0.135 A 
ATOM     89  C   UNL A   1      48.425  26.574  31.644  1.00  0.00     0.135 A 
ATOM     90  F   UNL A   1      48.811  27.940  28.292  1.00  0.00    -0.206 F 
ATOM     91  C   UNL A   1      50.419  27.061  29.760  1.00  0.00     0.059 A 
ATOM     92  C   UNL A   1      49.744  26.254  31.950  1.00  0.00     0.059 A 
ATOM     93  F   UNL A   1      47.484  26.329  32.570  1.00  0.00    -0.206 F 
ATOM     94  C   UNL A   1      50.734  26.492  30.995  1.00  0.00     0.060 A 
BRANCH  94  95
ATOM     95  S   UNL A   1      52.457  26.095  31.354  1.00  0.00     0.124 S 
ATOM     96  O   UNL A   1      52.331  24.791  31.994  1.00  0.00    -0.237 OA
ATOM     97  O   UNL A   1      53.062  26.093  30.026  1.00  0.00    -0.237 OA
ATOM     98  O   UNL A   1      52.882  27.185  32.227  1.00  0.00    -0.744 OA
ENDBRANCH  94  95
ENDBRANCH  62  87
ENDBRANCH  36  37
ENDBRANCH  28  31
ENDBRANCH  26  27
ENDBRANCH   1  26
TORSDOF 17
ENDMDL
MODEL 2
REMARK VINA RESULT:     -11.4      5.071     10.461
REMARK SMILES Nc1cc(C(=O)NCCCCNC(=O)c2ccc(-c3c4nc(c(-c5c(F)cc(S(=O)(=O)[O-])cc5F)c5ccc([nH]5)c(-c5c(F)cc(S(=O)(=O)[O-])cc5F)c5nc(c(-c6c(F)cc(S(=O)(=O)[O-])cc6F)c6ccc3[nH]6)C=C5)C=C4)cc2)c(-c2ccc(F)cc2O)cn1
REMARK SMILES IDX 10 1 9 2 8 3 7 4 5 5 6 6 4 8 2 9 3 10 91 11 90 12 81 13 1 14
REMARK SMILES IDX 82 17 83 18 88 19 84 20 87 21 85 22 86 23 89 24 11 26 12 27
REMARK SMILES IDX 13 28 14 30 15 31 16 32 80 33 17 34 79 35 18 36 19 37 20 38
REMARK SMILES IDX 73 39 21 40 78 41 72 42 74 43 22 44 77 45 71 46 70 47 23 49
REMARK SMILES IDX 57 50 36 51 56 52 37 53 40 54 55 55 75 56 38 57 39 58 54 60
REMARK SMILES IDX 76 61 41 62 24 63 25 64 34 65 26 66 27 67 33 68 35 69 28 70
REMARK SMILES IDX 29 71 30 72 31 73 32 74 58 75 59 76 68 77 60 78 61 79 67 80
REMARK SMILES IDX 69 81 62 82 63 83 64 84 65 85 66 86 42 87 43 88 52 89 44 90
REMARK SMILES IDX 45 91 51 92 53 93 46 94 47 95 48 96 49 97 50 98
REMARK H PARENT 7 7 1 15 1 16 89 25 12 29 74 48 40 59
REMARK Flexibility Score: inf
ROOT
ATOM      1  C   UNL A   1      37.257  23.297  25.682  1.00  0.00     0.023 C 
ENDROOT
BRANCH   1   2
ATOM      2  C   UNL A   1      37.873  22.042  25.046  1.00  0.00     0.023 C 
BRANCH   2   3
ATOM      3  C   UNL A   1      36.850  20.967  24.662  1.00  0.00     0.116 C 
BRANCH   3   4
ATOM      4  N   UNL A   1      35.874  20.821  25.722  1.00  0.00    -0.352 N 
ATOM      5  C   UNL A   1      34.519  21.007  25.806  1.00  0.00     0.252 C 
ATOM      6  O   UNL A   1      34.085  21.080  26.957  1.00  0.00    -0.269 OA
ATOM      7  H   UNL A   1      36.273  20.521  26.571  1.00  0.00     0.163 HD
BRANCH   5   8
ATOM      8  C   UNL A   1      33.580  21.117  24.638  1.00  0.00     0.052 A 
ATOM      9  C   UNL A   1      32.356  22.460  23.039  1.00  0.00     0.124 A 
ATOM     10  C   UNL A   1      33.131  22.364  24.182  1.00  0.00     0.061 A 
ATOM     11  N   UNL A   1      31.931  21.389  22.369  1.00  0.00    -0.239 NA
ATOM     12  C   UNL A   1      32.287  20.181  22.861  1.00  0.00     0.123 A 
ATOM     13  C   UNL A   1      33.104  19.958  23.979  1.00  0.00     0.017 A 
BRANCH   9  14
ATOM     14  N   UNL A   1      31.935  23.689  22.571  1.00  0.00    -0.384 N 
ATOM     15  H   UNL A   1      32.047  24.493  23.129  1.00  0.00     0.158 HD
ATOM     16  H   UNL A   1      31.521  23.762  21.680  1.00  0.00     0.158 HD
ENDBRANCH   9  14
BRANCH  13  17
ATOM     17  C   UNL A   1      33.343  18.549  24.364  1.00  0.00     0.026 A 
ATOM     18  C   UNL A   1      33.924  17.650  23.450  1.00  0.00     0.015 A 
ATOM     19  C   UNL A   1      32.915  18.019  25.597  1.00  0.00     0.126 A 
ATOM     20  C   UNL A   1      34.074  16.295  23.770  1.00  0.00     0.040 A 
ATOM     21  C   UNL A   1      33.056  16.675  25.926  1.00  0.00     0.086 A 
ATOM     22  C   UNL A   1      33.639  15.823  25.003  1.00  0.00     0.126 A 
ATOM     23  F   UNL A   1      33.790  14.526  25.304  1.00  0.00    -0.207 F 
BRANCH  19  24
ATOM     24  O   UNL A   1      32.403  18.835  26.571  1.00  0.00    -0.507 OA
ATOM     25  H   UNL A   1      32.141  19.710  26.359  1.00  0.00     0.293 HD
ENDBRANCH  19  24
ENDBRANCH  13  17
ENDBRANCH   5   8
ENDBRANCH   3   4
ENDBRANCH   2   3
ENDBRANCH   1   2
BRANCH   1  26
ATOM     26  C   UNL A   1      38.216  24.132  26.527  1.00  0.00     0.116 C 
BRANCH  26  27
ATOM     27  N   UNL A   1      39.610  23.933  26.169  1.00  0.00    -0.352 N 
ATOM     28  C   UNL A   1      40.711  24.651  26.570  1.00  0.00     0.251 C 
ATOM     29  H   UNL A   1      39.790  23.183  25.557  1.00  0.00     0.163 HD
ATOM     30  O   UNL A   1      41.809  24.411  26.086  1.00  0.00    -0.269 OA
BRANCH  28  31
ATOM     31  C   UNL A   1      40.545  25.738  27.556  1.00  0.00     0.039 A 
ATOM     32  C   UNL A   1      39.599  25.580  28.573  1.00  0.00     0.014 A 
ATOM     33  C   UNL A   1      41.332  26.891  27.493  1.00  0.00     0.014 A 
ATOM     34  C   UNL A   1      39.487  26.553  29.566  1.00  0.00     0.010 A 
ATOM     35  C   UNL A   1      41.258  27.832  28.516  1.00  0.00     0.010 A 
ATOM     36  C   UNL A   1      40.340  27.670  29.564  1.00  0.00    -0.014 A 
BRANCH  36  37
ATOM     37  C   UNL A   1      40.291  28.673  30.656  1.00  0.00     0.031 A 
ATOM     38  C   UNL A   1      41.192  28.533  31.850  1.00  0.00     0.074 A 
ATOM     39  C   UNL A   1      39.385  29.669  30.600  1.00  0.00     0.049 A 
ATOM     40  N   UNL A   1      41.243  29.261  32.935  1.00  0.00    -0.248 NA
ATOM     41  C   UNL A   1      42.145  27.412  31.835  1.00  0.00     0.031 C 
ATOM     42  C   UNL A   1      38.421  29.878  29.515  1.00  0.00     0.029 A 
ATOM     43  N   UNL A   1      39.117  30.688  31.480  1.00  0.00    -0.354 N 
ATOM     44  C   UNL A   1      42.219  28.682  33.736  1.00  0.00     0.074 A 
ATOM     45  C   UNL A   1      42.703  27.513  33.032  1.00  0.00     0.031 C 
ATOM     46  C   UNL A   1      37.680  30.965  29.787  1.00  0.00     0.029 A 
ATOM     47  C   UNL A   1      38.092  31.511  31.076  1.00  0.00     0.049 A 
ATOM     48  H   UNL A   1      39.612  30.816  32.321  1.00  0.00     0.167 HD
ATOM     49  C   UNL A   1      42.686  29.099  34.937  1.00  0.00     0.037 A 
ATOM     50  C   UNL A   1      37.542  32.582  31.682  1.00  0.00     0.037 A 
ATOM     51  C   UNL A   1      42.221  30.279  35.617  1.00  0.00     0.049 A 
ATOM     52  C   UNL A   1      38.087  33.032  33.010  1.00  0.00     0.074 A 
ATOM     53  C   UNL A   1      42.669  30.818  36.810  1.00  0.00     0.029 A 
ATOM     54  N   UNL A   1      41.204  31.106  35.162  1.00  0.00    -0.354 N 
ATOM     55  N   UNL A   1      39.052  32.505  33.725  1.00  0.00    -0.248 NA
ATOM     56  C   UNL A   1      37.474  34.225  33.610  1.00  0.00     0.031 C 
ATOM     57  C   UNL A   1      41.901  31.953  37.093  1.00  0.00     0.029 A 
ATOM     58  C   UNL A   1      41.002  32.143  36.056  1.00  0.00     0.049 A 
ATOM     59  H   UNL A   1      40.701  30.975  34.325  1.00  0.00     0.167 HD
ATOM     60  C   UNL A   1      39.180  33.317  34.847  1.00  0.00     0.074 A 
ATOM     61  C   UNL A   1      38.201  34.375  34.710  1.00  0.00     0.031 C 
ATOM     62  C   UNL A   1      40.030  33.194  35.897  1.00  0.00     0.037 A 
BRANCH  49  63
ATOM     63  C   UNL A   1      43.765  28.280  35.587  1.00  0.00     0.058 A 
ATOM     64  C   UNL A   1      43.460  27.263  36.507  1.00  0.00     0.135 A 
ATOM     65  C   UNL A   1      45.116  28.485  35.262  1.00  0.00     0.135 A 
ATOM     66  F   UNL A   1      42.187  27.036  36.866  1.00  0.00    -0.206 F 
ATOM     67  C   UNL A   1      44.458  26.497  37.100  1.00  0.00     0.059 A 
ATOM     68  C   UNL A   1      46.127  27.713  35.823  1.00  0.00     0.059 A 
ATOM     69  F   UNL A   1      45.462  29.445  34.390  1.00  0.00    -0.206 F 
ATOM     70  C   UNL A   1      45.789  26.729  36.752  1.00  0.00     0.060 A 
BRANCH  70  71
ATOM     71  S   UNL A   1      47.071  25.718  37.524  1.00  0.00     0.124 S 
ATOM     72  O   UNL A   1      47.598  26.636  38.530  1.00  0.00    -0.237 OA
ATOM     73  O   UNL A   1      46.308  24.585  38.038  1.00  0.00    -0.237 OA
ATOM     74  O   UNL A   1      47.974  25.412  36.419  1.00  0.00    -0.744 OA
ENDBRANCH  70  71
ENDBRANCH  49  63
BRANCH  50  75
ATOM     75  C   UNL A   1      36.427  33.316  31.029  1.00  0.00     0.058 A 
ATOM     76  C   UNL A   1      36.657  34.121  29.904  1.00  0.00     0.135 A 
ATOM     77  C   UNL A   1      35.113  33.226  31.513  1.00  0.00     0.135 A 
ATOM     78  F   UNL A   1      37.898  34.241  29.408  1.00  0.00    -0.206 F 
ATOM     79  C   UNL A   1      35.629  34.829  29.292  1.00  0.00     0.059 A 
ATOM     80  C   UNL A   1      34.063  33.907  30.903  1.00  0.00     0.059 A 
ATOM     81  F   UNL A   1      34.838  32.454  32.576  1.00  0.00    -0.206 F 
ATOM     82  C   UNL A   1      34.334  34.716  29.801  1.00  0.00     0.060 A 
BRANCH  82  83
ATOM     83  S   UNL A   1      32.997  35.610  28.978  1.00  0.00     0.124 S 
ATOM     84  O   UNL A   1      33.737  36.609  28.218  1.00  0.00    -0.237 OA
ATOM     85  O   UNL A   1      32.358  34.556  28.195  1.00  0.00    -0.237 OA
ATOM     86  O   UNL A   1      32.202  36.120  30.090  1.00  0.00    -0.744 OA
ENDBRANCH  82  83
ENDBRANCH  50  75
BRANCH  62  87
ATOM     87  C   UNL A   1      39.962  34.250  36.964  1.00  0.00     0.058 A 
ATOM     88  C   UNL A   1      40.692  35.445  36.865  1.00  0.00     0.135 A 
ATOM     89  C   UNL A   1      39.116  34.087  38.072  1.00  0.00     0.135 A 
ATOM     90  F   UNL A   1      41.521  35.645  35.828  1.00  0.00    -0.206 F 
ATOM     91  C   UNL A   1      40.602  36.432  37.840  1.00  0.00     0.059 A 
ATOM     92  C   UNL A   1      38.990  35.072  39.046  1.00  0.00     0.059 A 
ATOM     93  F   UNL A   1      38.388  32.967  38.208  1.00  0.00    -0.206 F 
ATOM     94  C   UNL A   1      39.747  36.238  38.926  1.00  0.00     0.060 A 
BRANCH  94  95
ATOM     95  S   UNL A   1      39.610  37.542  40.167  1.00  0.00     0.124 S 
ATOM     96  O   UNL A   1      40.659  38.462  39.742  1.00  0.00    -0.237 OA
ATOM     97  O   UNL A   1      38.240  38.011  39.978  1.00  0.00    -0.237 OA
ATOM     98  O   UNL A   1      39.858  36.842  41.424  1.00  0.00    -0.744 OA
ENDBRANCH  94  95
ENDBRANCH  62  87
ENDBRANCH  36  37
ENDBRANCH  28  31
ENDBRANCH  26  27
ENDBRANCH   1  26
TORSDOF 17
ENDMDL
MODEL 3
REMARK VINA RESULT:     -11.2      3.422      4.942
REMARK SMILES Nc1cc(C(=O)NCCCCNC(=O)c2ccc(-c3c4nc(c(-c5c(F)cc(S(=O)(=O)[O-])cc5F)c5ccc([nH]5)c(-c5c(F)cc(S(=O)(=O)[O-])cc5F)c5nc(c(-c6c(F)cc(S(=O)(=O)[O-])cc6F)c6ccc3[nH]6)C=C5)C=C4)cc2)c(-c2ccc(F)cc2O)cn1
REMARK SMILES IDX 10 1 9 2 8 3 7 4 5 5 6 6 4 8 2 9 3 10 91 11 90 12 81 13 1 14
REMARK SMILES IDX 82 17 83 18 88 19 84 20 87 21 85 22 86 23 89 24 11 26 12 27
REMARK SMILES IDX 13 28 14 30 15 31 16 32 80 33 17 34 79 35 18 36 19 37 20 38
REMARK SMILES IDX 73 39 21 40 78 41 72 42 74 43 22 44 77 45 71 46 70 47 23 49
REMARK SMILES IDX 57 50 36 51 56 52 37 53 40 54 55 55 75 56 38 57 39 58 54 60
REMARK SMILES IDX 76 61 41 62 24 63 25 64 34 65 26 66 27 67 33 68 35 69 28 70
REMARK SMILES IDX 29 71 30 72 31 73 32 74 58 75 59 76 68 77 60 78 61 79 67 80
REMARK SMILES IDX 69 81 62 82 63 83 64 84 65 85 66 86 42 87 43 88 52 89 44 90
REMARK SMILES IDX 45 91 51 92 53 93 46 94 47 95 48 96 49 97 50 98
REMARK H PARENT 7 7 1 15 1 16 89 25 12 29 74 48 40 59
REMARK Flexibility Score: inf
ROOT
ATOM      1  C   UNL A   1      34.164  29.453  26.870  1.00  0.00     0.023 C 
ENDROOT
BRANCH   1   2
ATOM      2  C   UNL A   1      33.169  28.339  27.229  1.00  0.00     0.023 C 
BRANCH   2   3
ATOM      3  C   UNL A   1      31.808  28.466  26.536  1.00  0.00     0.116 C 
BRANCH   3   4
ATOM      4  N   UNL A   1      31.020  27.277  26.787  1.00  0.00    -0.352 N 
ATOM      5  C   UNL A   1      30.669  26.186  26.037  1.00  0.00     0.252 C 
ATOM      6  O   UNL A   1      29.732  25.531  26.496  1.00  0.00    -0.269 OA
ATOM      7  H   UNL A   1      30.655  27.247  27.702  1.00  0.00     0.163 HD
BRANCH   5   8
ATOM      8  C   UNL A   1      31.329  25.760  24.756  1.00  0.00     0.052 A 
ATOM      9  C   UNL A   1      32.907  24.367  23.560  1.00  0.00     0.124 A 
ATOM     10  C   UNL A   1      32.380  24.834  24.753  1.00  0.00     0.061 A 
ATOM     11  N   UNL A   1      32.509  24.825  22.374  1.00  0.00    -0.239 NA
ATOM     12  C   UNL A   1      31.558  25.786  22.379  1.00  0.00     0.123 A 
ATOM     13  C   UNL A   1      30.920  26.304  23.514  1.00  0.00     0.017 A 
BRANCH   9  14
ATOM     14  N   UNL A   1      33.924  23.433  23.553  1.00  0.00    -0.384 N 
ATOM     15  H   UNL A   1      34.533  23.363  24.324  1.00  0.00     0.158 HD
ATOM     16  H   UNL A   1      34.041  22.838  22.777  1.00  0.00     0.158 HD
ENDBRANCH   9  14
BRANCH  13  17
ATOM     17  C   UNL A   1      29.926  27.379  23.294  1.00  0.00     0.026 A 
ATOM     18  C   UNL A   1      30.348  28.682  22.969  1.00  0.00     0.015 A 
ATOM     19  C   UNL A   1      28.545  27.185  23.495  1.00  0.00     0.126 A 
ATOM     20  C   UNL A   1      29.424  29.727  22.845  1.00  0.00     0.040 A 
ATOM     21  C   UNL A   1      27.618  28.216  23.376  1.00  0.00     0.086 A 
ATOM     22  C   UNL A   1      28.071  29.483  23.049  1.00  0.00     0.126 A 
ATOM     23  F   UNL A   1      27.193  30.487  22.924  1.00  0.00    -0.207 F 
BRANCH  19  24
ATOM     24  O   UNL A   1      28.042  25.937  23.745  1.00  0.00    -0.507 OA
ATOM     25  H   UNL A   1      27.189  25.704  23.434  1.00  0.00     0.293 HD
ENDBRANCH  19  24
ENDBRANCH  13  17
ENDBRANCH   5   8
ENDBRANCH   3   4
ENDBRANCH   2   3
ENDBRANCH   1   2
BRANCH   1  26
ATOM     26  C   UNL A   1      35.466  29.438  27.665  1.00  0.00     0.116 C 
BRANCH  26  27
ATOM     27  N   UNL A   1      35.312  29.945  29.019  1.00  0.00    -0.352 N 
ATOM     28  C   UNL A   1      36.278  30.151  29.975  1.00  0.00     0.251 C 
ATOM     29  H   UNL A   1      34.392  30.171  29.287  1.00  0.00     0.163 HD
ATOM     30  O   UNL A   1      35.958  30.487  31.107  1.00  0.00    -0.269 OA
BRANCH  28  31
ATOM     31  C   UNL A   1      37.696  29.920  29.630  1.00  0.00     0.039 A 
ATOM     32  C   UNL A   1      38.577  29.539  30.646  1.00  0.00     0.014 A 
ATOM     33  C   UNL A   1      38.146  30.054  28.314  1.00  0.00     0.014 A 
ATOM     34  C   UNL A   1      39.900  29.230  30.329  1.00  0.00     0.010 A 
ATOM     35  C   UNL A   1      39.450  29.689  27.992  1.00  0.00     0.010 A 
ATOM     36  C   UNL A   1      40.337  29.270  28.994  1.00  0.00    -0.014 A 
BRANCH  36  37
ATOM     37  C   UNL A   1      41.717  28.866  28.627  1.00  0.00     0.031 A 
ATOM     38  C   UNL A   1      42.815  29.891  28.574  1.00  0.00     0.074 A 
ATOM     39  C   UNL A   1      41.962  27.588  28.277  1.00  0.00     0.049 A 
ATOM     40  N   UNL A   1      44.060  29.748  28.204  1.00  0.00    -0.248 NA
ATOM     41  C   UNL A   1      42.458  31.265  28.964  1.00  0.00     0.031 C 
ATOM     42  C   UNL A   1      40.966  26.514  28.241  1.00  0.00     0.029 A 
ATOM     43  N   UNL A   1      43.122  26.976  27.872  1.00  0.00    -0.354 N 
ATOM     44  C   UNL A   1      44.633  31.010  28.302  1.00  0.00     0.074 A 
ATOM     45  C   UNL A   1      43.586  31.917  28.722  1.00  0.00     0.031 C 
ATOM     46  C   UNL A   1      41.561  25.374  27.852  1.00  0.00     0.029 A 
ATOM     47  C   UNL A   1      42.970  25.641  27.581  1.00  0.00     0.049 A 
ATOM     48  H   UNL A   1      43.982  27.450  27.798  1.00  0.00     0.167 HD
ATOM     49  C   UNL A   1      45.919  31.374  28.084  1.00  0.00     0.037 A 
ATOM     50  C   UNL A   1      43.865  24.736  27.138  1.00  0.00     0.037 A 
ATOM     51  C   UNL A   1      46.961  30.461  27.696  1.00  0.00     0.049 A 
ATOM     52  C   UNL A   1      45.290  25.164  26.916  1.00  0.00     0.074 A 
ATOM     53  C   UNL A   1      48.307  30.721  27.506  1.00  0.00     0.029 A 
ATOM     54  N   UNL A   1      46.776  29.110  27.442  1.00  0.00    -0.354 N 
ATOM     55  N   UNL A   1      45.827  26.351  27.071  1.00  0.00    -0.248 NA
ATOM     56  C   UNL A   1      46.232  24.130  26.466  1.00  0.00     0.031 C 
ATOM     57  C   UNL A   1      48.929  29.534  27.104  1.00  0.00     0.029 A 
ATOM     58  C   UNL A   1      47.979  28.526  27.084  1.00  0.00     0.049 A 
ATOM     59  H   UNL A   1      45.915  28.636  27.506  1.00  0.00     0.167 HD
ATOM     60  C   UNL A   1      47.174  26.200  26.762  1.00  0.00     0.074 A 
ATOM     61  C   UNL A   1      47.372  24.807  26.423  1.00  0.00     0.031 C 
ATOM     62  C   UNL A   1      48.158  27.134  26.759  1.00  0.00     0.037 A 
BRANCH  49  63
ATOM     63  C   UNL A   1      46.274  32.822  28.275  1.00  0.00     0.058 A 
ATOM     64  C   UNL A   1      46.746  33.305  29.507  1.00  0.00     0.135 A 
ATOM     65  C   UNL A   1      46.178  33.730  27.208  1.00  0.00     0.135 A 
ATOM     66  F   UNL A   1      46.841  32.483  30.564  1.00  0.00    -0.206 F 
ATOM     67  C   UNL A   1      47.087  34.642  29.680  1.00  0.00     0.059 A 
ATOM     68  C   UNL A   1      46.539  35.067  27.353  1.00  0.00     0.059 A 
ATOM     69  F   UNL A   1      45.731  33.321  26.011  1.00  0.00    -0.206 F 
ATOM     70  C   UNL A   1      46.980  35.516  28.597  1.00  0.00     0.060 A 
BRANCH  70  71
ATOM     71  S   UNL A   1      47.435  37.247  28.838  1.00  0.00     0.124 S 
ATOM     72  O   UNL A   1      46.508  37.919  27.933  1.00  0.00    -0.237 OA
ATOM     73  O   UNL A   1      47.183  37.441  30.262  1.00  0.00    -0.237 OA
ATOM     74  O   UNL A   1      48.839  37.286  28.441  1.00  0.00    -0.744 OA
ENDBRANCH  70  71
ENDBRANCH  49  63
BRANCH  50  75
ATOM     75  C   UNL A   1      43.446  23.331  26.896  1.00  0.00     0.058 A 
ATOM     76  C   UNL A   1      43.175  22.466  27.966  1.00  0.00     0.135 A 
ATOM     77  C   UNL A   1      43.305  22.826  25.594  1.00  0.00     0.135 A 
ATOM     78  F   UNL A   1      43.300  22.903  29.229  1.00  0.00    -0.206 F 
ATOM     79  C   UNL A   1      42.800  21.144  27.758  1.00  0.00     0.059 A 
ATOM     80  C   UNL A   1      42.908  21.512  25.360  1.00  0.00     0.059 A 
ATOM     81  F   UNL A   1      43.533  23.619  24.536  1.00  0.00    -0.206 F 
ATOM     82  C   UNL A   1      42.671  20.676  26.449  1.00  0.00     0.060 A 
BRANCH  82  83
ATOM     83  S   UNL A   1      42.147  18.967  26.186  1.00  0.00     0.124 S 
ATOM     84  O   UNL A   1      42.378  18.384  27.502  1.00  0.00    -0.237 OA
ATOM     85  O   UNL A   1      40.749  19.129  25.796  1.00  0.00    -0.237 OA
ATOM     86  O   UNL A   1      43.035  18.505  25.124  1.00  0.00    -0.744 OA
ENDBRANCH  82  83
ENDBRANCH  50  75
BRANCH  62  87
ATOM     87  C   UNL A   1      49.544  26.671  26.409  1.00  0.00     0.058 A 
ATOM     88  C   UNL A   1      50.370  26.041  27.353  1.00  0.00     0.135 A 
ATOM     89  C   UNL A   1      50.031  26.814  25.100  1.00  0.00     0.135 A 
ATOM     90  F   UNL A   1      49.954  25.889  28.619  1.00  0.00    -0.206 F 
ATOM     91  C   UNL A   1      51.641  25.587  27.015  1.00  0.00     0.059 A 
ATOM     92  C   UNL A   1      51.288  26.344  24.733  1.00  0.00     0.059 A 
ATOM     93  F   UNL A   1      49.275  27.401  24.158  1.00  0.00    -0.206 F 
ATOM     94  C   UNL A   1      52.091  25.742  25.702  1.00  0.00     0.060 A 
BRANCH  94  95
ATOM     95  S   UNL A   1      53.726  25.116  25.266  1.00  0.00     0.124 S 
ATOM     96  O   UNL A   1      53.532  23.675  25.391  1.00  0.00    -0.237 OA
ATOM     97  O   UNL A   1      53.901  25.616  23.906  1.00  0.00    -0.237 OA
ATOM     98  O   UNL A   1      54.600  25.722  26.266  1.00  0.00    -0.744 OA
ENDBRANCH  94  95
ENDBRANCH  62  87
ENDBRANCH  36  37
ENDBRANCH  28  31
ENDBRANCH  26  27
ENDBRANCH   1  26
TORSDOF 17
ENDMDL
