MODEL 1
REMARK VINA RESULT:     -12.8      0.000      0.000
REMARK SMILES CCCCn1c(C[N@H+]2C[C@H]3C(=O)NC[C@@]3(C(=O)NCCCCNC(=O)c3ccc(-c4c5nc(c(-c6c(F)cc(S(=O)(=O)[O-])cc6F)c6ccc([nH]6)c(-c6c(F)cc(S(=O)(=O)[O-])cc6F)c6nc(c(-c7c(F)cc(S(=O)(=O)[O-])cc7F)c7ccc4[nH]7)C=C6)C=C5)cc3)C2)nc2ccccc21
REMARK SMILES IDX 19 1 18 2 16 3 17 4 15 6 8 7 9 8 92 9 10 11 11 12 14 13
REMARK SMILES IDX 12 14 13 15 7 17 6 18 5 19 99 20 93 21 94 22 98 23 95 24
REMARK SMILES IDX 97 25 96 26 4 27 3 28 2 29 1 30 20 31 21 32 22 33 23 34
REMARK SMILES IDX 24 35 25 37 26 38 27 39 91 40 28 41 90 42 29 43 30 44 31 45
REMARK SMILES IDX 84 46 32 47 89 48 83 49 85 50 33 51 88 52 82 53 81 54 34 56
REMARK SMILES IDX 68 57 47 58 67 59 48 60 51 61 66 62 86 63 49 64 50 65 65 67
REMARK SMILES IDX 87 68 52 69 35 70 36 71 45 72 37 73 38 74 44 75 46 76 39 77
REMARK SMILES IDX 40 78 41 79 42 80 43 81 69 82 70 83 79 84 71 85 72 86 78 87
REMARK SMILES IDX 80 88 73 89 74 90 75 91 76 92 77 93 53 94 54 95 63 96 55 97
REMARK SMILES IDX 56 98 62 99 64 100 57 101 58 102 59 103 60 104 61 105
REMARK H PARENT 18 5 8 10 13 16 23 36 85 55 51 66
REMARK Flexibility Score: inf
ROOT
ATOM      1  C   UNL A   1      33.109  27.893  24.825  1.00  0.00     0.116 C 
ENDROOT
BRANCH   1   2
ATOM      2  N   UNL A   1      31.794  27.450  25.275  1.00  0.00    -0.355 N 
ATOM      3  C   UNL A   1      30.984  26.472  24.716  1.00  0.00     0.234 C 
ATOM      4  O   UNL A   1      29.832  26.353  25.141  1.00  0.00    -0.274 OA
ATOM      5  H   UNL A   1      31.438  27.901  26.073  1.00  0.00     0.163 HD
BRANCH   3   6
ATOM      6  C   UNL A   1      31.608  25.558  23.590  1.00  0.00     0.132 C 
ATOM      7  N   UNL A   1      33.009  23.674  24.240  1.00  0.00    -0.327 N 
ATOM      8  C   UNL A   1      33.653  24.172  23.031  1.00  0.00     0.277 C 
ATOM      9  C   UNL A   1      32.371  24.891  24.777  1.00  0.00     0.282 C 
ATOM     10  H   UNL A   1      33.684  23.235  24.866  1.00  0.00     0.348 HD
ATOM     11  C   UNL A   1      32.973  25.514  22.776  1.00  0.00     0.156 C 
ATOM     12  C   UNL A   1      32.619  25.611  21.325  1.00  0.00     0.230 C 
ATOM     13  C   UNL A   1      31.034  26.642  22.611  1.00  0.00     0.139 C 
ATOM     14  O   UNL A   1      33.273  25.240  20.359  1.00  0.00    -0.275 OA
ATOM     15  N   UNL A   1      31.444  26.295  21.282  1.00  0.00    -0.354 N 
ATOM     16  H   UNL A   1      30.949  26.517  20.461  1.00  0.00     0.163 HD
BRANCH   7  17
ATOM     17  C   UNL A   1      32.043  22.566  24.046  1.00  0.00     0.339 C 
BRANCH  17  18
ATOM     18  C   UNL A   1      32.587  21.168  23.929  1.00  0.00     0.165 A 
ATOM     19  N   UNL A   1      33.620  20.635  24.682  1.00  0.00    -0.323 N 
ATOM     20  C   UNL A   1      33.769  19.307  24.304  1.00  0.00     0.068 A 
ATOM     21  N   UNL A   1      32.095  20.251  23.117  1.00  0.00    -0.227 NA
ATOM     22  C   UNL A   1      32.790  19.108  23.339  1.00  0.00     0.089 A 
ATOM     23  C   UNL A   1      34.610  18.262  24.715  1.00  0.00     0.028 A 
ATOM     24  C   UNL A   1      32.606  17.847  22.753  1.00  0.00     0.030 A 
ATOM     25  C   UNL A   1      34.414  17.003  24.122  1.00  0.00     0.002 A 
ATOM     26  C   UNL A   1      33.426  16.794  23.159  1.00  0.00     0.002 A 
BRANCH  19  27
ATOM     27  C   UNL A   1      34.260  21.248  25.837  1.00  0.00     0.124 C 
BRANCH  27  28
ATOM     28  C   UNL A   1      35.789  21.400  25.800  1.00  0.00     0.022 C 
BRANCH  28  29
ATOM     29  C   UNL A   1      36.447  21.835  24.481  1.00  0.00    -0.002 C 
ATOM     30  C   UNL A   1      36.896  23.290  24.403  1.00  0.00     0.004 C 
ENDBRANCH  28  29
ENDBRANCH  27  28
ENDBRANCH  19  27
ENDBRANCH  17  18
ENDBRANCH   7  17
ENDBRANCH   3   6
ENDBRANCH   1   2
BRANCH   1  31
ATOM     31  C   UNL A   1      34.030  28.277  25.988  1.00  0.00     0.023 C 
BRANCH  31  32
ATOM     32  C   UNL A   1      33.368  29.151  27.050  1.00  0.00     0.023 C 
BRANCH  32  33
ATOM     33  C   UNL A   1      33.614  30.658  26.886  1.00  0.00     0.116 C 
BRANCH  33  34
ATOM     34  N   UNL A   1      33.733  31.382  28.140  1.00  0.00    -0.352 N 
ATOM     35  C   UNL A   1      34.777  31.641  28.991  1.00  0.00     0.251 C 
ATOM     36  H   UNL A   1      32.881  31.769  28.443  1.00  0.00     0.163 HD
ATOM     37  O   UNL A   1      34.566  32.474  29.876  1.00  0.00    -0.269 OA
BRANCH  35  38
ATOM     38  C   UNL A   1      36.105  30.968  28.939  1.00  0.00     0.039 A 
ATOM     39  C   UNL A   1      36.287  29.589  28.892  1.00  0.00     0.014 A 
ATOM     40  C   UNL A   1      37.249  31.786  29.036  1.00  0.00     0.014 A 
ATOM     41  C   UNL A   1      37.551  29.033  29.017  1.00  0.00     0.010 A 
ATOM     42  C   UNL A   1      38.527  31.233  29.135  1.00  0.00     0.010 A 
ATOM     43  C   UNL A   1      38.671  29.850  29.163  1.00  0.00    -0.014 A 
BRANCH  43  44
ATOM     44  C   UNL A   1      39.948  29.156  29.307  1.00  0.00     0.031 A 
ATOM     45  C   UNL A   1      40.455  29.005  30.702  1.00  0.00     0.074 A 
ATOM     46  C   UNL A   1      40.666  28.664  28.280  1.00  0.00     0.049 A 
ATOM     47  N   UNL A   1      41.495  29.555  31.242  1.00  0.00    -0.248 NA
ATOM     48  C   UNL A   1      39.639  28.220  31.637  1.00  0.00     0.031 C 
ATOM     49  C   UNL A   1      40.259  28.469  26.889  1.00  0.00     0.029 A 
ATOM     50  N   UNL A   1      41.928  28.152  28.315  1.00  0.00    -0.354 N 
ATOM     51  C   UNL A   1      41.577  29.046  32.538  1.00  0.00     0.074 A 
ATOM     52  C   UNL A   1      40.346  28.330  32.763  1.00  0.00     0.031 C 
ATOM     53  C   UNL A   1      41.171  27.687  26.271  1.00  0.00     0.029 A 
ATOM     54  C   UNL A   1      42.282  27.446  27.178  1.00  0.00     0.049 A 
ATOM     55  H   UNL A   1      42.535  28.271  29.081  1.00  0.00     0.167 HD
ATOM     56  C   UNL A   1      42.721  29.107  33.276  1.00  0.00     0.037 A 
ATOM     57  C   UNL A   1      43.372  26.657  27.030  1.00  0.00     0.037 A 
ATOM     58  C   UNL A   1      43.642  30.084  32.756  1.00  0.00     0.049 A 
ATOM     59  C   UNL A   1      44.389  27.102  28.018  1.00  0.00     0.074 A 
ATOM     60  C   UNL A   1      43.603  31.449  32.548  1.00  0.00     0.029 A 
ATOM     61  N   UNL A   1      44.748  29.641  32.074  1.00  0.00    -0.354 N 
ATOM     62  N   UNL A   1      45.011  28.249  27.967  1.00  0.00    -0.248 NA
ATOM     63  C   UNL A   1      44.447  26.424  29.304  1.00  0.00     0.031 C 
ATOM     64  C   UNL A   1      44.385  31.672  31.377  1.00  0.00     0.029 A 
ATOM     65  C   UNL A   1      44.865  30.430  30.959  1.00  0.00     0.049 A 
ATOM     66  H   UNL A   1      45.343  28.901  32.335  1.00  0.00     0.167 HD
ATOM     67  C   UNL A   1      45.183  28.624  29.291  1.00  0.00     0.074 A 
ATOM     68  C   UNL A   1      44.915  27.415  30.064  1.00  0.00     0.031 C 
ATOM     69  C   UNL A   1      45.263  29.937  29.659  1.00  0.00     0.037 A 
BRANCH  56  70
ATOM     70  C   UNL A   1      43.157  28.061  34.280  1.00  0.00     0.058 A 
ATOM     71  C   UNL A   1      43.387  28.439  35.621  1.00  0.00     0.135 A 
ATOM     72  C   UNL A   1      43.652  26.789  33.915  1.00  0.00     0.135 A 
ATOM     73  F   UNL A   1      42.944  29.619  36.085  1.00  0.00    -0.206 F 
ATOM     74  C   UNL A   1      44.154  27.669  36.495  1.00  0.00     0.059 A 
ATOM     75  C   UNL A   1      44.372  25.981  34.788  1.00  0.00     0.059 A 
ATOM     76  F   UNL A   1      43.552  26.314  32.669  1.00  0.00    -0.206 F 
ATOM     77  C   UNL A   1      44.671  26.455  36.055  1.00  0.00     0.060 A 
BRANCH  77  78
ATOM     78  S   UNL A   1      45.818  25.548  37.108  1.00  0.00     0.124 S 
ATOM     79  O   UNL A   1      44.905  24.956  38.079  1.00  0.00    -0.237 OA
ATOM     80  O   UNL A   1      46.435  24.626  36.162  1.00  0.00    -0.237 OA
ATOM     81  O   UNL A   1      46.698  26.594  37.622  1.00  0.00    -0.744 OA
ENDBRANCH  77  78
ENDBRANCH  56  70
BRANCH  57  82
ATOM     82  C   UNL A   1      43.427  25.342  26.341  1.00  0.00     0.058 A 
ATOM     83  C   UNL A   1      44.315  25.112  25.277  1.00  0.00     0.135 A 
ATOM     84  C   UNL A   1      42.799  24.199  26.883  1.00  0.00     0.135 A 
ATOM     85  F   UNL A   1      44.979  26.137  24.720  1.00  0.00    -0.206 F 
ATOM     86  C   UNL A   1      44.598  23.825  24.806  1.00  0.00     0.059 A 
ATOM     87  C   UNL A   1      43.051  22.911  26.420  1.00  0.00     0.059 A 
ATOM     88  F   UNL A   1      41.988  24.287  27.947  1.00  0.00    -0.206 F 
ATOM     89  C   UNL A   1      43.972  22.728  25.399  1.00  0.00     0.060 A 
BRANCH  89  90
ATOM     90  S   UNL A   1      44.452  21.057  24.909  1.00  0.00     0.124 S 
ATOM     91  O   UNL A   1      45.671  20.853  25.685  1.00  0.00    -0.237 OA
ATOM     92  O   UNL A   1      43.293  20.273  25.320  1.00  0.00    -0.237 OA
ATOM     93  O   UNL A   1      44.644  21.168  23.465  1.00  0.00    -0.744 OA
ENDBRANCH  89  90
ENDBRANCH  57  82
BRANCH  69  94
ATOM     94  C   UNL A   1      45.490  30.973  28.591  1.00  0.00     0.058 A 
ATOM     95  C   UNL A   1      44.470  31.493  27.776  1.00  0.00     0.135 A 
ATOM     96  C   UNL A   1      46.749  31.592  28.518  1.00  0.00     0.135 A 
ATOM     97  F   UNL A   1      43.215  31.030  27.863  1.00  0.00    -0.206 F 
ATOM     98  C   UNL A   1      44.699  32.559  26.906  1.00  0.00     0.059 A 
ATOM     99  C   UNL A   1      46.993  32.677  27.679  1.00  0.00     0.059 A 
ATOM    100  F   UNL A   1      47.747  31.183  29.319  1.00  0.00    -0.206 F 
ATOM    101  C   UNL A   1      45.962  33.151  26.868  1.00  0.00     0.060 A 
BRANCH 101 102
ATOM    102  S   UNL A   1      46.218  34.604  25.826  1.00  0.00     0.124 S 
ATOM    103  O   UNL A   1      47.619  34.467  25.445  1.00  0.00    -0.237 OA
ATOM    104  O   UNL A   1      45.246  34.398  24.755  1.00  0.00    -0.237 OA
ATOM    105  O   UNL A   1      45.919  35.721  26.718  1.00  0.00    -0.744 OA
ENDBRANCH 101 102
ENDBRANCH  69  94
ENDBRANCH  43  44
ENDBRANCH  35  38
ENDBRANCH  33  34
ENDBRANCH  32  33
ENDBRANCH  31  32
ENDBRANCH   1  31
TORSDOF 19
ENDMDL
MODEL 2
REMARK VINA RESULT:     -12.7      2.796      9.758
REMARK SMILES CCCCn1c(C[N@H+]2C[C@H]3C(=O)NC[C@@]3(C(=O)NCCCCNC(=O)c3ccc(-c4c5nc(c(-c6c(F)cc(S(=O)(=O)[O-])cc6F)c6ccc([nH]6)c(-c6c(F)cc(S(=O)(=O)[O-])cc6F)c6nc(c(-c7c(F)cc(S(=O)(=O)[O-])cc7F)c7ccc4[nH]7)C=C6)C=C5)cc3)C2)nc2ccccc21
REMARK SMILES IDX 19 1 18 2 16 3 17 4 15 6 8 7 9 8 92 9 10 11 11 12 14 13
REMARK SMILES IDX 12 14 13 15 7 17 6 18 5 19 99 20 93 21 94 22 98 23 95 24
REMARK SMILES IDX 97 25 96 26 4 27 3 28 2 29 1 30 20 31 21 32 22 33 23 34
REMARK SMILES IDX 24 35 25 37 26 38 27 39 91 40 28 41 90 42 29 43 30 44 31 45
REMARK SMILES IDX 84 46 32 47 89 48 83 49 85 50 33 51 88 52 82 53 81 54 34 56
REMARK SMILES IDX 68 57 47 58 67 59 48 60 51 61 66 62 86 63 49 64 50 65 65 67
REMARK SMILES IDX 87 68 52 69 35 70 36 71 45 72 37 73 38 74 44 75 46 76 39 77
REMARK SMILES IDX 40 78 41 79 42 80 43 81 69 82 70 83 79 84 71 85 72 86 78 87
REMARK SMILES IDX 80 88 73 89 74 90 75 91 76 92 77 93 53 94 54 95 63 96 55 97
REMARK SMILES IDX 56 98 62 99 64 100 57 101 58 102 59 103 60 104 61 105
REMARK H PARENT 18 5 8 10 13 16 23 36 85 55 51 66
REMARK Flexibility Score: inf
ROOT
ATOM      1  C   UNL A   1      33.977  21.369  25.050  1.00  0.00     0.116 C 
ENDROOT
BRANCH   1   2
ATOM      2  N   UNL A   1      34.265  21.958  23.747  1.00  0.00    -0.355 N 
ATOM      3  C   UNL A   1      33.744  23.122  23.200  1.00  0.00     0.234 C 
ATOM      4  O   UNL A   1      33.983  23.369  22.016  1.00  0.00    -0.274 OA
ATOM      5  H   UNL A   1      34.909  21.469  23.187  1.00  0.00     0.163 HD
BRANCH   3   6
ATOM      6  C   UNL A   1      32.900  24.063  24.146  1.00  0.00     0.132 C 
ATOM      7  N   UNL A   1      34.012  25.926  25.254  1.00  0.00    -0.327 N 
ATOM      8  C   UNL A   1      33.061  25.459  26.253  1.00  0.00     0.277 C 
ATOM      9  C   UNL A   1      34.286  24.696  24.484  1.00  0.00     0.282 C 
ATOM     10  H   UNL A   1      34.833  26.347  25.690  1.00  0.00     0.348 HD
ATOM     11  C   UNL A   1      32.568  24.125  25.699  1.00  0.00     0.156 C 
ATOM     12  C   UNL A   1      31.077  24.067  25.828  1.00  0.00     0.230 C 
ATOM     13  C   UNL A   1      31.761  23.007  23.922  1.00  0.00     0.139 C 
ATOM     14  O   UNL A   1      30.381  24.462  26.755  1.00  0.00    -0.275 OA
ATOM     15  N   UNL A   1      30.643  23.387  24.733  1.00  0.00    -0.354 N 
ATOM     16  H   UNL A   1      29.701  23.188  24.529  1.00  0.00     0.163 HD
BRANCH   7  17
ATOM     17  C   UNL A   1      33.549  27.041  24.394  1.00  0.00     0.339 C 
BRANCH  17  18
ATOM     18  C   UNL A   1      33.216  28.351  25.055  1.00  0.00     0.165 A 
ATOM     19  N   UNL A   1      32.027  29.048  24.917  1.00  0.00    -0.323 N 
ATOM     20  C   UNL A   1      32.103  30.169  25.733  1.00  0.00     0.068 A 
ATOM     21  N   UNL A   1      34.012  28.972  25.903  1.00  0.00    -0.227 NA
ATOM     22  C   UNL A   1      33.350  30.073  26.339  1.00  0.00     0.089 A 
ATOM     23  C   UNL A   1      31.226  31.220  26.037  1.00  0.00     0.028 A 
ATOM     24  C   UNL A   1      33.764  31.023  27.284  1.00  0.00     0.030 A 
ATOM     25  C   UNL A   1      31.650  32.164  26.987  1.00  0.00     0.002 A 
ATOM     26  C   UNL A   1      32.897  32.068  27.605  1.00  0.00     0.002 A 
BRANCH  19  27
ATOM     27  C   UNL A   1      30.815  28.580  24.260  1.00  0.00     0.124 C 
BRANCH  27  28
ATOM     28  C   UNL A   1      30.246  29.446  23.125  1.00  0.00     0.022 C 
BRANCH  28  29
ATOM     29  C   UNL A   1      28.782  29.233  22.707  1.00  0.00    -0.002 C 
ATOM     30  C   UNL A   1      28.277  30.105  21.563  1.00  0.00     0.004 C 
ENDBRANCH  28  29
ENDBRANCH  27  28
ENDBRANCH  19  27
ENDBRANCH  17  18
ENDBRANCH   7  17
ENDBRANCH   3   6
ENDBRANCH   1   2
BRANCH   1  31
ATOM     31  C   UNL A   1      35.162  21.471  26.016  1.00  0.00     0.023 C 
BRANCH  31  32
ATOM     32  C   UNL A   1      36.520  21.213  25.371  1.00  0.00     0.023 C 
BRANCH  32  33
ATOM     33  C   UNL A   1      37.614  22.222  25.750  1.00  0.00     0.116 C 
BRANCH  33  34
ATOM     34  N   UNL A   1      38.922  21.629  25.969  1.00  0.00    -0.352 N 
ATOM     35  C   UNL A   1      40.058  22.046  26.614  1.00  0.00     0.251 C 
ATOM     36  H   UNL A   1      39.011  20.734  25.568  1.00  0.00     0.163 HD
ATOM     37  O   UNL A   1      40.933  21.193  26.787  1.00  0.00    -0.269 OA
BRANCH  35  38
ATOM     38  C   UNL A   1      40.311  23.441  27.074  1.00  0.00     0.039 A 
ATOM     39  C   UNL A   1      41.373  23.819  27.890  1.00  0.00     0.014 A 
ATOM     40  C   UNL A   1      39.355  24.418  26.731  1.00  0.00     0.014 A 
ATOM     41  C   UNL A   1      41.446  25.101  28.414  1.00  0.00     0.010 A 
ATOM     42  C   UNL A   1      39.438  25.718  27.234  1.00  0.00     0.010 A 
ATOM     43  C   UNL A   1      40.468  26.046  28.110  1.00  0.00    -0.014 A 
BRANCH  43  44
ATOM     44  C   UNL A   1      40.635  27.355  28.734  1.00  0.00     0.031 A 
ATOM     45  C   UNL A   1      41.750  28.193  28.203  1.00  0.00     0.074 A 
ATOM     46  C   UNL A   1      39.864  27.827  29.731  1.00  0.00     0.049 A 
ATOM     47  N   UNL A   1      42.842  28.550  28.801  1.00  0.00    -0.248 NA
ATOM     48  C   UNL A   1      41.679  28.598  26.793  1.00  0.00     0.031 C 
ATOM     49  C   UNL A   1      38.589  27.309  30.225  1.00  0.00     0.029 A 
ATOM     50  N   UNL A   1      40.053  28.957  30.468  1.00  0.00    -0.354 N 
ATOM     51  C   UNL A   1      43.521  29.380  27.909  1.00  0.00     0.074 A 
ATOM     52  C   UNL A   1      42.821  29.273  26.653  1.00  0.00     0.031 C 
ATOM     53  C   UNL A   1      38.018  28.238  31.023  1.00  0.00     0.029 A 
ATOM     54  C   UNL A   1      38.944  29.344  31.201  1.00  0.00     0.049 A 
ATOM     55  H   UNL A   1      40.902  29.456  30.479  1.00  0.00     0.167 HD
ATOM     56  C   UNL A   1      44.512  30.227  28.309  1.00  0.00     0.037 A 
ATOM     57  C   UNL A   1      38.776  30.527  31.838  1.00  0.00     0.037 A 
ATOM     58  C   UNL A   1      45.034  29.866  29.601  1.00  0.00     0.049 A 
ATOM     59  C   UNL A   1      40.126  31.087  32.114  1.00  0.00     0.074 A 
ATOM     60  C   UNL A   1      45.660  28.751  30.125  1.00  0.00     0.029 A 
ATOM     61  N   UNL A   1      44.684  30.632  30.685  1.00  0.00    -0.354 N 
ATOM     62  N   UNL A   1      40.980  30.568  32.954  1.00  0.00    -0.248 NA
ATOM     63  C   UNL A   1      40.691  32.028  31.158  1.00  0.00     0.031 C 
ATOM     64  C   UNL A   1      45.220  28.678  31.480  1.00  0.00     0.029 A 
ATOM     65  C   UNL A   1      44.371  29.763  31.698  1.00  0.00     0.049 A 
ATOM     66  H   UNL A   1      44.663  31.616  30.728  1.00  0.00     0.167 HD
ATOM     67  C   UNL A   1      42.224  30.794  32.386  1.00  0.00     0.074 A 
ATOM     68  C   UNL A   1      41.990  31.787  31.343  1.00  0.00     0.031 C 
ATOM     69  C   UNL A   1      43.283  29.965  32.629  1.00  0.00     0.037 A 
BRANCH  56  70
ATOM     70  C   UNL A   1      44.795  31.577  27.687  1.00  0.00     0.058 A 
ATOM     71  C   UNL A   1      46.005  31.776  26.984  1.00  0.00     0.135 A 
ATOM     72  C   UNL A   1      44.084  32.752  28.015  1.00  0.00     0.135 A 
ATOM     73  F   UNL A   1      46.755  30.730  26.602  1.00  0.00    -0.206 F 
ATOM     74  C   UNL A   1      46.526  33.046  26.736  1.00  0.00     0.059 A 
ATOM     75  C   UNL A   1      44.560  34.027  27.728  1.00  0.00     0.059 A 
ATOM     76  F   UNL A   1      42.948  32.726  28.721  1.00  0.00    -0.206 F 
ATOM     77  C   UNL A   1      45.809  34.166  27.144  1.00  0.00     0.060 A 
BRANCH  77  78
ATOM     78  S   UNL A   1      46.559  35.797  27.002  1.00  0.00     0.124 S 
ATOM     79  O   UNL A   1      45.474  36.652  27.473  1.00  0.00    -0.237 OA
ATOM     80  O   UNL A   1      47.714  35.680  27.887  1.00  0.00    -0.237 OA
ATOM     81  O   UNL A   1      46.873  35.898  25.580  1.00  0.00    -0.744 OA
ENDBRANCH  77  78
ENDBRANCH  56  70
BRANCH  57  82
ATOM     82  C   UNL A   1      37.532  31.337  31.891  1.00  0.00     0.058 A 
ATOM     83  C   UNL A   1      36.977  31.743  33.116  1.00  0.00     0.135 A 
ATOM     84  C   UNL A   1      37.007  31.956  30.735  1.00  0.00     0.135 A 
ATOM     85  F   UNL A   1      37.435  31.230  34.268  1.00  0.00    -0.206 F 
ATOM     86  C   UNL A   1      35.992  32.734  33.195  1.00  0.00     0.059 A 
ATOM     87  C   UNL A   1      36.014  32.930  30.788  1.00  0.00     0.059 A 
ATOM     88  F   UNL A   1      37.508  31.700  29.518  1.00  0.00    -0.206 F 
ATOM     89  C   UNL A   1      35.530  33.335  32.023  1.00  0.00     0.060 A 
BRANCH  89  90
ATOM     90  S   UNL A   1      34.381  34.724  32.128  1.00  0.00     0.124 S 
ATOM     91  O   UNL A   1      34.143  35.026  30.720  1.00  0.00    -0.237 OA
ATOM     92  O   UNL A   1      33.259  34.138  32.854  1.00  0.00    -0.237 OA
ATOM     93  O   UNL A   1      35.135  35.735  32.864  1.00  0.00    -0.744 OA
ENDBRANCH  89  90
ENDBRANCH  57  82
BRANCH  69  94
ATOM     94  C   UNL A   1      43.188  28.988  33.770  1.00  0.00     0.058 A 
ATOM     95  C   UNL A   1      43.528  29.301  35.097  1.00  0.00     0.135 A 
ATOM     96  C   UNL A   1      42.559  27.753  33.542  1.00  0.00     0.135 A 
ATOM     97  F   UNL A   1      44.033  30.501  35.415  1.00  0.00    -0.206 F 
ATOM     98  C   UNL A   1      43.281  28.413  36.145  1.00  0.00     0.059 A 
ATOM     99  C   UNL A   1      42.275  26.865  34.576  1.00  0.00     0.059 A 
ATOM    100  F   UNL A   1      42.152  27.425  32.304  1.00  0.00    -0.206 F 
ATOM    101  C   UNL A   1      42.647  27.199  35.877  1.00  0.00     0.060 A 
BRANCH 101 102
ATOM    102  S   UNL A   1      42.227  26.109  37.254  1.00  0.00     0.124 S 
ATOM    103  O   UNL A   1      40.831  26.453  37.505  1.00  0.00    -0.237 OA
ATOM    104  O   UNL A   1      42.461  24.782  36.689  1.00  0.00    -0.237 OA
ATOM    105  O   UNL A   1      43.165  26.503  38.301  1.00  0.00    -0.744 OA
ENDBRANCH 101 102
ENDBRANCH  69  94
ENDBRANCH  43  44
ENDBRANCH  35  38
ENDBRANCH  33  34
ENDBRANCH  32  33
ENDBRANCH  31  32
ENDBRANCH   1  31
TORSDOF 19
ENDMDL
MODEL 3
REMARK VINA RESULT:     -12.6      2.922      9.619
REMARK SMILES CCCCn1c(C[N@H+]2C[C@H]3C(=O)NC[C@@]3(C(=O)NCCCCNC(=O)c3ccc(-c4c5nc(c(-c6c(F)cc(S(=O)(=O)[O-])cc6F)c6ccc([nH]6)c(-c6c(F)cc(S(=O)(=O)[O-])cc6F)c6nc(c(-c7c(F)cc(S(=O)(=O)[O-])cc7F)c7ccc4[nH]7)C=C6)C=C5)cc3)C2)nc2ccccc21
REMARK SMILES IDX 19 1 18 2 16 3 17 4 15 6 8 7 9 8 92 9 10 11 11 12 14 13
REMARK SMILES IDX 12 14 13 15 7 17 6 18 5 19 99 20 93 21 94 22 98 23 95 24
REMARK SMILES IDX 97 25 96 26 4 27 3 28 2 29 1 30 20 31 21 32 22 33 23 34
REMARK SMILES IDX 24 35 25 37 26 38 27 39 91 40 28 41 90 42 29 43 30 44 31 45
REMARK SMILES IDX 84 46 32 47 89 48 83 49 85 50 33 51 88 52 82 53 81 54 34 56
REMARK SMILES IDX 68 57 47 58 67 59 48 60 51 61 66 62 86 63 49 64 50 65 65 67
REMARK SMILES IDX 87 68 52 69 35 70 36 71 45 72 37 73 38 74 44 75 46 76 39 77
REMARK SMILES IDX 40 78 41 79 42 80 43 81 69 82 70 83 79 84 71 85 72 86 78 87
REMARK SMILES IDX 80 88 73 89 74 90 75 91 76 92 77 93 53 94 54 95 63 96 55 97
REMARK SMILES IDX 56 98 62 99 64 100 57 101 58 102 59 103 60 104 61 105
REMARK H PARENT 18 5 8 10 13 16 23 36 85 55 51 66
REMARK Flexibility Score: inf
ROOT
ATOM      1  C   UNL A   1      35.050  23.470  25.672  1.00  0.00     0.116 C 
ENDROOT
BRANCH   1   2
ATOM      2  N   UNL A   1      34.679  22.773  24.445  1.00  0.00    -0.355 N 
ATOM      3  C   UNL A   1      33.409  22.585  23.920  1.00  0.00     0.234 C 
ATOM      4  O   UNL A   1      33.281  21.825  22.957  1.00  0.00    -0.274 OA
ATOM      5  H   UNL A   1      35.422  22.389  23.927  1.00  0.00     0.163 HD
BRANCH   3   6
ATOM      6  C   UNL A   1      32.216  23.383  24.578  1.00  0.00     0.132 C 
ATOM      7  N   UNL A   1      32.232  25.817  24.487  1.00  0.00    -0.327 N 
ATOM      8  C   UNL A   1      31.670  25.533  25.801  1.00  0.00     0.277 C 
ATOM      9  C   UNL A   1      33.085  24.637  24.250  1.00  0.00     0.282 C 
ATOM     10  H   UNL A   1      32.726  26.710  24.479  1.00  0.00     0.348 HD
ATOM     11  C   UNL A   1      31.923  24.040  25.996  1.00  0.00     0.156 C 
ATOM     12  C   UNL A   1      30.676  23.402  26.522  1.00  0.00     0.230 C 
ATOM     13  C   UNL A   1      31.777  21.976  25.116  1.00  0.00     0.139 C 
ATOM     14  O   UNL A   1      29.889  23.844  27.351  1.00  0.00    -0.275 OA
ATOM     15  N   UNL A   1      30.634  22.164  25.960  1.00  0.00    -0.354 N 
ATOM     16  H   UNL A   1      29.925  21.498  26.110  1.00  0.00     0.163 HD
BRANCH   7  17
ATOM     17  C   UNL A   1      31.249  26.033  23.399  1.00  0.00     0.339 C 
BRANCH  17  18
ATOM     18  C   UNL A   1      30.402  27.276  23.447  1.00  0.00     0.165 A 
ATOM     19  N   UNL A   1      30.870  28.567  23.627  1.00  0.00    -0.323 N 
ATOM     20  C   UNL A   1      29.778  29.421  23.550  1.00  0.00     0.068 A 
ATOM     21  N   UNL A   1      29.095  27.286  23.265  1.00  0.00    -0.227 NA
ATOM     22  C   UNL A   1      28.697  28.582  23.309  1.00  0.00     0.089 A 
ATOM     23  C   UNL A   1      29.616  30.812  23.626  1.00  0.00     0.028 A 
ATOM     24  C   UNL A   1      27.409  29.105  23.123  1.00  0.00     0.030 A 
ATOM     25  C   UNL A   1      28.322  31.325  23.434  1.00  0.00     0.002 A 
ATOM     26  C   UNL A   1      27.234  30.488  23.183  1.00  0.00     0.002 A 
BRANCH  19  27
ATOM     27  C   UNL A   1      32.261  28.996  23.628  1.00  0.00     0.124 C 
BRANCH  27  28
ATOM     28  C   UNL A   1      32.948  29.163  24.993  1.00  0.00     0.022 C 
BRANCH  28  29
ATOM     29  C   UNL A   1      32.257  30.032  26.056  1.00  0.00    -0.002 C 
ATOM     30  C   UNL A   1      33.165  30.631  27.125  1.00  0.00     0.004 C 
ENDBRANCH  28  29
ENDBRANCH  27  28
ENDBRANCH  19  27
ENDBRANCH  17  18
ENDBRANCH   7  17
ENDBRANCH   3   6
ENDBRANCH   1   2
BRANCH   1  31
ATOM     31  C   UNL A   1      36.565  23.646  25.813  1.00  0.00     0.023 C 
BRANCH  31  32
ATOM     32  C   UNL A   1      37.390  22.593  25.078  1.00  0.00     0.023 C 
BRANCH  32  33
ATOM     33  C   UNL A   1      38.329  21.772  25.973  1.00  0.00     0.116 C 
BRANCH  33  34
ATOM     34  N   UNL A   1      39.721  21.801  25.560  1.00  0.00    -0.352 N 
ATOM     35  C   UNL A   1      40.804  22.563  25.921  1.00  0.00     0.251 C 
ATOM     36  H   UNL A   1      39.933  21.130  24.872  1.00  0.00     0.163 HD
ATOM     37  O   UNL A   1      41.903  22.178  25.513  1.00  0.00    -0.269 OA
BRANCH  35  38
ATOM     38  C   UNL A   1      40.732  23.816  26.725  1.00  0.00     0.039 A 
ATOM     39  C   UNL A   1      39.930  24.908  26.408  1.00  0.00     0.014 A 
ATOM     40  C   UNL A   1      41.607  23.930  27.823  1.00  0.00     0.014 A 
ATOM     41  C   UNL A   1      40.045  26.100  27.106  1.00  0.00     0.010 A 
ATOM     42  C   UNL A   1      41.708  25.119  28.547  1.00  0.00     0.010 A 
ATOM     43  C   UNL A   1      40.950  26.219  28.160  1.00  0.00    -0.014 A 
BRANCH  43  44
ATOM     44  C   UNL A   1      41.000  27.526  28.808  1.00  0.00     0.031 A 
ATOM     45  C   UNL A   1      42.080  28.444  28.343  1.00  0.00     0.074 A 
ATOM     46  C   UNL A   1      40.153  27.930  29.773  1.00  0.00     0.049 A 
ATOM     47  N   UNL A   1      43.116  28.863  28.997  1.00  0.00    -0.248 NA
ATOM     48  C   UNL A   1      42.050  28.866  26.936  1.00  0.00     0.031 C 
ATOM     49  C   UNL A   1      38.893  27.321  30.198  1.00  0.00     0.029 A 
ATOM     50  N   UNL A   1      40.230  29.059  30.532  1.00  0.00    -0.354 N 
ATOM     51  C   UNL A   1      43.780  29.750  28.150  1.00  0.00     0.074 A 
ATOM     52  C   UNL A   1      43.149  29.617  26.860  1.00  0.00     0.031 C 
ATOM     53  C   UNL A   1      38.224  28.198  30.979  1.00  0.00     0.029 A 
ATOM     54  C   UNL A   1      39.065  29.360  31.216  1.00  0.00     0.049 A 
ATOM     55  H   UNL A   1      41.043  29.613  30.591  1.00  0.00     0.167 HD
ATOM     56  C   UNL A   1      44.692  30.654  28.608  1.00  0.00     0.037 A 
ATOM     57  C   UNL A   1      38.788  30.519  31.859  1.00  0.00     0.037 A 
ATOM     58  C   UNL A   1      45.176  30.308  29.920  1.00  0.00     0.049 A 
ATOM     59  C   UNL A   1      40.082  31.162  32.207  1.00  0.00     0.074 A 
ATOM     60  C   UNL A   1      45.848  29.229  30.459  1.00  0.00     0.029 A 
ATOM     61  N   UNL A   1      44.724  31.032  30.995  1.00  0.00    -0.354 N 
ATOM     62  N   UNL A   1      40.928  30.688  33.081  1.00  0.00    -0.248 NA
ATOM     63  C   UNL A   1      40.628  32.153  31.292  1.00  0.00     0.031 C 
ATOM     64  C   UNL A   1      45.351  29.105  31.790  1.00  0.00     0.029 A 
ATOM     65  C   UNL A   1      44.422  30.128  31.980  1.00  0.00     0.049 A 
ATOM     66  H   UNL A   1      44.635  32.011  31.049  1.00  0.00     0.167 HD
ATOM     67  C   UNL A   1      42.181  31.004  32.576  1.00  0.00     0.074 A 
ATOM     68  C   UNL A   1      41.931  31.996  31.536  1.00  0.00     0.031 C 
ATOM     69  C   UNL A   1      43.279  30.243  32.860  1.00  0.00     0.037 A 
BRANCH  56  70
ATOM     70  C   UNL A   1      44.914  32.029  28.017  1.00  0.00     0.058 A 
ATOM     71  C   UNL A   1      46.168  32.346  27.448  1.00  0.00     0.135 A 
ATOM     72  C   UNL A   1      44.066  33.131  28.266  1.00  0.00     0.135 A 
ATOM     73  F   UNL A   1      47.049  31.376  27.151  1.00  0.00    -0.206 F 
ATOM     74  C   UNL A   1      46.593  33.660  27.256  1.00  0.00     0.059 A 
ATOM     75  C   UNL A   1      44.449  34.447  28.029  1.00  0.00     0.059 A 
ATOM     76  F   UNL A   1      42.868  32.995  28.845  1.00  0.00    -0.206 F 
ATOM     77  C   UNL A   1      45.735  34.706  27.582  1.00  0.00     0.060 A 
BRANCH  77  78
ATOM     78  S   UNL A   1      46.342  36.400  27.519  1.00  0.00     0.124 S 
ATOM     79  O   UNL A   1      45.250  37.118  28.169  1.00  0.00    -0.237 OA
ATOM     80  O   UNL A   1      47.587  36.307  28.273  1.00  0.00    -0.237 OA
ATOM     81  O   UNL A   1      46.498  36.646  26.088  1.00  0.00    -0.744 OA
ENDBRANCH  77  78
ENDBRANCH  56  70
BRANCH  57  82
ATOM     82  C   UNL A   1      37.491  31.244  31.861  1.00  0.00     0.058 A 
ATOM     83  C   UNL A   1      36.864  31.613  33.063  1.00  0.00     0.135 A 
ATOM     84  C   UNL A   1      36.971  31.826  30.684  1.00  0.00     0.135 A 
ATOM     85  F   UNL A   1      37.312  31.132  34.233  1.00  0.00    -0.206 F 
ATOM     86  C   UNL A   1      35.813  32.536  33.101  1.00  0.00     0.059 A 
ATOM     87  C   UNL A   1      35.914  32.731  30.696  1.00  0.00     0.059 A 
ATOM     88  F   UNL A   1      37.534  31.603  29.488  1.00  0.00    -0.206 F 
ATOM     89  C   UNL A   1      35.358  33.103  31.911  1.00  0.00     0.060 A 
BRANCH  89  90
ATOM     90  S   UNL A   1      34.115  34.413  31.967  1.00  0.00     0.124 S 
ATOM     91  O   UNL A   1      33.705  34.501  30.570  1.00  0.00    -0.237 OA
ATOM     92  O   UNL A   1      33.128  33.859  32.889  1.00  0.00    -0.237 OA
ATOM     93  O   UNL A   1      34.857  35.565  32.473  1.00  0.00    -0.744 OA
ENDBRANCH  89  90
ENDBRANCH  57  82
BRANCH  69  94
ATOM     94  C   UNL A   1      43.196  29.244  33.982  1.00  0.00     0.058 A 
ATOM     95  C   UNL A   1      43.388  29.570  35.335  1.00  0.00     0.135 A 
ATOM     96  C   UNL A   1      42.725  27.952  33.694  1.00  0.00     0.135 A 
ATOM     97  F   UNL A   1      43.732  30.813  35.703  1.00  0.00    -0.206 F 
ATOM     98  C   UNL A   1      43.152  28.645  36.353  1.00  0.00     0.059 A 
ATOM     99  C   UNL A   1      42.454  27.023  34.694  1.00  0.00     0.059 A 
ATOM    100  F   UNL A   1      42.461  27.601  32.424  1.00  0.00    -0.206 F 
ATOM    101  C   UNL A   1      42.678  27.375  36.025  1.00  0.00     0.060 A 
BRANCH 101 102
ATOM    102  S   UNL A   1      42.264  26.225  37.354  1.00  0.00     0.124 S 
ATOM    103  O   UNL A   1      43.245  26.570  38.377  1.00  0.00    -0.237 OA
ATOM    104  O   UNL A   1      40.879  26.578  37.657  1.00  0.00    -0.237 OA
ATOM    105  O   UNL A   1      42.440  24.912  36.738  1.00  0.00    -0.744 OA
ENDBRANCH 101 102
ENDBRANCH  69  94
ENDBRANCH  43  44
ENDBRANCH  35  38
ENDBRANCH  33  34
ENDBRANCH  32  33
ENDBRANCH  31  32
ENDBRANCH   1  31
TORSDOF 19
ENDMDL
