MODEL 1
REMARK VINA RESULT:     -11.7      0.000      0.000
REMARK SMILES Cc1nccc(CNC(=O)N2CC[C@@H](C(=O)NCCCCNC(=O)c3ccc(-c4c5nc(c(-c6c(F)cc(S(=O)(=O)[O-])cc6F)c6ccc([nH]6)c(-c6c(F)cc(S(=O)(=O)[O-])cc6F)c6nc(c(-c7c(F)cc(S(=O)(=O)[O-])cc7F)c7ccc4[nH]7)C=C6)C=C5)cc3)[C@H]2C)n1
REMARK SMILES IDX 19 1 18 2 17 3 15 4 16 5 14 7 11 8 12 9 91 10 13 11 92 12
REMARK SMILES IDX 9 13 8 14 10 16 7 17 6 18 1 19 2 20 3 21 93 22 4 23 5 24
REMARK SMILES IDX 20 25 21 26 22 27 23 28 24 30 25 31 26 32 90 33 27 34 89 35
REMARK SMILES IDX 28 36 29 37 30 38 83 39 31 40 88 41 82 42 84 43 32 44 87 45
REMARK SMILES IDX 81 46 80 47 33 49 67 50 46 51 66 52 47 53 50 54 65 55 85 56
REMARK SMILES IDX 48 57 49 58 64 60 86 61 51 62 34 63 35 64 44 65 36 66 37 67
REMARK SMILES IDX 43 68 45 69 38 70 39 71 40 72 41 73 42 74 68 75 69 76 78 77
REMARK SMILES IDX 70 78 71 79 77 80 79 81 72 82 73 83 74 84 75 85 76 86 52 87
REMARK SMILES IDX 53 88 62 89 54 90 55 91 61 92 63 93 56 94 57 95 58 96 59 97
REMARK SMILES IDX 60 98
REMARK H PARENT 17 6 8 15 22 29 84 48 50 59
REMARK Flexibility Score: inf
ROOT
ATOM      1  C   UNL A   1      33.235  28.462  24.974  1.00  0.00     0.023 C 
ENDROOT
BRANCH   1   2
ATOM      2  C   UNL A   1      33.556  27.708  23.683  1.00  0.00     0.116 C 
BRANCH   2   3
ATOM      3  N   UNL A   1      32.566  26.696  23.367  1.00  0.00    -0.356 N 
ATOM      4  C   UNL A   1      32.554  25.352  23.557  1.00  0.00     0.225 C 
ATOM      5  O   UNL A   1      31.548  24.742  23.177  1.00  0.00    -0.275 OA
ATOM      6  H   UNL A   1      31.754  27.048  22.938  1.00  0.00     0.163 HD
BRANCH   4   7
ATOM      7  C   UNL A   1      33.693  24.573  24.204  1.00  0.00     0.102 C 
ATOM      8  N   UNL A   1      33.706  22.501  25.404  1.00  0.00    -0.321 N 
ATOM      9  C   UNL A   1      34.637  22.367  24.296  1.00  0.00     0.122 C 
ATOM     10  C   UNL A   1      33.451  23.940  25.592  1.00  0.00     0.096 C 
ATOM     11  C   UNL A   1      34.276  23.468  23.321  1.00  0.00     0.037 C 
ATOM     12  C   UNL A   1      32.174  24.362  26.300  1.00  0.00     0.032 C 
BRANCH   8  13
ATOM     13  C   UNL A   1      33.929  21.653  26.465  1.00  0.00     0.317 C 
ATOM     14  N   UNL A   1      33.360  20.426  26.441  1.00  0.00    -0.332 N 
ATOM     15  H   UNL A   1      33.440  19.908  27.273  1.00  0.00     0.165 HD
ATOM     16  O   UNL A   1      34.699  21.924  27.385  1.00  0.00    -0.249 OA
BRANCH  14  17
ATOM     17  C   UNL A   1      32.649  19.767  25.367  1.00  0.00     0.174 C 
BRANCH  17  18
ATOM     18  C   UNL A   1      33.156  18.385  25.033  1.00  0.00     0.063 A 
ATOM     19  C   UNL A   1      32.151  14.962  25.893  1.00  0.00     0.089 C 
ATOM     20  C   UNL A   1      32.870  16.110  25.257  1.00  0.00     0.125 A 
ATOM     21  N   UNL A   1      33.753  15.831  24.281  1.00  0.00    -0.242 NA
ATOM     22  N   UNL A   1      32.553  17.353  25.664  1.00  0.00    -0.236 NA
ATOM     23  C   UNL A   1      34.333  16.885  23.681  1.00  0.00     0.115 A 
ATOM     24  C   UNL A   1      34.073  18.192  24.017  1.00  0.00     0.046 A 
ENDBRANCH  17  18
ENDBRANCH  14  17
ENDBRANCH   8  13
ENDBRANCH   4   7
ENDBRANCH   2   3
ENDBRANCH   1   2
BRANCH   1  25
ATOM     25  C   UNL A   1      33.901  27.923  26.235  1.00  0.00     0.023 C 
BRANCH  25  26
ATOM     26  C   UNL A   1      33.333  28.451  27.544  1.00  0.00     0.116 C 
BRANCH  26  27
ATOM     27  N   UNL A   1      33.386  29.903  27.646  1.00  0.00    -0.352 N 
ATOM     28  C   UNL A   1      34.437  30.718  28.007  1.00  0.00     0.251 C 
ATOM     29  H   UNL A   1      32.549  30.371  27.424  1.00  0.00     0.163 HD
ATOM     30  O   UNL A   1      34.265  31.918  28.154  1.00  0.00    -0.269 OA
BRANCH  28  31
ATOM     31  C   UNL A   1      35.765  30.114  28.249  1.00  0.00     0.039 A 
ATOM     32  C   UNL A   1      36.701  30.092  27.212  1.00  0.00     0.014 A 
ATOM     33  C   UNL A   1      36.099  29.632  29.515  1.00  0.00     0.014 A 
ATOM     34  C   UNL A   1      38.007  29.673  27.475  1.00  0.00     0.010 A 
ATOM     35  C   UNL A   1      37.419  29.306  29.796  1.00  0.00     0.010 A 
ATOM     36  C   UNL A   1      38.389  29.326  28.782  1.00  0.00    -0.014 A 
BRANCH  36  37
ATOM     37  C   UNL A   1      39.790  28.973  29.122  1.00  0.00     0.031 A 
ATOM     38  C   UNL A   1      40.683  30.007  29.752  1.00  0.00     0.074 A 
ATOM     39  C   UNL A   1      40.281  27.764  28.783  1.00  0.00     0.049 A 
ATOM     40  N   UNL A   1      41.966  29.953  29.997  1.00  0.00    -0.248 NA
ATOM     41  C   UNL A   1      40.055  31.287  30.122  1.00  0.00     0.031 C 
ATOM     42  C   UNL A   1      39.528  26.693  28.124  1.00  0.00     0.029 A 
ATOM     43  N   UNL A   1      41.539  27.235  28.933  1.00  0.00    -0.354 N 
ATOM     44  C   UNL A   1      42.300  31.193  30.529  1.00  0.00     0.074 A 
ATOM     45  C   UNL A   1      41.100  32.000  30.514  1.00  0.00     0.031 C 
ATOM     46  C   UNL A   1      40.330  25.631  27.951  1.00  0.00     0.029 A 
ATOM     47  C   UNL A   1      41.665  25.955  28.444  1.00  0.00     0.049 A 
ATOM     48  H   UNL A   1      42.283  27.726  29.351  1.00  0.00     0.167 HD
ATOM     49  C   UNL A   1      43.492  31.612  31.015  1.00  0.00     0.037 A 
ATOM     50  C   UNL A   1      42.737  25.141  28.392  1.00  0.00     0.037 A 
ATOM     51  C   UNL A   1      44.672  30.791  31.065  1.00  0.00     0.049 A 
ATOM     52  C   UNL A   1      44.053  25.631  28.936  1.00  0.00     0.074 A 
ATOM     53  C   UNL A   1      45.916  31.101  31.584  1.00  0.00     0.029 A 
ATOM     54  N   UNL A   1      44.749  29.491  30.585  1.00  0.00    -0.354 N 
ATOM     55  N   UNL A   1      44.339  26.791  29.476  1.00  0.00    -0.248 NA
ATOM     56  C   UNL A   1      45.191  24.704  28.861  1.00  0.00     0.031 C 
ATOM     57  C   UNL A   1      46.755  29.999  31.391  1.00  0.00     0.029 A 
ATOM     58  C   UNL A   1      46.023  28.989  30.787  1.00  0.00     0.049 A 
ATOM     59  H   UNL A   1      44.008  28.999  30.164  1.00  0.00     0.167 HD
ATOM     60  C   UNL A   1      45.682  26.723  29.831  1.00  0.00     0.074 A 
ATOM     61  C   UNL A   1      46.148  25.405  29.452  1.00  0.00     0.031 C 
ATOM     62  C   UNL A   1      46.461  27.667  30.416  1.00  0.00     0.037 A 
BRANCH  49  63
ATOM     63  C   UNL A   1      43.568  33.014  31.551  1.00  0.00     0.058 A 
ATOM     64  C   UNL A   1      43.262  33.303  32.892  1.00  0.00     0.135 A 
ATOM     65  C   UNL A   1      43.973  34.077  30.729  1.00  0.00     0.135 A 
ATOM     66  F   UNL A   1      42.851  32.327  33.717  1.00  0.00    -0.206 F 
ATOM     67  C   UNL A   1      43.322  34.600  33.388  1.00  0.00     0.059 A 
ATOM     68  C   UNL A   1      44.067  35.380  31.212  1.00  0.00     0.059 A 
ATOM     69  F   UNL A   1      44.276  33.858  29.440  1.00  0.00    -0.206 F 
ATOM     70  C   UNL A   1      43.725  35.632  32.540  1.00  0.00     0.060 A 
BRANCH  70  71
ATOM     71  S   UNL A   1      43.798  37.310  33.202  1.00  0.00     0.124 S 
ATOM     72  O   UNL A   1      43.686  38.108  31.985  1.00  0.00    -0.237 OA
ATOM     73  O   UNL A   1      42.641  37.346  34.091  1.00  0.00    -0.237 OA
ATOM     74  O   UNL A   1      45.097  37.358  33.866  1.00  0.00    -0.744 OA
ENDBRANCH  70  71
ENDBRANCH  49  63
BRANCH  50  75
ATOM     75  C   UNL A   1      42.613  23.770  27.827  1.00  0.00     0.058 A 
ATOM     76  C   UNL A   1      42.599  23.565  26.440  1.00  0.00     0.135 A 
ATOM     77  C   UNL A   1      42.501  22.642  28.655  1.00  0.00     0.135 A 
ATOM     78  F   UNL A   1      42.697  24.613  25.607  1.00  0.00    -0.206 F 
ATOM     79  C   UNL A   1      42.456  22.296  25.889  1.00  0.00     0.059 A 
ATOM     80  C   UNL A   1      42.381  21.359  28.129  1.00  0.00     0.059 A 
ATOM     81  F   UNL A   1      42.526  22.782  29.989  1.00  0.00    -0.206 F 
ATOM     82  C   UNL A   1      42.346  21.197  26.744  1.00  0.00     0.060 A 
BRANCH  82  83
ATOM     83  S   UNL A   1      42.193  19.549  26.022  1.00  0.00     0.124 S 
ATOM     84  O   UNL A   1      43.110  19.638  24.892  1.00  0.00    -0.237 OA
ATOM     85  O   UNL A   1      42.617  18.690  27.124  1.00  0.00    -0.237 OA
ATOM     86  O   UNL A   1      40.776  19.463  25.681  1.00  0.00    -0.744 OA
ENDBRANCH  82  83
ENDBRANCH  50  75
BRANCH  62  87
ATOM     87  C   UNL A   1      47.885  27.301  30.716  1.00  0.00     0.058 A 
ATOM     88  C   UNL A   1      48.239  26.642  31.903  1.00  0.00     0.135 A 
ATOM     89  C   UNL A   1      48.895  27.545  29.771  1.00  0.00     0.135 A 
ATOM     90  F   UNL A   1      47.310  26.393  32.840  1.00  0.00    -0.206 F 
ATOM     91  C   UNL A   1      49.549  26.246  32.149  1.00  0.00     0.059 A 
ATOM     92  C   UNL A   1      50.207  27.136  29.985  1.00  0.00     0.059 A 
ATOM     93  F   UNL A   1      48.605  28.165  28.616  1.00  0.00    -0.206 F 
ATOM     94  C   UNL A   1      50.526  26.492  31.181  1.00  0.00     0.060 A 
BRANCH  94  95
ATOM     95  S   UNL A   1      52.210  25.922  31.487  1.00  0.00     0.124 S 
ATOM     96  O   UNL A   1      51.980  24.559  31.953  1.00  0.00    -0.237 OA
ATOM     97  O   UNL A   1      52.826  26.045  30.169  1.00  0.00    -0.237 OA
ATOM     98  O   UNL A   1      52.707  26.857  32.493  1.00  0.00    -0.744 OA
ENDBRANCH  94  95
ENDBRANCH  62  87
ENDBRANCH  36  37
ENDBRANCH  28  31
ENDBRANCH  26  27
ENDBRANCH  25  26
ENDBRANCH   1  25
TORSDOF 17
ENDMDL
MODEL 2
REMARK VINA RESULT:     -11.7      3.116      4.081
REMARK SMILES Cc1nccc(CNC(=O)N2CC[C@@H](C(=O)NCCCCNC(=O)c3ccc(-c4c5nc(c(-c6c(F)cc(S(=O)(=O)[O-])cc6F)c6ccc([nH]6)c(-c6c(F)cc(S(=O)(=O)[O-])cc6F)c6nc(c(-c7c(F)cc(S(=O)(=O)[O-])cc7F)c7ccc4[nH]7)C=C6)C=C5)cc3)[C@H]2C)n1
REMARK SMILES IDX 19 1 18 2 17 3 15 4 16 5 14 7 11 8 12 9 91 10 13 11 92 12
REMARK SMILES IDX 9 13 8 14 10 16 7 17 6 18 1 19 2 20 3 21 93 22 4 23 5 24
REMARK SMILES IDX 20 25 21 26 22 27 23 28 24 30 25 31 26 32 90 33 27 34 89 35
REMARK SMILES IDX 28 36 29 37 30 38 83 39 31 40 88 41 82 42 84 43 32 44 87 45
REMARK SMILES IDX 81 46 80 47 33 49 67 50 46 51 66 52 47 53 50 54 65 55 85 56
REMARK SMILES IDX 48 57 49 58 64 60 86 61 51 62 34 63 35 64 44 65 36 66 37 67
REMARK SMILES IDX 43 68 45 69 38 70 39 71 40 72 41 73 42 74 68 75 69 76 78 77
REMARK SMILES IDX 70 78 71 79 77 80 79 81 72 82 73 83 74 84 75 85 76 86 52 87
REMARK SMILES IDX 53 88 62 89 54 90 55 91 61 92 63 93 56 94 57 95 58 96 59 97
REMARK SMILES IDX 60 98
REMARK H PARENT 17 6 8 15 22 29 84 48 50 59
REMARK Flexibility Score: inf
ROOT
ATOM      1  C   UNL A   1      33.373  28.980  27.438  1.00  0.00     0.023 C 
ENDROOT
BRANCH   1   2
ATOM      2  C   UNL A   1      31.845  28.931  27.399  1.00  0.00     0.116 C 
BRANCH   2   3
ATOM      3  N   UNL A   1      31.331  27.574  27.407  1.00  0.00    -0.356 N 
ATOM      4  C   UNL A   1      31.108  26.686  26.404  1.00  0.00     0.225 C 
ATOM      5  O   UNL A   1      30.654  25.582  26.727  1.00  0.00    -0.275 OA
ATOM      6  H   UNL A   1      31.102  27.236  28.302  1.00  0.00     0.163 HD
BRANCH   4   7
ATOM      7  C   UNL A   1      31.386  26.973  24.934  1.00  0.00     0.102 C 
ATOM      8  N   UNL A   1      32.300  25.595  23.203  1.00  0.00    -0.321 N 
ATOM      9  C   UNL A   1      31.003  26.063  22.745  1.00  0.00     0.122 C 
ATOM     10  C   UNL A   1      32.709  26.458  24.325  1.00  0.00     0.096 C 
ATOM     11  C   UNL A   1      30.271  26.523  23.987  1.00  0.00     0.037 C 
ATOM     12  C   UNL A   1      33.731  25.923  25.314  1.00  0.00     0.032 C 
BRANCH   8  13
ATOM     13  C   UNL A   1      33.177  25.226  22.207  1.00  0.00     0.317 C 
ATOM     14  N   UNL A   1      33.536  23.925  22.113  1.00  0.00    -0.332 N 
ATOM     15  H   UNL A   1      34.258  23.732  21.474  1.00  0.00     0.165 HD
ATOM     16  O   UNL A   1      33.571  26.006  21.342  1.00  0.00    -0.249 OA
BRANCH  14  17
ATOM     17  C   UNL A   1      33.011  22.777  22.819  1.00  0.00     0.174 C 
BRANCH  17  18
ATOM     18  C   UNL A   1      33.873  22.290  23.958  1.00  0.00     0.063 A 
ATOM     19  C   UNL A   1      37.078  23.318  25.423  1.00  0.00     0.089 C 
ATOM     20  C   UNL A   1      35.784  22.597  25.209  1.00  0.00     0.125 A 
ATOM     21  N   UNL A   1      35.385  21.734  26.160  1.00  0.00    -0.242 NA
ATOM     22  N   UNL A   1      35.074  22.894  24.105  1.00  0.00    -0.236 NA
ATOM     23  C   UNL A   1      34.187  21.152  25.975  1.00  0.00     0.115 A 
ATOM     24  C   UNL A   1      33.383  21.393  24.887  1.00  0.00     0.046 A 
ENDBRANCH  17  18
ENDBRANCH  14  17
ENDBRANCH   8  13
ENDBRANCH   4   7
ENDBRANCH   2   3
ENDBRANCH   1   2
BRANCH   1  25
ATOM     25  C   UNL A   1      33.995  30.352  27.202  1.00  0.00     0.023 C 
BRANCH  25  26
ATOM     26  C   UNL A   1      35.391  30.538  27.776  1.00  0.00     0.116 C 
BRANCH  26  27
ATOM     27  N   UNL A   1      35.388  30.857  29.198  1.00  0.00    -0.352 N 
ATOM     28  C   UNL A   1      36.330  30.571  30.162  1.00  0.00     0.251 C 
ATOM     29  H   UNL A   1      34.596  31.349  29.516  1.00  0.00     0.163 HD
ATOM     30  O   UNL A   1      36.103  30.814  31.337  1.00  0.00    -0.269 OA
BRANCH  28  31
ATOM     31  C   UNL A   1      37.602  29.936  29.757  1.00  0.00     0.039 A 
ATOM     32  C   UNL A   1      37.996  29.996  28.418  1.00  0.00     0.014 A 
ATOM     33  C   UNL A   1      38.427  29.342  30.713  1.00  0.00     0.014 A 
ATOM     34  C   UNL A   1      39.267  29.542  28.056  1.00  0.00     0.010 A 
ATOM     35  C   UNL A   1      39.723  28.980  30.368  1.00  0.00     0.010 A 
ATOM     36  C   UNL A   1      40.159  29.079  29.038  1.00  0.00    -0.014 A 
BRANCH  36  37
ATOM     37  C   UNL A   1      41.552  28.685  28.709  1.00  0.00     0.031 A 
ATOM     38  C   UNL A   1      42.634  29.730  28.687  1.00  0.00     0.074 A 
ATOM     39  C   UNL A   1      41.824  27.415  28.344  1.00  0.00     0.049 A 
ATOM     40  N   UNL A   1      43.876  29.627  28.291  1.00  0.00    -0.248 NA
ATOM     41  C   UNL A   1      42.256  31.082  29.134  1.00  0.00     0.031 C 
ATOM     42  C   UNL A   1      40.851  26.321  28.280  1.00  0.00     0.029 A 
ATOM     43  N   UNL A   1      43.000  26.832  27.943  1.00  0.00    -0.354 N 
ATOM     44  C   UNL A   1      44.419  30.899  28.423  1.00  0.00     0.074 A 
ATOM     45  C   UNL A   1      43.357  31.771  28.876  1.00  0.00     0.031 C 
ATOM     46  C   UNL A   1      41.475  25.198  27.890  1.00  0.00     0.029 A 
ATOM     47  C   UNL A   1      42.880  25.496  27.633  1.00  0.00     0.049 A 
ATOM     48  H   UNL A   1      43.851  27.323  27.882  1.00  0.00     0.167 HD
ATOM     49  C   UNL A   1      45.695  31.300  28.217  1.00  0.00     0.037 A 
ATOM     50  C   UNL A   1      43.797  24.617  27.185  1.00  0.00     0.037 A 
ATOM     51  C   UNL A   1      46.756  30.420  27.806  1.00  0.00     0.049 A 
ATOM     52  C   UNL A   1      45.209  25.088  26.959  1.00  0.00     0.074 A 
ATOM     53  C   UNL A   1      48.094  30.714  27.617  1.00  0.00     0.029 A 
ATOM     54  N   UNL A   1      46.598  29.069  27.529  1.00  0.00    -0.354 N 
ATOM     55  N   UNL A   1      45.716  26.285  27.132  1.00  0.00    -0.248 NA
ATOM     56  C   UNL A   1      46.173  24.091  26.474  1.00  0.00     0.031 C 
ATOM     57  C   UNL A   1      48.741  29.547  27.197  1.00  0.00     0.029 A 
ATOM     58  C   UNL A   1      47.813  28.518  27.162  1.00  0.00     0.049 A 
ATOM     59  H   UNL A   1      45.748  28.577  27.586  1.00  0.00     0.167 HD
ATOM     60  C   UNL A   1      47.063  26.178  26.805  1.00  0.00     0.074 A 
ATOM     61  C   UNL A   1      47.294  24.798  26.432  1.00  0.00     0.031 C 
ATOM     62  C   UNL A   1      48.023  27.136  26.810  1.00  0.00     0.037 A 
BRANCH  49  63
ATOM     63  C   UNL A   1      46.015  32.749  28.454  1.00  0.00     0.058 A 
ATOM     64  C   UNL A   1      46.414  33.214  29.718  1.00  0.00     0.135 A 
ATOM     65  C   UNL A   1      45.945  33.682  27.407  1.00  0.00     0.135 A 
ATOM     66  F   UNL A   1      46.479  32.368  30.759  1.00  0.00    -0.206 F 
ATOM     67  C   UNL A   1      46.700  34.555  29.944  1.00  0.00     0.059 A 
ATOM     68  C   UNL A   1      46.255  35.025  27.603  1.00  0.00     0.059 A 
ATOM     69  F   UNL A   1      45.568  33.294  26.179  1.00  0.00    -0.206 F 
ATOM     70  C   UNL A   1      46.617  35.454  28.880  1.00  0.00     0.060 A 
BRANCH  70  71
ATOM     71  S   UNL A   1      46.993  37.191  29.190  1.00  0.00     0.124 S 
ATOM     72  O   UNL A   1      47.282  37.176  30.621  1.00  0.00    -0.237 OA
ATOM     73  O   UNL A   1      48.140  37.424  28.316  1.00  0.00    -0.237 OA
ATOM     74  O   UNL A   1      45.766  37.880  28.805  1.00  0.00    -0.744 OA
ENDBRANCH  70  71
ENDBRANCH  49  63
BRANCH  50  75
ATOM     75  C   UNL A   1      43.421  23.199  26.941  1.00  0.00     0.058 A 
ATOM     76  C   UNL A   1      43.283  22.708  25.634  1.00  0.00     0.135 A 
ATOM     77  C   UNL A   1      43.189  22.308  28.001  1.00  0.00     0.135 A 
ATOM     78  F   UNL A   1      43.489  23.523  24.588  1.00  0.00    -0.206 F 
ATOM     79  C   UNL A   1      42.906  21.393  25.383  1.00  0.00     0.059 A 
ATOM     80  C   UNL A   1      42.834  20.981  27.775  1.00  0.00     0.059 A 
ATOM     81  F   UNL A   1      43.325  22.722  29.270  1.00  0.00    -0.206 F 
ATOM     82  C   UNL A   1      42.681  20.536  26.462  1.00  0.00     0.060 A 
BRANCH  82  83
ATOM     83  S   UNL A   1      42.223  18.822  26.128  1.00  0.00     0.124 S 
ATOM     84  O   UNL A   1      43.172  18.465  25.079  1.00  0.00    -0.237 OA
ATOM     85  O   UNL A   1      42.436  18.187  27.426  1.00  0.00    -0.237 OA
ATOM     86  O   UNL A   1      40.828  18.924  25.710  1.00  0.00    -0.744 OA
ENDBRANCH  82  83
ENDBRANCH  50  75
BRANCH  62  87
ATOM     87  C   UNL A   1      49.417  26.722  26.437  1.00  0.00     0.058 A 
ATOM     88  C   UNL A   1      50.266  26.092  27.359  1.00  0.00     0.135 A 
ATOM     89  C   UNL A   1      49.879  26.889  25.122  1.00  0.00     0.135 A 
ATOM     90  F   UNL A   1      49.873  25.917  28.630  1.00  0.00    -0.206 F 
ATOM     91  C   UNL A   1      51.533  25.652  26.992  1.00  0.00     0.059 A 
ATOM     92  C   UNL A   1      51.132  26.434  24.727  1.00  0.00     0.059 A 
ATOM     93  F   UNL A   1      49.100  27.478  24.200  1.00  0.00    -0.206 F 
ATOM     94  C   UNL A   1      51.955  25.821  25.671  1.00  0.00     0.060 A 
BRANCH  94  95
ATOM     95  S   UNL A   1      53.578  25.193  25.194  1.00  0.00     0.124 S 
ATOM     96  O   UNL A   1      54.440  25.807  26.199  1.00  0.00    -0.237 OA
ATOM     97  O   UNL A   1      53.400  23.748  25.310  1.00  0.00    -0.237 OA
ATOM     98  O   UNL A   1      53.747  25.689  23.831  1.00  0.00    -0.744 OA
ENDBRANCH  94  95
ENDBRANCH  62  87
ENDBRANCH  36  37
ENDBRANCH  28  31
ENDBRANCH  26  27
ENDBRANCH  25  26
ENDBRANCH   1  25
TORSDOF 17
ENDMDL
MODEL 3
REMARK VINA RESULT:     -11.5      2.787      8.938
REMARK SMILES Cc1nccc(CNC(=O)N2CC[C@@H](C(=O)NCCCCNC(=O)c3ccc(-c4c5nc(c(-c6c(F)cc(S(=O)(=O)[O-])cc6F)c6ccc([nH]6)c(-c6c(F)cc(S(=O)(=O)[O-])cc6F)c6nc(c(-c7c(F)cc(S(=O)(=O)[O-])cc7F)c7ccc4[nH]7)C=C6)C=C5)cc3)[C@H]2C)n1
REMARK SMILES IDX 19 1 18 2 17 3 15 4 16 5 14 7 11 8 12 9 91 10 13 11 92 12
REMARK SMILES IDX 9 13 8 14 10 16 7 17 6 18 1 19 2 20 3 21 93 22 4 23 5 24
REMARK SMILES IDX 20 25 21 26 22 27 23 28 24 30 25 31 26 32 90 33 27 34 89 35
REMARK SMILES IDX 28 36 29 37 30 38 83 39 31 40 88 41 82 42 84 43 32 44 87 45
REMARK SMILES IDX 81 46 80 47 33 49 67 50 46 51 66 52 47 53 50 54 65 55 85 56
REMARK SMILES IDX 48 57 49 58 64 60 86 61 51 62 34 63 35 64 44 65 36 66 37 67
REMARK SMILES IDX 43 68 45 69 38 70 39 71 40 72 41 73 42 74 68 75 69 76 78 77
REMARK SMILES IDX 70 78 71 79 77 80 79 81 72 82 73 83 74 84 75 85 76 86 52 87
REMARK SMILES IDX 53 88 62 89 54 90 55 91 61 92 63 93 56 94 57 95 58 96 59 97
REMARK SMILES IDX 60 98
REMARK H PARENT 17 6 8 15 22 29 84 48 50 59
REMARK Flexibility Score: inf
ROOT
ATOM      1  C   UNL A   1      34.866  23.608  23.446  1.00  0.00     0.023 C 
ENDROOT
BRANCH   1   2
ATOM      2  C   UNL A   1      34.409  25.055  23.632  1.00  0.00     0.116 C 
BRANCH   2   3
ATOM      3  N   UNL A   1      33.485  25.486  22.601  1.00  0.00    -0.356 N 
ATOM      4  C   UNL A   1      32.162  25.790  22.642  1.00  0.00     0.225 C 
ATOM      5  O   UNL A   1      31.635  26.133  21.577  1.00  0.00    -0.275 OA
ATOM      6  H   UNL A   1      33.890  25.572  21.708  1.00  0.00     0.163 HD
BRANCH   4   7
ATOM      7  C   UNL A   1      31.314  25.735  23.906  1.00  0.00     0.102 C 
ATOM      8  N   UNL A   1      31.438  24.311  25.827  1.00  0.00    -0.321 N 
ATOM      9  C   UNL A   1      31.521  25.684  26.298  1.00  0.00     0.122 C 
ATOM     10  C   UNL A   1      30.907  24.348  24.454  1.00  0.00     0.096 C 
ATOM     11  C   UNL A   1      31.900  26.510  25.087  1.00  0.00     0.037 C 
ATOM     12  C   UNL A   1      31.183  23.167  23.539  1.00  0.00     0.032 C 
BRANCH   8  13
ATOM     13  C   UNL A   1      30.997  23.396  26.757  1.00  0.00     0.317 C 
ATOM     14  N   UNL A   1      31.850  22.430  27.166  1.00  0.00    -0.332 N 
ATOM     15  H   UNL A   1      31.453  21.727  27.729  1.00  0.00     0.165 HD
ATOM     16  O   UNL A   1      29.898  23.477  27.303  1.00  0.00    -0.249 OA
BRANCH  14  17
ATOM     17  C   UNL A   1      33.263  22.280  26.893  1.00  0.00     0.174 C 
BRANCH  17  18
ATOM     18  C   UNL A   1      33.604  21.159  25.941  1.00  0.00     0.063 A 
ATOM     19  C   UNL A   1      36.704  19.536  24.833  1.00  0.00     0.089 C 
ATOM     20  C   UNL A   1      35.249  19.839  25.014  1.00  0.00     0.125 A 
ATOM     21  N   UNL A   1      34.361  18.968  24.503  1.00  0.00    -0.242 NA
ATOM     22  N   UNL A   1      34.919  20.935  25.722  1.00  0.00    -0.236 NA
ATOM     23  C   UNL A   1      33.063  19.228  24.740  1.00  0.00     0.115 A 
ATOM     24  C   UNL A   1      32.624  20.316  25.456  1.00  0.00     0.046 A 
ENDBRANCH  17  18
ENDBRANCH  14  17
ENDBRANCH   8  13
ENDBRANCH   4   7
ENDBRANCH   2   3
ENDBRANCH   1   2
BRANCH   1  25
ATOM     25  C   UNL A   1      36.368  23.371  23.555  1.00  0.00     0.023 C 
BRANCH  25  26
ATOM     26  C   UNL A   1      36.969  23.643  24.926  1.00  0.00     0.116 C 
BRANCH  26  27
ATOM     27  N   UNL A   1      37.994  22.678  25.303  1.00  0.00    -0.352 N 
ATOM     28  C   UNL A   1      39.118  22.854  26.079  1.00  0.00     0.251 C 
ATOM     29  H   UNL A   1      37.862  21.767  24.952  1.00  0.00     0.163 HD
ATOM     30  O   UNL A   1      39.936  21.953  26.193  1.00  0.00    -0.269 OA
BRANCH  28  31
ATOM     31  C   UNL A   1      39.338  24.157  26.741  1.00  0.00     0.039 A 
ATOM     32  C   UNL A   1      38.859  24.349  28.040  1.00  0.00     0.014 A 
ATOM     33  C   UNL A   1      40.072  25.157  26.102  1.00  0.00     0.014 A 
ATOM     34  C   UNL A   1      39.200  25.513  28.732  1.00  0.00     0.010 A 
ATOM     35  C   UNL A   1      40.489  26.268  26.824  1.00  0.00     0.010 A 
ATOM     36  C   UNL A   1      40.061  26.458  28.147  1.00  0.00    -0.014 A 
BRANCH  36  37
ATOM     37  C   UNL A   1      40.529  27.656  28.887  1.00  0.00     0.031 A 
ATOM     38  C   UNL A   1      41.898  27.655  29.513  1.00  0.00     0.074 A 
ATOM     39  C   UNL A   1      39.697  28.701  29.072  1.00  0.00     0.049 A 
ATOM     40  N   UNL A   1      42.442  28.534  30.313  1.00  0.00    -0.248 NA
ATOM     41  C   UNL A   1      42.753  26.490  29.229  1.00  0.00     0.031 C 
ATOM     42  C   UNL A   1      38.329  28.801  28.556  1.00  0.00     0.029 A 
ATOM     43  N   UNL A   1      39.874  29.876  29.759  1.00  0.00    -0.354 N 
ATOM     44  C   UNL A   1      43.690  28.019  30.643  1.00  0.00     0.074 A 
ATOM     45  C   UNL A   1      43.799  26.725  30.007  1.00  0.00     0.031 C 
ATOM     46  C   UNL A   1      37.803  29.981  28.923  1.00  0.00     0.029 A 
ATOM     47  C   UNL A   1      38.775  30.704  29.736  1.00  0.00     0.049 A 
ATOM     48  H   UNL A   1      40.709  30.105  30.227  1.00  0.00     0.167 HD
ATOM     49  C   UNL A   1      44.671  28.587  31.383  1.00  0.00     0.037 A 
ATOM     50  C   UNL A   1      38.573  31.904  30.313  1.00  0.00     0.037 A 
ATOM     51  C   UNL A   1      44.572  29.893  31.979  1.00  0.00     0.049 A 
ATOM     52  C   UNL A   1      39.678  32.514  31.135  1.00  0.00     0.074 A 
ATOM     53  C   UNL A   1      45.527  30.582  32.705  1.00  0.00     0.029 A 
ATOM     54  N   UNL A   1      43.453  30.710  31.908  1.00  0.00    -0.354 N 
ATOM     55  N   UNL A   1      40.869  32.033  31.399  1.00  0.00    -0.248 NA
ATOM     56  C   UNL A   1      39.411  33.827  31.739  1.00  0.00     0.031 C 
ATOM     57  C   UNL A   1      44.975  31.805  33.099  1.00  0.00     0.029 A 
ATOM     58  C   UNL A   1      43.689  31.893  32.586  1.00  0.00     0.049 A 
ATOM     59  H   UNL A   1      42.615  30.482  31.444  1.00  0.00     0.167 HD
ATOM     60  C   UNL A   1      41.504  32.996  32.176  1.00  0.00     0.074 A 
ATOM     61  C   UNL A   1      40.567  34.091  32.332  1.00  0.00     0.031 C 
ATOM     62  C   UNL A   1      42.748  32.976  32.715  1.00  0.00     0.037 A 
BRANCH  49  63
ATOM     63  C   UNL A   1      45.941  27.806  31.568  1.00  0.00     0.058 A 
ATOM     64  C   UNL A   1      46.985  27.871  30.630  1.00  0.00     0.135 A 
ATOM     65  C   UNL A   1      46.132  27.002  32.703  1.00  0.00     0.135 A 
ATOM     66  F   UNL A   1      46.847  28.610  29.517  1.00  0.00    -0.206 F 
ATOM     67  C   UNL A   1      48.157  27.142  30.793  1.00  0.00     0.059 A 
ATOM     68  C   UNL A   1      47.309  26.286  32.901  1.00  0.00     0.059 A 
ATOM     69  F   UNL A   1      45.167  26.901  33.631  1.00  0.00    -0.206 F 
ATOM     70  C   UNL A   1      48.310  26.351  31.932  1.00  0.00     0.060 A 
BRANCH  70  71
ATOM     71  S   UNL A   1      49.838  25.412  32.128  1.00  0.00     0.124 S 
ATOM     72  O   UNL A   1      49.419  24.361  33.050  1.00  0.00    -0.237 OA
ATOM     73  O   UNL A   1      50.118  24.980  30.762  1.00  0.00    -0.237 OA
ATOM     74  O   UNL A   1      50.771  26.392  32.676  1.00  0.00    -0.744 OA
ENDBRANCH  70  71
ENDBRANCH  49  63
BRANCH  50  75
ATOM     75  C   UNL A   1      37.286  32.624  30.119  1.00  0.00     0.058 A 
ATOM     76  C   UNL A   1      37.145  33.581  29.104  1.00  0.00     0.135 A 
ATOM     77  C   UNL A   1      36.176  32.377  30.942  1.00  0.00     0.135 A 
ATOM     78  F   UNL A   1      38.180  33.856  28.295  1.00  0.00    -0.206 F 
ATOM     79  C   UNL A   1      35.960  34.286  28.922  1.00  0.00     0.059 A 
ATOM     80  C   UNL A   1      34.971  33.052  30.766  1.00  0.00     0.059 A 
ATOM     81  F   UNL A   1      36.252  31.459  31.918  1.00  0.00    -0.206 F 
ATOM     82  C   UNL A   1      34.877  34.015  29.761  1.00  0.00     0.060 A 
BRANCH  82  83
ATOM     83  S   UNL A   1      33.331  34.912  29.499  1.00  0.00     0.124 S 
ATOM     84  O   UNL A   1      33.809  36.144  28.883  1.00  0.00    -0.237 OA
ATOM     85  O   UNL A   1      32.594  34.005  28.624  1.00  0.00    -0.237 OA
ATOM     86  O   UNL A   1      32.790  35.047  30.848  1.00  0.00    -0.744 OA
ENDBRANCH  82  83
ENDBRANCH  50  75
BRANCH  62  87
ATOM     87  C   UNL A   1      43.186  34.185  33.491  1.00  0.00     0.058 A 
ATOM     88  C   UNL A   1      43.702  35.320  32.850  1.00  0.00     0.135 A 
ATOM     89  C   UNL A   1      43.015  34.233  34.883  1.00  0.00     0.135 A 
ATOM     90  F   UNL A   1      43.891  35.320  31.521  1.00  0.00    -0.206 F 
ATOM     91  C   UNL A   1      44.046  36.462  33.566  1.00  0.00     0.059 A 
ATOM     92  C   UNL A   1      43.330  35.373  35.617  1.00  0.00     0.059 A 
ATOM     93  F   UNL A   1      42.517  33.174  35.542  1.00  0.00    -0.206 F 
ATOM     94  C   UNL A   1      43.851  36.481  34.949  1.00  0.00     0.060 A 
BRANCH  94  95
ATOM     95  S   UNL A   1      44.247  37.989  35.858  1.00  0.00     0.124 S 
ATOM     96  O   UNL A   1      43.475  37.806  37.083  1.00  0.00    -0.237 OA
ATOM     97  O   UNL A   1      45.696  37.895  36.002  1.00  0.00    -0.237 OA
ATOM     98  O   UNL A   1      43.779  39.051  34.973  1.00  0.00    -0.744 OA
ENDBRANCH  94  95
ENDBRANCH  62  87
ENDBRANCH  36  37
ENDBRANCH  28  31
ENDBRANCH  26  27
ENDBRANCH  25  26
ENDBRANCH   1  25
TORSDOF 17
ENDMDL
