MODEL 1
REMARK VINA RESULT:     -10.0      0.000      0.000
REMARK SMILES NC(=S)S/C=C/C(=O)NCCCCNC(=O)c1ccc(-c2c3nc(c(-c4c(F)cc(S(=O)(=O)[O-])cc4F)c4ccc([nH]4)c(-c4c(F)cc(S(=O)(=O)[O-])cc4F)c4nc(c(-c5c(F)cc(S(=O)(=O)[O-])cc5F)c5ccc2[nH]5)C=C4)C=C3)cc1
REMARK SMILES IDX 11 1 10 2 9 3 7 4 8 5 6 7 5 8 4 9 2 10 3 11 1 12 12 15 13 16
REMARK SMILES IDX 14 17 15 18 16 20 17 21 18 22 82 23 19 24 81 25 20 26 21 27
REMARK SMILES IDX 22 28 75 29 23 30 80 31 74 32 76 33 24 34 79 35 73 36 72 37
REMARK SMILES IDX 25 39 59 40 38 41 58 42 39 43 42 44 57 45 77 46 40 47 41 48
REMARK SMILES IDX 56 50 78 51 43 52 26 53 27 54 36 55 28 56 29 57 35 58 37 59
REMARK SMILES IDX 30 60 31 61 32 62 33 63 34 64 60 65 61 66 70 67 62 68 63 69
REMARK SMILES IDX 69 70 71 71 64 72 65 73 66 74 67 75 68 76 44 77 45 78 54 79
REMARK SMILES IDX 46 80 47 81 53 82 55 83 48 84 49 85 50 86 51 87 52 88
REMARK H PARENT 9 6 1 13 1 14 14 19 76 38 42 49
REMARK Flexibility Score: inf
ROOT
ATOM      1  C   UNL A   1      43.061  23.150  28.831  1.00  0.00     0.023 C 
ENDROOT
BRANCH   1   2
ATOM      2  C   UNL A   1      44.480  23.336  28.300  1.00  0.00     0.116 C 
BRANCH   2   3
ATOM      3  N   UNL A   1      44.494  24.226  27.152  1.00  0.00    -0.353 N 
ATOM      4  C   UNL A   1      45.068  24.075  25.928  1.00  0.00     0.244 C 
ATOM      5  O   UNL A   1      44.886  24.914  25.051  1.00  0.00    -0.270 OA
ATOM      6  H   UNL A   1      44.010  25.074  27.281  1.00  0.00     0.163 HD
BRANCH   4   7
ATOM      7  C   UNL A   1      45.828  22.849  25.625  1.00  0.00     0.078 C 
ATOM      8  C   UNL A   1      45.308  21.845  24.909  1.00  0.00     0.054 C 
BRANCH   8   9
ATOM      9  S   UNL A   1      46.215  20.430  24.500  1.00  0.00    -0.069 SA
BRANCH   9  10
ATOM     10  C   UNL A   1      45.478  19.103  25.359  1.00  0.00     0.135 C 
ATOM     11  S   UNL A   1      43.904  18.581  25.397  1.00  0.00    -0.053 S 
BRANCH  10  12
ATOM     12  N   UNL A   1      46.421  18.458  26.101  1.00  0.00    -0.384 N 
ATOM     13  H   UNL A   1      47.377  18.618  25.927  1.00  0.00     0.158 HD
ATOM     14  H   UNL A   1      46.147  17.833  26.810  1.00  0.00     0.158 HD
ENDBRANCH  10  12
ENDBRANCH   9  10
ENDBRANCH   8   9
ENDBRANCH   4   7
ENDBRANCH   2   3
ENDBRANCH   1   2
BRANCH   1  15
ATOM     15  C   UNL A   1      42.166  22.262  27.957  1.00  0.00     0.023 C 
BRANCH  15  16
ATOM     16  C   UNL A   1      40.904  22.931  27.418  1.00  0.00     0.116 C 
BRANCH  16  17
ATOM     17  N   UNL A   1      41.146  23.739  26.233  1.00  0.00    -0.352 N 
ATOM     18  C   UNL A   1      41.228  25.108  26.124  1.00  0.00     0.251 C 
ATOM     19  H   UNL A   1      41.267  23.238  25.395  1.00  0.00     0.163 HD
ATOM     20  O   UNL A   1      41.325  25.628  25.020  1.00  0.00    -0.269 OA
BRANCH  18  21
ATOM     21  C   UNL A   1      41.159  25.945  27.342  1.00  0.00     0.039 A 
ATOM     22  C   UNL A   1      42.211  26.825  27.612  1.00  0.00     0.014 A 
ATOM     23  C   UNL A   1      40.060  25.875  28.202  1.00  0.00     0.014 A 
ATOM     24  C   UNL A   1      42.128  27.685  28.709  1.00  0.00     0.010 A 
ATOM     25  C   UNL A   1      39.952  26.775  29.259  1.00  0.00     0.010 A 
ATOM     26  C   UNL A   1      40.982  27.692  29.520  1.00  0.00    -0.014 A 
BRANCH  26  27
ATOM     27  C   UNL A   1      40.834  28.662  30.635  1.00  0.00     0.031 A 
ATOM     28  C   UNL A   1      41.698  28.545  31.859  1.00  0.00     0.074 A 
ATOM     29  C   UNL A   1      39.870  29.602  30.574  1.00  0.00     0.049 A 
ATOM     30  N   UNL A   1      41.665  29.247  32.964  1.00  0.00    -0.248 NA
ATOM     31  C   UNL A   1      42.718  27.484  31.853  1.00  0.00     0.031 C 
ATOM     32  C   UNL A   1      38.933  29.782  29.462  1.00  0.00     0.029 A 
ATOM     33  N   UNL A   1      39.508  30.575  31.471  1.00  0.00    -0.354 N 
ATOM     34  C   UNL A   1      42.643  28.703  33.787  1.00  0.00     0.074 A 
ATOM     35  C   UNL A   1      43.222  27.585  33.074  1.00  0.00     0.031 C 
ATOM     36  C   UNL A   1      38.116  30.812  29.737  1.00  0.00     0.029 A 
ATOM     37  C   UNL A   1      38.447  31.344  31.055  1.00  0.00     0.049 A 
ATOM     38  H   UNL A   1      39.965  30.709  32.333  1.00  0.00     0.167 HD
ATOM     39  C   UNL A   1      43.038  29.112  35.018  1.00  0.00     0.037 A 
ATOM     40  C   UNL A   1      37.808  32.359  31.668  1.00  0.00     0.037 A 
ATOM     41  C   UNL A   1      42.478  30.243  35.710  1.00  0.00     0.049 A 
ATOM     42  C   UNL A   1      38.275  32.806  33.027  1.00  0.00     0.074 A 
ATOM     43  C   UNL A   1      42.850  30.774  36.933  1.00  0.00     0.029 A 
ATOM     44  N   UNL A   1      41.427  31.019  35.241  1.00  0.00    -0.354 N 
ATOM     45  N   UNL A   1      39.244  32.320  33.765  1.00  0.00    -0.248 NA
ATOM     46  C   UNL A   1      37.569  33.943  33.633  1.00  0.00     0.031 C 
ATOM     47  C   UNL A   1      42.002  31.851  37.218  1.00  0.00     0.029 A 
ATOM     48  C   UNL A   1      41.129  32.016  36.155  1.00  0.00     0.049 A 
ATOM     49  H   UNL A   1      40.963  30.881  34.384  1.00  0.00     0.167 HD
ATOM     50  C   UNL A   1      39.279  33.107  34.911  1.00  0.00     0.074 A 
ATOM     51  C   UNL A   1      38.241  34.106  34.764  1.00  0.00     0.031 C 
ATOM     52  C   UNL A   1      40.098  33.009  35.988  1.00  0.00     0.037 A 
BRANCH  39  53
ATOM     53  C   UNL A   1      44.134  28.334  35.690  1.00  0.00     0.058 A 
ATOM     54  C   UNL A   1      43.851  27.261  36.552  1.00  0.00     0.135 A 
ATOM     55  C   UNL A   1      45.483  28.644  35.451  1.00  0.00     0.135 A 
ATOM     56  F   UNL A   1      42.580  26.932  36.826  1.00  0.00    -0.206 F 
ATOM     57  C   UNL A   1      44.867  26.545  37.178  1.00  0.00     0.059 A 
ATOM     58  C   UNL A   1      46.514  27.924  36.047  1.00  0.00     0.059 A 
ATOM     59  F   UNL A   1      45.809  29.660  34.636  1.00  0.00    -0.206 F 
ATOM     60  C   UNL A   1      46.195  26.885  36.921  1.00  0.00     0.060 A 
BRANCH  60  61
ATOM     61  S   UNL A   1      47.501  25.948  37.744  1.00  0.00     0.124 S 
ATOM     62  O   UNL A   1      46.766  25.331  38.843  1.00  0.00    -0.237 OA
ATOM     63  O   UNL A   1      47.945  25.040  36.691  1.00  0.00    -0.237 OA
ATOM     64  O   UNL A   1      48.465  26.973  38.129  1.00  0.00    -0.744 OA
ENDBRANCH  60  61
ENDBRANCH  39  53
BRANCH  40  65
ATOM     65  C   UNL A   1      36.675  33.040  30.989  1.00  0.00     0.058 A 
ATOM     66  C   UNL A   1      35.354  32.837  31.413  1.00  0.00     0.135 A 
ATOM     67  C   UNL A   1      36.889  33.919  29.915  1.00  0.00     0.135 A 
ATOM     68  F   UNL A   1      35.098  32.002  32.432  1.00  0.00    -0.206 F 
ATOM     69  C   UNL A   1      34.283  33.469  30.790  1.00  0.00     0.059 A 
ATOM     70  C   UNL A   1      35.836  34.579  29.290  1.00  0.00     0.059 A 
ATOM     71  F   UNL A   1      38.138  34.160  29.483  1.00  0.00    -0.206 F 
ATOM     72  C   UNL A   1      34.534  34.340  29.730  1.00  0.00     0.060 A 
BRANCH  72  73
ATOM     73  S   UNL A   1      33.142  35.196  28.962  1.00  0.00     0.124 S 
ATOM     74  O   UNL A   1      32.284  35.451  30.113  1.00  0.00    -0.237 OA
ATOM     75  O   UNL A   1      33.786  36.366  28.374  1.00  0.00    -0.237 OA
ATOM     76  O   UNL A   1      32.638  34.220  28.001  1.00  0.00    -0.744 OA
ENDBRANCH  72  73
ENDBRANCH  40  65
BRANCH  52  77
ATOM     77  C   UNL A   1      39.927  34.029  37.079  1.00  0.00     0.058 A 
ATOM     78  C   UNL A   1      40.557  35.281  37.021  1.00  0.00     0.135 A 
ATOM     79  C   UNL A   1      39.080  33.767  38.168  1.00  0.00     0.135 A 
ATOM     80  F   UNL A   1      41.380  35.578  36.004  1.00  0.00    -0.206 F 
ATOM     81  C   UNL A   1      40.369  36.234  38.018  1.00  0.00     0.059 A 
ATOM     82  C   UNL A   1      38.859  34.714  39.163  1.00  0.00     0.059 A 
ATOM     83  F   UNL A   1      38.447  32.588  38.264  1.00  0.00    -0.206 F 
ATOM     84  C   UNL A   1      39.517  35.940  39.085  1.00  0.00     0.060 A 
BRANCH  84  85
ATOM     85  S   UNL A   1      39.251  37.198  40.353  1.00  0.00     0.124 S 
ATOM     86  O   UNL A   1      38.478  38.195  39.621  1.00  0.00    -0.237 OA
ATOM     87  O   UNL A   1      38.524  36.460  41.381  1.00  0.00    -0.237 OA
ATOM     88  O   UNL A   1      40.607  37.599  40.720  1.00  0.00    -0.744 OA
ENDBRANCH  84  85
ENDBRANCH  52  77
ENDBRANCH  26  27
ENDBRANCH  18  21
ENDBRANCH  16  17
ENDBRANCH  15  16
ENDBRANCH   1  15
TORSDOF 17
ENDMDL
MODEL 2
REMARK VINA RESULT:      -9.8      2.752      3.888
REMARK SMILES NC(=S)S/C=C/C(=O)NCCCCNC(=O)c1ccc(-c2c3nc(c(-c4c(F)cc(S(=O)(=O)[O-])cc4F)c4ccc([nH]4)c(-c4c(F)cc(S(=O)(=O)[O-])cc4F)c4nc(c(-c5c(F)cc(S(=O)(=O)[O-])cc5F)c5ccc2[nH]5)C=C4)C=C3)cc1
REMARK SMILES IDX 11 1 10 2 9 3 7 4 8 5 6 7 5 8 4 9 2 10 3 11 1 12 12 15 13 16
REMARK SMILES IDX 14 17 15 18 16 20 17 21 18 22 82 23 19 24 81 25 20 26 21 27
REMARK SMILES IDX 22 28 75 29 23 30 80 31 74 32 76 33 24 34 79 35 73 36 72 37
REMARK SMILES IDX 25 39 59 40 38 41 58 42 39 43 42 44 57 45 77 46 40 47 41 48
REMARK SMILES IDX 56 50 78 51 43 52 26 53 27 54 36 55 28 56 29 57 35 58 37 59
REMARK SMILES IDX 30 60 31 61 32 62 33 63 34 64 60 65 61 66 70 67 62 68 63 69
REMARK SMILES IDX 69 70 71 71 64 72 65 73 66 74 67 75 68 76 44 77 45 78 54 79
REMARK SMILES IDX 46 80 47 81 53 82 55 83 48 84 49 85 50 86 51 87 52 88
REMARK H PARENT 9 6 1 13 1 14 14 19 76 38 42 49
REMARK Flexibility Score: inf
ROOT
ATOM      1  C   UNL A   1      39.464  22.101  26.127  1.00  0.00     0.023 C 
ENDROOT
BRANCH   1   2
ATOM      2  C   UNL A   1      38.121  22.806  25.954  1.00  0.00     0.116 C 
BRANCH   2   3
ATOM      3  N   UNL A   1      37.766  22.914  24.550  1.00  0.00    -0.353 N 
ATOM      4  C   UNL A   1      36.570  22.736  23.928  1.00  0.00     0.244 C 
ATOM      5  O   UNL A   1      36.455  22.966  22.728  1.00  0.00    -0.270 OA
ATOM      6  H   UNL A   1      38.511  23.157  23.954  1.00  0.00     0.163 HD
BRANCH   4   7
ATOM      7  C   UNL A   1      35.385  22.359  24.720  1.00  0.00     0.078 C 
ATOM      8  C   UNL A   1      34.221  22.026  24.149  1.00  0.00     0.054 C 
BRANCH   8   9
ATOM      9  S   UNL A   1      32.845  21.527  25.070  1.00  0.00    -0.069 SA
BRANCH   9  10
ATOM     10  C   UNL A   1      32.867  19.782  25.089  1.00  0.00     0.135 C 
ATOM     11  S   UNL A   1      32.698  18.687  23.855  1.00  0.00    -0.053 S 
BRANCH  10  12
ATOM     12  N   UNL A   1      33.041  19.341  26.365  1.00  0.00    -0.384 N 
ATOM     13  H   UNL A   1      32.389  19.583  27.063  1.00  0.00     0.158 HD
ATOM     14  H   UNL A   1      33.818  18.780  26.590  1.00  0.00     0.158 HD
ENDBRANCH  10  12
ENDBRANCH   9  10
ENDBRANCH   8   9
ENDBRANCH   4   7
ENDBRANCH   2   3
ENDBRANCH   1   2
BRANCH   1  15
ATOM     15  C   UNL A   1      40.159  22.378  27.466  1.00  0.00     0.023 C 
BRANCH  15  16
ATOM     16  C   UNL A   1      41.520  23.064  27.369  1.00  0.00     0.116 C 
BRANCH  16  17
ATOM     17  N   UNL A   1      41.655  23.904  26.189  1.00  0.00    -0.352 N 
ATOM     18  C   UNL A   1      41.595  25.275  26.094  1.00  0.00     0.251 C 
ATOM     19  H   UNL A   1      41.809  23.426  25.343  1.00  0.00     0.163 HD
ATOM     20  O   UNL A   1      41.617  25.813  24.994  1.00  0.00    -0.269 OA
BRANCH  18  21
ATOM     21  C   UNL A   1      41.467  26.089  27.322  1.00  0.00     0.039 A 
ATOM     22  C   UNL A   1      42.515  26.946  27.672  1.00  0.00     0.014 A 
ATOM     23  C   UNL A   1      40.318  26.021  28.114  1.00  0.00     0.014 A 
ATOM     24  C   UNL A   1      42.380  27.786  28.779  1.00  0.00     0.010 A 
ATOM     25  C   UNL A   1      40.161  26.903  29.181  1.00  0.00     0.010 A 
ATOM     26  C   UNL A   1      41.188  27.797  29.521  1.00  0.00    -0.014 A 
BRANCH  26  27
ATOM     27  C   UNL A   1      40.988  28.747  30.645  1.00  0.00     0.031 A 
ATOM     28  C   UNL A   1      41.813  28.624  31.896  1.00  0.00     0.074 A 
ATOM     29  C   UNL A   1      40.014  29.675  30.565  1.00  0.00     0.049 A 
ATOM     30  N   UNL A   1      41.732  29.308  33.009  1.00  0.00    -0.248 NA
ATOM     31  C   UNL A   1      42.847  27.577  31.908  1.00  0.00     0.031 C 
ATOM     32  C   UNL A   1      39.113  29.859  29.425  1.00  0.00     0.029 A 
ATOM     33  N   UNL A   1      39.608  30.629  31.464  1.00  0.00    -0.354 N 
ATOM     34  C   UNL A   1      42.690  28.765  33.857  1.00  0.00     0.074 A 
ATOM     35  C   UNL A   1      43.309  27.666  33.147  1.00  0.00     0.031 C 
ATOM     36  C   UNL A   1      38.272  30.873  29.688  1.00  0.00     0.029 A 
ATOM     37  C   UNL A   1      38.551  31.390  31.024  1.00  0.00     0.049 A 
ATOM     38  H   UNL A   1      40.034  30.756  32.342  1.00  0.00     0.167 HD
ATOM     39  C   UNL A   1      43.037  29.160  35.106  1.00  0.00     0.037 A 
ATOM     40  C   UNL A   1      37.877  32.386  31.630  1.00  0.00     0.037 A 
ATOM     41  C   UNL A   1      42.438  30.272  35.795  1.00  0.00     0.049 A 
ATOM     42  C   UNL A   1      38.292  32.819  33.010  1.00  0.00     0.074 A 
ATOM     43  C   UNL A   1      42.761  30.790  37.038  1.00  0.00     0.029 A 
ATOM     44  N   UNL A   1      41.393  31.041  35.303  1.00  0.00    -0.354 N 
ATOM     45  N   UNL A   1      39.243  32.335  33.774  1.00  0.00    -0.248 NA
ATOM     46  C   UNL A   1      37.549  33.937  33.609  1.00  0.00     0.031 C 
ATOM     47  C   UNL A   1      41.889  31.850  37.310  1.00  0.00     0.029 A 
ATOM     48  C   UNL A   1      41.050  32.020  36.221  1.00  0.00     0.049 A 
ATOM     49  H   UNL A   1      40.960  30.910  34.429  1.00  0.00     0.167 HD
ATOM     50  C   UNL A   1      39.228  33.104  34.932  1.00  0.00     0.074 A 
ATOM     51  C   UNL A   1      38.182  34.091  34.764  1.00  0.00     0.031 C 
ATOM     52  C   UNL A   1      40.011  33.001  36.034  1.00  0.00     0.037 A 
BRANCH  39  53
ATOM     53  C   UNL A   1      44.122  28.387  35.803  1.00  0.00     0.058 A 
ATOM     54  C   UNL A   1      43.824  27.311  36.656  1.00  0.00     0.135 A 
ATOM     55  C   UNL A   1      45.474  28.705  35.597  1.00  0.00     0.135 A 
ATOM     56  F   UNL A   1      42.548  26.974  36.899  1.00  0.00    -0.206 F 
ATOM     57  C   UNL A   1      44.828  26.599  37.305  1.00  0.00     0.059 A 
ATOM     58  C   UNL A   1      46.495  27.989  36.216  1.00  0.00     0.059 A 
ATOM     59  F   UNL A   1      45.814  29.724  34.792  1.00  0.00    -0.206 F 
ATOM     60  C   UNL A   1      46.160  26.948  37.081  1.00  0.00     0.060 A 
BRANCH  60  61
ATOM     61  S   UNL A   1      47.451  26.016  37.933  1.00  0.00     0.124 S 
ATOM     62  O   UNL A   1      46.670  24.973  38.589  1.00  0.00    -0.237 OA
ATOM     63  O   UNL A   1      48.298  25.574  36.830  1.00  0.00    -0.237 OA
ATOM     64  O   UNL A   1      48.053  27.004  38.823  1.00  0.00    -0.744 OA
ENDBRANCH  60  61
ENDBRANCH  39  53
BRANCH  40  65
ATOM     65  C   UNL A   1      36.758  33.062  30.923  1.00  0.00     0.058 A 
ATOM     66  C   UNL A   1      35.430  32.662  31.129  1.00  0.00     0.135 A 
ATOM     67  C   UNL A   1      36.990  34.129  30.042  1.00  0.00     0.135 A 
ATOM     68  F   UNL A   1      35.158  31.642  31.959  1.00  0.00    -0.206 F 
ATOM     69  C   UNL A   1      34.371  33.285  30.478  1.00  0.00     0.059 A 
ATOM     70  C   UNL A   1      35.946  34.783  29.395  1.00  0.00     0.059 A 
ATOM     71  F   UNL A   1      38.243  34.561  29.824  1.00  0.00    -0.206 F 
ATOM     72  C   UNL A   1      34.639  34.347  29.613  1.00  0.00     0.060 A 
BRANCH  72  73
ATOM     73  S   UNL A   1      33.254  35.185  28.813  1.00  0.00     0.124 S 
ATOM     74  O   UNL A   1      32.477  35.631  29.963  1.00  0.00    -0.237 OA
ATOM     75  O   UNL A   1      33.926  36.232  28.051  1.00  0.00    -0.237 OA
ATOM     76  O   UNL A   1      32.645  34.130  28.009  1.00  0.00    -0.744 OA
ENDBRANCH  72  73
ENDBRANCH  40  65
BRANCH  52  77
ATOM     77  C   UNL A   1      39.789  34.002  37.133  1.00  0.00     0.058 A 
ATOM     78  C   UNL A   1      38.891  33.757  38.182  1.00  0.00     0.135 A 
ATOM     79  C   UNL A   1      40.526  35.197  37.163  1.00  0.00     0.135 A 
ATOM     80  F   UNL A   1      38.159  32.632  38.196  1.00  0.00    -0.206 F 
ATOM     81  C   UNL A   1      38.714  34.673  39.215  1.00  0.00     0.059 A 
ATOM     82  C   UNL A   1      40.384  36.115  38.199  1.00  0.00     0.059 A 
ATOM     83  F   UNL A   1      41.406  35.474  36.188  1.00  0.00    -0.206 F 
ATOM     84  C   UNL A   1      39.467  35.849  39.214  1.00  0.00     0.060 A 
BRANCH  84  85
ATOM     85  S   UNL A   1      39.257  37.012  40.579  1.00  0.00     0.124 S 
ATOM     86  O   UNL A   1      38.268  37.934  40.030  1.00  0.00    -0.237 OA
ATOM     87  O   UNL A   1      38.789  36.149  41.659  1.00  0.00    -0.237 OA
ATOM     88  O   UNL A   1      40.596  37.564  40.762  1.00  0.00    -0.744 OA
ENDBRANCH  84  85
ENDBRANCH  52  77
ENDBRANCH  26  27
ENDBRANCH  18  21
ENDBRANCH  16  17
ENDBRANCH  15  16
ENDBRANCH   1  15
TORSDOF 17
ENDMDL
MODEL 3
REMARK VINA RESULT:      -9.7      5.757     11.557
REMARK SMILES NC(=S)S/C=C/C(=O)NCCCCNC(=O)c1ccc(-c2c3nc(c(-c4c(F)cc(S(=O)(=O)[O-])cc4F)c4ccc([nH]4)c(-c4c(F)cc(S(=O)(=O)[O-])cc4F)c4nc(c(-c5c(F)cc(S(=O)(=O)[O-])cc5F)c5ccc2[nH]5)C=C4)C=C3)cc1
REMARK SMILES IDX 11 1 10 2 9 3 7 4 8 5 6 7 5 8 4 9 2 10 3 11 1 12 12 15 13 16
REMARK SMILES IDX 14 17 15 18 16 20 17 21 18 22 82 23 19 24 81 25 20 26 21 27
REMARK SMILES IDX 22 28 75 29 23 30 80 31 74 32 76 33 24 34 79 35 73 36 72 37
REMARK SMILES IDX 25 39 59 40 38 41 58 42 39 43 42 44 57 45 77 46 40 47 41 48
REMARK SMILES IDX 56 50 78 51 43 52 26 53 27 54 36 55 28 56 29 57 35 58 37 59
REMARK SMILES IDX 30 60 31 61 32 62 33 63 34 64 60 65 61 66 70 67 62 68 63 69
REMARK SMILES IDX 69 70 71 71 64 72 65 73 66 74 67 75 68 76 44 77 45 78 54 79
REMARK SMILES IDX 46 80 47 81 53 82 55 83 48 84 49 85 50 86 51 87 52 88
REMARK H PARENT 9 6 1 13 1 14 14 19 76 38 42 49
REMARK Flexibility Score: inf
ROOT
ATOM      1  C   UNL A   1      33.616  26.714  25.184  1.00  0.00     0.023 C 
ENDROOT
BRANCH   1   2
ATOM      2  C   UNL A   1      32.198  26.264  24.840  1.00  0.00     0.116 C 
BRANCH   2   3
ATOM      3  N   UNL A   1      31.578  25.589  25.967  1.00  0.00    -0.353 N 
ATOM      4  C   UNL A   1      31.507  24.265  26.269  1.00  0.00     0.244 C 
ATOM      5  O   UNL A   1      31.011  23.897  27.330  1.00  0.00    -0.270 OA
ATOM      6  H   UNL A   1      31.140  26.186  26.616  1.00  0.00     0.163 HD
BRANCH   4   7
ATOM      7  C   UNL A   1      32.119  23.276  25.363  1.00  0.00     0.078 C 
ATOM      8  C   UNL A   1      33.228  22.601  25.687  1.00  0.00     0.054 C 
BRANCH   8   9
ATOM      9  S   UNL A   1      33.917  21.397  24.653  1.00  0.00    -0.069 SA
BRANCH   9  10
ATOM     10  C   UNL A   1      33.200  19.876  25.118  1.00  0.00     0.135 C 
ATOM     11  S   UNL A   1      32.607  18.634  24.192  1.00  0.00    -0.053 S 
BRANCH  10  12
ATOM     12  N   UNL A   1      33.150  19.789  26.476  1.00  0.00    -0.384 N 
ATOM     13  H   UNL A   1      33.275  18.918  26.918  1.00  0.00     0.158 HD
ATOM     14  H   UNL A   1      32.988  20.596  27.015  1.00  0.00     0.158 HD
ENDBRANCH  10  12
ENDBRANCH   9  10
ENDBRANCH   8   9
ENDBRANCH   4   7
ENDBRANCH   2   3
ENDBRANCH   1   2
BRANCH   1  15
ATOM     15  C   UNL A   1      33.721  28.166  25.669  1.00  0.00     0.023 C 
BRANCH  15  16
ATOM     16  C   UNL A   1      33.594  28.365  27.178  1.00  0.00     0.116 C 
BRANCH  16  17
ATOM     17  N   UNL A   1      33.465  29.762  27.562  1.00  0.00    -0.352 N 
ATOM     18  C   UNL A   1      34.395  30.583  28.157  1.00  0.00     0.251 C 
ATOM     19  H   UNL A   1      32.593  30.176  27.371  1.00  0.00     0.163 HD
ATOM     20  O   UNL A   1      34.075  31.709  28.516  1.00  0.00    -0.269 OA
BRANCH  18  21
ATOM     21  C   UNL A   1      35.767  30.084  28.394  1.00  0.00     0.039 A 
ATOM     22  C   UNL A   1      36.682  30.109  27.337  1.00  0.00     0.014 A 
ATOM     23  C   UNL A   1      36.155  29.611  29.650  1.00  0.00     0.014 A 
ATOM     24  C   UNL A   1      38.005  29.723  27.559  1.00  0.00     0.010 A 
ATOM     25  C   UNL A   1      37.488  29.285  29.885  1.00  0.00     0.010 A 
ATOM     26  C   UNL A   1      38.428  29.342  28.843  1.00  0.00    -0.014 A 
BRANCH  26  27
ATOM     27  C   UNL A   1      39.850  29.018  29.122  1.00  0.00     0.031 A 
ATOM     28  C   UNL A   1      40.764  30.060  29.702  1.00  0.00     0.074 A 
ATOM     29  C   UNL A   1      40.332  27.806  28.784  1.00  0.00     0.049 A 
ATOM     30  N   UNL A   1      42.049  29.990  29.943  1.00  0.00    -0.248 NA
ATOM     31  C   UNL A   1      40.162  31.362  30.033  1.00  0.00     0.031 C 
ATOM     32  C   UNL A   1      39.556  26.728  28.165  1.00  0.00     0.029 A 
ATOM     33  N   UNL A   1      41.595  27.279  28.898  1.00  0.00    -0.354 N 
ATOM     34  C   UNL A   1      42.411  31.238  30.434  1.00  0.00     0.074 A 
ATOM     35  C   UNL A   1      41.220  32.061  30.416  1.00  0.00     0.031 C 
ATOM     36  C   UNL A   1      40.355  25.667  27.970  1.00  0.00     0.029 A 
ATOM     37  C   UNL A   1      41.705  25.996  28.418  1.00  0.00     0.049 A 
ATOM     38  H   UNL A   1      42.351  27.775  29.288  1.00  0.00     0.167 HD
ATOM     39  C   UNL A   1      43.621  31.654  30.881  1.00  0.00     0.037 A 
ATOM     40  C   UNL A   1      42.772  25.179  28.340  1.00  0.00     0.037 A 
ATOM     41  C   UNL A   1      44.794  30.823  30.924  1.00  0.00     0.049 A 
ATOM     42  C   UNL A   1      44.102  25.657  28.858  1.00  0.00     0.074 A 
ATOM     43  C   UNL A   1      46.052  31.132  31.414  1.00  0.00     0.029 A 
ATOM     44  N   UNL A   1      44.858  29.516  30.460  1.00  0.00    -0.354 N 
ATOM     45  N   UNL A   1      44.412  26.821  29.378  1.00  0.00    -0.248 NA
ATOM     46  C   UNL A   1      45.224  24.711  28.786  1.00  0.00     0.031 C 
ATOM     47  C   UNL A   1      46.883  30.024  31.216  1.00  0.00     0.029 A 
ATOM     48  C   UNL A   1      46.134  29.010  30.640  1.00  0.00     0.049 A 
ATOM     49  H   UNL A   1      44.105  29.022  30.062  1.00  0.00     0.167 HD
ATOM     50  C   UNL A   1      45.758  26.738  29.717  1.00  0.00     0.074 A 
ATOM     51  C   UNL A   1      46.199  25.408  29.353  1.00  0.00     0.031 C 
ATOM     52  C   UNL A   1      46.555  27.679  30.280  1.00  0.00     0.037 A 
BRANCH  39  53
ATOM     53  C   UNL A   1      43.731  33.073  31.366  1.00  0.00     0.058 A 
ATOM     54  C   UNL A   1      43.386  33.428  32.681  1.00  0.00     0.135 A 
ATOM     55  C   UNL A   1      44.212  34.085  30.519  1.00  0.00     0.135 A 
ATOM     56  F   UNL A   1      42.907  32.504  33.527  1.00  0.00    -0.206 F 
ATOM     57  C   UNL A   1      43.483  34.742  33.128  1.00  0.00     0.059 A 
ATOM     58  C   UNL A   1      44.342  35.401  30.954  1.00  0.00     0.059 A 
ATOM     59  F   UNL A   1      44.556  33.800  29.253  1.00  0.00    -0.206 F 
ATOM     60  C   UNL A   1      43.960  35.722  32.256  1.00  0.00     0.060 A 
BRANCH  60  61
ATOM     61  S   UNL A   1      44.077  37.423  32.850  1.00  0.00     0.124 S 
ATOM     62  O   UNL A   1      45.471  37.483  33.281  1.00  0.00    -0.237 OA
ATOM     63  O   UNL A   1      43.750  38.195  31.656  1.00  0.00    -0.237 OA
ATOM     64  O   UNL A   1      43.086  37.479  33.919  1.00  0.00    -0.744 OA
ENDBRANCH  60  61
ENDBRANCH  39  53
BRANCH  40  65
ATOM     65  C   UNL A   1      42.621  23.812  27.775  1.00  0.00     0.058 A 
ATOM     66  C   UNL A   1      42.506  22.695  28.615  1.00  0.00     0.135 A 
ATOM     67  C   UNL A   1      42.571  23.597  26.389  1.00  0.00     0.135 A 
ATOM     68  F   UNL A   1      42.553  22.850  29.947  1.00  0.00    -0.206 F 
ATOM     69  C   UNL A   1      42.361  21.410  28.102  1.00  0.00     0.059 A 
ATOM     70  C   UNL A   1      42.404  22.324  25.853  1.00  0.00     0.059 A 
ATOM     71  F   UNL A   1      42.659  24.636  25.544  1.00  0.00    -0.206 F 
ATOM     72  C   UNL A   1      42.309  21.235  26.719  1.00  0.00     0.060 A 
BRANCH  72  73
ATOM     73  S   UNL A   1      42.067  19.569  26.064  1.00  0.00     0.124 S 
ATOM     74  O   UNL A   1      40.635  19.568  25.788  1.00  0.00    -0.237 OA
ATOM     75  O   UNL A   1      42.944  19.566  24.898  1.00  0.00    -0.237 OA
ATOM     76  O   UNL A   1      42.499  18.712  27.164  1.00  0.00    -0.744 OA
ENDBRANCH  72  73
ENDBRANCH  40  65
BRANCH  52  77
ATOM     77  C   UNL A   1      47.979  27.295  30.567  1.00  0.00     0.058 A 
ATOM     78  C   UNL A   1      48.344  26.659  31.761  1.00  0.00     0.135 A 
ATOM     79  C   UNL A   1      48.981  27.522  29.609  1.00  0.00     0.135 A 
ATOM     80  F   UNL A   1      47.425  26.426  32.711  1.00  0.00    -0.206 F 
ATOM     81  C   UNL A   1      49.660  26.276  32.008  1.00  0.00     0.059 A 
ATOM     82  C   UNL A   1      50.298  27.126  29.823  1.00  0.00     0.059 A 
ATOM     83  F   UNL A   1      48.682  28.119  28.445  1.00  0.00    -0.206 F 
ATOM     84  C   UNL A   1      50.629  26.513  31.031  1.00  0.00     0.060 A 
BRANCH  84  85
ATOM     85  S   UNL A   1      52.325  25.979  31.345  1.00  0.00     0.124 S 
ATOM     86  O   UNL A   1      52.892  25.997  30.002  1.00  0.00    -0.237 OA
ATOM     87  O   UNL A   1      52.815  27.009  32.256  1.00  0.00    -0.237 OA
ATOM     88  O   UNL A   1      52.157  24.655  31.939  1.00  0.00    -0.744 OA
ENDBRANCH  84  85
ENDBRANCH  52  77
ENDBRANCH  26  27
ENDBRANCH  18  21
ENDBRANCH  16  17
ENDBRANCH  15  16
ENDBRANCH   1  15
TORSDOF 17
ENDMDL
