MODEL 1
REMARK VINA RESULT:     -13.2      0.000      0.000
REMARK SMILES C[C@@H]1CN(C(=O)Nc2ccc(O)c(C(=O)NCCCCNC(=O)c3ccc(-c4c5nc(c(-c6c(F)cc(S(=O)(=O)[O-])cc6F)c6ccc([nH]6)c(-c6c(F)cc(S(=O)(=O)[O-])cc6F)c6nc(c(-c7c(F)cc(S(=O)(=O)[O-])cc7F)c7ccc4[nH]7)C=C6)C=C5)cc3)c2)C[C@H]1C
REMARK SMILES IDX 19 1 18 2 17 3 16 4 14 5 15 6 13 8 8 9 9 10 90 11 10 12
REMARK SMILES IDX 11 13 7 14 1 15 2 16 3 17 92 18 4 19 91 20 93 21 5 22 6 23
REMARK SMILES IDX 12 25 20 27 21 28 22 29 23 31 24 32 25 33 89 34 26 35 88 36
REMARK SMILES IDX 27 37 28 38 29 39 82 40 30 41 87 42 81 43 83 44 31 45 86 46
REMARK SMILES IDX 80 47 79 48 32 50 66 51 45 52 65 53 46 54 49 55 64 56 84 57
REMARK SMILES IDX 47 58 48 59 63 61 85 62 50 63 33 64 34 65 43 66 35 67 36 68
REMARK SMILES IDX 42 69 44 70 37 71 38 72 39 73 40 74 41 75 67 76 68 77 77 78
REMARK SMILES IDX 69 79 70 80 76 81 78 82 71 83 72 84 73 85 74 86 75 87 51 88
REMARK SMILES IDX 52 89 61 90 53 91 54 92 60 93 62 94 55 95 56 96 57 97 58 98
REMARK SMILES IDX 59 99
REMARK H PARENT 16 7 7 24 12 26 21 30 83 49 49 60
REMARK Flexibility Score: inf
ROOT
ATOM      1  C   UNL A   1      34.449  31.391  27.620  1.00  0.00     0.023 C 
ENDROOT
BRANCH   1   2
ATOM      2  C   UNL A   1      33.853  30.058  27.181  1.00  0.00     0.023 C 
BRANCH   2   3
ATOM      3  C   UNL A   1      32.764  30.144  26.107  1.00  0.00     0.116 C 
BRANCH   3   4
ATOM      4  N   UNL A   1      33.295  29.767  24.816  1.00  0.00    -0.352 N 
ATOM      5  C   UNL A   1      32.890  28.844  23.890  1.00  0.00     0.255 C 
ATOM      6  O   UNL A   1      33.585  28.750  22.873  1.00  0.00    -0.269 OA
ATOM      7  H   UNL A   1      34.099  30.270  24.553  1.00  0.00     0.163 HD
BRANCH   5   8
ATOM      8  C   UNL A   1      31.648  28.014  23.961  1.00  0.00     0.083 A 
ATOM      9  C   UNL A   1      30.500  26.341  25.321  1.00  0.00     0.043 A 
ATOM     10  C   UNL A   1      29.387  26.405  24.492  1.00  0.00     0.030 A 
ATOM     11  C   UNL A   1      31.578  27.199  25.108  1.00  0.00     0.044 A 
ATOM     12  C   UNL A   1      29.425  27.206  23.359  1.00  0.00     0.049 A 
ATOM     13  C   UNL A   1      30.561  27.975  23.075  1.00  0.00     0.128 A 
BRANCH   9  14
ATOM     14  N   UNL A   1      30.581  25.420  26.365  1.00  0.00    -0.308 N 
ATOM     15  C   UNL A   1      33.517  23.031  22.471  1.00  0.00     0.010 C 
ATOM     16  C   UNL A   1      32.292  22.703  23.310  1.00  0.00     0.010 C 
ATOM     17  C   UNL A   1      31.789  23.917  24.084  1.00  0.00     0.125 C 
ATOM     18  C   UNL A   1      32.517  21.680  24.423  1.00  0.00     0.010 C 
ATOM     19  N   UNL A   1      31.105  23.384  25.259  1.00  0.00    -0.324 N 
ATOM     20  C   UNL A   1      31.326  21.947  25.350  1.00  0.00     0.125 C 
ATOM     21  C   UNL A   1      32.571  20.246  23.926  1.00  0.00     0.010 C 
ATOM     22  C   UNL A   1      30.587  24.057  26.342  1.00  0.00     0.321 C 
ATOM     23  O   UNL A   1      30.250  23.465  27.371  1.00  0.00    -0.248 OA
ATOM     24  H   UNL A   1      30.643  25.818  27.264  1.00  0.00     0.171 HD
ENDBRANCH   9  14
BRANCH  13  25
ATOM     25  O   UNL A   1      30.517  28.685  21.917  1.00  0.00    -0.507 OA
ATOM     26  H   UNL A   1      31.087  29.419  21.796  1.00  0.00     0.293 HD
ENDBRANCH  13  25
ENDBRANCH   5   8
ENDBRANCH   3   4
ENDBRANCH   2   3
ENDBRANCH   1   2
BRANCH   1  27
ATOM     27  C   UNL A   1      35.748  31.289  28.402  1.00  0.00     0.116 C 
BRANCH  27  28
ATOM     28  N   UNL A   1      35.571  30.804  29.763  1.00  0.00    -0.352 N 
ATOM     29  C   UNL A   1      36.489  30.176  30.576  1.00  0.00     0.251 C 
ATOM     30  H   UNL A   1      34.678  30.943  30.153  1.00  0.00     0.163 HD
ATOM     31  O   UNL A   1      36.153  29.750  31.668  1.00  0.00    -0.269 OA
BRANCH  29  32
ATOM     32  C   UNL A   1      37.870  29.989  30.080  1.00  0.00     0.039 A 
ATOM     33  C   UNL A   1      38.899  29.845  31.011  1.00  0.00     0.014 A 
ATOM     34  C   UNL A   1      38.135  29.904  28.711  1.00  0.00     0.014 A 
ATOM     35  C   UNL A   1      40.188  29.547  30.568  1.00  0.00     0.010 A 
ATOM     36  C   UNL A   1      39.401  29.527  28.276  1.00  0.00     0.010 A 
ATOM     37  C   UNL A   1      40.440  29.348  29.199  1.00  0.00    -0.014 A 
BRANCH  37  38
ATOM     38  C   UNL A   1      41.786  28.943  28.723  1.00  0.00     0.031 A 
ATOM     39  C   UNL A   1      42.894  29.956  28.635  1.00  0.00     0.074 A 
ATOM     40  C   UNL A   1      41.993  27.673  28.326  1.00  0.00     0.049 A 
ATOM     41  N   UNL A   1      44.130  29.793  28.238  1.00  0.00    -0.248 NA
ATOM     42  C   UNL A   1      42.563  31.340  29.013  1.00  0.00     0.031 C 
ATOM     43  C   UNL A   1      40.976  26.618  28.300  1.00  0.00     0.029 A 
ATOM     44  N   UNL A   1      43.125  27.051  27.866  1.00  0.00    -0.354 N 
ATOM     45  C   UNL A   1      44.719  31.049  28.312  1.00  0.00     0.074 A 
ATOM     46  C   UNL A   1      43.690  31.976  28.730  1.00  0.00     0.031 C 
ATOM     47  C   UNL A   1      41.539  25.473  27.882  1.00  0.00     0.029 A 
ATOM     48  C   UNL A   1      42.947  25.717  27.583  1.00  0.00     0.049 A 
ATOM     49  H   UNL A   1      43.985  27.517  27.749  1.00  0.00     0.167 HD
ATOM     50  C   UNL A   1      46.009  31.395  28.080  1.00  0.00     0.037 A 
ATOM     51  C   UNL A   1      43.822  24.794  27.141  1.00  0.00     0.037 A 
ATOM     52  C   UNL A   1      47.033  30.463  27.685  1.00  0.00     0.049 A 
ATOM     53  C   UNL A   1      45.254  25.196  26.914  1.00  0.00     0.074 A 
ATOM     54  C   UNL A   1      48.381  30.698  27.482  1.00  0.00     0.029 A 
ATOM     55  N   UNL A   1      46.820  29.115  27.431  1.00  0.00    -0.354 N 
ATOM     56  N   UNL A   1      45.812  26.374  27.060  1.00  0.00    -0.248 NA
ATOM     57  C   UNL A   1      46.176  24.140  26.477  1.00  0.00     0.031 C 
ATOM     58  C   UNL A   1      48.977  29.501  27.070  1.00  0.00     0.029 A 
ATOM     59  C   UNL A   1      48.009  28.509  27.058  1.00  0.00     0.049 A 
ATOM     60  H   UNL A   1      45.952  28.656  27.505  1.00  0.00     0.167 HD
ATOM     61  C   UNL A   1      47.157  26.197  26.753  1.00  0.00     0.074 A 
ATOM     62  C   UNL A   1      47.328  24.794  26.432  1.00  0.00     0.031 C 
ATOM     63  C   UNL A   1      48.159  27.112  26.736  1.00  0.00     0.037 A 
BRANCH  50  64
ATOM     64  C   UNL A   1      46.380  32.842  28.260  1.00  0.00     0.058 A 
ATOM     65  C   UNL A   1      46.825  33.339  29.496  1.00  0.00     0.135 A 
ATOM     66  C   UNL A   1      46.302  33.740  27.184  1.00  0.00     0.135 A 
ATOM     67  F   UNL A   1      46.903  32.527  30.563  1.00  0.00    -0.206 F 
ATOM     68  C   UNL A   1      47.145  34.681  29.669  1.00  0.00     0.059 A 
ATOM     69  C   UNL A   1      46.645  35.083  27.327  1.00  0.00     0.059 A 
ATOM     70  F   UNL A   1      45.882  33.321  25.981  1.00  0.00    -0.206 F 
ATOM     71  C   UNL A   1      47.049  35.546  28.578  1.00  0.00     0.060 A 
BRANCH  71  72
ATOM     72  S   UNL A   1      47.460  37.287  28.821  1.00  0.00     0.124 S 
ATOM     73  O   UNL A   1      46.495  37.673  29.847  1.00  0.00    -0.237 OA
ATOM     74  O   UNL A   1      48.852  37.223  29.253  1.00  0.00    -0.237 OA
ATOM     75  O   UNL A   1      47.243  37.875  27.502  1.00  0.00    -0.744 OA
ENDBRANCH  71  72
ENDBRANCH  50  64
BRANCH  51  76
ATOM     76  C   UNL A   1      43.377  23.392  26.930  1.00  0.00     0.058 A 
ATOM     77  C   UNL A   1      43.204  22.879  25.636  1.00  0.00     0.135 A 
ATOM     78  C   UNL A   1      43.137  22.531  28.012  1.00  0.00     0.135 A 
ATOM     79  F   UNL A   1      43.416  23.665  24.569  1.00  0.00    -0.206 F 
ATOM     80  C   UNL A   1      42.795  21.567  25.419  1.00  0.00     0.059 A 
ATOM     81  C   UNL A   1      42.752  21.208  27.822  1.00  0.00     0.059 A 
ATOM     82  F   UNL A   1      43.307  22.969  29.269  1.00  0.00    -0.206 F 
ATOM     83  C   UNL A   1      42.575  20.738  26.521  1.00  0.00     0.060 A 
BRANCH  83  84
ATOM     84  S   UNL A   1      42.100  19.019  26.228  1.00  0.00     0.124 S 
ATOM     85  O   UNL A   1      40.697  19.162  25.858  1.00  0.00    -0.237 OA
ATOM     86  O   UNL A   1      43.008  18.629  25.154  1.00  0.00    -0.237 OA
ATOM     87  O   UNL A   1      42.352  18.379  27.515  1.00  0.00    -0.744 OA
ENDBRANCH  83  84
ENDBRANCH  51  76
BRANCH  63  88
ATOM     88  C   UNL A   1      49.532  26.613  26.380  1.00  0.00     0.058 A 
ATOM     89  C   UNL A   1      50.362  25.998  27.330  1.00  0.00     0.135 A 
ATOM     90  C   UNL A   1      50.016  26.739  25.069  1.00  0.00     0.135 A 
ATOM     91  F   UNL A   1      49.947  25.856  28.599  1.00  0.00    -0.206 F 
ATOM     92  C   UNL A   1      51.641  25.558  27.001  1.00  0.00     0.059 A 
ATOM     93  C   UNL A   1      51.281  26.282  24.711  1.00  0.00     0.059 A 
ATOM     94  F   UNL A   1      49.258  27.309  24.118  1.00  0.00    -0.206 F 
ATOM     95  C   UNL A   1      52.093  25.711  25.689  1.00  0.00     0.060 A 
BRANCH  95  96
ATOM     96  S   UNL A   1      53.753  25.137  25.272  1.00  0.00     0.124 S 
ATOM     97  O   UNL A   1      53.568  23.690  25.266  1.00  0.00    -0.237 OA
ATOM     98  O   UNL A   1      53.980  25.752  23.968  1.00  0.00    -0.237 OA
ATOM     99  O   UNL A   1      54.575  25.661  26.358  1.00  0.00    -0.744 OA
ENDBRANCH  95  96
ENDBRANCH  63  88
ENDBRANCH  37  38
ENDBRANCH  29  32
ENDBRANCH  27  28
ENDBRANCH   1  27
TORSDOF 16
ENDMDL
MODEL 2
REMARK VINA RESULT:     -13.0      0.633      8.209
REMARK SMILES C[C@@H]1CN(C(=O)Nc2ccc(O)c(C(=O)NCCCCNC(=O)c3ccc(-c4c5nc(c(-c6c(F)cc(S(=O)(=O)[O-])cc6F)c6ccc([nH]6)c(-c6c(F)cc(S(=O)(=O)[O-])cc6F)c6nc(c(-c7c(F)cc(S(=O)(=O)[O-])cc7F)c7ccc4[nH]7)C=C6)C=C5)cc3)c2)C[C@H]1C
REMARK SMILES IDX 19 1 18 2 17 3 16 4 14 5 15 6 13 8 8 9 9 10 90 11 10 12
REMARK SMILES IDX 11 13 7 14 1 15 2 16 3 17 92 18 4 19 91 20 93 21 5 22 6 23
REMARK SMILES IDX 12 25 20 27 21 28 22 29 23 31 24 32 25 33 89 34 26 35 88 36
REMARK SMILES IDX 27 37 28 38 29 39 82 40 30 41 87 42 81 43 83 44 31 45 86 46
REMARK SMILES IDX 80 47 79 48 32 50 66 51 45 52 65 53 46 54 49 55 64 56 84 57
REMARK SMILES IDX 47 58 48 59 63 61 85 62 50 63 33 64 34 65 43 66 35 67 36 68
REMARK SMILES IDX 42 69 44 70 37 71 38 72 39 73 40 74 41 75 67 76 68 77 77 78
REMARK SMILES IDX 69 79 70 80 76 81 78 82 71 83 72 84 73 85 74 86 75 87 51 88
REMARK SMILES IDX 52 89 61 90 53 91 54 92 60 93 62 94 55 95 56 96 57 97 58 98
REMARK SMILES IDX 59 99
REMARK H PARENT 16 7 7 24 12 26 21 30 83 49 49 60
REMARK Flexibility Score: inf
ROOT
ATOM      1  C   UNL A   1      34.431  29.302  27.257  1.00  0.00     0.023 C 
ENDROOT
BRANCH   1   2
ATOM      2  C   UNL A   1      33.412  30.434  27.187  1.00  0.00     0.023 C 
BRANCH   2   3
ATOM      3  C   UNL A   1      32.363  30.310  26.078  1.00  0.00     0.116 C 
BRANCH   3   4
ATOM      4  N   UNL A   1      32.985  29.921  24.832  1.00  0.00    -0.352 N 
ATOM      5  C   UNL A   1      32.694  28.935  23.929  1.00  0.00     0.255 C 
ATOM      6  O   UNL A   1      33.446  28.850  22.952  1.00  0.00    -0.269 OA
ATOM      7  H   UNL A   1      33.764  30.469  24.588  1.00  0.00     0.163 HD
BRANCH   5   8
ATOM      8  C   UNL A   1      31.511  28.022  23.974  1.00  0.00     0.083 A 
ATOM      9  C   UNL A   1      30.441  26.287  25.322  1.00  0.00     0.043 A 
ATOM     10  C   UNL A   1      29.351  26.265  24.461  1.00  0.00     0.030 A 
ATOM     11  C   UNL A   1      31.463  27.216  25.129  1.00  0.00     0.044 A 
ATOM     12  C   UNL A   1      29.368  27.055  23.319  1.00  0.00     0.049 A 
ATOM     13  C   UNL A   1      30.456  27.898  23.058  1.00  0.00     0.128 A 
BRANCH   9  14
ATOM     14  N   UNL A   1      30.555  25.385  26.380  1.00  0.00    -0.308 N 
ATOM     15  C   UNL A   1      33.531  23.018  22.502  1.00  0.00     0.010 C 
ATOM     16  C   UNL A   1      32.321  22.670  23.354  1.00  0.00     0.010 C 
ATOM     17  C   UNL A   1      31.790  23.881  24.113  1.00  0.00     0.125 C 
ATOM     18  C   UNL A   1      32.582  21.671  24.481  1.00  0.00     0.010 C 
ATOM     19  N   UNL A   1      31.128  23.348  25.301  1.00  0.00    -0.324 N 
ATOM     20  C   UNL A   1      31.390  21.919  25.412  1.00  0.00     0.125 C 
ATOM     21  C   UNL A   1      32.672  20.232  24.006  1.00  0.00     0.010 C 
ATOM     22  C   UNL A   1      30.599  24.023  26.377  1.00  0.00     0.321 C 
ATOM     23  O   UNL A   1      30.286  23.437  27.417  1.00  0.00    -0.248 OA
ATOM     24  H   UNL A   1      30.612  25.799  27.271  1.00  0.00     0.171 HD
ENDBRANCH   9  14
BRANCH  13  25
ATOM     25  O   UNL A   1      30.397  28.591  21.890  1.00  0.00    -0.507 OA
ATOM     26  H   UNL A   1      30.876  29.390  21.796  1.00  0.00     0.293 HD
ENDBRANCH  13  25
ENDBRANCH   5   8
ENDBRANCH   3   4
ENDBRANCH   2   3
ENDBRANCH   1   2
BRANCH   1  27
ATOM     27  C   UNL A   1      35.725  29.645  27.975  1.00  0.00     0.116 C 
BRANCH  27  28
ATOM     28  N   UNL A   1      35.574  29.774  29.416  1.00  0.00    -0.352 N 
ATOM     29  C   UNL A   1      36.553  29.755  30.386  1.00  0.00     0.251 C 
ATOM     30  H   UNL A   1      34.653  29.890  29.740  1.00  0.00     0.163 HD
ATOM     31  O   UNL A   1      36.249  29.787  31.567  1.00  0.00    -0.269 OA
BRANCH  29  32
ATOM     32  C   UNL A   1      37.968  29.647  29.970  1.00  0.00     0.039 A 
ATOM     33  C   UNL A   1      38.910  29.228  30.910  1.00  0.00     0.014 A 
ATOM     34  C   UNL A   1      38.349  29.909  28.652  1.00  0.00     0.014 A 
ATOM     35  C   UNL A   1      40.227  29.003  30.508  1.00  0.00     0.010 A 
ATOM     36  C   UNL A   1      39.641  29.608  28.235  1.00  0.00     0.010 A 
ATOM     37  C   UNL A   1      40.593  29.155  29.160  1.00  0.00    -0.014 A 
BRANCH  37  38
ATOM     38  C   UNL A   1      41.969  28.834  28.703  1.00  0.00     0.031 A 
ATOM     39  C   UNL A   1      42.310  27.443  28.247  1.00  0.00     0.074 A 
ATOM     40  C   UNL A   1      42.919  29.788  28.747  1.00  0.00     0.049 A 
ATOM     41  N   UNL A   1      43.453  26.972  27.821  1.00  0.00    -0.248 NA
ATOM     42  C   UNL A   1      41.233  26.440  28.306  1.00  0.00     0.031 C 
ATOM     43  C   UNL A   1      42.725  31.155  29.236  1.00  0.00     0.029 A 
ATOM     44  N   UNL A   1      44.239  29.754  28.377  1.00  0.00    -0.354 N 
ATOM     45  C   UNL A   1      43.237  25.623  27.569  1.00  0.00     0.074 A 
ATOM     46  C   UNL A   1      41.870  25.336  27.948  1.00  0.00     0.031 C 
ATOM     47  C   UNL A   1      43.873  31.838  29.103  1.00  0.00     0.029 A 
ATOM     48  C   UNL A   1      44.891  30.953  28.547  1.00  0.00     0.049 A 
ATOM     49  H   UNL A   1      44.678  28.947  28.023  1.00  0.00     0.167 HD
ATOM     50  C   UNL A   1      44.089  24.713  27.041  1.00  0.00     0.037 A 
ATOM     51  C   UNL A   1      46.164  31.300  28.277  1.00  0.00     0.037 A 
ATOM     52  C   UNL A   1      45.441  25.011  26.645  1.00  0.00     0.049 A 
ATOM     53  C   UNL A   1      47.085  30.279  27.668  1.00  0.00     0.074 A 
ATOM     54  C   UNL A   1      46.369  24.177  26.046  1.00  0.00     0.029 A 
ATOM     55  N   UNL A   1      46.059  26.243  26.809  1.00  0.00    -0.354 N 
ATOM     56  N   UNL A   1      46.842  29.025  27.367  1.00  0.00    -0.248 NA
ATOM     57  C   UNL A   1      48.448  30.723  27.351  1.00  0.00     0.031 C 
ATOM     58  C   UNL A   1      47.559  24.893  25.882  1.00  0.00     0.029 A 
ATOM     59  C   UNL A   1      47.361  26.187  26.338  1.00  0.00     0.049 A 
ATOM     60  H   UNL A   1      45.635  27.039  27.204  1.00  0.00     0.167 HD
ATOM     61  C   UNL A   1      48.016  28.536  26.803  1.00  0.00     0.074 A 
ATOM     62  C   UNL A   1      48.960  29.636  26.790  1.00  0.00     0.031 C 
ATOM     63  C   UNL A   1      48.289  27.290  26.340  1.00  0.00     0.037 A 
BRANCH  50  64
ATOM     64  C   UNL A   1      43.576  23.310  26.854  1.00  0.00     0.058 A 
ATOM     65  C   UNL A   1      43.387  22.445  27.945  1.00  0.00     0.135 A 
ATOM     66  C   UNL A   1      43.258  22.828  25.575  1.00  0.00     0.135 A 
ATOM     67  F   UNL A   1      43.691  22.848  29.189  1.00  0.00    -0.206 F 
ATOM     68  C   UNL A   1      42.936  21.141  27.769  1.00  0.00     0.059 A 
ATOM     69  C   UNL A   1      42.778  21.536  25.379  1.00  0.00     0.059 A 
ATOM     70  F   UNL A   1      43.421  23.611  24.496  1.00  0.00    -0.206 F 
ATOM     71  C   UNL A   1      42.637  20.694  26.482  1.00  0.00     0.060 A 
BRANCH  71  72
ATOM     72  S   UNL A   1      42.060  18.997  26.271  1.00  0.00     0.124 S 
ATOM     73  O   UNL A   1      43.007  18.489  25.282  1.00  0.00    -0.237 OA
ATOM     74  O   UNL A   1      42.196  18.450  27.617  1.00  0.00    -0.237 OA
ATOM     75  O   UNL A   1      40.688  19.160  25.800  1.00  0.00    -0.744 OA
ENDBRANCH  71  72
ENDBRANCH  50  64
BRANCH  51  76
ATOM     76  C   UNL A   1      46.624  32.689  28.538  1.00  0.00     0.058 A 
ATOM     77  C   UNL A   1      47.171  33.045  29.779  1.00  0.00     0.135 A 
ATOM     78  C   UNL A   1      46.549  33.682  27.548  1.00  0.00     0.135 A 
ATOM     79  F   UNL A   1      47.261  32.132  30.759  1.00  0.00    -0.206 F 
ATOM     80  C   UNL A   1      47.614  34.338  30.038  1.00  0.00     0.059 A 
ATOM     81  C   UNL A   1      47.008  34.975  27.774  1.00  0.00     0.059 A 
ATOM     82  F   UNL A   1      46.051  33.386  26.338  1.00  0.00    -0.206 F 
ATOM     83  C   UNL A   1      47.531  35.296  29.026  1.00  0.00     0.060 A 
BRANCH  83  84
ATOM     84  S   UNL A   1      48.162  36.957  29.353  1.00  0.00     0.124 S 
ATOM     85  O   UNL A   1      49.324  36.670  30.187  1.00  0.00    -0.237 OA
ATOM     86  O   UNL A   1      48.446  37.448  28.008  1.00  0.00    -0.237 OA
ATOM     87  O   UNL A   1      47.046  37.612  30.028  1.00  0.00    -0.744 OA
ENDBRANCH  83  84
ENDBRANCH  51  76
BRANCH  63  88
ATOM     88  C   UNL A   1      49.657  27.062  25.760  1.00  0.00     0.058 A 
ATOM     89  C   UNL A   1      50.744  26.682  26.563  1.00  0.00     0.135 A 
ATOM     90  C   UNL A   1      49.880  27.211  24.382  1.00  0.00     0.135 A 
ATOM     91  F   UNL A   1      50.585  26.530  27.888  1.00  0.00    -0.206 F 
ATOM     92  C   UNL A   1      52.014  26.495  26.026  1.00  0.00     0.059 A 
ATOM     93  C   UNL A   1      51.135  27.002  23.819  1.00  0.00     0.059 A 
ATOM     94  F   UNL A   1      48.872  27.561  23.567  1.00  0.00    -0.206 F 
ATOM     95  C   UNL A   1      52.199  26.663  24.653  1.00  0.00     0.060 A 
BRANCH  95  96
ATOM     96  S   UNL A   1      53.850  26.416  23.964  1.00  0.00     0.124 S 
ATOM     97  O   UNL A   1      54.507  27.667  24.326  1.00  0.00    -0.237 OA
ATOM     98  O   UNL A   1      54.313  25.229  24.676  1.00  0.00    -0.237 OA
ATOM     99  O   UNL A   1      53.598  26.228  22.539  1.00  0.00    -0.744 OA
ENDBRANCH  95  96
ENDBRANCH  63  88
ENDBRANCH  37  38
ENDBRANCH  29  32
ENDBRANCH  27  28
ENDBRANCH   1  27
TORSDOF 16
ENDMDL
MODEL 3
REMARK VINA RESULT:     -12.9      6.642     12.192
REMARK SMILES C[C@@H]1CN(C(=O)Nc2ccc(O)c(C(=O)NCCCCNC(=O)c3ccc(-c4c5nc(c(-c6c(F)cc(S(=O)(=O)[O-])cc6F)c6ccc([nH]6)c(-c6c(F)cc(S(=O)(=O)[O-])cc6F)c6nc(c(-c7c(F)cc(S(=O)(=O)[O-])cc7F)c7ccc4[nH]7)C=C6)C=C5)cc3)c2)C[C@H]1C
REMARK SMILES IDX 19 1 18 2 17 3 16 4 14 5 15 6 13 8 8 9 9 10 90 11 10 12
REMARK SMILES IDX 11 13 7 14 1 15 2 16 3 17 92 18 4 19 91 20 93 21 5 22 6 23
REMARK SMILES IDX 12 25 20 27 21 28 22 29 23 31 24 32 25 33 89 34 26 35 88 36
REMARK SMILES IDX 27 37 28 38 29 39 82 40 30 41 87 42 81 43 83 44 31 45 86 46
REMARK SMILES IDX 80 47 79 48 32 50 66 51 45 52 65 53 46 54 49 55 64 56 84 57
REMARK SMILES IDX 47 58 48 59 63 61 85 62 50 63 33 64 34 65 43 66 35 67 36 68
REMARK SMILES IDX 42 69 44 70 37 71 38 72 39 73 40 74 41 75 67 76 68 77 77 78
REMARK SMILES IDX 69 79 70 80 76 81 78 82 71 83 72 84 73 85 74 86 75 87 51 88
REMARK SMILES IDX 52 89 61 90 53 91 54 92 60 93 62 94 55 95 56 96 57 97 58 98
REMARK SMILES IDX 59 99
REMARK H PARENT 16 7 7 24 12 26 21 30 83 49 49 60
REMARK Flexibility Score: inf
ROOT
ATOM      1  C   UNL A   1      37.782  23.228  26.456  1.00  0.00     0.023 C 
ENDROOT
BRANCH   1   2
ATOM      2  C   UNL A   1      37.895  22.159  25.375  1.00  0.00     0.023 C 
BRANCH   2   3
ATOM      3  C   UNL A   1      36.813  21.075  25.403  1.00  0.00     0.116 C 
BRANCH   3   4
ATOM      4  N   UNL A   1      35.813  21.382  26.401  1.00  0.00    -0.352 N 
ATOM      5  C   UNL A   1      34.490  21.718  26.302  1.00  0.00     0.255 C 
ATOM      6  O   UNL A   1      33.903  21.942  27.366  1.00  0.00    -0.269 OA
ATOM      7  H   UNL A   1      36.147  21.341  27.326  1.00  0.00     0.163 HD
BRANCH   5   8
ATOM      8  C   UNL A   1      33.683  21.751  25.044  1.00  0.00     0.083 A 
ATOM      9  C   UNL A   1      33.398  22.969  22.945  1.00  0.00     0.043 A 
ATOM     10  C   UNL A   1      32.462  22.038  22.512  1.00  0.00     0.030 A 
ATOM     11  C   UNL A   1      34.063  22.777  24.156  1.00  0.00     0.044 A 
ATOM     12  C   UNL A   1      32.074  21.013  23.363  1.00  0.00     0.049 A 
ATOM     13  C   UNL A   1      32.652  20.893  24.634  1.00  0.00     0.128 A 
BRANCH   9  14
ATOM     14  N   UNL A   1      33.685  24.115  22.205  1.00  0.00    -0.308 N 
ATOM     15  C   UNL A   1      29.880  25.880  25.654  1.00  0.00     0.010 C 
ATOM     16  C   UNL A   1      30.075  25.799  24.148  1.00  0.00     0.010 C 
ATOM     17  C   UNL A   1      31.284  24.948  23.775  1.00  0.00     0.125 C 
ATOM     18  C   UNL A   1      30.388  27.126  23.458  1.00  0.00     0.010 C 
ATOM     19  N   UNL A   1      31.737  25.447  22.479  1.00  0.00    -0.324 N 
ATOM     20  C   UNL A   1      31.010  26.661  22.137  1.00  0.00     0.125 C 
ATOM     21  C   UNL A   1      29.167  28.007  23.260  1.00  0.00     0.010 C 
ATOM     22  C   UNL A   1      32.865  25.112  21.766  1.00  0.00     0.321 C 
ATOM     23  O   UNL A   1      33.245  25.784  20.803  1.00  0.00    -0.248 OA
ATOM     24  H   UNL A   1      34.633  24.221  21.959  1.00  0.00     0.171 HD
ENDBRANCH   9  14
BRANCH  13  25
ATOM     25  O   UNL A   1      32.169  19.886  25.408  1.00  0.00    -0.507 OA
ATOM     26  H   UNL A   1      31.281  19.909  25.705  1.00  0.00     0.293 HD
ENDBRANCH  13  25
ENDBRANCH   5   8
ENDBRANCH   3   4
ENDBRANCH   2   3
ENDBRANCH   1   2
BRANCH   1  27
ATOM     27  C   UNL A   1      38.645  24.459  26.236  1.00  0.00     0.116 C 
BRANCH  27  28
ATOM     28  N   UNL A   1      40.062  24.161  26.105  1.00  0.00    -0.352 N 
ATOM     29  C   UNL A   1      41.129  24.776  26.723  1.00  0.00     0.251 C 
ATOM     30  H   UNL A   1      40.289  23.423  25.495  1.00  0.00     0.163 HD
ATOM     31  O   UNL A   1      42.272  24.462  26.436  1.00  0.00    -0.269 OA
BRANCH  29  32
ATOM     32  C   UNL A   1      40.863  25.853  27.702  1.00  0.00     0.039 A 
ATOM     33  C   UNL A   1      39.831  25.676  28.625  1.00  0.00     0.014 A 
ATOM     34  C   UNL A   1      41.658  27.001  27.738  1.00  0.00     0.014 A 
ATOM     35  C   UNL A   1      39.642  26.623  29.632  1.00  0.00     0.010 A 
ATOM     36  C   UNL A   1      41.520  27.902  28.789  1.00  0.00     0.010 A 
ATOM     37  C   UNL A   1      40.509  27.723  29.744  1.00  0.00    -0.014 A 
BRANCH  37  38
ATOM     38  C   UNL A   1      40.373  28.690  30.862  1.00  0.00     0.031 A 
ATOM     39  C   UNL A   1      41.239  28.561  32.084  1.00  0.00     0.074 A 
ATOM     40  C   UNL A   1      39.434  29.653  30.792  1.00  0.00     0.049 A 
ATOM     41  N   UNL A   1      41.262  29.302  33.161  1.00  0.00    -0.248 NA
ATOM     42  C   UNL A   1      42.185  27.433  32.113  1.00  0.00     0.031 C 
ATOM     43  C   UNL A   1      38.488  29.835  29.689  1.00  0.00     0.029 A 
ATOM     44  N   UNL A   1      39.118  30.661  31.668  1.00  0.00    -0.354 N 
ATOM     45  C   UNL A   1      42.213  28.729  33.995  1.00  0.00     0.074 A 
ATOM     46  C   UNL A   1      42.701  27.542  33.328  1.00  0.00     0.031 C 
ATOM     47  C   UNL A   1      37.722  30.910  29.938  1.00  0.00     0.029 A 
ATOM     48  C   UNL A   1      38.102  31.476  31.228  1.00  0.00     0.049 A 
ATOM     49  H   UNL A   1      39.576  30.787  32.531  1.00  0.00     0.167 HD
ATOM     50  C   UNL A   1      42.660  29.168  35.197  1.00  0.00     0.037 A 
ATOM     51  C   UNL A   1      37.546  32.562  31.797  1.00  0.00     0.037 A 
ATOM     52  C   UNL A   1      42.185  30.362  35.845  1.00  0.00     0.049 A 
ATOM     53  C   UNL A   1      38.076  33.044  33.120  1.00  0.00     0.074 A 
ATOM     54  C   UNL A   1      42.613  30.928  37.033  1.00  0.00     0.029 A 
ATOM     55  N   UNL A   1      41.172  31.177  35.358  1.00  0.00    -0.354 N 
ATOM     56  N   UNL A   1      39.029  32.532  33.863  1.00  0.00    -0.248 NA
ATOM     57  C   UNL A   1      37.465  34.259  33.674  1.00  0.00     0.031 C 
ATOM     58  C   UNL A   1      41.834  32.062  37.283  1.00  0.00     0.029 A 
ATOM     59  C   UNL A   1      40.950  32.231  36.230  1.00  0.00     0.049 A 
ATOM     60  H   UNL A   1      40.682  31.027  34.516  1.00  0.00     0.167 HD
ATOM     61  C   UNL A   1      39.147  33.375  34.963  1.00  0.00     0.074 A 
ATOM     62  C   UNL A   1      38.181  34.439  34.776  1.00  0.00     0.031 C 
ATOM     63  C   UNL A   1      39.979  33.277  36.030  1.00  0.00     0.037 A 
BRANCH  50  64
ATOM     64  C   UNL A   1      43.726  28.352  35.878  1.00  0.00     0.058 A 
ATOM     65  C   UNL A   1      43.401  27.280  36.727  1.00  0.00     0.135 A 
ATOM     66  C   UNL A   1      45.085  28.636  35.674  1.00  0.00     0.135 A 
ATOM     67  F   UNL A   1      42.116  26.976  36.971  1.00  0.00    -0.206 F 
ATOM     68  C   UNL A   1      44.385  26.543  37.376  1.00  0.00     0.059 A 
ATOM     69  C   UNL A   1      46.087  27.891  36.292  1.00  0.00     0.059 A 
ATOM     70  F   UNL A   1      45.453  29.650  34.875  1.00  0.00    -0.206 F 
ATOM     71  C   UNL A   1      45.726  26.858  37.154  1.00  0.00     0.060 A 
BRANCH  71  72
ATOM     72  S   UNL A   1      46.990  25.895  38.011  1.00  0.00     0.124 S 
ATOM     73  O   UNL A   1      47.026  26.556  39.313  1.00  0.00    -0.237 OA
ATOM     74  O   UNL A   1      46.422  24.551  37.999  1.00  0.00    -0.237 OA
ATOM     75  O   UNL A   1      48.177  26.078  37.181  1.00  0.00    -0.744 OA
ENDBRANCH  71  72
ENDBRANCH  50  64
BRANCH  51  76
ATOM     76  C   UNL A   1      36.457  33.291  31.097  1.00  0.00     0.058 A 
ATOM     77  C   UNL A   1      36.725  34.063  29.957  1.00  0.00     0.135 A 
ATOM     78  C   UNL A   1      35.126  33.214  31.536  1.00  0.00     0.135 A 
ATOM     79  F   UNL A   1      37.983  34.171  29.501  1.00  0.00    -0.206 F 
ATOM     80  C   UNL A   1      35.717  34.746  29.284  1.00  0.00     0.059 A 
ATOM     81  C   UNL A   1      34.097  33.867  30.866  1.00  0.00     0.059 A 
ATOM     82  F   UNL A   1      34.815  32.472  32.610  1.00  0.00    -0.206 F 
ATOM     83  C   UNL A   1      34.404  34.639  29.746  1.00  0.00     0.060 A 
BRANCH  83  84
ATOM     84  S   UNL A   1      33.094  35.483  28.832  1.00  0.00     0.124 S 
ATOM     85  O   UNL A   1      32.512  34.383  28.072  1.00  0.00    -0.237 OA
ATOM     86  O   UNL A   1      32.269  36.024  29.908  1.00  0.00    -0.237 OA
ATOM     87  O   UNL A   1      33.820  36.478  28.049  1.00  0.00    -0.744 OA
ENDBRANCH  83  84
ENDBRANCH  51  76
BRANCH  63  88
ATOM     88  C   UNL A   1      39.891  34.364  37.065  1.00  0.00     0.058 A 
ATOM     89  C   UNL A   1      39.103  34.222  38.218  1.00  0.00     0.135 A 
ATOM     90  C   UNL A   1      40.616  35.556  36.908  1.00  0.00     0.135 A 
ATOM     91  F   UNL A   1      38.387  33.103  38.414  1.00  0.00    -0.206 F 
ATOM     92  C   UNL A   1      39.007  35.240  39.162  1.00  0.00     0.059 A 
ATOM     93  C   UNL A   1      40.557  36.575  37.853  1.00  0.00     0.059 A 
ATOM     94  F   UNL A   1      41.395  35.737  35.830  1.00  0.00    -0.206 F 
ATOM     95  C   UNL A   1      39.734  36.416  38.966  1.00  0.00     0.060 A 
BRANCH  95  96
ATOM     96  S   UNL A   1      39.604  37.731  40.197  1.00  0.00     0.124 S 
ATOM     97  O   UNL A   1      39.178  36.985  41.376  1.00  0.00    -0.237 OA
ATOM     98  O   UNL A   1      40.964  38.259  40.238  1.00  0.00    -0.237 OA
ATOM     99  O   UNL A   1      38.605  38.630  39.627  1.00  0.00    -0.744 OA
ENDBRANCH  95  96
ENDBRANCH  63  88
ENDBRANCH  37  38
ENDBRANCH  29  32
ENDBRANCH  27  28
ENDBRANCH   1  27
TORSDOF 16
ENDMDL
