MODEL 1
REMARK VINA RESULT:     -11.9      0.000      0.000
REMARK SMILES O=C(NCCCCNC(=O)c1cn(C2C[NH+](CC[NH+]3CCCCC3)C2)nn1)c1ccc(-c2c3nc(c(-c4c(F)cc(S(=O)(=O)[O-])cc4F)c4ccc([nH]4)c(-c4c(F)cc(S(=O)(=O)[O-])cc4F)c4nc(c(-c5c(F)cc(S(=O)(=O)[O-])cc5F)c5ccc2[nH]5)C=C4)C=C3)cc1
REMARK SMILES IDX 6 1 5 2 4 3 3 4 1 5 2 6 28 8 29 9 93 10 30 11 92 12 31 13
REMARK SMILES IDX 32 14 33 15 86 16 34 17 91 18 85 19 87 20 35 21 90 22 84 23
REMARK SMILES IDX 83 24 36 26 70 27 49 28 69 29 50 30 53 31 68 32 88 33 51 34
REMARK SMILES IDX 52 35 67 37 89 38 54 39 37 40 38 41 47 42 39 43 40 44 46 45
REMARK SMILES IDX 48 46 41 47 42 48 43 49 44 50 45 51 71 52 72 53 81 54 73 55
REMARK SMILES IDX 74 56 80 57 82 58 75 59 76 60 77 61 78 62 79 63 55 64 56 65
REMARK SMILES IDX 65 66 57 67 58 68 64 69 66 70 59 71 60 72 61 73 62 74 63 75
REMARK SMILES IDX 7 76 8 77 9 78 10 80 11 81 12 82 27 83 13 84 26 85 14 86
REMARK SMILES IDX 15 87 25 88 16 89 17 91 18 92 19 93 20 94 24 95 21 97 23 98
REMARK SMILES IDX 22 99
REMARK H PARENT 3 7 87 25 53 36 8 79 16 90 19 96
REMARK Flexibility Score: inf
ROOT
ATOM      1  C   UNL A   1      39.155  21.772  26.119  1.00  0.00     0.023 C 
ENDROOT
BRANCH   1   2
ATOM      2  C   UNL A   1      39.698  20.379  25.763  1.00  0.00     0.023 C 
BRANCH   2   3
ATOM      3  C   UNL A   1      40.961  19.952  26.506  1.00  0.00     0.116 C 
BRANCH   3   4
ATOM      4  N   UNL A   1      42.181  20.125  25.747  1.00  0.00    -0.352 N 
ATOM      5  O   UNL A   1      44.145  20.789  25.013  1.00  0.00    -0.269 OA
ATOM      6  C   UNL A   1      43.163  21.078  25.704  1.00  0.00     0.251 C 
ATOM      7  H   UNL A   1      42.342  19.387  25.116  1.00  0.00     0.163 HD
BRANCH   6   8
ATOM      8  C   UNL A   1      43.120  22.411  26.373  1.00  0.00     0.039 A 
ATOM      9  C   UNL A   1      43.610  22.708  27.645  1.00  0.00     0.014 A 
ATOM     10  C   UNL A   1      42.492  23.441  25.646  1.00  0.00     0.014 A 
ATOM     11  C   UNL A   1      43.426  23.976  28.199  1.00  0.00     0.010 A 
ATOM     12  C   UNL A   1      42.314  24.712  26.190  1.00  0.00     0.010 A 
ATOM     13  C   UNL A   1      42.755  24.970  27.484  1.00  0.00    -0.014 A 
BRANCH  13  14
ATOM     14  C   UNL A   1      42.623  26.294  28.096  1.00  0.00     0.031 A 
ATOM     15  C   UNL A   1      43.716  27.269  27.793  1.00  0.00     0.074 A 
ATOM     16  C   UNL A   1      41.520  26.698  28.759  1.00  0.00     0.049 A 
ATOM     17  N   UNL A   1      44.489  27.909  28.613  1.00  0.00    -0.248 NA
ATOM     18  C   UNL A   1      44.025  27.513  26.376  1.00  0.00     0.031 C 
ATOM     19  C   UNL A   1      40.234  26.003  28.871  1.00  0.00     0.029 A 
ATOM     20  N   UNL A   1      41.284  27.887  29.385  1.00  0.00    -0.354 N 
ATOM     21  C   UNL A   1      45.259  28.772  27.830  1.00  0.00     0.074 A 
ATOM     22  C   UNL A   1      45.018  28.398  26.461  1.00  0.00     0.031 C 
ATOM     23  C   UNL A   1      39.301  26.868  29.326  1.00  0.00     0.029 A 
ATOM     24  C   UNL A   1      39.945  28.128  29.659  1.00  0.00     0.049 A 
ATOM     25  H   UNL A   1      42.001  28.519  29.620  1.00  0.00     0.167 HD
ATOM     26  C   UNL A   1      45.913  29.851  28.348  1.00  0.00     0.037 A 
ATOM     27  C   UNL A   1      39.394  29.303  30.056  1.00  0.00     0.037 A 
ATOM     28  C   UNL A   1      46.075  29.743  29.772  1.00  0.00     0.049 A 
ATOM     29  C   UNL A   1      40.481  30.140  30.625  1.00  0.00     0.074 A 
ATOM     30  C   UNL A   1      46.708  28.851  30.617  1.00  0.00     0.029 A 
ATOM     31  N   UNL A   1      45.269  30.505  30.581  1.00  0.00    -0.354 N 
ATOM     32  N   UNL A   1      41.124  29.868  31.726  1.00  0.00    -0.248 NA
ATOM     33  C   UNL A   1      41.130  31.100  29.746  1.00  0.00     0.031 C 
ATOM     34  C   UNL A   1      45.886  28.796  31.779  1.00  0.00     0.029 A 
ATOM     35  C   UNL A   1      44.825  29.681  31.583  1.00  0.00     0.049 A 
ATOM     36  H   UNL A   1      45.051  31.458  30.464  1.00  0.00     0.167 HD
ATOM     37  C   UNL A   1      42.424  30.295  31.497  1.00  0.00     0.074 A 
ATOM     38  C   UNL A   1      42.341  31.135  30.306  1.00  0.00     0.031 C 
ATOM     39  C   UNL A   1      43.486  29.718  32.129  1.00  0.00     0.037 A 
BRANCH  26  40
ATOM     40  C   UNL A   1      46.138  31.157  27.615  1.00  0.00     0.058 A 
ATOM     41  C   UNL A   1      47.453  31.618  27.393  1.00  0.00     0.135 A 
ATOM     42  C   UNL A   1      45.116  32.106  27.387  1.00  0.00     0.135 A 
ATOM     43  F   UNL A   1      48.504  30.803  27.576  1.00  0.00    -0.206 F 
ATOM     44  C   UNL A   1      47.737  32.944  27.062  1.00  0.00     0.059 A 
ATOM     45  C   UNL A   1      45.374  33.419  27.004  1.00  0.00     0.059 A 
ATOM     46  F   UNL A   1      43.827  31.835  27.622  1.00  0.00    -0.206 F 
ATOM     47  C   UNL A   1      46.689  33.843  26.895  1.00  0.00     0.060 A 
BRANCH  47  48
ATOM     48  S   UNL A   1      47.052  35.587  26.621  1.00  0.00     0.124 S 
ATOM     49  O   UNL A   1      47.363  36.032  27.974  1.00  0.00    -0.237 OA
ATOM     50  O   UNL A   1      48.177  35.523  25.695  1.00  0.00    -0.237 OA
ATOM     51  O   UNL A   1      45.810  36.102  26.054  1.00  0.00    -0.744 OA
ENDBRANCH  47  48
ENDBRANCH  26  40
BRANCH  27  52
ATOM     52  C   UNL A   1      38.075  29.861  29.658  1.00  0.00     0.058 A 
ATOM     53  C   UNL A   1      37.214  30.454  30.600  1.00  0.00     0.135 A 
ATOM     54  C   UNL A   1      37.749  30.069  28.303  1.00  0.00     0.135 A 
ATOM     55  F   UNL A   1      37.465  30.336  31.912  1.00  0.00    -0.206 F 
ATOM     56  C   UNL A   1      36.118  31.236  30.218  1.00  0.00     0.059 A 
ATOM     57  C   UNL A   1      36.655  30.830  27.898  1.00  0.00     0.059 A 
ATOM     58  F   UNL A   1      38.541  29.611  27.322  1.00  0.00    -0.206 F 
ATOM     59  C   UNL A   1      35.855  31.431  28.861  1.00  0.00     0.060 A 
BRANCH  59  60
ATOM     60  S   UNL A   1      34.541  32.567  28.360  1.00  0.00     0.124 S 
ATOM     61  O   UNL A   1      35.276  33.547  27.567  1.00  0.00    -0.237 OA
ATOM     62  O   UNL A   1      33.642  31.691  27.617  1.00  0.00    -0.237 OA
ATOM     63  O   UNL A   1      34.016  33.060  29.631  1.00  0.00    -0.744 OA
ENDBRANCH  59  60
ENDBRANCH  27  52
BRANCH  39  64
ATOM     64  C   UNL A   1      43.226  28.826  33.313  1.00  0.00     0.058 A 
ATOM     65  C   UNL A   1      43.005  29.297  34.618  1.00  0.00     0.135 A 
ATOM     66  C   UNL A   1      42.998  27.461  33.076  1.00  0.00     0.135 A 
ATOM     67  F   UNL A   1      43.102  30.603  34.904  1.00  0.00    -0.206 F 
ATOM     68  C   UNL A   1      42.598  28.447  35.646  1.00  0.00     0.059 A 
ATOM     69  C   UNL A   1      42.562  26.599  34.080  1.00  0.00     0.059 A 
ATOM     70  F   UNL A   1      43.132  26.961  31.836  1.00  0.00    -0.206 F 
ATOM     71  C   UNL A   1      42.368  27.100  35.366  1.00  0.00     0.060 A 
BRANCH  71  72
ATOM     72  S   UNL A   1      41.714  26.032  36.668  1.00  0.00     0.124 S 
ATOM     73  O   UNL A   1      40.875  26.952  37.427  1.00  0.00    -0.237 OA
ATOM     74  O   UNL A   1      41.003  25.005  35.910  1.00  0.00    -0.237 OA
ATOM     75  O   UNL A   1      42.912  25.563  37.359  1.00  0.00    -0.744 OA
ENDBRANCH  71  72
ENDBRANCH  39  64
ENDBRANCH  13  14
ENDBRANCH   6   8
ENDBRANCH   3   4
ENDBRANCH   2   3
ENDBRANCH   1   2
BRANCH   1  76
ATOM     76  C   UNL A   1      37.877  22.215  25.400  1.00  0.00     0.116 C 
BRANCH  76  77
ATOM     77  N   UNL A   1      36.672  21.725  26.047  1.00  0.00    -0.351 N 
ATOM     78  C   UNL A   1      35.357  22.122  25.934  1.00  0.00     0.273 C 
ATOM     79  H   UNL A   1      36.820  20.981  26.674  1.00  0.00     0.163 HD
ATOM     80  O   UNL A   1      34.551  21.640  26.725  1.00  0.00    -0.267 OA
BRANCH  78  81
ATOM     81  C   UNL A   1      34.950  23.074  24.909  1.00  0.00     0.170 A 
ATOM     82  C   UNL A   1      34.811  24.446  24.979  1.00  0.00     0.145 A 
ATOM     83  N   UNL A   1      34.684  22.681  23.619  1.00  0.00    -0.125 NA
ATOM     84  N   UNL A   1      34.309  24.807  23.753  1.00  0.00    -0.237 N 
ATOM     85  N   UNL A   1      34.295  23.743  22.926  1.00  0.00    -0.066 NA
BRANCH  84  86
ATOM     86  C   UNL A   1      33.362  25.857  23.545  1.00  0.00     0.218 C 
ATOM     87  C   UNL A   1      33.623  27.192  24.281  1.00  0.00     0.296 C 
ATOM     88  C   UNL A   1      33.423  26.726  22.285  1.00  0.00     0.296 C 
ATOM     89  N   UNL A   1      32.995  27.887  23.140  1.00  0.00    -0.326 N 
ATOM     90  H   UNL A   1      33.230  28.838  22.856  1.00  0.00     0.348 HD
BRANCH  89  91
ATOM     91  C   UNL A   1      31.529  28.082  23.330  1.00  0.00     0.324 C 
BRANCH  91  92
ATOM     92  C   UNL A   1      30.811  29.342  23.939  1.00  0.00     0.324 C 
BRANCH  92  93
ATOM     93  N   UNL A   1      29.594  29.960  23.353  1.00  0.00    -0.330 N 
ATOM     94  C   UNL A   1      29.191  31.264  23.871  1.00  0.00     0.262 C 
ATOM     95  C   UNL A   1      29.594  29.961  21.883  1.00  0.00     0.262 C 
ATOM     96  H   UNL A   1      28.870  29.325  23.689  1.00  0.00     0.348 HD
ATOM     97  C   UNL A   1      27.832  31.733  23.365  1.00  0.00     0.062 C 
ATOM     98  C   UNL A   1      28.249  30.429  21.304  1.00  0.00     0.062 C 
ATOM     99  C   UNL A   1      27.829  31.786  21.852  1.00  0.00     0.012 C 
ENDBRANCH  92  93
ENDBRANCH  91  92
ENDBRANCH  89  91
ENDBRANCH  84  86
ENDBRANCH  78  81
ENDBRANCH  76  77
ENDBRANCH   1  76
TORSDOF 18
ENDMDL
MODEL 2
REMARK VINA RESULT:     -11.8      2.621      9.696
REMARK SMILES O=C(NCCCCNC(=O)c1cn(C2C[NH+](CC[NH+]3CCCCC3)C2)nn1)c1ccc(-c2c3nc(c(-c4c(F)cc(S(=O)(=O)[O-])cc4F)c4ccc([nH]4)c(-c4c(F)cc(S(=O)(=O)[O-])cc4F)c4nc(c(-c5c(F)cc(S(=O)(=O)[O-])cc5F)c5ccc2[nH]5)C=C4)C=C3)cc1
REMARK SMILES IDX 6 1 5 2 4 3 3 4 1 5 2 6 28 8 29 9 93 10 30 11 92 12 31 13
REMARK SMILES IDX 32 14 33 15 86 16 34 17 91 18 85 19 87 20 35 21 90 22 84 23
REMARK SMILES IDX 83 24 36 26 70 27 49 28 69 29 50 30 53 31 68 32 88 33 51 34
REMARK SMILES IDX 52 35 67 37 89 38 54 39 37 40 38 41 47 42 39 43 40 44 46 45
REMARK SMILES IDX 48 46 41 47 42 48 43 49 44 50 45 51 71 52 72 53 81 54 73 55
REMARK SMILES IDX 74 56 80 57 82 58 75 59 76 60 77 61 78 62 79 63 55 64 56 65
REMARK SMILES IDX 65 66 57 67 58 68 64 69 66 70 59 71 60 72 61 73 62 74 63 75
REMARK SMILES IDX 7 76 8 77 9 78 10 80 11 81 12 82 27 83 13 84 26 85 14 86
REMARK SMILES IDX 15 87 25 88 16 89 17 91 18 92 19 93 20 94 24 95 21 97 23 98
REMARK SMILES IDX 22 99
REMARK H PARENT 3 7 87 25 53 36 8 79 16 90 19 96
REMARK Flexibility Score: inf
ROOT
ATOM      1  C   UNL A   1      31.474  28.515  26.180  1.00  0.00     0.023 C 
ENDROOT
BRANCH   1   2
ATOM      2  C   UNL A   1      32.586  28.504  27.241  1.00  0.00     0.023 C 
BRANCH   2   3
ATOM      3  C   UNL A   1      33.796  29.385  26.940  1.00  0.00     0.116 C 
BRANCH   3   4
ATOM      4  N   UNL A   1      33.823  30.626  27.683  1.00  0.00    -0.352 N 
ATOM      5  O   UNL A   1      34.447  32.455  28.735  1.00  0.00    -0.269 OA
ATOM      6  C   UNL A   1      34.793  31.338  28.338  1.00  0.00     0.251 C 
ATOM      7  H   UNL A   1      32.941  31.059  27.729  1.00  0.00     0.163 HD
BRANCH   6   8
ATOM      8  C   UNL A   1      36.177  30.865  28.634  1.00  0.00     0.039 A 
ATOM      9  C   UNL A   1      37.234  31.651  29.093  1.00  0.00     0.014 A 
ATOM     10  C   UNL A   1      36.423  29.498  28.389  1.00  0.00     0.014 A 
ATOM     11  C   UNL A   1      38.511  31.108  29.245  1.00  0.00     0.010 A 
ATOM     12  C   UNL A   1      37.693  28.948  28.549  1.00  0.00     0.010 A 
ATOM     13  C   UNL A   1      38.748  29.764  28.948  1.00  0.00    -0.014 A 
BRANCH  13  14
ATOM     14  C   UNL A   1      40.096  29.235  29.161  1.00  0.00     0.031 A 
ATOM     15  C   UNL A   1      40.547  29.139  30.584  1.00  0.00     0.074 A 
ATOM     16  C   UNL A   1      40.849  28.704  28.175  1.00  0.00     0.049 A 
ATOM     17  N   UNL A   1      41.588  29.665  31.147  1.00  0.00    -0.248 NA
ATOM     18  C   UNL A   1      39.677  28.404  31.515  1.00  0.00     0.031 C 
ATOM     19  C   UNL A   1      40.449  28.416  26.795  1.00  0.00     0.029 A 
ATOM     20  N   UNL A   1      42.116  28.201  28.241  1.00  0.00    -0.354 N 
ATOM     21  C   UNL A   1      41.608  29.183  32.458  1.00  0.00     0.074 A 
ATOM     22  C   UNL A   1      40.349  28.514  32.661  1.00  0.00     0.031 C 
ATOM     23  C   UNL A   1      41.365  27.598  26.229  1.00  0.00     0.029 A 
ATOM     24  C   UNL A   1      42.471  27.415  27.154  1.00  0.00     0.049 A 
ATOM     25  H   UNL A   1      42.723  28.380  28.994  1.00  0.00     0.167 HD
ATOM     26  C   UNL A   1      42.727  29.213  33.237  1.00  0.00     0.037 A 
ATOM     27  C   UNL A   1      43.558  26.609  27.054  1.00  0.00     0.037 A 
ATOM     28  C   UNL A   1      43.697  30.151  32.741  1.00  0.00     0.049 A 
ATOM     29  C   UNL A   1      44.553  27.067  28.057  1.00  0.00     0.074 A 
ATOM     30  C   UNL A   1      43.712  31.515  32.523  1.00  0.00     0.029 A 
ATOM     31  N   UNL A   1      44.802  29.662  32.090  1.00  0.00    -0.354 N 
ATOM     32  N   UNL A   1      45.178  28.210  28.010  1.00  0.00    -0.248 NA
ATOM     33  C   UNL A   1      44.568  26.403  29.351  1.00  0.00     0.031 C 
ATOM     34  C   UNL A   1      44.520  31.695  31.364  1.00  0.00     0.029 A 
ATOM     35  C   UNL A   1      44.972  30.435  30.970  1.00  0.00     0.049 A 
ATOM     36  H   UNL A   1      45.364  28.905  32.371  1.00  0.00     0.167 HD
ATOM     37  C   UNL A   1      45.310  28.602  29.333  1.00  0.00     0.074 A 
ATOM     38  C   UNL A   1      45.010  27.405  30.114  1.00  0.00     0.031 C 
ATOM     39  C   UNL A   1      45.387  29.919  29.684  1.00  0.00     0.037 A 
BRANCH  26  40
ATOM     40  C   UNL A   1      43.081  28.172  34.278  1.00  0.00     0.058 A 
ATOM     41  C   UNL A   1      43.288  28.564  35.619  1.00  0.00     0.135 A 
ATOM     42  C   UNL A   1      43.511  26.865  33.956  1.00  0.00     0.135 A 
ATOM     43  F   UNL A   1      42.917  29.784  36.040  1.00  0.00    -0.206 F 
ATOM     44  C   UNL A   1      43.954  27.757  36.542  1.00  0.00     0.059 A 
ATOM     45  C   UNL A   1      44.129  26.023  34.876  1.00  0.00     0.059 A 
ATOM     46  F   UNL A   1      43.444  26.380  32.711  1.00  0.00    -0.206 F 
ATOM     47  C   UNL A   1      44.393  26.497  36.151  1.00  0.00     0.060 A 
BRANCH  47  48
ATOM     48  S   UNL A   1      45.388  25.512  37.288  1.00  0.00     0.124 S 
ATOM     49  O   UNL A   1      46.733  25.768  36.788  1.00  0.00    -0.237 OA
ATOM     50  O   UNL A   1      45.059  26.110  38.577  1.00  0.00    -0.237 OA
ATOM     51  O   UNL A   1      44.884  24.157  37.085  1.00  0.00    -0.744 OA
ENDBRANCH  47  48
ENDBRANCH  26  40
BRANCH  27  52
ATOM     52  C   UNL A   1      43.638  25.280  26.393  1.00  0.00     0.058 A 
ATOM     53  C   UNL A   1      44.499  25.051  25.305  1.00  0.00     0.135 A 
ATOM     54  C   UNL A   1      43.072  24.134  26.988  1.00  0.00     0.135 A 
ATOM     55  F   UNL A   1      45.108  26.080  24.698  1.00  0.00    -0.206 F 
ATOM     56  C   UNL A   1      44.808  23.761  24.858  1.00  0.00     0.059 A 
ATOM     57  C   UNL A   1      43.353  22.841  26.551  1.00  0.00     0.059 A 
ATOM     58  F   UNL A   1      42.295  24.231  28.077  1.00  0.00    -0.206 F 
ATOM     59  C   UNL A   1      44.240  22.659  25.499  1.00  0.00     0.060 A 
BRANCH  59  60
ATOM     60  S   UNL A   1      44.757  20.990  25.034  1.00  0.00     0.124 S 
ATOM     61  O   UNL A   1      44.576  21.012  23.586  1.00  0.00    -0.237 OA
ATOM     62  O   UNL A   1      46.137  20.952  25.504  1.00  0.00    -0.237 OA
ATOM     63  O   UNL A   1      43.828  20.132  25.766  1.00  0.00    -0.744 OA
ENDBRANCH  59  60
ENDBRANCH  27  52
BRANCH  39  64
ATOM     64  C   UNL A   1      45.644  30.939  28.608  1.00  0.00     0.058 A 
ATOM     65  C   UNL A   1      44.641  31.489  27.792  1.00  0.00     0.135 A 
ATOM     66  C   UNL A   1      46.920  31.520  28.537  1.00  0.00     0.135 A 
ATOM     67  F   UNL A   1      43.374  31.060  27.873  1.00  0.00    -0.206 F 
ATOM     68  C   UNL A   1      44.900  32.554  26.929  1.00  0.00     0.059 A 
ATOM     69  C   UNL A   1      47.194  32.603  27.705  1.00  0.00     0.059 A 
ATOM     70  F   UNL A   1      47.906  31.079  29.336  1.00  0.00    -0.206 F 
ATOM     71  C   UNL A   1      46.178  33.112  26.899  1.00  0.00     0.060 A 
BRANCH  71  72
ATOM     72  S   UNL A   1      46.474  34.574  25.880  1.00  0.00     0.124 S 
ATOM     73  O   UNL A   1      46.297  35.659  26.839  1.00  0.00    -0.237 OA
ATOM     74  O   UNL A   1      47.839  34.362  25.407  1.00  0.00    -0.237 OA
ATOM     75  O   UNL A   1      45.447  34.482  24.845  1.00  0.00    -0.744 OA
ENDBRANCH  71  72
ENDBRANCH  39  64
ENDBRANCH  13  14
ENDBRANCH   6   8
ENDBRANCH   3   4
ENDBRANCH   2   3
ENDBRANCH   1   2
BRANCH   1  76
ATOM     76  C   UNL A   1      31.850  29.062  24.799  1.00  0.00     0.116 C 
BRANCH  76  77
ATOM     77  N   UNL A   1      30.722  29.098  23.885  1.00  0.00    -0.351 N 
ATOM     78  C   UNL A   1      30.345  28.239  22.876  1.00  0.00     0.273 C 
ATOM     79  H   UNL A   1      30.124  29.870  24.007  1.00  0.00     0.163 HD
ATOM     80  O   UNL A   1      29.426  28.596  22.142  1.00  0.00    -0.267 OA
BRANCH  78  81
ATOM     81  C   UNL A   1      31.013  26.956  22.700  1.00  0.00     0.170 A 
ATOM     82  C   UNL A   1      31.102  25.878  23.559  1.00  0.00     0.145 A 
ATOM     83  N   UNL A   1      31.644  26.622  21.525  1.00  0.00    -0.125 NA
ATOM     84  N   UNL A   1      31.928  24.990  22.916  1.00  0.00    -0.237 N 
ATOM     85  N   UNL A   1      32.197  25.425  21.669  1.00  0.00    -0.066 NA
BRANCH  84  86
ATOM     86  C   UNL A   1      32.877  24.148  23.575  1.00  0.00     0.218 C 
ATOM     87  C   UNL A   1      33.207  22.799  22.895  1.00  0.00     0.296 C 
ATOM     88  C   UNL A   1      34.380  24.404  23.431  1.00  0.00     0.296 C 
ATOM     89  N   UNL A   1      34.573  22.912  23.444  1.00  0.00    -0.326 N 
ATOM     90  H   UNL A   1      35.397  22.505  23.003  1.00  0.00     0.348 HD
BRANCH  89  91
ATOM     91  C   UNL A   1      34.705  22.260  24.778  1.00  0.00     0.324 C 
BRANCH  91  92
ATOM     92  C   UNL A   1      35.951  21.474  25.330  1.00  0.00     0.324 C 
BRANCH  92  93
ATOM     93  N   UNL A   1      37.114  22.126  25.984  1.00  0.00    -0.330 N 
ATOM     94  C   UNL A   1      38.441  21.621  25.647  1.00  0.00     0.262 C 
ATOM     95  C   UNL A   1      37.079  23.593  25.900  1.00  0.00     0.262 C 
ATOM     96  H   UNL A   1      36.979  21.842  26.954  1.00  0.00     0.348 HD
ATOM     97  C   UNL A   1      39.557  22.205  26.506  1.00  0.00     0.062 C 
ATOM     98  C   UNL A   1      38.184  24.249  26.743  1.00  0.00     0.062 C 
ATOM     99  C   UNL A   1      39.567  23.714  26.394  1.00  0.00     0.012 C 
ENDBRANCH  92  93
ENDBRANCH  91  92
ENDBRANCH  89  91
ENDBRANCH  84  86
ENDBRANCH  78  81
ENDBRANCH  76  77
ENDBRANCH   1  76
TORSDOF 18
ENDMDL
MODEL 3
REMARK VINA RESULT:     -11.8      2.250      3.050
REMARK SMILES O=C(NCCCCNC(=O)c1cn(C2C[NH+](CC[NH+]3CCCCC3)C2)nn1)c1ccc(-c2c3nc(c(-c4c(F)cc(S(=O)(=O)[O-])cc4F)c4ccc([nH]4)c(-c4c(F)cc(S(=O)(=O)[O-])cc4F)c4nc(c(-c5c(F)cc(S(=O)(=O)[O-])cc5F)c5ccc2[nH]5)C=C4)C=C3)cc1
REMARK SMILES IDX 6 1 5 2 4 3 3 4 1 5 2 6 28 8 29 9 93 10 30 11 92 12 31 13
REMARK SMILES IDX 32 14 33 15 86 16 34 17 91 18 85 19 87 20 35 21 90 22 84 23
REMARK SMILES IDX 83 24 36 26 70 27 49 28 69 29 50 30 53 31 68 32 88 33 51 34
REMARK SMILES IDX 52 35 67 37 89 38 54 39 37 40 38 41 47 42 39 43 40 44 46 45
REMARK SMILES IDX 48 46 41 47 42 48 43 49 44 50 45 51 71 52 72 53 81 54 73 55
REMARK SMILES IDX 74 56 80 57 82 58 75 59 76 60 77 61 78 62 79 63 55 64 56 65
REMARK SMILES IDX 65 66 57 67 58 68 64 69 66 70 59 71 60 72 61 73 62 74 63 75
REMARK SMILES IDX 7 76 8 77 9 78 10 80 11 81 12 82 27 83 13 84 26 85 14 86
REMARK SMILES IDX 15 87 25 88 16 89 17 91 18 92 19 93 20 94 24 95 21 97 23 98
REMARK SMILES IDX 22 99
REMARK H PARENT 3 7 87 25 53 36 8 79 16 90 19 96
REMARK Flexibility Score: inf
ROOT
ATOM      1  C   UNL A   1      35.331  21.648  26.124  1.00  0.00     0.023 C 
ENDROOT
BRANCH   1   2
ATOM      2  C   UNL A   1      36.291  22.846  26.038  1.00  0.00     0.023 C 
BRANCH   2   3
ATOM      3  C   UNL A   1      37.365  22.756  24.956  1.00  0.00     0.116 C 
BRANCH   3   4
ATOM      4  N   UNL A   1      38.563  22.058  25.369  1.00  0.00    -0.352 N 
ATOM      5  O   UNL A   1      40.354  21.375  26.449  1.00  0.00    -0.269 OA
ATOM      6  C   UNL A   1      39.561  22.306  26.274  1.00  0.00     0.251 C 
ATOM      7  H   UNL A   1      38.690  21.207  24.890  1.00  0.00     0.163 HD
BRANCH   6   8
ATOM      8  C   UNL A   1      39.780  23.587  27.006  1.00  0.00     0.039 A 
ATOM      9  C   UNL A   1      38.927  24.691  27.004  1.00  0.00     0.014 A 
ATOM     10  C   UNL A   1      40.983  23.679  27.734  1.00  0.00     0.014 A 
ATOM     11  C   UNL A   1      39.289  25.871  27.657  1.00  0.00     0.010 A 
ATOM     12  C   UNL A   1      41.345  24.850  28.397  1.00  0.00     0.010 A 
ATOM     13  C   UNL A   1      40.508  25.961  28.331  1.00  0.00    -0.014 A 
BRANCH  13  14
ATOM     14  C   UNL A   1      40.823  27.207  29.031  1.00  0.00     0.031 A 
ATOM     15  C   UNL A   1      41.934  28.024  28.452  1.00  0.00     0.074 A 
ATOM     16  C   UNL A   1      40.073  27.702  30.038  1.00  0.00     0.049 A 
ATOM     17  N   UNL A   1      43.027  28.431  29.015  1.00  0.00    -0.248 NA
ATOM     18  C   UNL A   1      41.834  28.380  27.028  1.00  0.00     0.031 C 
ATOM     19  C   UNL A   1      38.777  27.214  30.516  1.00  0.00     0.029 A 
ATOM     20  N   UNL A   1      40.270  28.832  30.777  1.00  0.00    -0.354 N 
ATOM     21  C   UNL A   1      43.669  29.245  28.080  1.00  0.00     0.074 A 
ATOM     22  C   UNL A   1      42.954  29.078  26.841  1.00  0.00     0.031 C 
ATOM     23  C   UNL A   1      38.208  28.158  31.299  1.00  0.00     0.029 A 
ATOM     24  C   UNL A   1      39.150  29.250  31.482  1.00  0.00     0.049 A 
ATOM     25  H   UNL A   1      41.130  29.309  30.806  1.00  0.00     0.167 HD
ATOM     26  C   UNL A   1      44.641  30.137  28.423  1.00  0.00     0.037 A 
ATOM     27  C   UNL A   1      38.980  30.443  32.106  1.00  0.00     0.037 A 
ATOM     28  C   UNL A   1      45.209  29.839  29.709  1.00  0.00     0.049 A 
ATOM     29  C   UNL A   1      40.326  31.024  32.343  1.00  0.00     0.074 A 
ATOM     30  C   UNL A   1      45.889  28.765  30.249  1.00  0.00     0.029 A 
ATOM     31  N   UNL A   1      44.848  30.620  30.779  1.00  0.00    -0.354 N 
ATOM     32  N   UNL A   1      41.212  30.525  33.159  1.00  0.00    -0.248 NA
ATOM     33  C   UNL A   1      40.844  31.964  31.361  1.00  0.00     0.031 C 
ATOM     34  C   UNL A   1      45.468  28.706  31.609  1.00  0.00     0.029 A 
ATOM     35  C   UNL A   1      44.586  29.766  31.819  1.00  0.00     0.049 A 
ATOM     36  H   UNL A   1      44.789  31.603  30.796  1.00  0.00     0.167 HD
ATOM     37  C   UNL A   1      42.435  30.762  32.549  1.00  0.00     0.074 A 
ATOM     38  C   UNL A   1      42.152  31.738  31.501  1.00  0.00     0.031 C 
ATOM     39  C   UNL A   1      43.511  29.952  32.769  1.00  0.00     0.037 A 
BRANCH  26  40
ATOM     40  C   UNL A   1      44.873  31.467  27.737  1.00  0.00     0.058 A 
ATOM     41  C   UNL A   1      46.074  31.690  27.028  1.00  0.00     0.135 A 
ATOM     42  C   UNL A   1      44.100  32.621  27.995  1.00  0.00     0.135 A 
ATOM     43  F   UNL A   1      46.889  30.668  26.724  1.00  0.00    -0.206 F 
ATOM     44  C   UNL A   1      46.516  32.969  26.686  1.00  0.00     0.059 A 
ATOM     45  C   UNL A   1      44.496  33.900  27.615  1.00  0.00     0.059 A 
ATOM     46  F   UNL A   1      42.973  32.576  28.716  1.00  0.00    -0.206 F 
ATOM     47  C   UNL A   1      45.730  34.070  27.008  1.00  0.00     0.060 A 
BRANCH  47  48
ATOM     48  S   UNL A   1      46.365  35.730  26.710  1.00  0.00     0.124 S 
ATOM     49  O   UNL A   1      47.025  35.559  25.421  1.00  0.00    -0.237 OA
ATOM     50  O   UNL A   1      45.142  36.527  26.701  1.00  0.00    -0.237 OA
ATOM     51  O   UNL A   1      47.248  35.961  27.849  1.00  0.00    -0.744 OA
ENDBRANCH  47  48
ENDBRANCH  26  40
BRANCH  27  52
ATOM     52  C   UNL A   1      37.733  31.249  32.189  1.00  0.00     0.058 A 
ATOM     53  C   UNL A   1      37.233  31.704  33.422  1.00  0.00     0.135 A 
ATOM     54  C   UNL A   1      37.153  31.818  31.037  1.00  0.00     0.135 A 
ATOM     55  F   UNL A   1      37.747  31.240  34.571  1.00  0.00    -0.206 F 
ATOM     56  C   UNL A   1      36.244  32.691  33.507  1.00  0.00     0.059 A 
ATOM     57  C   UNL A   1      36.158  32.791  31.096  1.00  0.00     0.059 A 
ATOM     58  F   UNL A   1      37.604  31.512  29.811  1.00  0.00    -0.206 F 
ATOM     59  C   UNL A   1      35.722  33.240  32.335  1.00  0.00     0.060 A 
BRANCH  59  60
ATOM     60  S   UNL A   1      34.564  34.625  32.436  1.00  0.00     0.124 S 
ATOM     61  O   UNL A   1      33.417  34.010  33.095  1.00  0.00    -0.237 OA
ATOM     62  O   UNL A   1      35.311  35.595  33.229  1.00  0.00    -0.237 OA
ATOM     63  O   UNL A   1      34.357  34.995  31.038  1.00  0.00    -0.744 OA
ENDBRANCH  59  60
ENDBRANCH  27  52
BRANCH  39  64
ATOM     64  C   UNL A   1      43.462  28.981  33.917  1.00  0.00     0.058 A 
ATOM     65  C   UNL A   1      43.789  29.315  35.243  1.00  0.00     0.135 A 
ATOM     66  C   UNL A   1      42.875  27.725  33.698  1.00  0.00     0.135 A 
ATOM     67  F   UNL A   1      44.260  30.531  35.551  1.00  0.00    -0.206 F 
ATOM     68  C   UNL A   1      43.564  28.431  36.298  1.00  0.00     0.059 A 
ATOM     69  C   UNL A   1      42.612  26.839  34.740  1.00  0.00     0.059 A 
ATOM     70  F   UNL A   1      42.483  27.371  32.463  1.00  0.00    -0.206 F 
ATOM     71  C   UNL A   1      42.965  27.198  36.040  1.00  0.00     0.060 A 
BRANCH  71  72
ATOM     72  S   UNL A   1      42.554  26.115  37.425  1.00  0.00     0.124 S 
ATOM     73  O   UNL A   1      43.472  26.577  38.460  1.00  0.00    -0.237 OA
ATOM     74  O   UNL A   1      41.142  26.411  37.653  1.00  0.00    -0.237 OA
ATOM     75  O   UNL A   1      42.822  24.777  36.904  1.00  0.00    -0.744 OA
ENDBRANCH  71  72
ENDBRANCH  39  64
ENDBRANCH  13  14
ENDBRANCH   6   8
ENDBRANCH   3   4
ENDBRANCH   2   3
ENDBRANCH   1   2
BRANCH   1  76
ATOM     76  C   UNL A   1      35.401  20.629  24.981  1.00  0.00     0.116 C 
BRANCH  76  77
ATOM     77  N   UNL A   1      34.279  19.709  24.983  1.00  0.00    -0.351 N 
ATOM     78  C   UNL A   1      32.920  19.936  24.954  1.00  0.00     0.273 C 
ATOM     79  H   UNL A   1      34.531  18.757  25.009  1.00  0.00     0.163 HD
ATOM     80  O   UNL A   1      32.180  18.971  25.128  1.00  0.00    -0.267 OA
BRANCH  78  81
ATOM     81  C   UNL A   1      32.391  21.273  24.718  1.00  0.00     0.170 A 
ATOM     82  C   UNL A   1      32.488  22.080  23.600  1.00  0.00     0.145 A 
ATOM     83  N   UNL A   1      31.620  21.924  25.652  1.00  0.00    -0.125 NA
ATOM     84  N   UNL A   1      31.894  23.260  23.972  1.00  0.00    -0.237 N 
ATOM     85  N   UNL A   1      31.324  23.130  25.187  1.00  0.00    -0.066 NA
BRANCH  84  86
ATOM     86  C   UNL A   1      32.331  24.553  23.548  1.00  0.00     0.218 C 
ATOM     87  C   UNL A   1      32.775  24.693  22.074  1.00  0.00     0.296 C 
ATOM     88  C   UNL A   1      31.316  25.639  23.177  1.00  0.00     0.296 C 
ATOM     89  N   UNL A   1      32.274  26.081  22.106  1.00  0.00    -0.326 N 
ATOM     90  H   UNL A   1      31.922  26.577  21.287  1.00  0.00     0.348 HD
BRANCH  89  91
ATOM     91  C   UNL A   1      33.328  27.057  22.505  1.00  0.00     0.324 C 
BRANCH  91  92
ATOM     92  C   UNL A   1      33.121  28.558  22.930  1.00  0.00     0.324 C 
BRANCH  92  93
ATOM     93  N   UNL A   1      33.040  29.012  24.341  1.00  0.00    -0.330 N 
ATOM     94  C   UNL A   1      31.752  29.510  24.811  1.00  0.00     0.262 C 
ATOM     95  C   UNL A   1      33.604  28.044  25.294  1.00  0.00     0.262 C 
ATOM     96  H   UNL A   1      33.633  29.841  24.315  1.00  0.00     0.348 HD
ATOM     97  C   UNL A   1      31.805  30.138  26.200  1.00  0.00     0.062 C 
ATOM     98  C   UNL A   1      33.683  28.614  26.720  1.00  0.00     0.062 C 
ATOM     99  C   UNL A   1      32.338  29.139  27.204  1.00  0.00     0.012 C 
ENDBRANCH  92  93
ENDBRANCH  91  92
ENDBRANCH  89  91
ENDBRANCH  84  86
ENDBRANCH  78  81
ENDBRANCH  76  77
ENDBRANCH   1  76
TORSDOF 18
ENDMDL
