MODEL 1
REMARK VINA RESULT:     -11.0      0.000      0.000
REMARK SMILES C[C@](C(=O)NCCCCNC(=O)c1ccc(-c2c3nc(c(-c4c(F)cc(S(=O)(=O)[O-])cc4F)c4ccc([nH]4)c(-c4c(F)cc(S(=O)(=O)[O-])cc4F)c4nc(c(-c5c(F)cc(S(=O)(=O)[O-])cc5F)c5ccc2[nH]5)C=C4)C=C3)cc1)(c1cc(F)cc(F)c1)[NH+]1CCCC1
REMARK SMILES IDX 8 1 7 2 6 3 5 4 3 5 4 6 2 8 1 9 79 10 80 11 86 12 81 13
REMARK SMILES IDX 84 14 82 15 83 16 85 17 87 18 88 19 91 20 89 22 90 23 9 24
REMARK SMILES IDX 10 25 11 26 12 28 13 29 14 30 78 31 15 32 77 33 16 34 17 35
REMARK SMILES IDX 18 36 71 37 19 38 76 39 70 40 72 41 20 42 75 43 69 44 68 45
REMARK SMILES IDX 21 47 55 48 34 49 54 50 35 51 38 52 53 53 73 54 36 55 37 56
REMARK SMILES IDX 52 58 74 59 39 60 22 61 23 62 32 63 24 64 25 65 31 66 33 67
REMARK SMILES IDX 26 68 27 69 28 70 29 71 30 72 56 73 57 74 66 75 58 76 59 77
REMARK SMILES IDX 65 78 67 79 60 80 61 81 62 82 63 83 64 84 40 85 41 86 50 87
REMARK SMILES IDX 42 88 43 89 49 90 51 91 44 92 45 93 46 94 47 95 48 96
REMARK H PARENT 5 7 87 21 10 27 72 46 38 57
REMARK Flexibility Score: inf
ROOT
ATOM      1  C   UNL A   1      33.332  28.399  25.522  1.00  0.00     0.023 C 
ENDROOT
BRANCH   1   2
ATOM      2  C   UNL A   1      33.670  27.061  24.862  1.00  0.00     0.023 C 
BRANCH   2   3
ATOM      3  C   UNL A   1      32.465  26.162  24.600  1.00  0.00     0.116 C 
BRANCH   3   4
ATOM      4  N   UNL A   1      32.110  25.386  25.768  1.00  0.00    -0.350 N 
ATOM      5  C   UNL A   1      32.255  24.065  26.071  1.00  0.00     0.286 C 
ATOM      6  O   UNL A   1      31.937  23.785  27.236  1.00  0.00    -0.267 OA
ATOM      7  H   UNL A   1      31.682  25.913  26.481  1.00  0.00     0.163 HD
BRANCH   5   8
ATOM      8  C   UNL A   1      32.842  22.962  25.044  1.00  0.00     0.200 C 
ATOM      9  C   UNL A   1      32.116  23.076  23.680  1.00  0.00     0.096 C 
BRANCH   8  10
ATOM     10  C   UNL A   1      34.363  23.204  24.801  1.00  0.00     0.028 A 
ATOM     11  C   UNL A   1      35.005  22.899  23.586  1.00  0.00     0.050 A 
ATOM     12  C   UNL A   1      35.190  23.672  25.847  1.00  0.00     0.050 A 
ATOM     13  C   UNL A   1      36.390  23.028  23.451  1.00  0.00     0.126 A 
ATOM     14  C   UNL A   1      36.561  23.848  25.671  1.00  0.00     0.126 A 
ATOM     15  F   UNL A   1      36.974  22.654  22.303  1.00  0.00    -0.207 F 
ATOM     16  C   UNL A   1      37.178  23.512  24.481  1.00  0.00     0.078 A 
ATOM     17  F   UNL A   1      37.293  24.340  26.681  1.00  0.00    -0.207 F 
ENDBRANCH   8  10
BRANCH   8  18
ATOM     18  N   UNL A   1      32.545  21.652  25.728  1.00  0.00    -0.319 N 
ATOM     19  C   UNL A   1      33.580  20.838  26.347  1.00  0.00     0.263 C 
ATOM     20  C   UNL A   1      31.783  20.691  24.908  1.00  0.00     0.263 C 
ATOM     21  H   UNL A   1      32.032  22.097  26.489  1.00  0.00     0.349 HD
ATOM     22  C   UNL A   1      34.044  19.882  25.266  1.00  0.00     0.067 C 
ATOM     23  C   UNL A   1      32.804  19.669  24.405  1.00  0.00     0.067 C 
ENDBRANCH   8  18
ENDBRANCH   5   8
ENDBRANCH   3   4
ENDBRANCH   2   3
ENDBRANCH   1   2
BRANCH   1  24
ATOM     24  C   UNL A   1      33.746  28.514  26.983  1.00  0.00     0.116 C 
BRANCH  24  25
ATOM     25  N   UNL A   1      33.599  29.866  27.498  1.00  0.00    -0.352 N 
ATOM     26  C   UNL A   1      34.485  30.619  28.227  1.00  0.00     0.251 C 
ATOM     27  H   UNL A   1      32.741  30.305  27.295  1.00  0.00     0.163 HD
ATOM     28  O   UNL A   1      34.117  31.679  28.727  1.00  0.00    -0.269 OA
BRANCH  26  29
ATOM     29  C   UNL A   1      35.867  30.135  28.428  1.00  0.00     0.039 A 
ATOM     30  C   UNL A   1      36.755  30.162  27.351  1.00  0.00     0.014 A 
ATOM     31  C   UNL A   1      36.288  29.668  29.676  1.00  0.00     0.014 A 
ATOM     32  C   UNL A   1      38.082  29.776  27.544  1.00  0.00     0.010 A 
ATOM     33  C   UNL A   1      37.630  29.370  29.888  1.00  0.00     0.010 A 
ATOM     34  C   UNL A   1      38.540  29.412  28.822  1.00  0.00    -0.014 A 
BRANCH  34  35
ATOM     35  C   UNL A   1      39.966  29.064  29.052  1.00  0.00     0.031 A 
ATOM     36  C   UNL A   1      40.912  30.088  29.622  1.00  0.00     0.074 A 
ATOM     37  C   UNL A   1      40.415  27.840  28.711  1.00  0.00     0.049 A 
ATOM     38  N   UNL A   1      42.192  29.979  29.869  1.00  0.00    -0.248 NA
ATOM     39  C   UNL A   1      40.354  31.414  29.931  1.00  0.00     0.031 C 
ATOM     40  C   UNL A   1      39.607  26.784  28.094  1.00  0.00     0.029 A 
ATOM     41  N   UNL A   1      41.659  27.275  28.830  1.00  0.00    -0.354 N 
ATOM     42  C   UNL A   1      42.589  31.216  30.365  1.00  0.00     0.074 A 
ATOM     43  C   UNL A   1      41.432  32.083  30.312  1.00  0.00     0.031 C 
ATOM     44  C   UNL A   1      40.369  25.693  27.915  1.00  0.00     0.029 A 
ATOM     45  C   UNL A   1      41.725  25.981  28.370  1.00  0.00     0.049 A 
ATOM     46  H   UNL A   1      42.432  27.752  29.210  1.00  0.00     0.167 HD
ATOM     47  C   UNL A   1      43.797  31.587  30.853  1.00  0.00     0.037 A 
ATOM     48  C   UNL A   1      42.764  25.124  28.316  1.00  0.00     0.037 A 
ATOM     49  C   UNL A   1      44.941  30.716  30.913  1.00  0.00     0.049 A 
ATOM     50  C   UNL A   1      44.099  25.564  28.854  1.00  0.00     0.074 A 
ATOM     51  C   UNL A   1      46.202  30.984  31.416  1.00  0.00     0.029 A 
ATOM     52  N   UNL A   1      44.964  29.405  30.456  1.00  0.00    -0.354 N 
ATOM     53  N   UNL A   1      44.439  26.718  29.377  1.00  0.00    -0.248 NA
ATOM     54  C   UNL A   1      45.190  24.581  28.808  1.00  0.00     0.031 C 
ATOM     55  C   UNL A   1      46.999  29.850  31.224  1.00  0.00     0.029 A 
ATOM     56  C   UNL A   1      46.220  28.857  30.653  1.00  0.00     0.049 A 
ATOM     57  H   UNL A   1      44.200  28.935  30.051  1.00  0.00     0.167 HD
ATOM     58  C   UNL A   1      45.774  26.591  29.747  1.00  0.00     0.074 A 
ATOM     59  C   UNL A   1      46.171  25.240  29.407  1.00  0.00     0.031 C 
ATOM     60  C   UNL A   1      46.596  27.506  30.316  1.00  0.00     0.037 A 
BRANCH  47  61
ATOM     61  C   UNL A   1      43.934  32.990  31.381  1.00  0.00     0.058 A 
ATOM     62  C   UNL A   1      44.249  34.064  30.531  1.00  0.00     0.135 A 
ATOM     63  C   UNL A   1      43.712  33.276  32.737  1.00  0.00     0.135 A 
ATOM     64  F   UNL A   1      44.490  33.848  29.228  1.00  0.00    -0.206 F 
ATOM     65  C   UNL A   1      44.366  35.364  31.011  1.00  0.00     0.059 A 
ATOM     66  C   UNL A   1      43.792  34.574  33.235  1.00  0.00     0.059 A 
ATOM     67  F   UNL A   1      43.409  32.289  33.596  1.00  0.00    -0.206 F 
ATOM     68  C   UNL A   1      44.133  35.609  32.365  1.00  0.00     0.060 A 
BRANCH  68  69
ATOM     69  S   UNL A   1      44.274  37.306  32.966  1.00  0.00     0.124 S 
ATOM     70  O   UNL A   1      43.210  37.350  33.964  1.00  0.00    -0.237 OA
ATOM     71  O   UNL A   1      45.636  37.338  33.489  1.00  0.00    -0.237 OA
ATOM     72  O   UNL A   1      44.045  38.110  31.771  1.00  0.00    -0.744 OA
ENDBRANCH  68  69
ENDBRANCH  47  61
BRANCH  48  73
ATOM     73  C   UNL A   1      42.582  23.761  27.745  1.00  0.00     0.058 A 
ATOM     74  C   UNL A   1      42.396  22.644  28.575  1.00  0.00     0.135 A 
ATOM     75  C   UNL A   1      42.602  23.545  26.359  1.00  0.00     0.135 A 
ATOM     76  F   UNL A   1      42.371  22.796  29.908  1.00  0.00    -0.206 F 
ATOM     77  C   UNL A   1      42.271  21.360  28.053  1.00  0.00     0.059 A 
ATOM     78  C   UNL A   1      42.448  22.276  25.812  1.00  0.00     0.059 A 
ATOM     79  F   UNL A   1      42.755  24.581  25.519  1.00  0.00    -0.206 F 
ATOM     80  C   UNL A   1      42.300  21.186  26.669  1.00  0.00     0.060 A 
BRANCH  80  81
ATOM     81  S   UNL A   1      42.116  19.518  26.001  1.00  0.00     0.124 S 
ATOM     82  O   UNL A   1      42.920  19.599  24.787  1.00  0.00    -0.237 OA
ATOM     83  O   UNL A   1      42.660  18.695  27.076  1.00  0.00    -0.237 OA
ATOM     84  O   UNL A   1      40.676  19.397  25.797  1.00  0.00    -0.744 OA
ENDBRANCH  80  81
ENDBRANCH  48  73
BRANCH  60  85
ATOM     85  C   UNL A   1      47.998  27.065  30.643  1.00  0.00     0.058 A 
ATOM     86  C   UNL A   1      49.094  27.427  29.844  1.00  0.00     0.135 A 
ATOM     87  C   UNL A   1      48.249  26.295  31.790  1.00  0.00     0.135 A 
ATOM     88  F   UNL A   1      48.909  28.159  28.733  1.00  0.00    -0.206 F 
ATOM     89  C   UNL A   1      50.385  27.011  30.151  1.00  0.00     0.059 A 
ATOM     90  C   UNL A   1      49.537  25.896  32.135  1.00  0.00     0.059 A 
ATOM     91  F   UNL A   1      47.239  25.933  32.597  1.00  0.00    -0.206 F 
ATOM     92  C   UNL A   1      50.596  26.245  31.299  1.00  0.00     0.060 A 
BRANCH  92  93
ATOM     93  S   UNL A   1      52.279  25.724  31.694  1.00  0.00     0.124 S 
ATOM     94  O   UNL A   1      52.910  25.748  30.379  1.00  0.00    -0.237 OA
ATOM     95  O   UNL A   1      52.716  26.759  32.626  1.00  0.00    -0.237 OA
ATOM     96  O   UNL A   1      52.096  24.399  32.279  1.00  0.00    -0.744 OA
ENDBRANCH  92  93
ENDBRANCH  60  85
ENDBRANCH  34  35
ENDBRANCH  26  29
ENDBRANCH  24  25
ENDBRANCH   1  24
TORSDOF 16
ENDMDL
MODEL 2
REMARK VINA RESULT:     -10.9      3.299      4.488
REMARK SMILES C[C@](C(=O)NCCCCNC(=O)c1ccc(-c2c3nc(c(-c4c(F)cc(S(=O)(=O)[O-])cc4F)c4ccc([nH]4)c(-c4c(F)cc(S(=O)(=O)[O-])cc4F)c4nc(c(-c5c(F)cc(S(=O)(=O)[O-])cc5F)c5ccc2[nH]5)C=C4)C=C3)cc1)(c1cc(F)cc(F)c1)[NH+]1CCCC1
REMARK SMILES IDX 8 1 7 2 6 3 5 4 3 5 4 6 2 8 1 9 79 10 80 11 86 12 81 13
REMARK SMILES IDX 84 14 82 15 83 16 85 17 87 18 88 19 91 20 89 22 90 23 9 24
REMARK SMILES IDX 10 25 11 26 12 28 13 29 14 30 78 31 15 32 77 33 16 34 17 35
REMARK SMILES IDX 18 36 71 37 19 38 76 39 70 40 72 41 20 42 75 43 69 44 68 45
REMARK SMILES IDX 21 47 55 48 34 49 54 50 35 51 38 52 53 53 73 54 36 55 37 56
REMARK SMILES IDX 52 58 74 59 39 60 22 61 23 62 32 63 24 64 25 65 31 66 33 67
REMARK SMILES IDX 26 68 27 69 28 70 29 71 30 72 56 73 57 74 66 75 58 76 59 77
REMARK SMILES IDX 65 78 67 79 60 80 61 81 62 82 63 83 64 84 40 85 41 86 50 87
REMARK SMILES IDX 42 88 43 89 49 90 51 91 44 92 45 93 46 94 47 95 48 96
REMARK H PARENT 5 7 87 21 10 27 72 46 38 57
REMARK Flexibility Score: inf
ROOT
ATOM      1  C   UNL A   1      34.612  29.997  27.495  1.00  0.00     0.023 C 
ENDROOT
BRANCH   1   2
ATOM      2  C   UNL A   1      33.218  30.572  27.244  1.00  0.00     0.023 C 
BRANCH   2   3
ATOM      3  C   UNL A   1      32.506  29.997  26.022  1.00  0.00     0.116 C 
BRANCH   3   4
ATOM      4  N   UNL A   1      33.437  29.648  24.972  1.00  0.00    -0.350 N 
ATOM      5  C   UNL A   1      33.534  28.562  24.155  1.00  0.00     0.286 C 
ATOM      6  O   UNL A   1      34.406  28.675  23.281  1.00  0.00    -0.267 OA
ATOM      7  H   UNL A   1      34.135  30.326  24.819  1.00  0.00     0.163 HD
BRANCH   5   8
ATOM      8  C   UNL A   1      32.574  27.266  24.258  1.00  0.00     0.200 C 
ATOM      9  C   UNL A   1      32.533  26.758  25.722  1.00  0.00     0.096 C 
BRANCH   8  10
ATOM     10  C   UNL A   1      31.120  27.633  23.836  1.00  0.00     0.028 A 
ATOM     11  C   UNL A   1      29.987  26.922  24.277  1.00  0.00     0.050 A 
ATOM     12  C   UNL A   1      30.885  28.669  22.904  1.00  0.00     0.050 A 
ATOM     13  C   UNL A   1      28.713  27.218  23.784  1.00  0.00     0.126 A 
ATOM     14  C   UNL A   1      29.599  28.985  22.470  1.00  0.00     0.126 A 
ATOM     15  F   UNL A   1      27.672  26.468  24.170  1.00  0.00    -0.207 F 
ATOM     16  C   UNL A   1      28.504  28.254  22.890  1.00  0.00     0.078 A 
ATOM     17  F   UNL A   1      29.426  30.008  21.622  1.00  0.00    -0.207 F 
ENDBRANCH   8  10
BRANCH   8  18
ATOM     18  N   UNL A   1      33.231  26.267  23.340  1.00  0.00    -0.319 N 
ATOM     19  C   UNL A   1      32.511  25.594  22.269  1.00  0.00     0.263 C 
ATOM     20  C   UNL A   1      33.941  25.173  24.029  1.00  0.00     0.263 C 
ATOM     21  H   UNL A   1      33.819  26.972  22.895  1.00  0.00     0.349 HD
ATOM     22  C   UNL A   1      31.985  24.310  22.880  1.00  0.00     0.067 C 
ATOM     23  C   UNL A   1      33.020  23.955  23.941  1.00  0.00     0.067 C 
ENDBRANCH   8  18
ENDBRANCH   5   8
ENDBRANCH   3   4
ENDBRANCH   2   3
ENDBRANCH   1   2
BRANCH   1  24
ATOM     24  C   UNL A   1      35.590  30.957  28.159  1.00  0.00     0.116 C 
BRANCH  24  25
ATOM     25  N   UNL A   1      35.513  30.913  29.611  1.00  0.00    -0.352 N 
ATOM     26  C   UNL A   1      36.388  30.355  30.510  1.00  0.00     0.251 C 
ATOM     27  H   UNL A   1      34.722  31.345  30.006  1.00  0.00     0.163 HD
ATOM     28  O   UNL A   1      36.068  30.261  31.692  1.00  0.00    -0.269 OA
BRANCH  26  29
ATOM     29  C   UNL A   1      37.695  29.847  30.045  1.00  0.00     0.039 A 
ATOM     30  C   UNL A   1      38.024  29.968  28.694  1.00  0.00     0.014 A 
ATOM     31  C   UNL A   1      38.596  29.263  30.939  1.00  0.00     0.014 A 
ATOM     32  C   UNL A   1      39.283  29.558  28.253  1.00  0.00     0.010 A 
ATOM     33  C   UNL A   1      39.881  28.939  30.517  1.00  0.00     0.010 A 
ATOM     34  C   UNL A   1      40.236  29.074  29.167  1.00  0.00    -0.014 A 
BRANCH  34  35
ATOM     35  C   UNL A   1      41.601  28.698  28.719  1.00  0.00     0.031 A 
ATOM     36  C   UNL A   1      42.687  29.740  28.643  1.00  0.00     0.074 A 
ATOM     37  C   UNL A   1      41.852  27.428  28.344  1.00  0.00     0.049 A 
ATOM     38  N   UNL A   1      43.928  29.609  28.254  1.00  0.00    -0.248 NA
ATOM     39  C   UNL A   1      42.323  31.112  29.031  1.00  0.00     0.031 C 
ATOM     40  C   UNL A   1      40.865  26.344  28.316  1.00  0.00     0.029 A 
ATOM     41  N   UNL A   1      43.009  26.832  27.912  1.00  0.00    -0.354 N 
ATOM     42  C   UNL A   1      44.493  30.875  28.354  1.00  0.00     0.074 A 
ATOM     43  C   UNL A   1      43.439  31.776  28.768  1.00  0.00     0.031 C 
ATOM     44  C   UNL A   1      41.466  25.212  27.916  1.00  0.00     0.029 A 
ATOM     45  C   UNL A   1      42.868  25.494  27.626  1.00  0.00     0.049 A 
ATOM     46  H   UNL A   1      43.861  27.316  27.817  1.00  0.00     0.167 HD
ATOM     47  C   UNL A   1      45.779  31.249  28.156  1.00  0.00     0.037 A 
ATOM     48  C   UNL A   1      43.767  24.597  27.176  1.00  0.00     0.037 A 
ATOM     49  C   UNL A   1      46.826  30.346  27.755  1.00  0.00     0.049 A 
ATOM     50  C   UNL A   1      45.188  25.040  26.951  1.00  0.00     0.074 A 
ATOM     51  C   UNL A   1      48.168  30.618  27.555  1.00  0.00     0.029 A 
ATOM     52  N   UNL A   1      46.649  28.994  27.494  1.00  0.00    -0.354 N 
ATOM     53  N   UNL A   1      45.717  26.230  27.111  1.00  0.00    -0.248 NA
ATOM     54  C   UNL A   1      46.138  24.016  26.496  1.00  0.00     0.031 C 
ATOM     55  C   UNL A   1      48.794  29.439  27.131  1.00  0.00     0.029 A 
ATOM     56  C   UNL A   1      47.854  28.422  27.122  1.00  0.00     0.049 A 
ATOM     57  H   UNL A   1      45.793  28.514  27.563  1.00  0.00     0.167 HD
ATOM     58  C   UNL A   1      47.066  26.091  26.805  1.00  0.00     0.074 A 
ATOM     59  C   UNL A   1      47.275  24.697  26.470  1.00  0.00     0.031 C 
ATOM     60  C   UNL A   1      48.045  27.030  26.800  1.00  0.00     0.037 A 
BRANCH  47  61
ATOM     61  C   UNL A   1      46.129  32.695  28.390  1.00  0.00     0.058 A 
ATOM     62  C   UNL A   1      46.044  33.646  27.359  1.00  0.00     0.135 A 
ATOM     63  C   UNL A   1      46.516  33.147  29.662  1.00  0.00     0.135 A 
ATOM     64  F   UNL A   1      45.697  33.268  26.118  1.00  0.00    -0.206 F 
ATOM     65  C   UNL A   1      46.354  34.984  27.573  1.00  0.00     0.059 A 
ATOM     66  C   UNL A   1      46.801  34.487  29.907  1.00  0.00     0.059 A 
ATOM     67  F   UNL A   1      46.616  32.282  30.685  1.00  0.00    -0.206 F 
ATOM     68  C   UNL A   1      46.730  35.396  28.852  1.00  0.00     0.060 A 
BRANCH  68  69
ATOM     69  S   UNL A   1      47.114  37.140  29.113  1.00  0.00     0.124 S 
ATOM     70  O   UNL A   1      47.460  37.153  30.531  1.00  0.00    -0.237 OA
ATOM     71  O   UNL A   1      48.222  37.356  28.189  1.00  0.00    -0.237 OA
ATOM     72  O   UNL A   1      45.870  37.819  28.767  1.00  0.00    -0.744 OA
ENDBRANCH  68  69
ENDBRANCH  47  61
BRANCH  48  73
ATOM     73  C   UNL A   1      43.356  23.188  26.920  1.00  0.00     0.058 A 
ATOM     74  C   UNL A   1      43.105  22.301  27.978  1.00  0.00     0.135 A 
ATOM     75  C   UNL A   1      43.218  22.697  25.613  1.00  0.00     0.135 A 
ATOM     76  F   UNL A   1      43.224  22.721  29.248  1.00  0.00    -0.206 F 
ATOM     77  C   UNL A   1      42.765  20.971  27.751  1.00  0.00     0.059 A 
ATOM     78  C   UNL A   1      42.850  21.380  25.359  1.00  0.00     0.059 A 
ATOM     79  F   UNL A   1      43.426  23.508  24.564  1.00  0.00    -0.206 F 
ATOM     80  C   UNL A   1      42.643  20.519  26.436  1.00  0.00     0.060 A 
BRANCH  80  81
ATOM     81  S   UNL A   1      42.181  18.796  26.151  1.00  0.00     0.124 S 
ATOM     82  O   UNL A   1      42.407  18.212  27.467  1.00  0.00    -0.237 OA
ATOM     83  O   UNL A   1      40.788  18.917  25.734  1.00  0.00    -0.237 OA
ATOM     84  O   UNL A   1      43.106  18.372  25.104  1.00  0.00    -0.744 OA
ENDBRANCH  80  81
ENDBRANCH  48  73
BRANCH  60  85
ATOM     85  C   UNL A   1      49.438  26.573  26.459  1.00  0.00     0.058 A 
ATOM     86  C   UNL A   1      49.951  26.666  25.155  1.00  0.00     0.135 A 
ATOM     87  C   UNL A   1      50.281  26.062  27.459  1.00  0.00     0.135 A 
ATOM     88  F   UNL A   1      49.185  27.143  24.160  1.00  0.00    -0.206 F 
ATOM     89  C   UNL A   1      51.237  26.237  24.848  1.00  0.00     0.059 A 
ATOM     90  C   UNL A   1      51.583  25.658  27.181  1.00  0.00     0.059 A 
ATOM     91  F   UNL A   1      49.847  25.963  28.725  1.00  0.00    -0.206 F 
ATOM     92  C   UNL A   1      52.046  25.733  25.869  1.00  0.00     0.060 A 
BRANCH  92  93
ATOM     93  S   UNL A   1      53.719  25.193  25.459  1.00  0.00     0.124 S 
ATOM     94  O   UNL A   1      53.564  23.743  25.441  1.00  0.00    -0.237 OA
ATOM     95  O   UNL A   1      53.941  25.824  24.162  1.00  0.00    -0.237 OA
ATOM     96  O   UNL A   1      54.525  25.725  26.554  1.00  0.00    -0.744 OA
ENDBRANCH  92  93
ENDBRANCH  60  85
ENDBRANCH  34  35
ENDBRANCH  26  29
ENDBRANCH  24  25
ENDBRANCH   1  24
TORSDOF 16
ENDMDL
MODEL 3
REMARK VINA RESULT:     -10.9      4.797     10.443
REMARK SMILES C[C@](C(=O)NCCCCNC(=O)c1ccc(-c2c3nc(c(-c4c(F)cc(S(=O)(=O)[O-])cc4F)c4ccc([nH]4)c(-c4c(F)cc(S(=O)(=O)[O-])cc4F)c4nc(c(-c5c(F)cc(S(=O)(=O)[O-])cc5F)c5ccc2[nH]5)C=C4)C=C3)cc1)(c1cc(F)cc(F)c1)[NH+]1CCCC1
REMARK SMILES IDX 8 1 7 2 6 3 5 4 3 5 4 6 2 8 1 9 79 10 80 11 86 12 81 13
REMARK SMILES IDX 84 14 82 15 83 16 85 17 87 18 88 19 91 20 89 22 90 23 9 24
REMARK SMILES IDX 10 25 11 26 12 28 13 29 14 30 78 31 15 32 77 33 16 34 17 35
REMARK SMILES IDX 18 36 71 37 19 38 76 39 70 40 72 41 20 42 75 43 69 44 68 45
REMARK SMILES IDX 21 47 55 48 34 49 54 50 35 51 38 52 53 53 73 54 36 55 37 56
REMARK SMILES IDX 52 58 74 59 39 60 22 61 23 62 32 63 24 64 25 65 31 66 33 67
REMARK SMILES IDX 26 68 27 69 28 70 29 71 30 72 56 73 57 74 66 75 58 76 59 77
REMARK SMILES IDX 65 78 67 79 60 80 61 81 62 82 63 83 64 84 40 85 41 86 50 87
REMARK SMILES IDX 42 88 43 89 49 90 51 91 44 92 45 93 46 94 47 95 48 96
REMARK H PARENT 5 7 87 21 10 27 72 46 38 57
REMARK Flexibility Score: inf
ROOT
ATOM      1  C   UNL A   1      37.224  23.633  25.480  1.00  0.00     0.023 C 
ENDROOT
BRANCH   1   2
ATOM      2  C   UNL A   1      35.810  23.319  25.972  1.00  0.00     0.023 C 
BRANCH   2   3
ATOM      3  C   UNL A   1      34.746  24.317  25.523  1.00  0.00     0.116 C 
BRANCH   3   4
ATOM      4  N   UNL A   1      33.569  24.261  26.360  1.00  0.00    -0.350 N 
ATOM      5  C   UNL A   1      32.379  24.924  26.316  1.00  0.00     0.286 C 
ATOM      6  O   UNL A   1      31.552  24.516  27.144  1.00  0.00    -0.267 OA
ATOM      7  H   UNL A   1      33.641  23.621  27.105  1.00  0.00     0.163 HD
BRANCH   5   8
ATOM      8  C   UNL A   1      32.035  26.093  25.252  1.00  0.00     0.200 C 
ATOM      9  C   UNL A   1      30.505  26.151  25.014  1.00  0.00     0.096 C 
BRANCH   8  10
ATOM     10  C   UNL A   1      32.489  27.478  25.804  1.00  0.00     0.028 A 
ATOM     11  C   UNL A   1      33.668  27.660  26.552  1.00  0.00     0.050 A 
ATOM     12  C   UNL A   1      31.669  28.617  25.640  1.00  0.00     0.050 A 
ATOM     13  C   UNL A   1      33.977  28.898  27.121  1.00  0.00     0.126 A 
ATOM     14  C   UNL A   1      32.026  29.857  26.167  1.00  0.00     0.126 A 
ATOM     15  F   UNL A   1      35.068  29.012  27.891  1.00  0.00    -0.207 F 
ATOM     16  C   UNL A   1      33.171  30.007  26.926  1.00  0.00     0.078 A 
ATOM     17  F   UNL A   1      31.237  30.916  25.942  1.00  0.00    -0.207 F 
ENDBRANCH   8  10
BRANCH   8  18
ATOM     18  N   UNL A   1      32.778  25.669  24.011  1.00  0.00    -0.319 N 
ATOM     19  C   UNL A   1      33.530  26.606  23.189  1.00  0.00     0.263 C 
ATOM     20  C   UNL A   1      31.966  24.916  23.036  1.00  0.00     0.263 C 
ATOM     21  H   UNL A   1      33.466  25.127  24.534  1.00  0.00     0.349 HD
ATOM     22  C   UNL A   1      32.554  27.092  22.135  1.00  0.00     0.067 C 
ATOM     23  C   UNL A   1      31.614  25.911  21.929  1.00  0.00     0.067 C 
ENDBRANCH   8  18
ENDBRANCH   5   8
ENDBRANCH   3   4
ENDBRANCH   2   3
ENDBRANCH   1   2
BRANCH   1  24
ATOM     24  C   UNL A   1      38.149  24.230  26.532  1.00  0.00     0.116 C 
BRANCH  24  25
ATOM     25  N   UNL A   1      39.555  24.036  26.211  1.00  0.00    -0.352 N 
ATOM     26  C   UNL A   1      40.643  24.777  26.600  1.00  0.00     0.251 C 
ATOM     27  H   UNL A   1      39.754  23.265  25.634  1.00  0.00     0.163 HD
ATOM     28  O   UNL A   1      41.738  24.565  26.085  1.00  0.00    -0.269 OA
BRANCH  26  29
ATOM     29  C   UNL A   1      40.485  25.840  27.613  1.00  0.00     0.039 A 
ATOM     30  C   UNL A   1      39.531  25.677  28.619  1.00  0.00     0.014 A 
ATOM     31  C   UNL A   1      41.280  26.989  27.577  1.00  0.00     0.014 A 
ATOM     32  C   UNL A   1      39.419  26.639  29.624  1.00  0.00     0.010 A 
ATOM     33  C   UNL A   1      41.230  27.900  28.627  1.00  0.00     0.010 A 
ATOM     34  C   UNL A   1      40.292  27.740  29.657  1.00  0.00    -0.014 A 
BRANCH  34  35
ATOM     35  C   UNL A   1      40.226  28.734  30.759  1.00  0.00     0.031 A 
ATOM     36  C   UNL A   1      41.124  28.594  31.960  1.00  0.00     0.074 A 
ATOM     37  C   UNL A   1      39.331  29.740  30.694  1.00  0.00     0.049 A 
ATOM     38  N   UNL A   1      41.194  29.345  33.028  1.00  0.00    -0.248 NA
ATOM     39  C   UNL A   1      42.046  27.447  31.974  1.00  0.00     0.031 C 
ATOM     40  C   UNL A   1      38.366  29.945  29.610  1.00  0.00     0.029 A 
ATOM     41  N   UNL A   1      39.082  30.777  31.557  1.00  0.00    -0.354 N 
ATOM     42  C   UNL A   1      42.166  28.766  33.836  1.00  0.00     0.074 A 
ATOM     43  C   UNL A   1      42.605  27.558  33.170  1.00  0.00     0.031 C 
ATOM     44  C   UNL A   1      37.651  31.054  29.860  1.00  0.00     0.029 A 
ATOM     45  C   UNL A   1      38.079  31.618  31.135  1.00  0.00     0.049 A 
ATOM     46  H   UNL A   1      39.576  30.907  32.399  1.00  0.00     0.167 HD
ATOM     47  C   UNL A   1      42.674  29.215  35.008  1.00  0.00     0.037 A 
ATOM     48  C   UNL A   1      37.560  32.718  31.714  1.00  0.00     0.037 A 
ATOM     49  C   UNL A   1      42.241  30.423  35.661  1.00  0.00     0.049 A 
ATOM     50  C   UNL A   1      38.133  33.191  33.024  1.00  0.00     0.074 A 
ATOM     51  C   UNL A   1      42.711  30.983  36.836  1.00  0.00     0.029 A 
ATOM     52  N   UNL A   1      41.237  31.260  35.194  1.00  0.00    -0.354 N 
ATOM     53  N   UNL A   1      39.096  32.664  33.742  1.00  0.00    -0.248 NA
ATOM     54  C   UNL A   1      37.560  34.417  33.596  1.00  0.00     0.031 C 
ATOM     55  C   UNL A   1      41.961  32.135  37.101  1.00  0.00     0.029 A 
ATOM     56  C   UNL A   1      41.063  32.323  36.064  1.00  0.00     0.049 A 
ATOM     57  H   UNL A   1      40.723  31.117  34.366  1.00  0.00     0.167 HD
ATOM     58  C   UNL A   1      39.262  33.508  34.835  1.00  0.00     0.074 A 
ATOM     59  C   UNL A   1      38.314  34.591  34.671  1.00  0.00     0.031 C 
ATOM     60  C   UNL A   1      40.120  33.398  35.880  1.00  0.00     0.037 A 
BRANCH  47  61
ATOM     61  C   UNL A   1      43.770  28.407  35.649  1.00  0.00     0.058 A 
ATOM     62  C   UNL A   1      43.485  27.395  36.581  1.00  0.00     0.135 A 
ATOM     63  C   UNL A   1      45.115  28.613  35.303  1.00  0.00     0.135 A 
ATOM     64  F   UNL A   1      42.218  27.164  36.963  1.00  0.00    -0.206 F 
ATOM     65  C   UNL A   1      44.493  26.637  37.167  1.00  0.00     0.059 A 
ATOM     66  C   UNL A   1      46.139  27.846  35.853  1.00  0.00     0.059 A 
ATOM     67  F   UNL A   1      45.448  29.568  34.419  1.00  0.00    -0.206 F 
ATOM     68  C   UNL A   1      45.818  26.869  36.794  1.00  0.00     0.060 A 
BRANCH  68  69
ATOM     69  S   UNL A   1      47.111  25.864  37.554  1.00  0.00     0.124 S 
ATOM     70  O   UNL A   1      48.221  26.071  36.630  1.00  0.00    -0.237 OA
ATOM     71  O   UNL A   1      47.256  26.484  38.867  1.00  0.00    -0.237 OA
ATOM     72  O   UNL A   1      46.541  24.521  37.557  1.00  0.00    -0.744 OA
ENDBRANCH  68  69
ENDBRANCH  47  61
BRANCH  48  73
ATOM     73  C   UNL A   1      36.447  33.457  31.057  1.00  0.00     0.058 A 
ATOM     74  C   UNL A   1      35.155  33.462  31.605  1.00  0.00     0.135 A 
ATOM     75  C   UNL A   1      36.649  34.163  29.862  1.00  0.00     0.135 A 
ATOM     76  F   UNL A   1      34.908  32.801  32.747  1.00  0.00    -0.206 F 
ATOM     77  C   UNL A   1      34.097  34.111  30.975  1.00  0.00     0.059 A 
ATOM     78  C   UNL A   1      35.615  34.845  29.228  1.00  0.00     0.059 A 
ATOM     79  F   UNL A   1      37.870  34.209  29.305  1.00  0.00    -0.206 F 
ATOM     80  C   UNL A   1      34.338  34.798  29.784  1.00  0.00     0.060 A 
BRANCH  80  81
ATOM     81  S   UNL A   1      32.963  35.655  28.985  1.00  0.00     0.124 S 
ATOM     82  O   UNL A   1      33.660  36.702  28.248  1.00  0.00    -0.237 OA
ATOM     83  O   UNL A   1      32.367  34.593  28.180  1.00  0.00    -0.237 OA
ATOM     84  O   UNL A   1      32.151  36.107  30.111  1.00  0.00    -0.744 OA
ENDBRANCH  80  81
ENDBRANCH  48  73
BRANCH  60  85
ATOM     85  C   UNL A   1      40.100  34.498  36.907  1.00  0.00     0.058 A 
ATOM     86  C   UNL A   1      39.192  34.495  37.979  1.00  0.00     0.135 A 
ATOM     87  C   UNL A   1      41.023  35.553  36.834  1.00  0.00     0.135 A 
ATOM     88  F   UNL A   1      38.284  33.512  38.093  1.00  0.00    -0.206 F 
ATOM     89  C   UNL A   1      39.177  35.518  38.920  1.00  0.00     0.059 A 
ATOM     90  C   UNL A   1      41.048  36.569  37.784  1.00  0.00     0.059 A 
ATOM     91  F   UNL A   1      41.923  35.598  35.839  1.00  0.00    -0.206 F 
ATOM     92  C   UNL A   1      40.110  36.552  38.814  1.00  0.00     0.060 A 
BRANCH  92  93
ATOM     93  S   UNL A   1      40.089  37.865  40.052  1.00  0.00     0.124 S 
ATOM     94  O   UNL A   1      38.876  38.591  39.690  1.00  0.00    -0.237 OA
ATOM     95  O   UNL A   1      40.030  37.115  41.303  1.00  0.00    -0.237 OA
ATOM     96  O   UNL A   1      41.341  38.576  39.814  1.00  0.00    -0.744 OA
ENDBRANCH  92  93
ENDBRANCH  60  85
ENDBRANCH  34  35
ENDBRANCH  26  29
ENDBRANCH  24  25
ENDBRANCH   1  24
TORSDOF 16
ENDMDL
