MODEL 1
REMARK VINA RESULT:     -10.9      0.000      0.000
REMARK SMILES O=C(NCCCCNC(=O)[C@@]1(C(F)(F)F)CCN(C(=O)Cc2ccn[nH]2)C1)c1ccc(-c2c3nc(c(-c4c(F)cc(S(=O)(=O)[O-])cc4F)c4ccc([nH]4)c(-c4c(F)cc(S(=O)(=O)[O-])cc4F)c4nc(c(-c5c(F)cc(S(=O)(=O)[O-])cc5F)c5ccc2[nH]5)C=C4)C=C3)cc1
REMARK SMILES IDX 5 1 4 2 3 3 1 4 2 5 28 7 29 8 93 9 30 10 92 11 31 12 32 13
REMARK SMILES IDX 33 14 86 15 34 16 91 17 85 18 87 19 35 20 90 21 84 22 83 23
REMARK SMILES IDX 36 25 70 26 49 27 69 28 50 29 53 30 68 31 88 32 51 33 52 34
REMARK SMILES IDX 67 36 89 37 54 38 37 39 38 40 47 41 39 42 40 43 46 44 48 45
REMARK SMILES IDX 41 46 42 47 43 48 44 49 45 50 71 51 72 52 81 53 73 54 74 55
REMARK SMILES IDX 80 56 82 57 75 58 76 59 77 60 78 61 79 62 55 63 56 64 65 65
REMARK SMILES IDX 57 66 58 67 64 68 66 69 59 70 60 71 61 72 62 73 63 74 6 75
REMARK SMILES IDX 7 76 8 77 9 78 10 80 11 81 16 82 27 83 17 84 18 85 12 86
REMARK SMILES IDX 13 87 14 88 15 89 19 90 20 91 21 92 22 93 23 94 26 95 24 96
REMARK SMILES IDX 25 97
REMARK H PARENT 3 6 87 24 53 35 8 79 26 98
REMARK Flexibility Score: inf
ROOT
ATOM      1  C   UNL A   1      35.626  33.230  28.251  1.00  0.00     0.023 C 
ENDROOT
BRANCH   1   2
ATOM      2  C   UNL A   1      34.654  32.433  29.110  1.00  0.00     0.116 C 
BRANCH   2   3
ATOM      3  N   UNL A   1      33.972  31.382  28.371  1.00  0.00    -0.352 N 
ATOM      4  O   UNL A   1      33.822  29.494  27.152  1.00  0.00    -0.269 OA
ATOM      5  C   UNL A   1      34.503  30.223  27.854  1.00  0.00     0.251 C 
ATOM      6  H   UNL A   1      33.008  31.516  28.225  1.00  0.00     0.163 HD
BRANCH   5   7
ATOM      7  C   UNL A   1      35.918  29.894  28.137  1.00  0.00     0.039 A 
ATOM      8  C   UNL A   1      36.896  30.075  27.156  1.00  0.00     0.014 A 
ATOM      9  C   UNL A   1      36.260  29.387  29.393  1.00  0.00     0.014 A 
ATOM     10  C   UNL A   1      38.196  29.647  27.393  1.00  0.00     0.010 A 
ATOM     11  C   UNL A   1      37.583  29.023  29.654  1.00  0.00     0.010 A 
ATOM     12  C   UNL A   1      38.557  29.134  28.650  1.00  0.00    -0.014 A 
BRANCH  12  13
ATOM     13  C   UNL A   1      39.980  28.818  28.918  1.00  0.00     0.031 A 
ATOM     14  C   UNL A   1      40.573  27.492  28.534  1.00  0.00     0.074 A 
ATOM     15  C   UNL A   1      40.738  29.763  29.509  1.00  0.00     0.049 A 
ATOM     16  N   UNL A   1      41.799  27.066  28.696  1.00  0.00    -0.248 NA
ATOM     17  C   UNL A   1      39.680  26.514  27.892  1.00  0.00     0.031 C 
ATOM     18  C   UNL A   1      40.255  31.076  29.945  1.00  0.00     0.029 A 
ATOM     19  N   UNL A   1      42.069  29.776  29.834  1.00  0.00    -0.354 N 
ATOM     20  C   UNL A   1      41.825  25.770  28.197  1.00  0.00     0.074 A 
ATOM     21  C   UNL A   1      40.486  25.470  27.736  1.00  0.00     0.031 C 
ATOM     22  C   UNL A   1      41.279  31.778  30.452  1.00  0.00     0.029 A 
ATOM     23  C   UNL A   1      42.476  30.947  30.427  1.00  0.00     0.049 A 
ATOM     24  H   UNL A   1      42.674  29.019  29.662  1.00  0.00     0.167 HD
ATOM     25  C   UNL A   1      42.874  24.915  28.131  1.00  0.00     0.037 A 
ATOM     26  C   UNL A   1      43.677  31.307  30.917  1.00  0.00     0.037 A 
ATOM     27  C   UNL A   1      44.208  25.235  28.571  1.00  0.00     0.049 A 
ATOM     28  C   UNL A   1      44.817  30.338  30.828  1.00  0.00     0.074 A 
ATOM     29  C   UNL A   1      45.351  24.457  28.492  1.00  0.00     0.029 A 
ATOM     30  N   UNL A   1      44.580  26.427  29.178  1.00  0.00    -0.354 N 
ATOM     31  N   UNL A   1      44.831  29.131  30.311  1.00  0.00    -0.248 NA
ATOM     32  C   UNL A   1      46.101  30.770  31.392  1.00  0.00     0.031 C 
ATOM     33  C   UNL A   1      46.405  25.161  29.084  1.00  0.00     0.029 A 
ATOM     34  C   UNL A   1      45.928  26.394  29.499  1.00  0.00     0.049 A 
ATOM     35  H   UNL A   1      43.976  27.183  29.354  1.00  0.00     0.167 HD
ATOM     36  C   UNL A   1      46.126  28.663  30.484  1.00  0.00     0.074 A 
ATOM     37  C   UNL A   1      46.872  29.724  31.130  1.00  0.00     0.031 C 
ATOM     38  C   UNL A   1      46.649  27.459  30.147  1.00  0.00     0.037 A 
BRANCH  25  39
ATOM     39  C   UNL A   1      42.636  23.541  27.569  1.00  0.00     0.058 A 
ATOM     40  C   UNL A   1      42.726  23.281  26.194  1.00  0.00     0.135 A 
ATOM     41  C   UNL A   1      42.411  22.453  28.429  1.00  0.00     0.135 A 
ATOM     42  F   UNL A   1      42.925  24.288  25.328  1.00  0.00    -0.206 F 
ATOM     43  C   UNL A   1      42.600  21.991  25.688  1.00  0.00     0.059 A 
ATOM     44  C   UNL A   1      42.301  21.152  27.947  1.00  0.00     0.059 A 
ATOM     45  F   UNL A   1      42.315  22.647  29.753  1.00  0.00    -0.206 F 
ATOM     46  C   UNL A   1      42.393  20.931  26.574  1.00  0.00     0.060 A 
BRANCH  46  47
ATOM     47  S   UNL A   1      42.276  19.256  25.907  1.00  0.00     0.124 S 
ATOM     48  O   UNL A   1      40.844  19.150  25.641  1.00  0.00    -0.237 OA
ATOM     49  O   UNL A   1      43.136  19.329  24.729  1.00  0.00    -0.237 OA
ATOM     50  O   UNL A   1      42.776  18.421  26.994  1.00  0.00    -0.744 OA
ENDBRANCH  46  47
ENDBRANCH  25  39
BRANCH  26  51
ATOM     51  C   UNL A   1      43.846  32.637  31.554  1.00  0.00     0.058 A 
ATOM     52  C   UNL A   1      44.256  33.752  30.810  1.00  0.00     0.135 A 
ATOM     53  C   UNL A   1      43.586  32.820  32.922  1.00  0.00     0.135 A 
ATOM     54  F   UNL A   1      44.516  33.625  29.500  1.00  0.00    -0.206 F 
ATOM     55  C   UNL A   1      44.423  35.000  31.403  1.00  0.00     0.059 A 
ATOM     56  C   UNL A   1      43.720  34.062  33.531  1.00  0.00     0.059 A 
ATOM     57  F   UNL A   1      43.170  31.787  33.672  1.00  0.00    -0.206 F 
ATOM     58  C   UNL A   1      44.154  35.144  32.766  1.00  0.00     0.060 A 
BRANCH  58  59
ATOM     59  S   UNL A   1      44.334  36.772  33.524  1.00  0.00     0.124 S 
ATOM     60  O   UNL A   1      45.492  36.566  34.385  1.00  0.00    -0.237 OA
ATOM     61  O   UNL A   1      44.543  37.634  32.365  1.00  0.00    -0.237 OA
ATOM     62  O   UNL A   1      43.059  36.961  34.210  1.00  0.00    -0.744 OA
ENDBRANCH  58  59
ENDBRANCH  26  51
BRANCH  38  63
ATOM     63  C   UNL A   1      48.099  27.236  30.464  1.00  0.00     0.058 A 
ATOM     64  C   UNL A   1      48.502  26.695  31.695  1.00  0.00     0.135 A 
ATOM     65  C   UNL A   1      49.092  27.543  29.521  1.00  0.00     0.135 A 
ATOM     66  F   UNL A   1      47.589  26.396  32.632  1.00  0.00    -0.206 F 
ATOM     67  C   UNL A   1      49.844  26.488  31.990  1.00  0.00     0.059 A 
ATOM     68  C   UNL A   1      50.439  27.322  29.787  1.00  0.00     0.059 A 
ATOM     69  F   UNL A   1      48.756  28.055  28.327  1.00  0.00    -0.206 F 
ATOM     70  C   UNL A   1      50.807  26.807  31.030  1.00  0.00     0.060 A 
BRANCH  70  71
ATOM     71  S   UNL A   1      52.546  26.516  31.414  1.00  0.00     0.124 S 
ATOM     72  O   UNL A   1      53.170  26.715  30.111  1.00  0.00    -0.237 OA
ATOM     73  O   UNL A   1      52.824  27.543  32.414  1.00  0.00    -0.237 OA
ATOM     74  O   UNL A   1      52.557  25.145  31.914  1.00  0.00    -0.744 OA
ENDBRANCH  70  71
ENDBRANCH  38  63
ENDBRANCH  12  13
ENDBRANCH   5   7
ENDBRANCH   2   3
ENDBRANCH   1   2
BRANCH   1  75
ATOM     75  C   UNL A   1      37.066  33.263  28.764  1.00  0.00     0.023 C 
BRANCH  75  76
ATOM     76  C   UNL A   1      37.373  34.399  29.738  1.00  0.00     0.116 C 
BRANCH  76  77
ATOM     77  N   UNL A   1      38.291  33.970  30.778  1.00  0.00    -0.355 N 
ATOM     78  C   UNL A   1      38.131  33.738  32.107  1.00  0.00     0.237 C 
ATOM     79  H   UNL A   1      39.210  33.818  30.457  1.00  0.00     0.163 HD
ATOM     80  O   UNL A   1      39.173  33.545  32.740  1.00  0.00    -0.274 OA
BRANCH  78  81
ATOM     81  C   UNL A   1      36.776  33.681  32.789  1.00  0.00     0.163 C 
ATOM     82  C   UNL A   1      36.840  34.052  34.280  1.00  0.00     0.050 C 
ATOM     83  C   UNL A   1      35.872  34.792  32.217  1.00  0.00     0.146 C 
ATOM     84  C   UNL A   1      35.496  34.681  34.586  1.00  0.00     0.121 C 
ATOM     85  N   UNL A   1      35.090  35.293  33.341  1.00  0.00    -0.341 N 
BRANCH  81  86
ATOM     86  C   UNL A   1      36.122  32.349  32.514  1.00  0.00     0.404 C 
ATOM     87  F   UNL A   1      36.119  31.542  33.595  1.00  0.00    -0.170 F 
ATOM     88  F   UNL A   1      34.842  32.481  32.102  1.00  0.00    -0.170 F 
ATOM     89  F   UNL A   1      36.753  31.677  31.521  1.00  0.00    -0.170 F 
ENDBRANCH  81  86
BRANCH  85  90
ATOM     90  C   UNL A   1      34.036  36.164  33.156  1.00  0.00     0.228 C 
ATOM     91  O   UNL A   1      34.035  37.301  33.631  1.00  0.00    -0.274 OA
BRANCH  90  92
ATOM     92  C   UNL A   1      32.857  35.683  32.322  1.00  0.00     0.155 C 
BRANCH  92  93
ATOM     93  C   UNL A   1      33.009  36.118  30.907  1.00  0.00     0.044 A 
ATOM     94  C   UNL A   1      32.956  35.428  29.716  1.00  0.00     0.045 A 
ATOM     95  N   UNL A   1      33.269  37.422  30.572  1.00  0.00    -0.282 N 
ATOM     96  C   UNL A   1      33.205  36.398  28.729  1.00  0.00     0.135 A 
ATOM     97  N   UNL A   1      33.380  37.615  29.246  1.00  0.00    -0.184 NA
ATOM     98  H   UNL A   1      33.365  38.143  31.234  1.00  0.00     0.190 HD
ENDBRANCH  92  93
ENDBRANCH  90  92
ENDBRANCH  85  90
ENDBRANCH  78  81
ENDBRANCH  76  77
ENDBRANCH  75  76
ENDBRANCH   1  75
TORSDOF 18
ENDMDL
MODEL 2
REMARK VINA RESULT:     -10.8      0.294      8.271
REMARK SMILES O=C(NCCCCNC(=O)[C@@]1(C(F)(F)F)CCN(C(=O)Cc2ccn[nH]2)C1)c1ccc(-c2c3nc(c(-c4c(F)cc(S(=O)(=O)[O-])cc4F)c4ccc([nH]4)c(-c4c(F)cc(S(=O)(=O)[O-])cc4F)c4nc(c(-c5c(F)cc(S(=O)(=O)[O-])cc5F)c5ccc2[nH]5)C=C4)C=C3)cc1
REMARK SMILES IDX 5 1 4 2 3 3 1 4 2 5 28 7 29 8 93 9 30 10 92 11 31 12 32 13
REMARK SMILES IDX 33 14 86 15 34 16 91 17 85 18 87 19 35 20 90 21 84 22 83 23
REMARK SMILES IDX 36 25 70 26 49 27 69 28 50 29 53 30 68 31 88 32 51 33 52 34
REMARK SMILES IDX 67 36 89 37 54 38 37 39 38 40 47 41 39 42 40 43 46 44 48 45
REMARK SMILES IDX 41 46 42 47 43 48 44 49 45 50 71 51 72 52 81 53 73 54 74 55
REMARK SMILES IDX 80 56 82 57 75 58 76 59 77 60 78 61 79 62 55 63 56 64 65 65
REMARK SMILES IDX 57 66 58 67 64 68 66 69 59 70 60 71 61 72 62 73 63 74 6 75
REMARK SMILES IDX 7 76 8 77 9 78 10 80 11 81 16 82 27 83 17 84 18 85 12 86
REMARK SMILES IDX 13 87 14 88 15 89 19 90 20 91 21 92 22 93 23 94 26 95 24 96
REMARK SMILES IDX 25 97
REMARK H PARENT 3 6 87 24 53 35 8 79 26 98
REMARK Flexibility Score: inf
ROOT
ATOM      1  C   UNL A   1      35.407  33.170  28.170  1.00  0.00     0.023 C 
ENDROOT
BRANCH   1   2
ATOM      2  C   UNL A   1      34.519  32.286  29.034  1.00  0.00     0.116 C 
BRANCH   2   3
ATOM      3  N   UNL A   1      33.898  31.203  28.290  1.00  0.00    -0.352 N 
ATOM      4  O   UNL A   1      33.852  29.303  27.081  1.00  0.00    -0.269 OA
ATOM      5  C   UNL A   1      34.487  30.065  27.791  1.00  0.00     0.251 C 
ATOM      6  H   UNL A   1      32.932  31.295  28.123  1.00  0.00     0.163 HD
BRANCH   5   7
ATOM      7  C   UNL A   1      35.909  29.798  28.104  1.00  0.00     0.039 A 
ATOM      8  C   UNL A   1      36.898  30.007  27.139  1.00  0.00     0.014 A 
ATOM      9  C   UNL A   1      36.248  29.321  29.373  1.00  0.00     0.014 A 
ATOM     10  C   UNL A   1      38.209  29.636  27.406  1.00  0.00     0.010 A 
ATOM     11  C   UNL A   1      37.579  29.015  29.663  1.00  0.00     0.010 A 
ATOM     12  C   UNL A   1      38.567  29.154  28.676  1.00  0.00    -0.014 A 
BRANCH  12  13
ATOM     13  C   UNL A   1      39.997  28.900  28.974  1.00  0.00     0.031 A 
ATOM     14  C   UNL A   1      40.857  29.941  29.631  1.00  0.00     0.074 A 
ATOM     15  C   UNL A   1      40.506  27.694  28.650  1.00  0.00     0.049 A 
ATOM     16  N   UNL A   1      42.121  29.870  29.961  1.00  0.00    -0.248 NA
ATOM     17  C   UNL A   1      40.226  31.231  29.954  1.00  0.00     0.031 C 
ATOM     18  C   UNL A   1      39.763  26.619  27.986  1.00  0.00     0.029 A 
ATOM     19  N   UNL A   1      41.754  27.163  28.841  1.00  0.00    -0.354 N 
ATOM     20  C   UNL A   1      42.445  31.103  30.512  1.00  0.00     0.074 A 
ATOM     21  C   UNL A   1      41.246  31.914  30.461  1.00  0.00     0.031 C 
ATOM     22  C   UNL A   1      40.559  25.549  27.854  1.00  0.00     0.029 A 
ATOM     23  C   UNL A   1      41.881  25.878  28.371  1.00  0.00     0.049 A 
ATOM     24  H   UNL A   1      42.490  27.656  29.271  1.00  0.00     0.167 HD
ATOM     25  C   UNL A   1      43.633  31.514  31.014  1.00  0.00     0.037 A 
ATOM     26  C   UNL A   1      42.949  25.060  28.340  1.00  0.00     0.037 A 
ATOM     27  C   UNL A   1      44.812  30.688  31.081  1.00  0.00     0.049 A 
ATOM     28  C   UNL A   1      44.251  25.545  28.905  1.00  0.00     0.074 A 
ATOM     29  C   UNL A   1      46.048  30.994  31.626  1.00  0.00     0.029 A 
ATOM     30  N   UNL A   1      44.907  29.395  30.585  1.00  0.00    -0.354 N 
ATOM     31  N   UNL A   1      44.524  26.701  29.462  1.00  0.00    -0.248 NA
ATOM     32  C   UNL A   1      45.390  24.623  28.831  1.00  0.00     0.031 C 
ATOM     33  C   UNL A   1      46.900  29.903  31.425  1.00  0.00     0.029 A 
ATOM     34  C   UNL A   1      46.185  28.901  30.789  1.00  0.00     0.049 A 
ATOM     35  H   UNL A   1      44.173  28.902  30.151  1.00  0.00     0.167 HD
ATOM     36  C   UNL A   1      45.867  26.643  29.811  1.00  0.00     0.074 A 
ATOM     37  C   UNL A   1      46.343  25.330  29.424  1.00  0.00     0.031 C 
ATOM     38  C   UNL A   1      46.639  27.594  30.391  1.00  0.00     0.037 A 
BRANCH  25  39
ATOM     39  C   UNL A   1      43.739  32.922  31.530  1.00  0.00     0.058 A 
ATOM     40  C   UNL A   1      43.514  33.231  32.879  1.00  0.00     0.135 A 
ATOM     41  C   UNL A   1      44.166  33.957  30.682  1.00  0.00     0.135 A 
ATOM     42  F   UNL A   1      43.091  32.281  33.728  1.00  0.00    -0.206 F 
ATOM     43  C   UNL A   1      43.705  34.518  33.372  1.00  0.00     0.059 A 
ATOM     44  C   UNL A   1      44.383  35.248  31.157  1.00  0.00     0.059 A 
ATOM     45  F   UNL A   1      44.394  33.715  29.382  1.00  0.00    -0.206 F 
ATOM     46  C   UNL A   1      44.146  35.520  32.504  1.00  0.00     0.060 A 
BRANCH  46  47
ATOM     47  S   UNL A   1      44.433  37.175  33.167  1.00  0.00     0.124 S 
ATOM     48  O   UNL A   1      43.280  37.339  34.047  1.00  0.00    -0.237 OA
ATOM     49  O   UNL A   1      45.723  37.024  33.834  1.00  0.00    -0.237 OA
ATOM     50  O   UNL A   1      44.442  38.021  31.978  1.00  0.00    -0.744 OA
ENDBRANCH  46  47
ENDBRANCH  25  39
BRANCH  26  51
ATOM     51  C   UNL A   1      42.829  23.711  27.731  1.00  0.00     0.058 A 
ATOM     52  C   UNL A   1      42.535  22.586  28.513  1.00  0.00     0.135 A 
ATOM     53  C   UNL A   1      42.995  23.527  26.349  1.00  0.00     0.135 A 
ATOM     54  F   UNL A   1      42.369  22.714  29.838  1.00  0.00    -0.206 F 
ATOM     55  C   UNL A   1      42.428  21.318  27.949  1.00  0.00     0.059 A 
ATOM     56  C   UNL A   1      42.866  22.275  25.760  1.00  0.00     0.059 A 
ATOM     57  F   UNL A   1      43.256  24.578  25.557  1.00  0.00    -0.206 F 
ATOM     58  C   UNL A   1      42.597  21.173  26.571  1.00  0.00     0.060 A 
BRANCH  58  59
ATOM     59  S   UNL A   1      42.420  19.533  25.837  1.00  0.00     0.124 S 
ATOM     60  O   UNL A   1      43.387  19.596  24.748  1.00  0.00    -0.237 OA
ATOM     61  O   UNL A   1      42.764  18.655  26.949  1.00  0.00    -0.237 OA
ATOM     62  O   UNL A   1      41.016  19.500  25.436  1.00  0.00    -0.744 OA
ENDBRANCH  58  59
ENDBRANCH  26  51
BRANCH  38  63
ATOM     63  C   UNL A   1      48.074  27.238  30.648  1.00  0.00     0.058 A 
ATOM     64  C   UNL A   1      49.085  27.578  29.736  1.00  0.00     0.135 A 
ATOM     65  C   UNL A   1      48.445  26.573  31.827  1.00  0.00     0.135 A 
ATOM     66  F   UNL A   1      48.777  28.205  28.589  1.00  0.00    -0.206 F 
ATOM     67  C   UNL A   1      50.415  27.250  29.972  1.00  0.00     0.059 A 
ATOM     68  C   UNL A   1      49.772  26.255  32.094  1.00  0.00     0.059 A 
ATOM     69  F   UNL A   1      47.516  26.233  32.733  1.00  0.00    -0.206 F 
ATOM     70  C   UNL A   1      50.749  26.586  31.154  1.00  0.00     0.060 A 
BRANCH  70  71
ATOM     71  S   UNL A   1      52.480  26.181  31.463  1.00  0.00     0.124 S 
ATOM     72  O   UNL A   1      53.023  26.163  30.109  1.00  0.00    -0.237 OA
ATOM     73  O   UNL A   1      52.918  27.290  32.306  1.00  0.00    -0.237 OA
ATOM     74  O   UNL A   1      52.410  24.886  32.130  1.00  0.00    -0.744 OA
ENDBRANCH  70  71
ENDBRANCH  38  63
ENDBRANCH  12  13
ENDBRANCH   5   7
ENDBRANCH   2   3
ENDBRANCH   1   2
BRANCH   1  75
ATOM     75  C   UNL A   1      36.861  33.277  28.631  1.00  0.00     0.023 C 
BRANCH  75  76
ATOM     76  C   UNL A   1      37.133  34.396  29.636  1.00  0.00     0.116 C 
BRANCH  76  77
ATOM     77  N   UNL A   1      38.078  33.974  30.654  1.00  0.00    -0.355 N 
ATOM     78  C   UNL A   1      37.958  33.768  31.992  1.00  0.00     0.237 C 
ATOM     79  H   UNL A   1      38.984  33.803  30.308  1.00  0.00     0.163 HD
ATOM     80  O   UNL A   1      39.017  33.572  32.595  1.00  0.00    -0.274 OA
BRANCH  78  81
ATOM     81  C   UNL A   1      36.624  33.743  32.718  1.00  0.00     0.163 C 
ATOM     82  C   UNL A   1      36.747  34.108  34.207  1.00  0.00     0.050 C 
ATOM     83  C   UNL A   1      35.730  34.877  32.177  1.00  0.00     0.146 C 
ATOM     84  C   UNL A   1      35.429  34.770  34.557  1.00  0.00     0.121 C 
ATOM     85  N   UNL A   1      34.997  35.395  33.327  1.00  0.00    -0.341 N 
BRANCH  81  86
ATOM     86  C   UNL A   1      35.929  32.427  32.462  1.00  0.00     0.404 C 
ATOM     87  F   UNL A   1      34.642  32.587  32.090  1.00  0.00    -0.170 F 
ATOM     88  F   UNL A   1      36.543  31.702  31.501  1.00  0.00    -0.170 F 
ATOM     89  F   UNL A   1      35.928  31.640  33.564  1.00  0.00    -0.170 F 
ENDBRANCH  81  86
BRANCH  85  90
ATOM     90  C   UNL A   1      33.960  36.291  33.178  1.00  0.00     0.228 C 
ATOM     91  O   UNL A   1      33.992  37.419  33.675  1.00  0.00    -0.274 OA
BRANCH  90  92
ATOM     92  C   UNL A   1      32.756  35.852  32.356  1.00  0.00     0.155 C 
BRANCH  92  93
ATOM     93  C   UNL A   1      32.947  36.206  30.923  1.00  0.00     0.044 A 
ATOM     94  C   UNL A   1      32.901  35.454  29.770  1.00  0.00     0.045 A 
ATOM     95  N   UNL A   1      33.245  37.484  30.524  1.00  0.00    -0.282 N 
ATOM     96  C   UNL A   1      33.194  36.364  28.738  1.00  0.00     0.135 A 
ATOM     97  N   UNL A   1      33.387  37.603  29.193  1.00  0.00    -0.184 NA
ATOM     98  H   UNL A   1      33.345  38.237  31.150  1.00  0.00     0.190 HD
ENDBRANCH  92  93
ENDBRANCH  90  92
ENDBRANCH  85  90
ENDBRANCH  78  81
ENDBRANCH  76  77
ENDBRANCH  75  76
ENDBRANCH   1  75
TORSDOF 18
ENDMDL
MODEL 3
REMARK VINA RESULT:     -10.6      5.912     12.338
REMARK SMILES O=C(NCCCCNC(=O)[C@@]1(C(F)(F)F)CCN(C(=O)Cc2ccn[nH]2)C1)c1ccc(-c2c3nc(c(-c4c(F)cc(S(=O)(=O)[O-])cc4F)c4ccc([nH]4)c(-c4c(F)cc(S(=O)(=O)[O-])cc4F)c4nc(c(-c5c(F)cc(S(=O)(=O)[O-])cc5F)c5ccc2[nH]5)C=C4)C=C3)cc1
REMARK SMILES IDX 5 1 4 2 3 3 1 4 2 5 28 7 29 8 93 9 30 10 92 11 31 12 32 13
REMARK SMILES IDX 33 14 86 15 34 16 91 17 85 18 87 19 35 20 90 21 84 22 83 23
REMARK SMILES IDX 36 25 70 26 49 27 69 28 50 29 53 30 68 31 88 32 51 33 52 34
REMARK SMILES IDX 67 36 89 37 54 38 37 39 38 40 47 41 39 42 40 43 46 44 48 45
REMARK SMILES IDX 41 46 42 47 43 48 44 49 45 50 71 51 72 52 81 53 73 54 74 55
REMARK SMILES IDX 80 56 82 57 75 58 76 59 77 60 78 61 79 62 55 63 56 64 65 65
REMARK SMILES IDX 57 66 58 67 64 68 66 69 59 70 60 71 61 72 62 73 63 74 6 75
REMARK SMILES IDX 7 76 8 77 9 78 10 80 11 81 16 82 27 83 17 84 18 85 12 86
REMARK SMILES IDX 13 87 14 88 15 89 19 90 20 91 21 92 22 93 23 94 26 95 24 96
REMARK SMILES IDX 25 97
REMARK H PARENT 3 6 87 24 53 35 8 79 26 98
REMARK Flexibility Score: inf
ROOT
ATOM      1  C   UNL A   1      40.034  22.255  27.162  1.00  0.00     0.023 C 
ENDROOT
BRANCH   1   2
ATOM      2  C   UNL A   1      41.232  23.173  27.360  1.00  0.00     0.116 C 
BRANCH   2   3
ATOM      3  N   UNL A   1      41.589  23.910  26.158  1.00  0.00    -0.352 N 
ATOM      4  O   UNL A   1      41.867  25.745  24.881  1.00  0.00    -0.269 OA
ATOM      5  C   UNL A   1      41.670  25.273  25.989  1.00  0.00     0.251 C 
ATOM      6  H   UNL A   1      41.800  23.365  25.367  1.00  0.00     0.163 HD
BRANCH   5   7
ATOM      7  C   UNL A   1      41.483  26.154  27.163  1.00  0.00     0.039 A 
ATOM      8  C   UNL A   1      42.420  27.148  27.458  1.00  0.00     0.014 A 
ATOM      9  C   UNL A   1      40.365  25.969  27.981  1.00  0.00     0.014 A 
ATOM     10  C   UNL A   1      42.296  27.884  28.629  1.00  0.00     0.010 A 
ATOM     11  C   UNL A   1      40.206  26.759  29.121  1.00  0.00     0.010 A 
ATOM     12  C   UNL A   1      41.180  27.711  29.463  1.00  0.00    -0.014 A 
BRANCH  12  13
ATOM     13  C   UNL A   1      41.005  28.608  30.631  1.00  0.00     0.031 A 
ATOM     14  C   UNL A   1      41.886  28.497  31.841  1.00  0.00     0.074 A 
ATOM     15  C   UNL A   1      40.034  29.541  30.571  1.00  0.00     0.049 A 
ATOM     16  N   UNL A   1      41.862  29.209  32.939  1.00  0.00    -0.248 NA
ATOM     17  C   UNL A   1      42.924  27.453  31.828  1.00  0.00     0.031 C 
ATOM     18  C   UNL A   1      39.105  29.717  29.451  1.00  0.00     0.029 A 
ATOM     19  N   UNL A   1      39.672  30.520  31.457  1.00  0.00    -0.354 N 
ATOM     20  C   UNL A   1      42.862  28.693  33.754  1.00  0.00     0.074 A 
ATOM     21  C   UNL A   1      43.469  27.596  33.030  1.00  0.00     0.031 C 
ATOM     22  C   UNL A   1      38.302  30.761  29.704  1.00  0.00     0.029 A 
ATOM     23  C   UNL A   1      38.620  31.291  31.023  1.00  0.00     0.049 A 
ATOM     24  H   UNL A   1      40.120  30.657  32.323  1.00  0.00     0.167 HD
ATOM     25  C   UNL A   1      43.235  29.104  34.989  1.00  0.00     0.037 A 
ATOM     26  C   UNL A   1      37.968  32.301  31.628  1.00  0.00     0.037 A 
ATOM     27  C   UNL A   1      42.639  30.214  35.688  1.00  0.00     0.049 A 
ATOM     28  C   UNL A   1      38.406  32.731  32.996  1.00  0.00     0.074 A 
ATOM     29  C   UNL A   1      42.987  30.744  36.919  1.00  0.00     0.029 A 
ATOM     30  N   UNL A   1      41.568  30.963  35.222  1.00  0.00    -0.354 N 
ATOM     31  N   UNL A   1      39.384  32.258  33.732  1.00  0.00    -0.248 NA
ATOM     32  C   UNL A   1      37.652  33.824  33.621  1.00  0.00     0.031 C 
ATOM     33  C   UNL A   1      42.104  31.787  37.215  1.00  0.00     0.029 A 
ATOM     34  C   UNL A   1      41.228  31.933  36.151  1.00  0.00     0.049 A 
ATOM     35  H   UNL A   1      41.116  30.826  34.358  1.00  0.00     0.167 HD
ATOM     36  C   UNL A   1      39.366  33.000  34.905  1.00  0.00     0.074 A 
ATOM     37  C   UNL A   1      38.296  33.968  34.771  1.00  0.00     0.031 C 
ATOM     38  C   UNL A   1      40.157  32.884  36.000  1.00  0.00     0.037 A 
BRANCH  25  39
ATOM     39  C   UNL A   1      44.337  28.353  35.685  1.00  0.00     0.058 A 
ATOM     40  C   UNL A   1      44.078  27.207  36.450  1.00  0.00     0.135 A 
ATOM     41  C   UNL A   1      45.678  28.731  35.502  1.00  0.00     0.135 A 
ATOM     42  F   UNL A   1      42.814  26.812  36.667  1.00  0.00    -0.206 F 
ATOM     43  C   UNL A   1      45.109  26.461  37.014  1.00  0.00     0.059 A 
ATOM     44  C   UNL A   1      46.726  27.990  36.040  1.00  0.00     0.059 A 
ATOM     45  F   UNL A   1      45.980  29.821  34.780  1.00  0.00    -0.206 F 
ATOM     46  C   UNL A   1      46.431  26.857  36.798  1.00  0.00     0.060 A 
BRANCH  46  47
ATOM     47  S   UNL A   1      47.760  25.854  37.497  1.00  0.00     0.124 S 
ATOM     48  O   UNL A   1      47.867  26.411  38.843  1.00  0.00    -0.237 OA
ATOM     49  O   UNL A   1      47.210  24.504  37.413  1.00  0.00    -0.237 OA
ATOM     50  O   UNL A   1      48.891  26.123  36.615  1.00  0.00    -0.744 OA
ENDBRANCH  46  47
ENDBRANCH  25  39
BRANCH  26  51
ATOM     51  C   UNL A   1      36.819  32.951  30.948  1.00  0.00     0.058 A 
ATOM     52  C   UNL A   1      35.498  32.645  31.301  1.00  0.00     0.135 A 
ATOM     53  C   UNL A   1      37.026  33.905  29.938  1.00  0.00     0.135 A 
ATOM     54  F   UNL A   1      35.253  31.740  32.260  1.00  0.00    -0.206 F 
ATOM     55  C   UNL A   1      34.418  33.246  30.663  1.00  0.00     0.059 A 
ATOM     56  C   UNL A   1      35.963  34.538  29.305  1.00  0.00     0.059 A 
ATOM     57  F   UNL A   1      38.273  34.247  29.580  1.00  0.00    -0.206 F 
ATOM     58  C   UNL A   1      34.661  34.191  29.664  1.00  0.00     0.060 A 
BRANCH  58  59
ATOM     59  S   UNL A   1      33.258  34.998  28.865  1.00  0.00     0.124 S 
ATOM     60  O   UNL A   1      33.898  36.157  28.255  1.00  0.00    -0.237 OA
ATOM     61  O   UNL A   1      32.788  33.968  27.945  1.00  0.00    -0.237 OA
ATOM     62  O   UNL A   1      32.360  35.284  29.981  1.00  0.00    -0.744 OA
ENDBRANCH  58  59
ENDBRANCH  26  51
BRANCH  38  63
ATOM     63  C   UNL A   1      39.896  33.837  37.129  1.00  0.00     0.058 A 
ATOM     64  C   UNL A   1      40.420  35.139  37.121  1.00  0.00     0.135 A 
ATOM     65  C   UNL A   1      39.094  33.455  38.215  1.00  0.00     0.135 A 
ATOM     66  F   UNL A   1      41.201  35.546  36.108  1.00  0.00    -0.206 F 
ATOM     67  C   UNL A   1      40.178  36.023  38.166  1.00  0.00     0.059 A 
ATOM     68  C   UNL A   1      38.821  34.331  39.260  1.00  0.00     0.059 A 
ATOM     69  F   UNL A   1      38.564  32.223  38.265  1.00  0.00    -0.206 F 
ATOM     70  C   UNL A   1      39.379  35.609  39.233  1.00  0.00     0.060 A 
BRANCH  70  71
ATOM     71  S   UNL A   1      39.053  36.770  40.576  1.00  0.00     0.124 S 
ATOM     72  O   UNL A   1      40.365  36.862  41.207  1.00  0.00    -0.237 OA
ATOM     73  O   UNL A   1      38.609  37.963  39.861  1.00  0.00    -0.237 OA
ATOM     74  O   UNL A   1      38.023  36.098  41.361  1.00  0.00    -0.744 OA
ENDBRANCH  70  71
ENDBRANCH  38  63
ENDBRANCH  12  13
ENDBRANCH   5   7
ENDBRANCH   2   3
ENDBRANCH   1   2
BRANCH   1  75
ATOM     75  C   UNL A   1      38.813  22.912  26.520  1.00  0.00     0.023 C 
BRANCH  75  76
ATOM     76  C   UNL A   1      37.952  21.976  25.674  1.00  0.00     0.116 C 
BRANCH  76  77
ATOM     77  N   UNL A   1      37.690  22.539  24.362  1.00  0.00    -0.355 N 
ATOM     78  C   UNL A   1      36.543  22.763  23.668  1.00  0.00     0.237 C 
ATOM     79  H   UNL A   1      38.504  22.812  23.878  1.00  0.00     0.163 HD
ATOM     80  O   UNL A   1      36.693  23.105  22.492  1.00  0.00    -0.274 OA
BRANCH  78  81
ATOM     81  C   UNL A   1      35.159  22.642  24.281  1.00  0.00     0.163 C 
ATOM     82  C   UNL A   1      34.031  22.834  23.253  1.00  0.00     0.050 C 
ATOM     83  C   UNL A   1      34.933  21.188  24.743  1.00  0.00     0.146 C 
ATOM     84  C   UNL A   1      32.890  21.976  23.760  1.00  0.00     0.121 C 
ATOM     85  N   UNL A   1      33.535  20.887  24.459  1.00  0.00    -0.341 N 
BRANCH  81  86
ATOM     86  C   UNL A   1      35.054  23.544  25.487  1.00  0.00     0.404 C 
ATOM     87  F   UNL A   1      33.886  24.219  25.525  1.00  0.00    -0.170 F 
ATOM     88  F   UNL A   1      35.169  22.864  26.648  1.00  0.00    -0.170 F 
ATOM     89  F   UNL A   1      36.045  24.467  25.509  1.00  0.00    -0.170 F 
ENDBRANCH  81  86
BRANCH  85  90
ATOM     90  C   UNL A   1      32.936  19.735  24.922  1.00  0.00     0.228 C 
ATOM     91  O   UNL A   1      32.576  19.609  26.095  1.00  0.00    -0.274 OA
BRANCH  90  92
ATOM     92  C   UNL A   1      32.710  18.604  23.928  1.00  0.00     0.155 C 
BRANCH  92  93
ATOM     93  C   UNL A   1      33.416  17.372  24.373  1.00  0.00     0.044 A 
ATOM     94  C   UNL A   1      34.744  17.108  24.629  1.00  0.00     0.045 A 
ATOM     95  N   UNL A   1      32.751  16.195  24.598  1.00  0.00    -0.282 N 
ATOM     96  C   UNL A   1      34.775  15.749  24.988  1.00  0.00     0.135 A 
ATOM     97  N   UNL A   1      33.562  15.195  24.986  1.00  0.00    -0.184 NA
ATOM     98  H   UNL A   1      31.779  16.092  24.486  1.00  0.00     0.190 HD
ENDBRANCH  92  93
ENDBRANCH  90  92
ENDBRANCH  85  90
ENDBRANCH  78  81
ENDBRANCH  76  77
ENDBRANCH  75  76
ENDBRANCH   1  75
TORSDOF 18
ENDMDL
