MODEL 1
REMARK VINA RESULT:     -10.9      0.000      0.000
REMARK SMILES CC(C)CCNC(=O)[C@@H](C)Oc1ccc(N)cc1C(=O)NCCCCNC(=O)c1ccc(-c2c3nc(c(-c4c(F)cc(S(=O)(=O)[O-])cc4F)c4ccc([nH]4)c(-c4c(F)cc(S(=O)(=O)[O-])cc4F)c4nc(c(-c5c(F)cc(S(=O)(=O)[O-])cc5F)c5ccc2[nH]5)C=C4)C=C3)cc1
REMARK SMILES IDX 22 1 21 2 19 3 20 4 18 6 12 7 13 8 14 9 17 10 15 11 11 12
REMARK SMILES IDX 9 13 10 14 7 15 6 16 8 18 5 19 4 20 2 21 1 22 3 23 16 24
REMARK SMILES IDX 23 27 24 28 25 29 26 30 27 31 28 33 29 34 30 35 94 36 31 37
REMARK SMILES IDX 93 38 32 39 33 40 34 41 87 42 35 43 92 44 86 45 88 46 36 47
REMARK SMILES IDX 91 48 85 49 84 50 37 52 71 53 50 54 70 55 51 56 54 57 69 58
REMARK SMILES IDX 89 59 52 60 53 61 68 63 90 64 55 65 38 66 39 67 48 68 40 69
REMARK SMILES IDX 41 70 47 71 49 72 42 73 43 74 44 75 45 76 46 77 72 78 73 79
REMARK SMILES IDX 82 80 74 81 75 82 81 83 83 84 76 85 77 86 78 87 79 88 80 89
REMARK SMILES IDX 56 90 57 91 66 92 58 93 59 94 65 95 67 96 60 97 61 98 62 99
REMARK SMILES IDX 63 100 64 101
REMARK H PARENT 21 5 6 17 16 25 16 26 26 32 88 51 54 62
REMARK Flexibility Score: inf
ROOT
ATOM      1  C   UNL A   1      33.437  27.542  24.752  1.00  0.00     0.116 C 
ENDROOT
BRANCH   1   2
ATOM      2  N   UNL A   1      33.628  26.570  23.725  1.00  0.00    -0.352 N 
ATOM      3  C   UNL A   1      34.074  25.278  23.849  1.00  0.00     0.255 C 
ATOM      4  O   UNL A   1      34.270  24.680  22.786  1.00  0.00    -0.269 OA
ATOM      5  H   UNL A   1      33.412  26.863  22.811  1.00  0.00     0.163 HD
BRANCH   3   6
ATOM      6  C   UNL A   1      34.348  24.536  25.139  1.00  0.00     0.083 A 
ATOM      7  C   UNL A   1      33.447  24.040  26.101  1.00  0.00     0.133 A 
ATOM      8  C   UNL A   1      33.861  22.967  26.903  1.00  0.00     0.049 A 
ATOM      9  C   UNL A   1      35.205  22.590  26.977  1.00  0.00     0.029 A 
ATOM     10  C   UNL A   1      35.712  24.169  25.273  1.00  0.00     0.043 A 
ATOM     11  C   UNL A   1      36.160  23.271  26.243  1.00  0.00     0.032 A 
BRANCH   7  12
ATOM     12  O   UNL A   1      32.161  24.472  26.229  1.00  0.00    -0.480 OA
BRANCH  12  13
ATOM     13  C   UNL A   1      31.120  23.865  25.443  1.00  0.00     0.258 C 
ATOM     14  C   UNL A   1      30.478  22.639  26.120  1.00  0.00     0.064 C 
BRANCH  13  15
ATOM     15  C   UNL A   1      31.128  23.643  23.899  1.00  0.00     0.260 C 
ATOM     16  N   UNL A   1      31.705  22.541  23.331  1.00  0.00    -0.353 N 
ATOM     17  H   UNL A   1      31.404  22.324  22.420  1.00  0.00     0.163 HD
ATOM     18  O   UNL A   1      30.567  24.442  23.142  1.00  0.00    -0.271 OA
BRANCH  16  19
ATOM     19  C   UNL A   1      32.701  21.651  23.893  1.00  0.00     0.116 C 
BRANCH  19  20
ATOM     20  C   UNL A   1      32.245  20.207  24.025  1.00  0.00     0.024 C 
BRANCH  20  21
ATOM     21  C   UNL A   1      33.352  19.208  24.411  1.00  0.00    -0.016 C 
ATOM     22  C   UNL A   1      34.673  19.890  24.782  1.00  0.00     0.007 C 
ATOM     23  C   UNL A   1      32.867  18.360  25.588  1.00  0.00     0.007 C 
ENDBRANCH  20  21
ENDBRANCH  19  20
ENDBRANCH  16  19
ENDBRANCH  13  15
ENDBRANCH  12  13
ENDBRANCH   7  12
BRANCH  11  24
ATOM     24  N   UNL A   1      37.502  22.950  26.349  1.00  0.00    -0.399 N 
ATOM     25  H   UNL A   1      37.769  22.067  26.697  1.00  0.00     0.156 HD
ATOM     26  H   UNL A   1      38.188  23.600  26.077  1.00  0.00     0.156 HD
ENDBRANCH  11  24
ENDBRANCH   3   6
ENDBRANCH   1   2
BRANCH   1  27
ATOM     27  C   UNL A   1      32.004  27.817  25.176  1.00  0.00     0.023 C 
BRANCH  27  28
ATOM     28  C   UNL A   1      31.833  28.579  26.482  1.00  0.00     0.023 C 
BRANCH  28  29
ATOM     29  C   UNL A   1      33.108  28.837  27.275  1.00  0.00     0.116 C 
BRANCH  29  30
ATOM     30  N   UNL A   1      33.277  30.223  27.705  1.00  0.00    -0.352 N 
ATOM     31  C   UNL A   1      34.376  30.876  28.220  1.00  0.00     0.251 C 
ATOM     32  H   UNL A   1      32.474  30.784  27.610  1.00  0.00     0.163 HD
ATOM     33  O   UNL A   1      34.275  32.040  28.602  1.00  0.00    -0.269 OA
BRANCH  31  34
ATOM     34  C   UNL A   1      35.659  30.157  28.364  1.00  0.00     0.039 A 
ATOM     35  C   UNL A   1      36.535  30.096  27.278  1.00  0.00     0.014 A 
ATOM     36  C   UNL A   1      36.027  29.606  29.590  1.00  0.00     0.014 A 
ATOM     37  C   UNL A   1      37.830  29.608  27.465  1.00  0.00     0.010 A 
ATOM     38  C   UNL A   1      37.349  29.237  29.803  1.00  0.00     0.010 A 
ATOM     39  C   UNL A   1      38.272  29.245  28.747  1.00  0.00    -0.014 A 
BRANCH  39  40
ATOM     40  C   UNL A   1      39.692  28.893  29.024  1.00  0.00     0.031 A 
ATOM     41  C   UNL A   1      40.624  29.931  29.594  1.00  0.00     0.074 A 
ATOM     42  C   UNL A   1      40.169  27.683  28.659  1.00  0.00     0.049 A 
ATOM     43  N   UNL A   1      41.920  29.871  29.766  1.00  0.00    -0.248 NA
ATOM     44  C   UNL A   1      40.031  31.223  29.978  1.00  0.00     0.031 C 
ATOM     45  C   UNL A   1      39.390  26.614  28.025  1.00  0.00     0.029 A 
ATOM     46  N   UNL A   1      41.432  27.153  28.753  1.00  0.00    -0.354 N 
ATOM     47  C   UNL A   1      42.297  31.127  30.229  1.00  0.00     0.074 A 
ATOM     48  C   UNL A   1      41.104  31.942  30.270  1.00  0.00     0.031 C 
ATOM     49  C   UNL A   1      40.182  25.549  27.819  1.00  0.00     0.029 A 
ATOM     50  C   UNL A   1      41.534  25.870  28.262  1.00  0.00     0.049 A 
ATOM     51  H   UNL A   1      42.195  27.643  29.135  1.00  0.00     0.167 HD
ATOM     52  C   UNL A   1      43.524  31.554  30.612  1.00  0.00     0.037 A 
ATOM     53  C   UNL A   1      42.598  25.048  28.175  1.00  0.00     0.037 A 
ATOM     54  C   UNL A   1      44.690  30.715  30.650  1.00  0.00     0.049 A 
ATOM     55  C   UNL A   1      43.937  25.529  28.668  1.00  0.00     0.074 A 
ATOM     56  C   UNL A   1      45.953  31.021  31.130  1.00  0.00     0.029 A 
ATOM     57  N   UNL A   1      44.736  29.403  30.208  1.00  0.00    -0.354 N 
ATOM     58  N   UNL A   1      44.256  26.694  29.178  1.00  0.00    -0.248 NA
ATOM     59  C   UNL A   1      45.060  24.584  28.576  1.00  0.00     0.031 C 
ATOM     60  C   UNL A   1      46.770  29.901  30.950  1.00  0.00     0.029 A 
ATOM     61  C   UNL A   1      46.008  28.888  30.391  1.00  0.00     0.049 A 
ATOM     62  H   UNL A   1      43.977  28.910  29.819  1.00  0.00     0.167 HD
ATOM     63  C   UNL A   1      45.607  26.610  29.498  1.00  0.00     0.074 A 
ATOM     64  C   UNL A   1      46.042  25.278  29.133  1.00  0.00     0.031 C 
ATOM     65  C   UNL A   1      46.414  27.551  30.045  1.00  0.00     0.037 A 
BRANCH  52  66
ATOM     66  C   UNL A   1      43.667  32.985  31.048  1.00  0.00     0.058 A 
ATOM     67  C   UNL A   1      43.485  33.368  32.387  1.00  0.00     0.135 A 
ATOM     68  C   UNL A   1      44.051  33.974  30.130  1.00  0.00     0.135 A 
ATOM     69  F   UNL A   1      43.099  32.465  33.303  1.00  0.00    -0.206 F 
ATOM     70  C   UNL A   1      43.662  34.685  32.795  1.00  0.00     0.059 A 
ATOM     71  C   UNL A   1      44.260  35.293  30.522  1.00  0.00     0.059 A 
ATOM     72  F   UNL A   1      44.236  33.662  28.837  1.00  0.00    -0.206 F 
ATOM     73  C   UNL A   1      44.054  35.640  31.857  1.00  0.00     0.060 A 
BRANCH  73  74
ATOM     74  S   UNL A   1      44.319  37.337  32.412  1.00  0.00     0.124 S 
ATOM     75  O   UNL A   1      45.748  37.325  32.712  1.00  0.00    -0.237 OA
ATOM     76  O   UNL A   1      43.925  38.115  31.242  1.00  0.00    -0.237 OA
ATOM     77  O   UNL A   1      43.436  37.458  33.567  1.00  0.00    -0.744 OA
ENDBRANCH  73  74
ENDBRANCH  52  66
BRANCH  53  78
ATOM     78  C   UNL A   1      42.451  23.672  27.625  1.00  0.00     0.058 A 
ATOM     79  C   UNL A   1      42.344  22.566  28.482  1.00  0.00     0.135 A 
ATOM     80  C   UNL A   1      42.446  23.430  26.243  1.00  0.00     0.135 A 
ATOM     81  F   UNL A   1      42.347  22.747  29.811  1.00  0.00    -0.206 F 
ATOM     82  C   UNL A   1      42.273  21.266  27.992  1.00  0.00     0.059 A 
ATOM     83  C   UNL A   1      42.351  22.140  25.728  1.00  0.00     0.059 A 
ATOM     84  F   UNL A   1      42.526  24.454  25.379  1.00  0.00    -0.206 F 
ATOM     85  C   UNL A   1      42.285  21.063  26.611  1.00  0.00     0.060 A 
BRANCH  85  86
ATOM     86  S   UNL A   1      42.183  19.373  25.982  1.00  0.00     0.124 S 
ATOM     87  O   UNL A   1      40.753  19.240  25.732  1.00  0.00    -0.237 OA
ATOM     88  O   UNL A   1      43.035  19.431  24.798  1.00  0.00    -0.237 OA
ATOM     89  O   UNL A   1      42.710  18.574  27.084  1.00  0.00    -0.744 OA
ENDBRANCH  85  86
ENDBRANCH  53  78
BRANCH  65  90
ATOM     90  C   UNL A   1      47.837  27.161  30.329  1.00  0.00     0.058 A 
ATOM     91  C   UNL A   1      48.844  27.300  29.364  1.00  0.00     0.135 A 
ATOM     92  C   UNL A   1      48.202  26.699  31.604  1.00  0.00     0.135 A 
ATOM     93  F   UNL A   1      48.542  27.731  28.129  1.00  0.00    -0.206 F 
ATOM     94  C   UNL A   1      50.166  26.975  29.647  1.00  0.00     0.059 A 
ATOM     95  C   UNL A   1      49.522  26.393  31.916  1.00  0.00     0.059 A 
ATOM     96  F   UNL A   1      47.274  26.561  32.566  1.00  0.00    -0.206 F 
ATOM     97  C   UNL A   1      50.496  26.523  30.926  1.00  0.00     0.060 A 
BRANCH  97  98
ATOM     98  S   UNL A   1      52.221  26.144  31.295  1.00  0.00     0.124 S 
ATOM     99  O   UNL A   1      52.122  24.772  31.783  1.00  0.00    -0.237 OA
ATOM    100  O   UNL A   1      52.865  26.310  29.997  1.00  0.00    -0.237 OA
ATOM    101  O   UNL A   1      52.581  27.143  32.298  1.00  0.00    -0.744 OA
ENDBRANCH  97  98
ENDBRANCH  65  90
ENDBRANCH  39  40
ENDBRANCH  31  34
ENDBRANCH  29  30
ENDBRANCH  28  29
ENDBRANCH  27  28
ENDBRANCH   1  27
TORSDOF 21
ENDMDL
MODEL 2
REMARK VINA RESULT:     -10.4      4.695     10.437
REMARK SMILES CC(C)CCNC(=O)[C@@H](C)Oc1ccc(N)cc1C(=O)NCCCCNC(=O)c1ccc(-c2c3nc(c(-c4c(F)cc(S(=O)(=O)[O-])cc4F)c4ccc([nH]4)c(-c4c(F)cc(S(=O)(=O)[O-])cc4F)c4nc(c(-c5c(F)cc(S(=O)(=O)[O-])cc5F)c5ccc2[nH]5)C=C4)C=C3)cc1
REMARK SMILES IDX 22 1 21 2 19 3 20 4 18 6 12 7 13 8 14 9 17 10 15 11 11 12
REMARK SMILES IDX 9 13 10 14 7 15 6 16 8 18 5 19 4 20 2 21 1 22 3 23 16 24
REMARK SMILES IDX 23 27 24 28 25 29 26 30 27 31 28 33 29 34 30 35 94 36 31 37
REMARK SMILES IDX 93 38 32 39 33 40 34 41 87 42 35 43 92 44 86 45 88 46 36 47
REMARK SMILES IDX 91 48 85 49 84 50 37 52 71 53 50 54 70 55 51 56 54 57 69 58
REMARK SMILES IDX 89 59 52 60 53 61 68 63 90 64 55 65 38 66 39 67 48 68 40 69
REMARK SMILES IDX 41 70 47 71 49 72 42 73 43 74 44 75 45 76 46 77 72 78 73 79
REMARK SMILES IDX 82 80 74 81 75 82 81 83 83 84 76 85 77 86 78 87 79 88 80 89
REMARK SMILES IDX 56 90 57 91 66 92 58 93 59 94 65 95 67 96 60 97 61 98 62 99
REMARK SMILES IDX 63 100 64 101
REMARK H PARENT 21 5 6 17 16 25 16 26 26 32 88 51 54 62
REMARK Flexibility Score: inf
ROOT
ATOM      1  C   UNL A   1      35.618  22.157  25.129  1.00  0.00     0.116 C 
ENDROOT
BRANCH   1   2
ATOM      2  N   UNL A   1      34.515  22.444  25.988  1.00  0.00    -0.352 N 
ATOM      3  C   UNL A   1      33.175  22.304  25.727  1.00  0.00     0.255 C 
ATOM      4  O   UNL A   1      32.416  22.742  26.598  1.00  0.00    -0.269 OA
ATOM      5  H   UNL A   1      34.744  22.787  26.881  1.00  0.00     0.163 HD
BRANCH   3   6
ATOM      6  C   UNL A   1      32.554  21.681  24.496  1.00  0.00     0.083 A 
ATOM      7  C   UNL A   1      32.164  22.280  23.283  1.00  0.00     0.133 A 
ATOM      8  C   UNL A   1      32.116  21.477  22.134  1.00  0.00     0.049 A 
ATOM      9  C   UNL A   1      32.149  20.083  22.219  1.00  0.00     0.029 A 
ATOM     10  C   UNL A   1      32.531  20.263  24.559  1.00  0.00     0.043 A 
ATOM     11  C   UNL A   1      32.241  19.463  23.454  1.00  0.00     0.032 A 
BRANCH   7  12
ATOM     12  O   UNL A   1      31.931  23.615  23.138  1.00  0.00    -0.480 OA
BRANCH  12  13
ATOM     13  C   UNL A   1      32.858  24.427  22.394  1.00  0.00     0.258 C 
ATOM     14  C   UNL A   1      34.092  24.852  23.213  1.00  0.00     0.064 C 
BRANCH  13  15
ATOM     15  C   UNL A   1      32.501  25.566  21.391  1.00  0.00     0.260 C 
ATOM     16  N   UNL A   1      31.703  26.618  21.746  1.00  0.00    -0.353 N 
ATOM     17  H   UNL A   1      31.781  27.421  21.184  1.00  0.00     0.163 HD
ATOM     18  O   UNL A   1      32.972  25.574  20.249  1.00  0.00    -0.271 OA
BRANCH  16  19
ATOM     19  C   UNL A   1      30.758  26.706  22.842  1.00  0.00     0.116 C 
BRANCH  19  20
ATOM     20  C   UNL A   1      31.375  27.132  24.165  1.00  0.00     0.024 C 
BRANCH  20  21
ATOM     21  C   UNL A   1      31.354  28.649  24.433  1.00  0.00    -0.016 C 
ATOM     22  C   UNL A   1      32.721  29.312  24.238  1.00  0.00     0.007 C 
ATOM     23  C   UNL A   1      30.331  29.303  23.503  1.00  0.00     0.007 C 
ENDBRANCH  20  21
ENDBRANCH  19  20
ENDBRANCH  16  19
ENDBRANCH  13  15
ENDBRANCH  12  13
ENDBRANCH   7  12
BRANCH  11  24
ATOM     24  N   UNL A   1      32.216  18.084  23.560  1.00  0.00    -0.399 N 
ATOM     25  H   UNL A   1      32.828  17.627  24.183  1.00  0.00     0.156 HD
ATOM     26  H   UNL A   1      31.586  17.559  23.016  1.00  0.00     0.156 HD
ENDBRANCH  11  24
ENDBRANCH   3   6
ENDBRANCH   1   2
BRANCH   1  27
ATOM     27  C   UNL A   1      36.779  23.136  25.158  1.00  0.00     0.023 C 
BRANCH  27  28
ATOM     28  C   UNL A   1      38.083  22.603  25.732  1.00  0.00     0.023 C 
BRANCH  28  29
ATOM     29  C   UNL A   1      38.870  23.571  26.608  1.00  0.00     0.116 C 
BRANCH  29  30
ATOM     30  N   UNL A   1      40.289  23.665  26.274  1.00  0.00    -0.352 N 
ATOM     31  C   UNL A   1      41.225  24.625  26.590  1.00  0.00     0.251 C 
ATOM     32  H   UNL A   1      40.634  22.917  25.734  1.00  0.00     0.163 HD
ATOM     33  O   UNL A   1      42.361  24.551  26.127  1.00  0.00    -0.269 OA
BRANCH  31  34
ATOM     34  C   UNL A   1      40.843  25.773  27.439  1.00  0.00     0.039 A 
ATOM     35  C   UNL A   1      39.877  25.598  28.432  1.00  0.00     0.014 A 
ATOM     36  C   UNL A   1      41.489  27.000  27.302  1.00  0.00     0.014 A 
ATOM     37  C   UNL A   1      39.665  26.609  29.372  1.00  0.00     0.010 A 
ATOM     38  C   UNL A   1      41.366  27.953  28.305  1.00  0.00     0.010 A 
ATOM     39  C   UNL A   1      40.462  27.766  29.361  1.00  0.00    -0.014 A 
BRANCH  39  40
ATOM     40  C   UNL A   1      40.394  28.783  30.446  1.00  0.00     0.031 A 
ATOM     41  C   UNL A   1      41.296  28.659  31.647  1.00  0.00     0.074 A 
ATOM     42  C   UNL A   1      39.449  29.746  30.407  1.00  0.00     0.049 A 
ATOM     43  N   UNL A   1      41.290  29.349  32.758  1.00  0.00    -0.248 NA
ATOM     44  C   UNL A   1      42.309  27.591  31.614  1.00  0.00     0.031 C 
ATOM     45  C   UNL A   1      38.461  29.931  29.338  1.00  0.00     0.029 A 
ATOM     46  N   UNL A   1      39.152  30.747  31.299  1.00  0.00    -0.354 N 
ATOM     47  C   UNL A   1      42.258  28.767  33.569  1.00  0.00     0.074 A 
ATOM     48  C   UNL A   1      42.802  27.642  32.842  1.00  0.00     0.031 C 
ATOM     49  C   UNL A   1      37.692  30.995  29.622  1.00  0.00     0.029 A 
ATOM     50  C   UNL A   1      38.100  31.545  30.910  1.00  0.00     0.049 A 
ATOM     51  H   UNL A   1      39.645  30.882  32.140  1.00  0.00     0.167 HD
ATOM     52  C   UNL A   1      42.675  29.152  34.798  1.00  0.00     0.037 A 
ATOM     53  C   UNL A   1      37.524  32.597  31.524  1.00  0.00     0.037 A 
ATOM     54  C   UNL A   1      42.192  30.321  35.481  1.00  0.00     0.049 A 
ATOM     55  C   UNL A   1      38.052  33.041  32.862  1.00  0.00     0.074 A 
ATOM     56  C   UNL A   1      42.632  30.861  36.677  1.00  0.00     0.029 A 
ATOM     57  N   UNL A   1      41.173  31.140  35.022  1.00  0.00    -0.354 N 
ATOM     58  N   UNL A   1      39.024  32.526  33.576  1.00  0.00    -0.248 NA
ATOM     59  C   UNL A   1      37.409  34.212  33.477  1.00  0.00     0.031 C 
ATOM     60  C   UNL A   1      41.858  31.990  36.957  1.00  0.00     0.029 A 
ATOM     61  C   UNL A   1      40.960  32.174  35.917  1.00  0.00     0.049 A 
ATOM     62  H   UNL A   1      40.673  31.005  34.184  1.00  0.00     0.167 HD
ATOM     63  C   UNL A   1      39.130  33.329  34.707  1.00  0.00     0.074 A 
ATOM     64  C   UNL A   1      38.130  34.368  34.579  1.00  0.00     0.031 C 
ATOM     65  C   UNL A   1      39.978  33.214  35.758  1.00  0.00     0.037 A 
BRANCH  52  66
ATOM     66  C   UNL A   1      43.728  28.322  35.477  1.00  0.00     0.058 A 
ATOM     67  C   UNL A   1      43.391  27.251  36.321  1.00  0.00     0.135 A 
ATOM     68  C   UNL A   1      45.090  28.559  35.232  1.00  0.00     0.135 A 
ATOM     69  F   UNL A   1      42.104  26.992  36.603  1.00  0.00    -0.206 F 
ATOM     70  C   UNL A   1      44.367  26.457  36.911  1.00  0.00     0.059 A 
ATOM     71  C   UNL A   1      46.082  27.760  35.792  1.00  0.00     0.059 A 
ATOM     72  F   UNL A   1      45.467  29.572  34.435  1.00  0.00    -0.206 F 
ATOM     73  C   UNL A   1      45.710  26.716  36.637  1.00  0.00     0.060 A 
BRANCH  73  74
ATOM     74  S   UNL A   1      46.964  25.650  37.381  1.00  0.00     0.124 S 
ATOM     75  O   UNL A   1      46.135  24.670  38.075  1.00  0.00    -0.237 OA
ATOM     76  O   UNL A   1      47.685  25.154  36.213  1.00  0.00    -0.237 OA
ATOM     77  O   UNL A   1      47.716  26.559  38.239  1.00  0.00    -0.744 OA
ENDBRANCH  73  74
ENDBRANCH  52  66
BRANCH  53  78
ATOM     78  C   UNL A   1      36.399  33.330  30.880  1.00  0.00     0.058 A 
ATOM     79  C   UNL A   1      36.624  34.144  29.758  1.00  0.00     0.135 A 
ATOM     80  C   UNL A   1      35.092  33.261  31.384  1.00  0.00     0.135 A 
ATOM     81  F   UNL A   1      37.858  34.245  29.241  1.00  0.00    -0.206 F 
ATOM     82  C   UNL A   1      35.603  34.890  29.181  1.00  0.00     0.059 A 
ATOM     83  C   UNL A   1      34.048  33.979  30.808  1.00  0.00     0.059 A 
ATOM     84  F   UNL A   1      34.819  32.483  32.443  1.00  0.00    -0.206 F 
ATOM     85  C   UNL A   1      34.318  34.807  29.718  1.00  0.00     0.060 A 
BRANCH  85  86
ATOM     86  S   UNL A   1      32.994  35.772  28.957  1.00  0.00     0.124 S 
ATOM     87  O   UNL A   1      32.444  34.814  28.007  1.00  0.00    -0.237 OA
ATOM     88  O   UNL A   1      32.147  36.094  30.102  1.00  0.00    -0.237 OA
ATOM     89  O   UNL A   1      33.702  36.907  28.374  1.00  0.00    -0.744 OA
ENDBRANCH  85  86
ENDBRANCH  53  78
BRANCH  65  90
ATOM     90  C   UNL A   1      39.898  34.265  36.828  1.00  0.00     0.058 A 
ATOM     91  C   UNL A   1      40.626  35.460  36.741  1.00  0.00     0.135 A 
ATOM     92  C   UNL A   1      39.036  34.095  37.923  1.00  0.00     0.135 A 
ATOM     93  F   UNL A   1      41.469  35.666  35.716  1.00  0.00    -0.206 F 
ATOM     94  C   UNL A   1      40.516  36.446  37.716  1.00  0.00     0.059 A 
ATOM     95  C   UNL A   1      38.892  35.078  38.896  1.00  0.00     0.059 A 
ATOM     96  F   UNL A   1      38.309  32.971  38.045  1.00  0.00    -0.206 F 
ATOM     97  C   UNL A   1      39.646  36.246  38.789  1.00  0.00     0.060 A 
BRANCH  97  98
ATOM     98  S   UNL A   1      39.480  37.549  40.026  1.00  0.00     0.124 S 
ATOM     99  O   UNL A   1      39.361  36.773  41.256  1.00  0.00    -0.237 OA
ATOM    100  O   UNL A   1      40.724  38.296  39.867  1.00  0.00    -0.237 OA
ATOM    101  O   UNL A   1      38.274  38.259  39.612  1.00  0.00    -0.744 OA
ENDBRANCH  97  98
ENDBRANCH  65  90
ENDBRANCH  39  40
ENDBRANCH  31  34
ENDBRANCH  29  30
ENDBRANCH  28  29
ENDBRANCH  27  28
ENDBRANCH   1  27
TORSDOF 21
ENDMDL
MODEL 3
REMARK VINA RESULT:     -10.3      2.622      3.692
REMARK SMILES CC(C)CCNC(=O)[C@@H](C)Oc1ccc(N)cc1C(=O)NCCCCNC(=O)c1ccc(-c2c3nc(c(-c4c(F)cc(S(=O)(=O)[O-])cc4F)c4ccc([nH]4)c(-c4c(F)cc(S(=O)(=O)[O-])cc4F)c4nc(c(-c5c(F)cc(S(=O)(=O)[O-])cc5F)c5ccc2[nH]5)C=C4)C=C3)cc1
REMARK SMILES IDX 22 1 21 2 19 3 20 4 18 6 12 7 13 8 14 9 17 10 15 11 11 12
REMARK SMILES IDX 9 13 10 14 7 15 6 16 8 18 5 19 4 20 2 21 1 22 3 23 16 24
REMARK SMILES IDX 23 27 24 28 25 29 26 30 27 31 28 33 29 34 30 35 94 36 31 37
REMARK SMILES IDX 93 38 32 39 33 40 34 41 87 42 35 43 92 44 86 45 88 46 36 47
REMARK SMILES IDX 91 48 85 49 84 50 37 52 71 53 50 54 70 55 51 56 54 57 69 58
REMARK SMILES IDX 89 59 52 60 53 61 68 63 90 64 55 65 38 66 39 67 48 68 40 69
REMARK SMILES IDX 41 70 47 71 49 72 42 73 43 74 44 75 45 76 46 77 72 78 73 79
REMARK SMILES IDX 82 80 74 81 75 82 81 83 83 84 76 85 77 86 78 87 79 88 80 89
REMARK SMILES IDX 56 90 57 91 66 92 58 93 59 94 65 95 67 96 60 97 61 98 62 99
REMARK SMILES IDX 63 100 64 101
REMARK H PARENT 21 5 6 17 16 25 16 26 26 32 88 51 54 62
REMARK Flexibility Score: inf
ROOT
ATOM      1  C   UNL A   1      33.996  27.378  23.873  1.00  0.00     0.116 C 
ENDROOT
BRANCH   1   2
ATOM      2  N   UNL A   1      33.329  26.656  22.838  1.00  0.00    -0.352 N 
ATOM      3  C   UNL A   1      32.692  25.444  22.922  1.00  0.00     0.255 C 
ATOM      4  O   UNL A   1      32.300  24.975  21.847  1.00  0.00    -0.269 OA
ATOM      5  H   UNL A   1      33.325  27.082  21.951  1.00  0.00     0.163 HD
BRANCH   3   6
ATOM      6  C   UNL A   1      32.435  24.642  24.179  1.00  0.00     0.083 A 
ATOM      7  C   UNL A   1      33.308  23.820  24.917  1.00  0.00     0.133 A 
ATOM      8  C   UNL A   1      33.033  23.616  26.276  1.00  0.00     0.049 A 
ATOM      9  C   UNL A   1      31.791  23.947  26.825  1.00  0.00     0.029 A 
ATOM     10  C   UNL A   1      31.165  24.919  24.748  1.00  0.00     0.043 A 
ATOM     11  C   UNL A   1      30.803  24.499  26.028  1.00  0.00     0.032 A 
BRANCH   7  12
ATOM     12  O   UNL A   1      34.461  23.296  24.414  1.00  0.00    -0.480 OA
BRANCH  12  13
ATOM     13  C   UNL A   1      35.424  22.699  25.303  1.00  0.00     0.258 C 
ATOM     14  C   UNL A   1      36.573  23.649  25.688  1.00  0.00     0.064 C 
BRANCH  13  15
ATOM     15  C   UNL A   1      35.974  21.242  25.235  1.00  0.00     0.260 C 
ATOM     16  N   UNL A   1      35.167  20.178  24.940  1.00  0.00    -0.353 N 
ATOM     17  H   UNL A   1      35.627  19.371  24.616  1.00  0.00     0.163 HD
ATOM     18  O   UNL A   1      37.176  21.010  25.403  1.00  0.00    -0.271 OA
BRANCH  16  19
ATOM     19  C   UNL A   1      33.725  20.082  25.039  1.00  0.00     0.116 C 
BRANCH  19  20
ATOM     20  C   UNL A   1      33.185  18.665  24.932  1.00  0.00     0.024 C 
BRANCH  20  21
ATOM     21  C   UNL A   1      33.531  17.935  23.620  1.00  0.00    -0.016 C 
ATOM     22  C   UNL A   1      33.810  16.442  23.819  1.00  0.00     0.007 C 
ATOM     23  C   UNL A   1      32.375  18.112  22.634  1.00  0.00     0.007 C 
ENDBRANCH  20  21
ENDBRANCH  19  20
ENDBRANCH  16  19
ENDBRANCH  13  15
ENDBRANCH  12  13
ENDBRANCH   7  12
BRANCH  11  24
ATOM     24  N   UNL A   1      29.549  24.778  26.542  1.00  0.00    -0.399 N 
ATOM     25  H   UNL A   1      28.820  25.051  25.937  1.00  0.00     0.156 HD
ATOM     26  H   UNL A   1      29.384  24.704  27.509  1.00  0.00     0.156 HD
ENDBRANCH  11  24
ENDBRANCH   3   6
ENDBRANCH   1   2
BRANCH   1  27
ATOM     27  C   UNL A   1      33.121  27.991  24.953  1.00  0.00     0.023 C 
BRANCH  27  28
ATOM     28  C   UNL A   1      33.617  27.828  26.382  1.00  0.00     0.023 C 
BRANCH  28  29
ATOM     29  C   UNL A   1      32.904  28.669  27.435  1.00  0.00     0.116 C 
BRANCH  29  30
ATOM     30  N   UNL A   1      33.168  30.102  27.338  1.00  0.00    -0.352 N 
ATOM     31  C   UNL A   1      34.293  30.831  27.658  1.00  0.00     0.251 C 
ATOM     32  H   UNL A   1      32.420  30.636  26.985  1.00  0.00     0.163 HD
ATOM     33  O   UNL A   1      34.272  32.057  27.579  1.00  0.00    -0.269 OA
BRANCH  31  34
ATOM     34  C   UNL A   1      35.503  30.140  28.150  1.00  0.00     0.039 A 
ATOM     35  C   UNL A   1      36.638  30.087  27.337  1.00  0.00     0.014 A 
ATOM     36  C   UNL A   1      35.540  29.610  29.437  1.00  0.00     0.014 A 
ATOM     37  C   UNL A   1      37.845  29.627  27.870  1.00  0.00     0.010 A 
ATOM     38  C   UNL A   1      36.764  29.271  30.001  1.00  0.00     0.010 A 
ATOM     39  C   UNL A   1      37.935  29.286  29.229  1.00  0.00    -0.014 A 
BRANCH  39  40
ATOM     40  C   UNL A   1      39.236  28.967  29.879  1.00  0.00     0.031 A 
ATOM     41  C   UNL A   1      39.700  29.774  31.064  1.00  0.00     0.074 A 
ATOM     42  C   UNL A   1      40.047  28.033  29.338  1.00  0.00     0.049 A 
ATOM     43  N   UNL A   1      40.857  29.754  31.675  1.00  0.00    -0.248 NA
ATOM     44  C   UNL A   1      38.757  30.767  31.606  1.00  0.00     0.031 C 
ATOM     45  C   UNL A   1      39.751  27.233  28.144  1.00  0.00     0.029 A 
ATOM     46  N   UNL A   1      41.297  27.606  29.712  1.00  0.00    -0.354 N 
ATOM     47  C   UNL A   1      40.796  30.759  32.633  1.00  0.00     0.074 A 
ATOM     48  C   UNL A   1      39.507  31.399  32.496  1.00  0.00     0.031 C 
ATOM     49  C   UNL A   1      40.774  26.395  27.905  1.00  0.00     0.029 A 
ATOM     50  C   UNL A   1      41.817  26.624  28.899  1.00  0.00     0.049 A 
ATOM     51  H   UNL A   1      41.780  27.969  30.490  1.00  0.00     0.167 HD
ATOM     52  C   UNL A   1      41.720  31.099  33.562  1.00  0.00     0.037 A 
ATOM     53  C   UNL A   1      43.002  25.985  28.944  1.00  0.00     0.037 A 
ATOM     54  C   UNL A   1      42.964  30.404  33.750  1.00  0.00     0.049 A 
ATOM     55  C   UNL A   1      43.983  26.342  30.029  1.00  0.00     0.074 A 
ATOM     56  C   UNL A   1      43.916  30.598  34.737  1.00  0.00     0.029 A 
ATOM     57  N   UNL A   1      43.422  29.372  32.948  1.00  0.00    -0.354 N 
ATOM     58  N   UNL A   1      43.873  27.240  30.977  1.00  0.00    -0.248 NA
ATOM     59  C   UNL A   1      45.250  25.595  30.052  1.00  0.00     0.031 C 
ATOM     60  C   UNL A   1      44.965  29.702  34.511  1.00  0.00     0.029 A 
ATOM     61  C   UNL A   1      44.649  28.926  33.407  1.00  0.00     0.049 A 
ATOM     62  H   UNL A   1      42.946  29.009  32.165  1.00  0.00     0.167 HD
ATOM     63  C   UNL A   1      45.039  27.144  31.728  1.00  0.00     0.074 A 
ATOM     64  C   UNL A   1      45.838  26.095  31.131  1.00  0.00     0.031 C 
ATOM     65  C   UNL A   1      45.416  27.862  32.814  1.00  0.00     0.037 A 
BRANCH  52  66
ATOM     66  C   UNL A   1      41.413  32.257  34.469  1.00  0.00     0.058 A 
ATOM     67  C   UNL A   1      41.613  33.586  34.061  1.00  0.00     0.135 A 
ATOM     68  C   UNL A   1      40.854  32.039  35.739  1.00  0.00     0.135 A 
ATOM     69  F   UNL A   1      42.161  33.851  32.865  1.00  0.00    -0.206 F 
ATOM     70  C   UNL A   1      41.286  34.656  34.886  1.00  0.00     0.059 A 
ATOM     71  C   UNL A   1      40.495  33.095  36.570  1.00  0.00     0.059 A 
ATOM     72  F   UNL A   1      40.645  30.787  36.179  1.00  0.00    -0.206 F 
ATOM     73  C   UNL A   1      40.723  34.401  36.138  1.00  0.00     0.060 A 
BRANCH  73  74
ATOM     74  S   UNL A   1      40.267  35.803  37.180  1.00  0.00     0.124 S 
ATOM     75  O   UNL A   1      41.516  36.054  37.891  1.00  0.00    -0.237 OA
ATOM     76  O   UNL A   1      39.885  36.812  36.197  1.00  0.00    -0.237 OA
ATOM     77  O   UNL A   1      39.174  35.280  37.993  1.00  0.00    -0.744 OA
ENDBRANCH  73  74
ENDBRANCH  52  66
BRANCH  53  78
ATOM     78  C   UNL A   1      43.329  24.921  27.956  1.00  0.00     0.058 A 
ATOM     79  C   UNL A   1      42.972  23.585  28.197  1.00  0.00     0.135 A 
ATOM     80  C   UNL A   1      44.027  25.206  26.773  1.00  0.00     0.135 A 
ATOM     81  F   UNL A   1      42.306  23.262  29.316  1.00  0.00    -0.206 F 
ATOM     82  C   UNL A   1      43.325  22.564  27.321  1.00  0.00     0.059 A 
ATOM     83  C   UNL A   1      44.371  24.205  25.868  1.00  0.00     0.059 A 
ATOM     84  F   UNL A   1      44.375  26.469  26.484  1.00  0.00    -0.206 F 
ATOM     85  C   UNL A   1      44.032  22.884  26.161  1.00  0.00     0.060 A 
BRANCH  85  86
ATOM     86  S   UNL A   1      44.480  21.555  25.023  1.00  0.00     0.124 S 
ATOM     87  O   UNL A   1      45.851  21.272  25.430  1.00  0.00    -0.237 OA
ATOM     88  O   UNL A   1      43.494  20.527  25.343  1.00  0.00    -0.237 OA
ATOM     89  O   UNL A   1      44.324  22.174  23.710  1.00  0.00    -0.744 OA
ENDBRANCH  85  86
ENDBRANCH  53  78
BRANCH  65  90
ATOM     90  C   UNL A   1      46.724  27.505  33.459  1.00  0.00     0.058 A 
ATOM     91  C   UNL A   1      46.811  26.517  34.451  1.00  0.00     0.135 A 
ATOM     92  C   UNL A   1      47.913  28.120  33.034  1.00  0.00     0.135 A 
ATOM     93  F   UNL A   1      45.701  25.906  34.895  1.00  0.00    -0.206 F 
ATOM     94  C   UNL A   1      48.032  26.164  35.015  1.00  0.00     0.059 A 
ATOM     95  C   UNL A   1      49.147  27.764  33.566  1.00  0.00     0.059 A 
ATOM     96  F   UNL A   1      47.883  29.064  32.079  1.00  0.00    -0.206 F 
ATOM     97  C   UNL A   1      49.194  26.792  34.565  1.00  0.00     0.060 A 
BRANCH  97  98
ATOM     98  S   UNL A   1      50.778  26.296  35.274  1.00  0.00     0.124 S 
ATOM     99  O   UNL A   1      50.445  26.190  36.691  1.00  0.00    -0.237 OA
ATOM    100  O   UNL A   1      51.048  25.035  34.592  1.00  0.00    -0.237 OA
ATOM    101  O   UNL A   1      51.669  27.397  34.918  1.00  0.00    -0.744 OA
ENDBRANCH  97  98
ENDBRANCH  65  90
ENDBRANCH  39  40
ENDBRANCH  31  34
ENDBRANCH  29  30
ENDBRANCH  28  29
ENDBRANCH  27  28
ENDBRANCH   1  27
TORSDOF 21
ENDMDL
