MODEL 1
REMARK VINA RESULT:     -11.5      0.000      0.000
REMARK SMILES [NH3+][C@]1(C(=O)NCCCCNC(=O)c2ccc(-c3c4nc(c(-c5c(F)cc(S(=O)(=O)[O-])cc5F)c5ccc([nH]5)c(-c5c(F)cc(S(=O)(=O)[O-])cc5F)c5nc(c(-c6c(F)cc(S(=O)(=O)[O-])cc6F)c6ccc3[nH]6)C=C5)C=C4)cc2)CC[C@@H](Sc2cc3ccccc3[nH]2)C1
REMARK SMILES IDX 8 1 7 2 6 3 5 4 3 5 4 6 2 8 79 9 92 10 80 11 81 12 1 13
REMARK SMILES IDX 82 17 83 18 84 19 91 20 85 21 90 22 86 24 89 25 87 26 88 27
REMARK SMILES IDX 9 28 10 29 11 30 12 32 13 33 14 34 78 35 15 36 77 37 16 38
REMARK SMILES IDX 17 39 18 40 71 41 19 42 76 43 70 44 72 45 20 46 75 47 69 48
REMARK SMILES IDX 68 49 21 51 55 52 34 53 54 54 35 55 38 56 53 57 73 58 36 59
REMARK SMILES IDX 37 60 52 62 74 63 39 64 22 65 23 66 32 67 24 68 25 69 31 70
REMARK SMILES IDX 33 71 26 72 27 73 28 74 29 75 30 76 56 77 57 78 66 79 58 80
REMARK SMILES IDX 59 81 65 82 67 83 60 84 61 85 62 86 63 87 64 88 40 89 41 90
REMARK SMILES IDX 50 91 42 92 43 93 49 94 51 95 44 96 45 97 46 98 47 99 48 100
REMARK H PARENT 5 7 1 14 1 15 1 16 91 23 10 31 72 50 38 61
REMARK Flexibility Score: inf
ROOT
ATOM      1  C   UNL A   1      33.698  28.345  25.758  1.00  0.00     0.023 C 
ENDROOT
BRANCH   1   2
ATOM      2  C   UNL A   1      32.415  28.587  24.970  1.00  0.00     0.023 C 
BRANCH   2   3
ATOM      3  C   UNL A   1      31.147  27.947  25.534  1.00  0.00     0.116 C 
BRANCH   3   4
ATOM      4  N   UNL A   1      30.523  27.077  24.559  1.00  0.00    -0.351 N 
ATOM      5  C   UNL A   1      30.380  25.729  24.498  1.00  0.00     0.281 C 
ATOM      6  O   UNL A   1      29.837  25.290  23.473  1.00  0.00    -0.268 OA
ATOM      7  H   UNL A   1      30.126  27.554  23.795  1.00  0.00     0.163 HD
BRANCH   5   8
ATOM      8  C   UNL A   1      30.735  24.733  25.644  1.00  0.00     0.175 C 
ATOM      9  C   UNL A   1      30.775  23.309  25.051  1.00  0.00     0.080 C 
ATOM     10  C   UNL A   1      32.074  24.788  26.371  1.00  0.00     0.094 C 
ATOM     11  C   UNL A   1      31.401  22.433  26.129  1.00  0.00     0.022 C 
ATOM     12  C   UNL A   1      32.301  23.378  26.915  1.00  0.00     0.060 C 
BRANCH   8  13
ATOM     13  N   UNL A   1      29.644  24.810  26.655  1.00  0.00    -0.345 N 
ATOM     14  H   UNL A   1      29.701  24.004  27.277  1.00  0.00     0.345 HD
ATOM     15  H   UNL A   1      28.741  24.810  26.179  1.00  0.00     0.345 HD
ATOM     16  H   UNL A   1      29.744  25.667  27.197  1.00  0.00     0.345 HD
ENDBRANCH   8  13
BRANCH  12  17
ATOM     17  S   UNL A   1      34.042  22.925  26.987  1.00  0.00    -0.105 SA
BRANCH  17  18
ATOM     18  C   UNL A   1      34.712  22.969  25.384  1.00  0.00     0.073 A 
ATOM     19  C   UNL A   1      34.470  22.227  24.245  1.00  0.00     0.043 A 
ATOM     20  N   UNL A   1      35.112  24.208  24.948  1.00  0.00    -0.350 N 
ATOM     21  C   UNL A   1      34.112  23.197  23.248  1.00  0.00     0.001 A 
ATOM     22  C   UNL A   1      34.425  24.448  23.776  1.00  0.00     0.046 A 
ATOM     23  H   UNL A   1      35.760  24.805  25.385  1.00  0.00     0.167 HD
ATOM     24  C   UNL A   1      33.385  23.134  22.044  1.00  0.00     0.010 A 
ATOM     25  C   UNL A   1      33.980  25.650  23.225  1.00  0.00     0.027 A 
ATOM     26  C   UNL A   1      32.872  24.327  21.511  1.00  0.00     0.001 A 
ATOM     27  C   UNL A   1      33.146  25.558  22.109  1.00  0.00     0.002 A 
ENDBRANCH  17  18
ENDBRANCH  12  17
ENDBRANCH   5   8
ENDBRANCH   3   4
ENDBRANCH   2   3
ENDBRANCH   1   2
BRANCH   1  28
ATOM     28  C   UNL A   1      33.564  28.524  27.261  1.00  0.00     0.116 C 
BRANCH  28  29
ATOM     29  N   UNL A   1      33.479  29.911  27.689  1.00  0.00    -0.352 N 
ATOM     30  C   UNL A   1      34.477  30.679  28.259  1.00  0.00     0.251 C 
ATOM     31  H   UNL A   1      32.610  30.355  27.558  1.00  0.00     0.163 HD
ATOM     32  O   UNL A   1      34.245  31.810  28.648  1.00  0.00    -0.269 OA
BRANCH  30  33
ATOM     33  C   UNL A   1      35.817  30.074  28.438  1.00  0.00     0.039 A 
ATOM     34  C   UNL A   1      36.710  30.085  27.365  1.00  0.00     0.014 A 
ATOM     35  C   UNL A   1      36.211  29.574  29.681  1.00  0.00     0.014 A 
ATOM     36  C   UNL A   1      38.029  29.671  27.564  1.00  0.00     0.010 A 
ATOM     37  C   UNL A   1      37.543  29.241  29.898  1.00  0.00     0.010 A 
ATOM     38  C   UNL A   1      38.467  29.288  28.844  1.00  0.00    -0.014 A 
BRANCH  38  39
ATOM     39  C   UNL A   1      39.887  28.939  29.104  1.00  0.00     0.031 A 
ATOM     40  C   UNL A   1      40.827  29.977  29.655  1.00  0.00     0.074 A 
ATOM     41  C   UNL A   1      40.348  27.719  28.762  1.00  0.00     0.049 A 
ATOM     42  N   UNL A   1      42.115  29.894  29.868  1.00  0.00    -0.248 NA
ATOM     43  C   UNL A   1      40.251  31.293  29.977  1.00  0.00     0.031 C 
ATOM     44  C   UNL A   1      39.550  26.650  28.153  1.00  0.00     0.029 A 
ATOM     45  N   UNL A   1      41.604  27.174  28.861  1.00  0.00    -0.354 N 
ATOM     46  C   UNL A   1      42.505  31.148  30.321  1.00  0.00     0.074 A 
ATOM     47  C   UNL A   1      41.329  31.989  30.309  1.00  0.00     0.031 C 
ATOM     48  C   UNL A   1      40.332  25.576  27.950  1.00  0.00     0.029 A 
ATOM     49  C   UNL A   1      41.691  25.888  28.382  1.00  0.00     0.049 A 
ATOM     50  H   UNL A   1      42.372  27.660  29.240  1.00  0.00     0.167 HD
ATOM     51  C   UNL A   1      43.730  31.556  30.730  1.00  0.00     0.037 A 
ATOM     52  C   UNL A   1      42.748  25.056  28.292  1.00  0.00     0.037 A 
ATOM     53  C   UNL A   1      44.885  30.700  30.789  1.00  0.00     0.049 A 
ATOM     54  C   UNL A   1      44.090  25.522  28.793  1.00  0.00     0.074 A 
ATOM     55  C   UNL A   1      46.145  30.990  31.280  1.00  0.00     0.029 A 
ATOM     56  N   UNL A   1      44.920  29.387  30.344  1.00  0.00    -0.354 N 
ATOM     57  N   UNL A   1      44.420  26.684  29.304  1.00  0.00    -0.248 NA
ATOM     58  C   UNL A   1      45.200  24.562  28.715  1.00  0.00     0.031 C 
ATOM     59  C   UNL A   1      46.956  29.864  31.096  1.00  0.00     0.029 A 
ATOM     60  C   UNL A   1      46.187  28.859  30.529  1.00  0.00     0.049 A 
ATOM     61  H   UNL A   1      44.159  28.901  29.953  1.00  0.00     0.167 HD
ATOM     62  C   UNL A   1      45.768  26.585  29.633  1.00  0.00     0.074 A 
ATOM     63  C   UNL A   1      46.188  25.247  29.275  1.00  0.00     0.031 C 
ATOM     64  C   UNL A   1      46.583  27.519  30.181  1.00  0.00     0.037 A 
BRANCH  51  65
ATOM     65  C   UNL A   1      43.885  32.988  31.159  1.00  0.00     0.058 A 
ATOM     66  C   UNL A   1      43.747  33.376  32.501  1.00  0.00     0.135 A 
ATOM     67  C   UNL A   1      44.229  33.978  30.224  1.00  0.00     0.135 A 
ATOM     68  F   UNL A   1      43.403  32.472  33.434  1.00  0.00    -0.206 F 
ATOM     69  C   UNL A   1      43.918  34.697  32.898  1.00  0.00     0.059 A 
ATOM     70  C   UNL A   1      44.432  35.302  30.603  1.00  0.00     0.059 A 
ATOM     71  F   UNL A   1      44.372  33.662  28.927  1.00  0.00    -0.206 F 
ATOM     72  C   UNL A   1      44.263  35.653  31.941  1.00  0.00     0.060 A 
BRANCH  72  73
ATOM     73  S   UNL A   1      44.503  37.361  32.476  1.00  0.00     0.124 S 
ATOM     74  O   UNL A   1      44.366  38.081  31.213  1.00  0.00    -0.237 OA
ATOM     75  O   UNL A   1      43.415  37.545  33.431  1.00  0.00    -0.237 OA
ATOM     76  O   UNL A   1      45.844  37.351  33.050  1.00  0.00    -0.744 OA
ENDBRANCH  72  73
ENDBRANCH  51  65
BRANCH  52  77
ATOM     77  C   UNL A   1      42.583  23.692  27.722  1.00  0.00     0.058 A 
ATOM     78  C   UNL A   1      42.449  22.572  28.556  1.00  0.00     0.135 A 
ATOM     79  C   UNL A   1      42.565  23.479  26.335  1.00  0.00     0.135 A 
ATOM     80  F   UNL A   1      42.465  22.725  29.890  1.00  0.00    -0.206 F 
ATOM     81  C   UNL A   1      42.333  21.287  28.039  1.00  0.00     0.059 A 
ATOM     82  C   UNL A   1      42.423  22.205  25.793  1.00  0.00     0.059 A 
ATOM     83  F   UNL A   1      42.670  24.518  25.493  1.00  0.00    -0.206 F 
ATOM     84  C   UNL A   1      42.323  21.113  26.654  1.00  0.00     0.060 A 
BRANCH  84  85
ATOM     85  S   UNL A   1      42.144  19.442  25.990  1.00  0.00     0.124 S 
ATOM     86  O   UNL A   1      43.001  19.503  24.813  1.00  0.00    -0.237 OA
ATOM     87  O   UNL A   1      42.631  18.619  27.093  1.00  0.00    -0.237 OA
ATOM     88  O   UNL A   1      40.711  19.340  25.727  1.00  0.00    -0.744 OA
ENDBRANCH  84  85
ENDBRANCH  52  77
BRANCH  64  89
ATOM     89  C   UNL A   1      48.003  27.116  30.464  1.00  0.00     0.058 A 
ATOM     90  C   UNL A   1      49.022  27.291  29.517  1.00  0.00     0.135 A 
ATOM     91  C   UNL A   1      48.357  26.601  31.723  1.00  0.00     0.135 A 
ATOM     92  F   UNL A   1      48.735  27.774  28.297  1.00  0.00    -0.206 F 
ATOM     93  C   UNL A   1      50.341  26.951  29.799  1.00  0.00     0.059 A 
ATOM     94  C   UNL A   1      49.672  26.279  32.035  1.00  0.00     0.059 A 
ATOM     95  F   UNL A   1      47.420  26.425  32.669  1.00  0.00    -0.206 F 
ATOM     96  C   UNL A   1      50.657  26.448  31.062  1.00  0.00     0.060 A 
BRANCH  96  97
ATOM     97  S   UNL A   1      52.378  26.045  31.429  1.00  0.00     0.124 S 
ATOM     98  O   UNL A   1      52.999  26.186  30.116  1.00  0.00    -0.237 OA
ATOM     99  O   UNL A   1      52.735  27.063  32.413  1.00  0.00    -0.237 OA
ATOM    100  O   UNL A   1      52.304  24.682  31.946  1.00  0.00    -0.744 OA
ENDBRANCH  96  97
ENDBRANCH  64  89
ENDBRANCH  38  39
ENDBRANCH  30  33
ENDBRANCH  28  29
ENDBRANCH   1  28
TORSDOF 17
ENDMDL
MODEL 2
REMARK VINA RESULT:     -11.2      1.044      2.102
REMARK SMILES [NH3+][C@]1(C(=O)NCCCCNC(=O)c2ccc(-c3c4nc(c(-c5c(F)cc(S(=O)(=O)[O-])cc5F)c5ccc([nH]5)c(-c5c(F)cc(S(=O)(=O)[O-])cc5F)c5nc(c(-c6c(F)cc(S(=O)(=O)[O-])cc6F)c6ccc3[nH]6)C=C5)C=C4)cc2)CC[C@@H](Sc2cc3ccccc3[nH]2)C1
REMARK SMILES IDX 8 1 7 2 6 3 5 4 3 5 4 6 2 8 79 9 92 10 80 11 81 12 1 13
REMARK SMILES IDX 82 17 83 18 84 19 91 20 85 21 90 22 86 24 89 25 87 26 88 27
REMARK SMILES IDX 9 28 10 29 11 30 12 32 13 33 14 34 78 35 15 36 77 37 16 38
REMARK SMILES IDX 17 39 18 40 71 41 19 42 76 43 70 44 72 45 20 46 75 47 69 48
REMARK SMILES IDX 68 49 21 51 55 52 34 53 54 54 35 55 38 56 53 57 73 58 36 59
REMARK SMILES IDX 37 60 52 62 74 63 39 64 22 65 23 66 32 67 24 68 25 69 31 70
REMARK SMILES IDX 33 71 26 72 27 73 28 74 29 75 30 76 56 77 57 78 66 79 58 80
REMARK SMILES IDX 59 81 65 82 67 83 60 84 61 85 62 86 63 87 64 88 40 89 41 90
REMARK SMILES IDX 50 91 42 92 43 93 49 94 51 95 44 96 45 97 46 98 47 99 48 100
REMARK H PARENT 5 7 1 14 1 15 1 16 91 23 10 31 72 50 38 61
REMARK Flexibility Score: inf
ROOT
ATOM      1  C   UNL A   1      32.615  28.175  25.984  1.00  0.00     0.023 C 
ENDROOT
BRANCH   1   2
ATOM      2  C   UNL A   1      32.885  28.653  24.561  1.00  0.00     0.023 C 
BRANCH   2   3
ATOM      3  C   UNL A   1      32.234  27.840  23.442  1.00  0.00     0.116 C 
BRANCH   3   4
ATOM      4  N   UNL A   1      33.180  26.918  22.849  1.00  0.00    -0.351 N 
ATOM      5  C   UNL A   1      33.288  25.566  22.895  1.00  0.00     0.281 C 
ATOM      6  O   UNL A   1      34.272  25.084  22.314  1.00  0.00    -0.268 OA
ATOM      7  H   UNL A   1      33.877  27.355  22.308  1.00  0.00     0.163 HD
BRANCH   5   8
ATOM      8  C   UNL A   1      32.232  24.599  23.509  1.00  0.00     0.175 C 
ATOM      9  C   UNL A   1      32.780  23.159  23.410  1.00  0.00     0.080 C 
ATOM     10  C   UNL A   1      31.841  24.665  24.982  1.00  0.00     0.094 C 
ATOM     11  C   UNL A   1      31.855  22.308  24.273  1.00  0.00     0.022 C 
ATOM     12  C   UNL A   1      31.328  23.269  25.332  1.00  0.00     0.060 C 
BRANCH   8  13
ATOM     13  N   UNL A   1      30.996  24.708  22.686  1.00  0.00    -0.345 N 
ATOM     14  H   UNL A   1      30.267  25.173  23.228  1.00  0.00     0.345 HD
ATOM     15  H   UNL A   1      30.680  23.774  22.424  1.00  0.00     0.345 HD
ATOM     16  H   UNL A   1      31.194  25.249  21.846  1.00  0.00     0.345 HD
ENDBRANCH   8  13
BRANCH  12  17
ATOM     17  S   UNL A   1      31.655  22.808  27.040  1.00  0.00    -0.105 SA
BRANCH  17  18
ATOM     18  C   UNL A   1      33.306  22.287  27.188  1.00  0.00     0.073 A 
ATOM     19  C   UNL A   1      33.982  21.171  26.734  1.00  0.00     0.043 A 
ATOM     20  N   UNL A   1      34.237  23.294  27.246  1.00  0.00    -0.350 N 
ATOM     21  C   UNL A   1      35.066  21.697  25.952  1.00  0.00     0.001 A 
ATOM     22  C   UNL A   1      35.122  23.065  26.213  1.00  0.00     0.046 A 
ATOM     23  H   UNL A   1      34.267  24.032  27.896  1.00  0.00     0.167 HD
ATOM     24  C   UNL A   1      35.865  21.173  24.917  1.00  0.00     0.010 A 
ATOM     25  C   UNL A   1      35.861  23.965  25.446  1.00  0.00     0.027 A 
ATOM     26  C   UNL A   1      36.563  22.070  24.094  1.00  0.00     0.001 A 
ATOM     27  C   UNL A   1      36.537  23.443  24.342  1.00  0.00     0.002 A 
ENDBRANCH  17  18
ENDBRANCH  12  17
ENDBRANCH   5   8
ENDBRANCH   3   4
ENDBRANCH   2   3
ENDBRANCH   1   2
BRANCH   1  28
ATOM     28  C   UNL A   1      33.679  28.562  26.997  1.00  0.00     0.116 C 
BRANCH  28  29
ATOM     29  N   UNL A   1      33.555  29.922  27.499  1.00  0.00    -0.352 N 
ATOM     30  C   UNL A   1      34.514  30.666  28.159  1.00  0.00     0.251 C 
ATOM     31  H   UNL A   1      32.687  30.362  27.352  1.00  0.00     0.163 HD
ATOM     32  O   UNL A   1      34.249  31.770  28.601  1.00  0.00    -0.269 OA
BRANCH  30  33
ATOM     33  C   UNL A   1      35.853  30.066  28.368  1.00  0.00     0.039 A 
ATOM     34  C   UNL A   1      36.789  30.134  27.335  1.00  0.00     0.014 A 
ATOM     35  C   UNL A   1      36.200  29.516  29.603  1.00  0.00     0.014 A 
ATOM     36  C   UNL A   1      38.103  29.724  27.571  1.00  0.00     0.010 A 
ATOM     37  C   UNL A   1      37.526  29.186  29.861  1.00  0.00     0.010 A 
ATOM     38  C   UNL A   1      38.492  29.289  28.849  1.00  0.00    -0.014 A 
BRANCH  38  39
ATOM     39  C   UNL A   1      39.904  28.942  29.154  1.00  0.00     0.031 A 
ATOM     40  C   UNL A   1      40.817  29.973  29.762  1.00  0.00     0.074 A 
ATOM     41  C   UNL A   1      40.385  27.732  28.802  1.00  0.00     0.049 A 
ATOM     42  N   UNL A   1      42.096  29.892  30.019  1.00  0.00    -0.248 NA
ATOM     43  C   UNL A   1      40.221  31.278  30.091  1.00  0.00     0.031 C 
ATOM     44  C   UNL A   1      39.617  26.673  28.141  1.00  0.00     0.029 A 
ATOM     45  N   UNL A   1      41.640  27.193  28.934  1.00  0.00    -0.354 N 
ATOM     46  C   UNL A   1      42.462  31.139  30.513  1.00  0.00     0.074 A 
ATOM     47  C   UNL A   1      41.281  31.973  30.477  1.00  0.00     0.031 C 
ATOM     48  C   UNL A   1      40.412  25.608  27.943  1.00  0.00     0.029 A 
ATOM     49  C   UNL A   1      41.753  25.918  28.430  1.00  0.00     0.049 A 
ATOM     50  H   UNL A   1      42.391  27.674  29.352  1.00  0.00     0.167 HD
ATOM     51  C   UNL A   1      43.668  31.545  30.975  1.00  0.00     0.037 A 
ATOM     52  C   UNL A   1      42.818  25.095  28.361  1.00  0.00     0.037 A 
ATOM     53  C   UNL A   1      44.826  30.693  31.057  1.00  0.00     0.049 A 
ATOM     54  C   UNL A   1      44.138  25.557  28.920  1.00  0.00     0.074 A 
ATOM     55  C   UNL A   1      46.065  30.980  31.601  1.00  0.00     0.029 A 
ATOM     56  N   UNL A   1      44.886  29.391  30.585  1.00  0.00    -0.354 N 
ATOM     57  N   UNL A   1      44.441  26.709  29.469  1.00  0.00    -0.248 NA
ATOM     58  C   UNL A   1      45.256  24.606  28.862  1.00  0.00     0.031 C 
ATOM     59  C   UNL A   1      46.890  29.864  31.421  1.00  0.00     0.029 A 
ATOM     60  C   UNL A   1      46.149  28.867  30.805  1.00  0.00     0.049 A 
ATOM     61  H   UNL A   1      44.142  28.910  30.157  1.00  0.00     0.167 HD
ATOM     62  C   UNL A   1      45.777  26.611  29.844  1.00  0.00     0.074 A 
ATOM     63  C   UNL A   1      46.218  25.283  29.472  1.00  0.00     0.031 C 
ATOM     64  C   UNL A   1      46.566  27.536  30.442  1.00  0.00     0.037 A 
BRANCH  51  65
ATOM     65  C   UNL A   1      43.799  32.967  31.442  1.00  0.00     0.058 A 
ATOM     66  C   UNL A   1      44.104  34.010  30.554  1.00  0.00     0.135 A 
ATOM     67  C   UNL A   1      43.564  33.300  32.786  1.00  0.00     0.135 A 
ATOM     68  F   UNL A   1      44.354  33.747  29.260  1.00  0.00    -0.206 F 
ATOM     69  C   UNL A   1      44.198  35.329  30.985  1.00  0.00     0.059 A 
ATOM     70  C   UNL A   1      43.625  34.616  33.234  1.00  0.00     0.059 A 
ATOM     71  F   UNL A   1      43.271  32.340  33.678  1.00  0.00    -0.206 F 
ATOM     72  C   UNL A   1      43.955  35.622  32.328  1.00  0.00     0.060 A 
BRANCH  72  73
ATOM     73  S   UNL A   1      44.059  37.342  32.868  1.00  0.00     0.124 S 
ATOM     74  O   UNL A   1      42.863  37.457  33.698  1.00  0.00    -0.237 OA
ATOM     75  O   UNL A   1      45.330  37.368  33.583  1.00  0.00    -0.237 OA
ATOM     76  O   UNL A   1      44.029  38.093  31.617  1.00  0.00    -0.744 OA
ENDBRANCH  72  73
ENDBRANCH  51  65
BRANCH  52  77
ATOM     77  C   UNL A   1      42.683  23.743  27.756  1.00  0.00     0.058 A 
ATOM     78  C   UNL A   1      42.452  22.613  28.555  1.00  0.00     0.135 A 
ATOM     79  C   UNL A   1      42.790  23.551  26.369  1.00  0.00     0.135 A 
ATOM     80  F   UNL A   1      42.346  22.746  29.887  1.00  0.00    -0.206 F 
ATOM     81  C   UNL A   1      42.362  21.338  28.008  1.00  0.00     0.059 A 
ATOM     82  C   UNL A   1      42.677  22.289  25.796  1.00  0.00     0.059 A 
ATOM     83  F   UNL A   1      42.991  24.601  25.558  1.00  0.00    -0.206 F 
ATOM     84  C   UNL A   1      42.478  21.186  26.625  1.00  0.00     0.060 A 
BRANCH  84  85
ATOM     85  S   UNL A   1      42.332  19.529  25.919  1.00  0.00     0.124 S 
ATOM     86  O   UNL A   1      40.901  19.449  25.654  1.00  0.00    -0.237 OA
ATOM     87  O   UNL A   1      43.196  19.617  24.746  1.00  0.00    -0.237 OA
ATOM     88  O   UNL A   1      42.828  18.666  26.989  1.00  0.00    -0.744 OA
ENDBRANCH  84  85
ENDBRANCH  52  77
BRANCH  64  89
ATOM     89  C   UNL A   1      47.977  27.136  30.768  1.00  0.00     0.058 A 
ATOM     90  C   UNL A   1      48.290  26.419  31.931  1.00  0.00     0.135 A 
ATOM     91  C   UNL A   1      49.022  27.426  29.874  1.00  0.00     0.135 A 
ATOM     92  F   UNL A   1      47.328  26.123  32.821  1.00  0.00    -0.206 F 
ATOM     93  C   UNL A   1      49.593  26.020  32.209  1.00  0.00     0.059 A 
ATOM     94  C   UNL A   1      50.327  27.014  30.119  1.00  0.00     0.059 A 
ATOM     95  F   UNL A   1      48.773  28.100  28.739  1.00  0.00    -0.206 F 
ATOM     96  C   UNL A   1      50.604  26.320  31.296  1.00  0.00     0.060 A 
BRANCH  96  97
ATOM     97  S   UNL A   1      52.285  25.763  31.649  1.00  0.00     0.124 S 
ATOM     98  O   UNL A   1      52.050  24.405  32.130  1.00  0.00    -0.237 OA
ATOM     99  O   UNL A   1      52.932  25.872  30.345  1.00  0.00    -0.237 OA
ATOM    100  O   UNL A   1      52.752  26.713  32.654  1.00  0.00    -0.744 OA
ENDBRANCH  96  97
ENDBRANCH  64  89
ENDBRANCH  38  39
ENDBRANCH  30  33
ENDBRANCH  28  29
ENDBRANCH   1  28
TORSDOF 17
ENDMDL
MODEL 3
REMARK VINA RESULT:     -11.2      1.597      2.362
REMARK SMILES [NH3+][C@]1(C(=O)NCCCCNC(=O)c2ccc(-c3c4nc(c(-c5c(F)cc(S(=O)(=O)[O-])cc5F)c5ccc([nH]5)c(-c5c(F)cc(S(=O)(=O)[O-])cc5F)c5nc(c(-c6c(F)cc(S(=O)(=O)[O-])cc6F)c6ccc3[nH]6)C=C5)C=C4)cc2)CC[C@@H](Sc2cc3ccccc3[nH]2)C1
REMARK SMILES IDX 8 1 7 2 6 3 5 4 3 5 4 6 2 8 79 9 92 10 80 11 81 12 1 13
REMARK SMILES IDX 82 17 83 18 84 19 91 20 85 21 90 22 86 24 89 25 87 26 88 27
REMARK SMILES IDX 9 28 10 29 11 30 12 32 13 33 14 34 78 35 15 36 77 37 16 38
REMARK SMILES IDX 17 39 18 40 71 41 19 42 76 43 70 44 72 45 20 46 75 47 69 48
REMARK SMILES IDX 68 49 21 51 55 52 34 53 54 54 35 55 38 56 53 57 73 58 36 59
REMARK SMILES IDX 37 60 52 62 74 63 39 64 22 65 23 66 32 67 24 68 25 69 31 70
REMARK SMILES IDX 33 71 26 72 27 73 28 74 29 75 30 76 56 77 57 78 66 79 58 80
REMARK SMILES IDX 59 81 65 82 67 83 60 84 61 85 62 86 63 87 64 88 40 89 41 90
REMARK SMILES IDX 50 91 42 92 43 93 49 94 51 95 44 96 45 97 46 98 47 99 48 100
REMARK H PARENT 5 7 1 14 1 15 1 16 91 23 10 31 72 50 38 61
REMARK Flexibility Score: inf
ROOT
ATOM      1  C   UNL A   1      33.096  28.796  25.375  1.00  0.00     0.023 C 
ENDROOT
BRANCH   1   2
ATOM      2  C   UNL A   1      33.972  28.245  24.254  1.00  0.00     0.023 C 
BRANCH   2   3
ATOM      3  C   UNL A   1      33.695  26.803  23.830  1.00  0.00     0.116 C 
BRANCH   3   4
ATOM      4  N   UNL A   1      32.273  26.558  23.710  1.00  0.00    -0.351 N 
ATOM      5  C   UNL A   1      31.437  25.703  24.351  1.00  0.00     0.281 C 
ATOM      6  O   UNL A   1      30.261  25.701  23.957  1.00  0.00    -0.268 OA
ATOM      7  H   UNL A   1      31.827  27.119  23.034  1.00  0.00     0.163 HD
BRANCH   5   8
ATOM      8  C   UNL A   1      31.814  24.834  25.589  1.00  0.00     0.175 C 
ATOM      9  C   UNL A   1      30.799  23.675  25.692  1.00  0.00     0.080 C 
ATOM     10  C   UNL A   1      33.136  24.077  25.668  1.00  0.00     0.094 C 
ATOM     11  C   UNL A   1      31.379  22.713  26.723  1.00  0.00     0.022 C 
ATOM     12  C   UNL A   1      32.886  22.919  26.633  1.00  0.00     0.060 C 
BRANCH   8  13
ATOM     13  N   UNL A   1      31.691  25.699  26.795  1.00  0.00    -0.345 N 
ATOM     14  H   UNL A   1      30.783  25.543  27.233  1.00  0.00     0.345 HD
ATOM     15  H   UNL A   1      31.773  26.677  26.519  1.00  0.00     0.345 HD
ATOM     16  H   UNL A   1      32.433  25.467  27.455  1.00  0.00     0.345 HD
ENDBRANCH   8  13
BRANCH  12  17
ATOM     17  S   UNL A   1      33.855  21.454  26.239  1.00  0.00    -0.105 SA
BRANCH  17  18
ATOM     18  C   UNL A   1      32.817  20.253  25.533  1.00  0.00     0.073 A 
ATOM     19  C   UNL A   1      32.467  19.965  24.228  1.00  0.00     0.043 A 
ATOM     20  N   UNL A   1      32.748  19.063  26.212  1.00  0.00    -0.350 N 
ATOM     21  C   UNL A   1      32.833  18.589  24.049  1.00  0.00     0.001 A 
ATOM     22  C   UNL A   1      33.118  18.081  25.316  1.00  0.00     0.046 A 
ATOM     23  H   UNL A   1      32.487  18.935  27.152  1.00  0.00     0.167 HD
ATOM     24  C   UNL A   1      33.129  17.797  22.922  1.00  0.00     0.010 A 
ATOM     25  C   UNL A   1      33.765  16.864  25.530  1.00  0.00     0.027 A 
ATOM     26  C   UNL A   1      33.839  16.602  23.114  1.00  0.00     0.001 A 
ATOM     27  C   UNL A   1      34.171  16.160  24.395  1.00  0.00     0.002 A 
ENDBRANCH  17  18
ENDBRANCH  12  17
ENDBRANCH   5   8
ENDBRANCH   3   4
ENDBRANCH   2   3
ENDBRANCH   1   2
BRANCH   1  28
ATOM     28  C   UNL A   1      33.768  28.851  26.737  1.00  0.00     0.116 C 
BRANCH  28  29
ATOM     29  N   UNL A   1      33.606  30.121  27.428  1.00  0.00    -0.352 N 
ATOM     30  C   UNL A   1      34.527  30.766  28.230  1.00  0.00     0.251 C 
ATOM     31  H   UNL A   1      32.740  30.573  27.310  1.00  0.00     0.163 HD
ATOM     32  O   UNL A   1      34.230  31.790  28.818  1.00  0.00    -0.269 OA
BRANCH  30  33
ATOM     33  C   UNL A   1      35.864  30.150  28.406  1.00  0.00     0.039 A 
ATOM     34  C   UNL A   1      36.779  30.218  27.354  1.00  0.00     0.014 A 
ATOM     35  C   UNL A   1      36.231  29.584  29.628  1.00  0.00     0.014 A 
ATOM     36  C   UNL A   1      38.094  29.792  27.559  1.00  0.00     0.010 A 
ATOM     37  C   UNL A   1      37.558  29.238  29.856  1.00  0.00     0.010 A 
ATOM     38  C   UNL A   1      38.505  29.341  28.826  1.00  0.00    -0.014 A 
BRANCH  38  39
ATOM     39  C   UNL A   1      39.919  28.976  29.097  1.00  0.00     0.031 A 
ATOM     40  C   UNL A   1      40.865  30.003  29.658  1.00  0.00     0.074 A 
ATOM     41  C   UNL A   1      40.370  27.751  28.757  1.00  0.00     0.049 A 
ATOM     42  N   UNL A   1      42.149  29.906  29.881  1.00  0.00    -0.248 NA
ATOM     43  C   UNL A   1      40.300  31.325  29.976  1.00  0.00     0.031 C 
ATOM     44  C   UNL A   1      39.566  26.692  28.140  1.00  0.00     0.029 A 
ATOM     45  N   UNL A   1      41.619  27.194  28.866  1.00  0.00    -0.354 N 
ATOM     46  C   UNL A   1      42.550  31.156  30.338  1.00  0.00     0.074 A 
ATOM     47  C   UNL A   1      41.382  32.009  30.318  1.00  0.00     0.031 C 
ATOM     48  C   UNL A   1      40.338  25.610  27.942  1.00  0.00     0.029 A 
ATOM     49  C   UNL A   1      41.697  25.907  28.386  1.00  0.00     0.049 A 
ATOM     50  H   UNL A   1      42.389  27.671  29.252  1.00  0.00     0.167 HD
ATOM     51  C   UNL A   1      43.775  31.551  30.758  1.00  0.00     0.037 A 
ATOM     52  C   UNL A   1      42.745  25.065  28.303  1.00  0.00     0.037 A 
ATOM     53  C   UNL A   1      44.920  30.682  30.825  1.00  0.00     0.049 A 
ATOM     54  C   UNL A   1      44.088  25.516  28.816  1.00  0.00     0.074 A 
ATOM     55  C   UNL A   1      46.179  30.959  31.328  1.00  0.00     0.029 A 
ATOM     56  N   UNL A   1      44.945  29.370  30.379  1.00  0.00    -0.354 N 
ATOM     57  N   UNL A   1      44.426  26.674  29.331  1.00  0.00    -0.248 NA
ATOM     58  C   UNL A   1      45.188  24.545  28.746  1.00  0.00     0.031 C 
ATOM     59  C   UNL A   1      46.980  29.825  31.149  1.00  0.00     0.029 A 
ATOM     60  C   UNL A   1      46.205  28.829  30.575  1.00  0.00     0.049 A 
ATOM     61  H   UNL A   1      44.182  28.893  29.982  1.00  0.00     0.167 HD
ATOM     62  C   UNL A   1      45.770  26.560  29.671  1.00  0.00     0.074 A 
ATOM     63  C   UNL A   1      46.179  25.218  29.315  1.00  0.00     0.031 C 
ATOM     64  C   UNL A   1      46.590  27.485  30.227  1.00  0.00     0.037 A 
BRANCH  51  65
ATOM     65  C   UNL A   1      43.942  32.980  31.191  1.00  0.00     0.058 A 
ATOM     66  C   UNL A   1      44.252  33.998  30.275  1.00  0.00     0.135 A 
ATOM     67  C   UNL A   1      43.738  33.346  32.532  1.00  0.00     0.135 A 
ATOM     68  F   UNL A   1      44.472  33.702  28.984  1.00  0.00    -0.206 F 
ATOM     69  C   UNL A   1      44.378  35.324  30.676  1.00  0.00     0.059 A 
ATOM     70  C   UNL A   1      43.833  34.670  32.950  1.00  0.00     0.059 A 
ATOM     71  F   UNL A   1      43.442  32.412  33.450  1.00  0.00    -0.206 F 
ATOM     72  C   UNL A   1      44.166  35.650  32.016  1.00  0.00     0.060 A 
BRANCH  72  73
ATOM     73  S   UNL A   1      44.313  37.379  32.517  1.00  0.00     0.124 S 
ATOM     74  O   UNL A   1      43.226  37.493  33.484  1.00  0.00    -0.237 OA
ATOM     75  O   UNL A   1      45.662  37.429  33.071  1.00  0.00    -0.237 OA
ATOM     76  O   UNL A   1      44.122  38.111  31.269  1.00  0.00    -0.744 OA
ENDBRANCH  72  73
ENDBRANCH  51  65
BRANCH  52  77
ATOM     77  C   UNL A   1      42.571  23.703  27.731  1.00  0.00     0.058 A 
ATOM     78  C   UNL A   1      42.407  22.585  28.562  1.00  0.00     0.135 A 
ATOM     79  C   UNL A   1      42.573  23.490  26.343  1.00  0.00     0.135 A 
ATOM     80  F   UNL A   1      42.403  22.738  29.896  1.00  0.00    -0.206 F 
ATOM     81  C   UNL A   1      42.282  21.302  28.042  1.00  0.00     0.059 A 
ATOM     82  C   UNL A   1      42.423  22.219  25.799  1.00  0.00     0.059 A 
ATOM     83  F   UNL A   1      42.707  24.529  25.503  1.00  0.00    -0.206 F 
ATOM     84  C   UNL A   1      42.293  21.129  26.657  1.00  0.00     0.060 A 
BRANCH  84  85
ATOM     85  S   UNL A   1      42.102  19.460  25.989  1.00  0.00     0.124 S 
ATOM     86  O   UNL A   1      42.904  19.539  24.774  1.00  0.00    -0.237 OA
ATOM     87  O   UNL A   1      42.647  18.635  27.063  1.00  0.00    -0.237 OA
ATOM     88  O   UNL A   1      40.660  19.344  25.791  1.00  0.00    -0.744 OA
ENDBRANCH  84  85
ENDBRANCH  52  77
BRANCH  64  89
ATOM     89  C   UNL A   1      48.003  27.067  30.522  1.00  0.00     0.058 A 
ATOM     90  C   UNL A   1      49.061  27.385  29.658  1.00  0.00     0.135 A 
ATOM     91  C   UNL A   1      48.309  26.389  31.714  1.00  0.00     0.135 A 
ATOM     92  F   UNL A   1      48.821  28.027  28.503  1.00  0.00    -0.206 F 
ATOM     93  C   UNL A   1      50.373  27.028  29.955  1.00  0.00     0.059 A 
ATOM     94  C   UNL A   1      49.615  26.045  32.043  1.00  0.00     0.059 A 
ATOM     95  F   UNL A   1      47.333  26.071  32.581  1.00  0.00    -0.206 F 
ATOM     96  C   UNL A   1      50.640  26.360  31.151  1.00  0.00     0.060 A 
BRANCH  96  97
ATOM     97  S   UNL A   1      52.350  25.935  31.544  1.00  0.00     0.124 S 
ATOM     98  O   UNL A   1      52.983  26.023  30.231  1.00  0.00    -0.237 OA
ATOM     99  O   UNL A   1      52.721  26.975  32.498  1.00  0.00    -0.237 OA
ATOM    100  O   UNL A   1      52.245  24.590  32.102  1.00  0.00    -0.744 OA
ENDBRANCH  96  97
ENDBRANCH  64  89
ENDBRANCH  38  39
ENDBRANCH  30  33
ENDBRANCH  28  29
ENDBRANCH   1  28
TORSDOF 17
ENDMDL
