MODEL 1
REMARK VINA RESULT:     -12.8      0.000      0.000
REMARK SMILES O=C(C[C@]1(C(=O)NC2CCCCC2)CC(c2ccc([N+](=O)[O-])cc2)=NO1)NCCCCNC(=O)c1ccc(-c2c3nc(c(-c4c(F)cc(S(=O)(=O)[O-])cc4F)c4ccc([nH]4)c(-c4c(F)cc(S(=O)(=O)[O-])cc4F)c4nc(c(-c5c(F)cc(S(=O)(=O)[O-])cc5F)c5ccc2[nH]5)C=C4)C=C3)cc1
REMARK SMILES IDX 29 1 28 2 27 3 1 4 2 5 3 7 4 8 14 9 26 10 15 11 25 12 5 13
REMARK SMILES IDX 6 14 7 15 8 17 9 18 13 19 10 20 12 21 11 22 16 23 17 24
REMARK SMILES IDX 24 25 18 26 23 27 19 28 20 29 21 30 22 31 30 32 31 33 32 34
REMARK SMILES IDX 33 35 34 37 35 38 36 39 100 40 37 41 99 42 38 43 39 44 40 45
REMARK SMILES IDX 93 46 41 47 98 48 92 49 94 50 42 51 97 52 91 53 90 54 43 56
REMARK SMILES IDX 77 57 56 58 76 59 57 60 60 61 75 62 95 63 58 64 59 65 74 67
REMARK SMILES IDX 96 68 61 69 44 70 45 71 54 72 46 73 47 74 53 75 55 76 48 77
REMARK SMILES IDX 49 78 50 79 51 80 52 81 78 82 79 83 88 84 80 85 81 86 87 87
REMARK SMILES IDX 89 88 82 89 83 90 84 91 85 92 86 93 62 94 63 95 72 96 64 97
REMARK SMILES IDX 65 98 71 99 73 100 66 101 67 102 68 103 69 104 70 105
REMARK H PARENT 27 6 7 16 32 36 94 55 60 66
REMARK Flexibility Score: inf
ROOT
ATOM      1  C   UNL A   1      34.731  29.001  27.343  1.00  0.00     0.023 C 
ENDROOT
BRANCH   1   2
ATOM      2  C   UNL A   1      33.393  28.300  27.092  1.00  0.00     0.116 C 
BRANCH   2   3
ATOM      3  N   UNL A   1      33.262  27.772  25.751  1.00  0.00    -0.356 N 
ATOM      4  O   UNL A   1      33.899  25.652  26.322  1.00  0.00    -0.275 OA
ATOM      5  C   UNL A   1      33.529  26.457  25.473  1.00  0.00     0.224 C 
ATOM      6  H   UNL A   1      32.975  28.369  25.023  1.00  0.00     0.163 HD
BRANCH   5   7
ATOM      7  C   UNL A   1      33.369  26.067  24.028  1.00  0.00     0.162 C 
BRANCH   7   8
ATOM      8  C   UNL A   1      31.990  25.493  23.702  1.00  0.00     0.229 C 
ATOM      9  C   UNL A   1      31.232  26.243  22.613  1.00  0.00     0.123 C 
ATOM     10  O   UNL A   1      31.193  25.784  24.898  1.00  0.00    -0.378 OA
ATOM     11  C   UNL A   1      30.535  27.253  23.448  1.00  0.00     0.092 C 
ATOM     12  N   UNL A   1      30.514  27.012  24.713  1.00  0.00    -0.089 NA
BRANCH   8  13
ATOM     13  C   UNL A   1      31.853  23.962  23.520  1.00  0.00     0.268 C 
ATOM     14  O   UNL A   1      30.772  23.461  23.175  1.00  0.00    -0.270 OA
ATOM     15  N   UNL A   1      32.858  23.055  23.600  1.00  0.00    -0.350 N 
ATOM     16  H   UNL A   1      32.632  22.258  23.070  1.00  0.00     0.163 HD
BRANCH  15  17
ATOM     17  C   UNL A   1      34.182  22.879  24.226  1.00  0.00     0.082 C 
ATOM     18  C   UNL A   1      34.451  21.586  24.988  1.00  0.00     0.025 C 
ATOM     19  C   UNL A   1      35.259  23.217  23.176  1.00  0.00     0.025 C 
ATOM     20  C   UNL A   1      35.906  21.414  25.423  1.00  0.00     0.002 C 
ATOM     21  C   UNL A   1      36.684  23.020  23.677  1.00  0.00     0.002 C 
ATOM     22  C   UNL A   1      36.873  21.631  24.265  1.00  0.00     0.000 C 
ENDBRANCH  15  17
ENDBRANCH   8  13
BRANCH  11  23
ATOM     23  C   UNL A   1      29.866  28.402  22.835  1.00  0.00    -0.000 A 
ATOM     24  C   UNL A   1      30.609  29.370  22.154  1.00  0.00     0.017 A 
ATOM     25  C   UNL A   1      28.480  28.516  22.970  1.00  0.00     0.017 A 
ATOM     26  C   UNL A   1      29.951  30.468  21.589  1.00  0.00     0.086 A 
ATOM     27  C   UNL A   1      27.819  29.609  22.406  1.00  0.00     0.086 A 
ATOM     28  C   UNL A   1      28.557  30.584  21.717  1.00  0.00     0.269 A 
BRANCH  28  29
ATOM     29  N   UNL A   1      27.860  31.732  21.120  1.00  0.00     0.062 N 
ATOM     30  O   UNL A   1      27.765  32.765  21.796  1.00  0.00    -0.258 OA
ATOM     31  O   UNL A   1      27.431  31.606  19.964  1.00  0.00    -0.258 OA
ENDBRANCH  28  29
ENDBRANCH  11  23
ENDBRANCH   7   8
ENDBRANCH   5   7
ENDBRANCH   2   3
ENDBRANCH   1   2
BRANCH   1  32
ATOM     32  C   UNL A   1      34.658  30.526  27.445  1.00  0.00     0.023 C 
BRANCH  32  33
ATOM     33  C   UNL A   1      35.700  31.163  28.352  1.00  0.00     0.116 C 
BRANCH  33  34
ATOM     34  N   UNL A   1      35.529  30.818  29.754  1.00  0.00    -0.352 N 
ATOM     35  C   UNL A   1      36.463  30.295  30.615  1.00  0.00     0.251 C 
ATOM     36  H   UNL A   1      34.634  30.979  30.132  1.00  0.00     0.163 HD
ATOM     37  O   UNL A   1      36.146  29.959  31.752  1.00  0.00    -0.269 OA
BRANCH  35  38
ATOM     38  C   UNL A   1      37.845  30.098  30.132  1.00  0.00     0.039 A 
ATOM     39  C   UNL A   1      38.881  30.023  31.064  1.00  0.00     0.014 A 
ATOM     40  C   UNL A   1      38.102  29.924  28.768  1.00  0.00     0.014 A 
ATOM     41  C   UNL A   1      40.171  29.707  30.635  1.00  0.00     0.010 A 
ATOM     42  C   UNL A   1      39.374  29.542  28.352  1.00  0.00     0.010 A 
ATOM     43  C   UNL A   1      40.420  29.428  29.280  1.00  0.00    -0.014 A 
BRANCH  43  44
ATOM     44  C   UNL A   1      41.769  29.013  28.818  1.00  0.00     0.031 A 
ATOM     45  C   UNL A   1      42.885  30.018  28.750  1.00  0.00     0.074 A 
ATOM     46  C   UNL A   1      41.970  27.746  28.403  1.00  0.00     0.049 A 
ATOM     47  N   UNL A   1      44.113  29.858  28.330  1.00  0.00    -0.248 NA
ATOM     48  C   UNL A   1      42.572  31.389  29.186  1.00  0.00     0.031 C 
ATOM     49  C   UNL A   1      40.951  26.693  28.375  1.00  0.00     0.029 A 
ATOM     50  N   UNL A   1      43.097  27.128  27.922  1.00  0.00    -0.354 N 
ATOM     51  C   UNL A   1      44.712  31.108  28.431  1.00  0.00     0.074 A 
ATOM     52  C   UNL A   1      43.702  32.025  28.910  1.00  0.00     0.031 C 
ATOM     53  C   UNL A   1      41.508  25.554  27.932  1.00  0.00     0.029 A 
ATOM     54  C   UNL A   1      42.912  25.802  27.612  1.00  0.00     0.049 A 
ATOM     55  H   UNL A   1      43.958  27.592  27.811  1.00  0.00     0.167 HD
ATOM     56  C   UNL A   1      45.995  31.454  28.169  1.00  0.00     0.037 A 
ATOM     57  C   UNL A   1      43.774  24.888  27.125  1.00  0.00     0.037 A 
ATOM     58  C   UNL A   1      47.005  30.528  27.729  1.00  0.00     0.049 A 
ATOM     59  C   UNL A   1      45.198  25.292  26.860  1.00  0.00     0.074 A 
ATOM     60  C   UNL A   1      48.351  30.765  27.511  1.00  0.00     0.029 A 
ATOM     61  N   UNL A   1      46.782  29.190  27.440  1.00  0.00    -0.354 N 
ATOM     62  N   UNL A   1      45.765  26.464  27.023  1.00  0.00    -0.248 NA
ATOM     63  C   UNL A   1      46.102  24.252  26.349  1.00  0.00     0.031 C 
ATOM     64  C   UNL A   1      48.933  29.580  27.049  1.00  0.00     0.029 A 
ATOM     65  C   UNL A   1      47.961  28.593  27.026  1.00  0.00     0.049 A 
ATOM     66  H   UNL A   1      45.914  28.732  27.519  1.00  0.00     0.167 HD
ATOM     67  C   UNL A   1      47.098  26.295  26.660  1.00  0.00     0.074 A 
ATOM     68  C   UNL A   1      47.252  24.906  26.277  1.00  0.00     0.031 C 
ATOM     69  C   UNL A   1      48.100  27.208  26.650  1.00  0.00     0.037 A 
BRANCH  56  70
ATOM     70  C   UNL A   1      46.382  32.895  28.353  1.00  0.00     0.058 A 
ATOM     71  C   UNL A   1      46.921  33.366  29.561  1.00  0.00     0.135 A 
ATOM     72  C   UNL A   1      46.253  33.808  27.294  1.00  0.00     0.135 A 
ATOM     73  F   UNL A   1      47.050  32.539  30.612  1.00  0.00    -0.206 F 
ATOM     74  C   UNL A   1      47.298  34.695  29.721  1.00  0.00     0.059 A 
ATOM     75  C   UNL A   1      46.650  35.137  27.422  1.00  0.00     0.059 A 
ATOM     76  F   UNL A   1      45.742  33.412  26.119  1.00  0.00    -0.206 F 
ATOM     77  C   UNL A   1      47.161  35.573  28.644  1.00  0.00     0.060 A 
BRANCH  77  78
ATOM     78  S   UNL A   1      47.674  37.290  28.861  1.00  0.00     0.124 S 
ATOM     79  O   UNL A   1      48.897  37.132  29.642  1.00  0.00    -0.237 OA
ATOM     80  O   UNL A   1      47.856  37.737  27.483  1.00  0.00    -0.237 OA
ATOM     81  O   UNL A   1      46.550  37.895  29.569  1.00  0.00    -0.744 OA
ENDBRANCH  77  78
ENDBRANCH  56  70
BRANCH  57  82
ATOM     82  C   UNL A   1      43.321  23.490  26.900  1.00  0.00     0.058 A 
ATOM     83  C   UNL A   1      43.069  23.017  25.603  1.00  0.00     0.135 A 
ATOM     84  C   UNL A   1      43.163  22.591  27.965  1.00  0.00     0.135 A 
ATOM     85  F   UNL A   1      43.199  23.842  24.553  1.00  0.00    -0.206 F 
ATOM     86  C   UNL A   1      42.671  21.705  25.370  1.00  0.00     0.059 A 
ATOM     87  C   UNL A   1      42.787  21.268  27.756  1.00  0.00     0.059 A 
ATOM     88  F   UNL A   1      43.406  22.990  29.223  1.00  0.00    -0.206 F 
ATOM     89  C   UNL A   1      42.539  20.835  26.453  1.00  0.00     0.060 A 
BRANCH  89  90
ATOM     90  S   UNL A   1      42.092  19.114  26.132  1.00  0.00     0.124 S 
ATOM     91  O   UNL A   1      40.659  19.224  25.886  1.00  0.00    -0.237 OA
ATOM     92  O   UNL A   1      42.917  18.796  24.971  1.00  0.00    -0.237 OA
ATOM     93  O   UNL A   1      42.472  18.434  27.367  1.00  0.00    -0.744 OA
ENDBRANCH  89  90
ENDBRANCH  57  82
BRANCH  69  94
ATOM     94  C   UNL A   1      49.466  26.732  26.239  1.00  0.00     0.058 A 
ATOM     95  C   UNL A   1      49.931  26.880  24.923  1.00  0.00     0.135 A 
ATOM     96  C   UNL A   1      50.340  26.179  27.188  1.00  0.00     0.135 A 
ATOM     97  F   UNL A   1      49.133  27.397  23.977  1.00  0.00    -0.206 F 
ATOM     98  C   UNL A   1      51.212  26.474  24.557  1.00  0.00     0.059 A 
ATOM     99  C   UNL A   1      51.633  25.791  26.851  1.00  0.00     0.059 A 
ATOM    100  F   UNL A   1      49.947  26.027  28.463  1.00  0.00    -0.206 F 
ATOM    101  C   UNL A   1      52.056  25.933  25.530  1.00  0.00     0.060 A 
BRANCH 101 102
ATOM    102  S   UNL A   1      53.726  25.446  25.052  1.00  0.00     0.124 S 
ATOM    103  O   UNL A   1      54.528  26.083  26.092  1.00  0.00    -0.237 OA
ATOM    104  O   UNL A   1      53.657  23.988  25.108  1.00  0.00    -0.237 OA
ATOM    105  O   UNL A   1      53.875  26.008  23.713  1.00  0.00    -0.744 OA
ENDBRANCH 101 102
ENDBRANCH  69  94
ENDBRANCH  43  44
ENDBRANCH  35  38
ENDBRANCH  33  34
ENDBRANCH  32  33
ENDBRANCH   1  32
TORSDOF 19
ENDMDL
MODEL 2
REMARK VINA RESULT:     -12.6      6.315     12.206
REMARK SMILES O=C(C[C@]1(C(=O)NC2CCCCC2)CC(c2ccc([N+](=O)[O-])cc2)=NO1)NCCCCNC(=O)c1ccc(-c2c3nc(c(-c4c(F)cc(S(=O)(=O)[O-])cc4F)c4ccc([nH]4)c(-c4c(F)cc(S(=O)(=O)[O-])cc4F)c4nc(c(-c5c(F)cc(S(=O)(=O)[O-])cc5F)c5ccc2[nH]5)C=C4)C=C3)cc1
REMARK SMILES IDX 29 1 28 2 27 3 1 4 2 5 3 7 4 8 14 9 26 10 15 11 25 12 5 13
REMARK SMILES IDX 6 14 7 15 8 17 9 18 13 19 10 20 12 21 11 22 16 23 17 24
REMARK SMILES IDX 24 25 18 26 23 27 19 28 20 29 21 30 22 31 30 32 31 33 32 34
REMARK SMILES IDX 33 35 34 37 35 38 36 39 100 40 37 41 99 42 38 43 39 44 40 45
REMARK SMILES IDX 93 46 41 47 98 48 92 49 94 50 42 51 97 52 91 53 90 54 43 56
REMARK SMILES IDX 77 57 56 58 76 59 57 60 60 61 75 62 95 63 58 64 59 65 74 67
REMARK SMILES IDX 96 68 61 69 44 70 45 71 54 72 46 73 47 74 53 75 55 76 48 77
REMARK SMILES IDX 49 78 50 79 51 80 52 81 78 82 79 83 88 84 80 85 81 86 87 87
REMARK SMILES IDX 89 88 82 89 83 90 84 91 85 92 86 93 62 94 63 95 72 96 64 97
REMARK SMILES IDX 65 98 71 99 73 100 66 101 67 102 68 103 69 104 70 105
REMARK H PARENT 27 6 7 16 32 36 94 55 60 66
REMARK Flexibility Score: inf
ROOT
ATOM      1  C   UNL A   1      38.159  21.908  25.897  1.00  0.00     0.023 C 
ENDROOT
BRANCH   1   2
ATOM      2  C   UNL A   1      37.349  23.208  25.923  1.00  0.00     0.116 C 
BRANCH   2   3
ATOM      3  N   UNL A   1      35.949  23.007  26.229  1.00  0.00    -0.356 N 
ATOM      4  O   UNL A   1      35.298  25.067  25.479  1.00  0.00    -0.275 OA
ATOM      5  C   UNL A   1      35.017  23.978  25.970  1.00  0.00     0.224 C 
ATOM      6  H   UNL A   1      35.659  22.157  26.630  1.00  0.00     0.163 HD
BRANCH   5   7
ATOM      7  C   UNL A   1      33.607  23.629  26.366  1.00  0.00     0.162 C 
BRANCH   7   8
ATOM      8  C   UNL A   1      32.756  23.125  25.200  1.00  0.00     0.229 C 
ATOM      9  C   UNL A   1      32.264  21.690  25.347  1.00  0.00     0.123 C 
ATOM     10  O   UNL A   1      33.705  23.020  24.086  1.00  0.00    -0.378 OA
ATOM     11  C   UNL A   1      33.407  20.972  24.729  1.00  0.00     0.092 C 
ATOM     12  N   UNL A   1      34.213  21.700  24.036  1.00  0.00    -0.089 NA
BRANCH   8  13
ATOM     13  C   UNL A   1      31.635  24.042  24.655  1.00  0.00     0.268 C 
ATOM     14  O   UNL A   1      30.745  23.585  23.922  1.00  0.00    -0.270 OA
ATOM     15  N   UNL A   1      31.439  25.344  24.983  1.00  0.00    -0.350 N 
ATOM     16  H   UNL A   1      30.493  25.581  24.855  1.00  0.00     0.163 HD
BRANCH  15  17
ATOM     17  C   UNL A   1      32.187  26.518  25.467  1.00  0.00     0.082 C 
ATOM     18  C   UNL A   1      32.442  27.662  24.492  1.00  0.00     0.025 C 
ATOM     19  C   UNL A   1      31.562  26.968  26.803  1.00  0.00     0.025 C 
ATOM     20  C   UNL A   1      33.043  28.908  25.142  1.00  0.00     0.002 C 
ATOM     21  C   UNL A   1      32.208  28.216  27.391  1.00  0.00     0.002 C 
ATOM     22  C   UNL A   1      32.254  29.343  26.371  1.00  0.00     0.000 C 
ENDBRANCH  15  17
ENDBRANCH   8  13
BRANCH  11  23
ATOM     23  C   UNL A   1      33.542  19.521  24.859  1.00  0.00    -0.000 A 
ATOM     24  C   UNL A   1      34.632  18.859  24.286  1.00  0.00     0.017 A 
ATOM     25  C   UNL A   1      32.549  18.818  25.545  1.00  0.00     0.017 A 
ATOM     26  C   UNL A   1      34.733  17.470  24.409  1.00  0.00     0.086 A 
ATOM     27  C   UNL A   1      32.648  17.431  25.673  1.00  0.00     0.086 A 
ATOM     28  C   UNL A   1      33.740  16.759  25.103  1.00  0.00     0.269 A 
BRANCH  28  29
ATOM     29  N   UNL A   1      33.846  15.299  25.242  1.00  0.00     0.062 N 
ATOM     30  O   UNL A   1      32.796  14.644  25.264  1.00  0.00    -0.258 OA
ATOM     31  O   UNL A   1      34.983  14.809  25.302  1.00  0.00    -0.258 OA
ENDBRANCH  28  29
ENDBRANCH  11  23
ENDBRANCH   7   8
ENDBRANCH   5   7
ENDBRANCH   2   3
ENDBRANCH   1   2
BRANCH   1  32
ATOM     32  C   UNL A   1      39.555  21.997  26.515  1.00  0.00     0.023 C 
BRANCH  32  33
ATOM     33  C   UNL A   1      40.060  23.410  26.769  1.00  0.00     0.116 C 
BRANCH  33  34
ATOM     34  N   UNL A   1      41.269  23.729  26.025  1.00  0.00    -0.352 N 
ATOM     35  C   UNL A   1      42.042  24.861  26.117  1.00  0.00     0.251 C 
ATOM     36  H   UNL A   1      41.568  23.051  25.376  1.00  0.00     0.163 HD
ATOM     37  O   UNL A   1      42.985  25.038  25.351  1.00  0.00    -0.269 OA
BRANCH  35  38
ATOM     38  C   UNL A   1      41.691  25.884  27.123  1.00  0.00     0.039 A 
ATOM     39  C   UNL A   1      40.713  25.586  28.074  1.00  0.00     0.014 A 
ATOM     40  C   UNL A   1      42.373  27.104  27.164  1.00  0.00     0.014 A 
ATOM     41  C   UNL A   1      40.464  26.488  29.110  1.00  0.00     0.010 A 
ATOM     42  C   UNL A   1      42.171  27.970  28.233  1.00  0.00     0.010 A 
ATOM     43  C   UNL A   1      41.216  27.670  29.218  1.00  0.00    -0.014 A 
BRANCH  43  44
ATOM     44  C   UNL A   1      41.019  28.603  30.356  1.00  0.00     0.031 A 
ATOM     45  C   UNL A   1      41.887  28.494  31.579  1.00  0.00     0.074 A 
ATOM     46  C   UNL A   1      40.017  29.505  30.312  1.00  0.00     0.049 A 
ATOM     47  N   UNL A   1      41.836  29.183  32.689  1.00  0.00    -0.248 NA
ATOM     48  C   UNL A   1      42.933  27.458  31.561  1.00  0.00     0.031 C 
ATOM     49  C   UNL A   1      39.076  29.672  29.202  1.00  0.00     0.029 A 
ATOM     50  N   UNL A   1      39.621  30.450  31.226  1.00  0.00    -0.354 N 
ATOM     51  C   UNL A   1      42.825  28.652  33.509  1.00  0.00     0.074 A 
ATOM     52  C   UNL A   1      43.431  27.556  32.785  1.00  0.00     0.031 C 
ATOM     53  C   UNL A   1      38.234  30.678  29.486  1.00  0.00     0.029 A 
ATOM     54  C   UNL A   1      38.551  31.205  30.811  1.00  0.00     0.049 A 
ATOM     55  H   UNL A   1      40.063  30.573  32.097  1.00  0.00     0.167 HD
ATOM     56  C   UNL A   1      43.207  29.057  34.743  1.00  0.00     0.037 A 
ATOM     57  C   UNL A   1      37.897  32.210  31.427  1.00  0.00     0.037 A 
ATOM     58  C   UNL A   1      42.626  30.173  35.440  1.00  0.00     0.049 A 
ATOM     59  C   UNL A   1      38.353  32.654  32.790  1.00  0.00     0.074 A 
ATOM     60  C   UNL A   1      42.996  30.710  36.661  1.00  0.00     0.029 A 
ATOM     61  N   UNL A   1      41.553  30.924  34.981  1.00  0.00    -0.354 N 
ATOM     62  N   UNL A   1      39.333  32.182  33.524  1.00  0.00    -0.248 NA
ATOM     63  C   UNL A   1      37.619  33.767  33.408  1.00  0.00     0.031 C 
ATOM     64  C   UNL A   1      42.119  31.759  36.960  1.00  0.00     0.029 A 
ATOM     65  C   UNL A   1      41.234  31.906  35.904  1.00  0.00     0.049 A 
ATOM     66  H   UNL A   1      41.088  30.780  34.125  1.00  0.00     0.167 HD
ATOM     67  C   UNL A   1      39.351  32.959  34.678  1.00  0.00     0.074 A 
ATOM     68  C   UNL A   1      38.288  33.934  34.541  1.00  0.00     0.031 C 
ATOM     69  C   UNL A   1      40.175  32.873  35.751  1.00  0.00     0.037 A 
BRANCH  56  70
ATOM     70  C   UNL A   1      44.310  28.290  35.419  1.00  0.00     0.058 A 
ATOM     71  C   UNL A   1      45.657  28.664  35.288  1.00  0.00     0.135 A 
ATOM     72  C   UNL A   1      44.012  27.194  36.246  1.00  0.00     0.135 A 
ATOM     73  F   UNL A   1      45.999  29.694  34.497  1.00  0.00    -0.206 F 
ATOM     74  C   UNL A   1      46.672  27.966  35.933  1.00  0.00     0.059 A 
ATOM     75  C   UNL A   1      45.010  26.498  36.923  1.00  0.00     0.059 A 
ATOM     76  F   UNL A   1      42.742  26.793  36.404  1.00  0.00    -0.206 F 
ATOM     77  C   UNL A   1      46.338  26.884  36.751  1.00  0.00     0.060 A 
BRANCH  77  78
ATOM     78  S   UNL A   1      47.665  26.001  37.598  1.00  0.00     0.124 S 
ATOM     79  O   UNL A   1      47.042  24.705  37.843  1.00  0.00    -0.237 OA
ATOM     80  O   UNL A   1      48.733  26.012  36.601  1.00  0.00    -0.237 OA
ATOM     81  O   UNL A   1      47.912  26.814  38.785  1.00  0.00    -0.744 OA
ENDBRANCH  77  78
ENDBRANCH  56  70
BRANCH  57  82
ATOM     82  C   UNL A   1      36.770  32.892  30.738  1.00  0.00     0.058 A 
ATOM     83  C   UNL A   1      35.440  32.599  31.075  1.00  0.00     0.135 A 
ATOM     84  C   UNL A   1      36.996  33.869  29.757  1.00  0.00     0.135 A 
ATOM     85  F   UNL A   1      35.174  31.667  32.003  1.00  0.00    -0.206 F 
ATOM     86  C   UNL A   1      34.373  33.248  30.462  1.00  0.00     0.059 A 
ATOM     87  C   UNL A   1      35.946  34.546  29.144  1.00  0.00     0.059 A 
ATOM     88  F   UNL A   1      38.250  34.195  29.408  1.00  0.00    -0.206 F 
ATOM     89  C   UNL A   1      34.636  34.224  29.500  1.00  0.00     0.060 A 
BRANCH  89  90
ATOM     90  S   UNL A   1      33.245  35.109  28.762  1.00  0.00     0.124 S 
ATOM     91  O   UNL A   1      33.928  36.170  28.029  1.00  0.00    -0.237 OA
ATOM     92  O   UNL A   1      32.618  34.072  27.950  1.00  0.00    -0.237 OA
ATOM     93  O   UNL A   1      32.470  35.541  29.922  1.00  0.00    -0.744 OA
ENDBRANCH  89  90
ENDBRANCH  57  82
BRANCH  69  94
ATOM     94  C   UNL A   1      39.985  33.876  36.854  1.00  0.00     0.058 A 
ATOM     95  C   UNL A   1      40.618  35.128  36.828  1.00  0.00     0.135 A 
ATOM     96  C   UNL A   1      39.111  33.602  37.918  1.00  0.00     0.135 A 
ATOM     97  F   UNL A   1      41.467  35.436  35.836  1.00  0.00    -0.206 F 
ATOM     98  C   UNL A   1      40.406  36.069  37.832  1.00  0.00     0.059 A 
ATOM     99  C   UNL A   1      38.864  34.537  38.918  1.00  0.00     0.059 A 
ATOM    100  F   UNL A   1      38.472  32.423  37.984  1.00  0.00    -0.206 F 
ATOM    101  C   UNL A   1      39.525  35.764  38.872  1.00  0.00     0.060 A 
BRANCH 101 102
ATOM    102  S   UNL A   1      39.230  37.006  40.148  1.00  0.00     0.124 S 
ATOM    103  O   UNL A   1      38.419  36.259  41.104  1.00  0.00    -0.237 OA
ATOM    104  O   UNL A   1      40.583  37.335  40.585  1.00  0.00    -0.237 OA
ATOM    105  O   UNL A   1      38.534  38.071  39.432  1.00  0.00    -0.744 OA
ENDBRANCH 101 102
ENDBRANCH  69  94
ENDBRANCH  43  44
ENDBRANCH  35  38
ENDBRANCH  33  34
ENDBRANCH  32  33
ENDBRANCH   1  32
TORSDOF 19
ENDMDL
MODEL 3
REMARK VINA RESULT:     -12.6      2.699      9.354
REMARK SMILES O=C(C[C@]1(C(=O)NC2CCCCC2)CC(c2ccc([N+](=O)[O-])cc2)=NO1)NCCCCNC(=O)c1ccc(-c2c3nc(c(-c4c(F)cc(S(=O)(=O)[O-])cc4F)c4ccc([nH]4)c(-c4c(F)cc(S(=O)(=O)[O-])cc4F)c4nc(c(-c5c(F)cc(S(=O)(=O)[O-])cc5F)c5ccc2[nH]5)C=C4)C=C3)cc1
REMARK SMILES IDX 29 1 28 2 27 3 1 4 2 5 3 7 4 8 14 9 26 10 15 11 25 12 5 13
REMARK SMILES IDX 6 14 7 15 8 17 9 18 13 19 10 20 12 21 11 22 16 23 17 24
REMARK SMILES IDX 24 25 18 26 23 27 19 28 20 29 21 30 22 31 30 32 31 33 32 34
REMARK SMILES IDX 33 35 34 37 35 38 36 39 100 40 37 41 99 42 38 43 39 44 40 45
REMARK SMILES IDX 93 46 41 47 98 48 92 49 94 50 42 51 97 52 91 53 90 54 43 56
REMARK SMILES IDX 77 57 56 58 76 59 57 60 60 61 75 62 95 63 58 64 59 65 74 67
REMARK SMILES IDX 96 68 61 69 44 70 45 71 54 72 46 73 47 74 53 75 55 76 48 77
REMARK SMILES IDX 49 78 50 79 51 80 52 81 78 82 79 83 88 84 80 85 81 86 87 87
REMARK SMILES IDX 89 88 82 89 83 90 84 91 85 92 86 93 62 94 63 95 72 96 64 97
REMARK SMILES IDX 65 98 71 99 73 100 66 101 67 102 68 103 69 104 70 105
REMARK H PARENT 27 6 7 16 32 36 94 55 60 66
REMARK Flexibility Score: inf
ROOT
ATOM      1  C   UNL A   1      36.929  21.889  25.676  1.00  0.00     0.023 C 
ENDROOT
BRANCH   1   2
ATOM      2  C   UNL A   1      36.999  23.260  24.996  1.00  0.00     0.116 C 
BRANCH   2   3
ATOM      3  N   UNL A   1      35.765  24.010  25.084  1.00  0.00    -0.356 N 
ATOM      4  O   UNL A   1      35.109  23.542  22.944  1.00  0.00    -0.275 OA
ATOM      5  C   UNL A   1      34.900  24.086  24.024  1.00  0.00     0.224 C 
ATOM      6  H   UNL A   1      35.541  24.475  25.922  1.00  0.00     0.163 HD
BRANCH   5   7
ATOM      7  C   UNL A   1      33.671  24.922  24.264  1.00  0.00     0.162 C 
BRANCH   7   8
ATOM      8  C   UNL A   1      32.588  24.196  25.062  1.00  0.00     0.229 C 
ATOM      9  C   UNL A   1      32.961  22.784  25.498  1.00  0.00     0.123 C 
ATOM     10  O   UNL A   1      31.526  23.952  24.080  1.00  0.00    -0.378 OA
ATOM     11  C   UNL A   1      32.492  22.027  24.311  1.00  0.00     0.092 C 
ATOM     12  N   UNL A   1      31.705  22.665  23.517  1.00  0.00    -0.089 NA
BRANCH   8  13
ATOM     13  C   UNL A   1      31.877  24.960  26.205  1.00  0.00     0.268 C 
ATOM     14  O   UNL A   1      31.385  24.347  27.164  1.00  0.00    -0.270 OA
ATOM     15  N   UNL A   1      31.810  26.308  26.343  1.00  0.00    -0.350 N 
ATOM     16  H   UNL A   1      31.688  26.540  27.291  1.00  0.00     0.163 HD
BRANCH  15  17
ATOM     17  C   UNL A   1      31.860  27.537  25.530  1.00  0.00     0.082 C 
ATOM     18  C   UNL A   1      30.874  27.677  24.376  1.00  0.00     0.025 C 
ATOM     19  C   UNL A   1      31.872  28.746  26.488  1.00  0.00     0.025 C 
ATOM     20  C   UNL A   1      30.872  29.062  23.728  1.00  0.00     0.002 C 
ATOM     21  C   UNL A   1      31.866  30.091  25.774  1.00  0.00     0.002 C 
ATOM     22  C   UNL A   1      30.733  30.171  24.763  1.00  0.00     0.000 C 
ENDBRANCH  15  17
ENDBRANCH   8  13
BRANCH  11  23
ATOM     23  C   UNL A   1      32.864  20.624  24.120  1.00  0.00    -0.000 A 
ATOM     24  C   UNL A   1      32.115  19.805  23.271  1.00  0.00     0.017 A 
ATOM     25  C   UNL A   1      33.964  20.124  24.822  1.00  0.00     0.017 A 
ATOM     26  C   UNL A   1      32.479  18.463  23.115  1.00  0.00     0.086 A 
ATOM     27  C   UNL A   1      34.332  18.786  24.667  1.00  0.00     0.086 A 
ATOM     28  C   UNL A   1      33.587  17.958  23.814  1.00  0.00     0.269 A 
BRANCH  28  29
ATOM     29  N   UNL A   1      33.977  16.550  23.648  1.00  0.00     0.062 N 
ATOM     30  O   UNL A   1      34.282  16.165  22.511  1.00  0.00    -0.258 OA
ATOM     31  O   UNL A   1      34.002  15.837  24.662  1.00  0.00    -0.258 OA
ENDBRANCH  28  29
ENDBRANCH  11  23
ENDBRANCH   7   8
ENDBRANCH   5   7
ENDBRANCH   2   3
ENDBRANCH   1   2
BRANCH   1  32
ATOM     32  C   UNL A   1      38.069  20.930  25.328  1.00  0.00     0.023 C 
BRANCH  32  33
ATOM     33  C   UNL A   1      39.236  20.934  26.303  1.00  0.00     0.116 C 
BRANCH  33  34
ATOM     34  N   UNL A   1      40.140  19.809  26.120  1.00  0.00    -0.352 N 
ATOM     35  C   UNL A   1      41.514  19.823  26.112  1.00  0.00     0.251 C 
ATOM     36  H   UNL A   1      39.715  18.931  25.986  1.00  0.00     0.163 HD
ATOM     37  O   UNL A   1      42.148  18.807  25.846  1.00  0.00    -0.269 OA
BRANCH  35  38
ATOM     38  C   UNL A   1      42.215  21.096  26.382  1.00  0.00     0.039 A 
ATOM     39  C   UNL A   1      42.492  21.952  25.315  1.00  0.00     0.014 A 
ATOM     40  C   UNL A   1      42.535  21.466  27.692  1.00  0.00     0.014 A 
ATOM     41  C   UNL A   1      43.033  23.214  25.569  1.00  0.00     0.010 A 
ATOM     42  C   UNL A   1      43.011  22.748  27.947  1.00  0.00     0.010 A 
ATOM     43  C   UNL A   1      43.263  23.635  26.890  1.00  0.00    -0.014 A 
BRANCH  43  44
ATOM     44  C   UNL A   1      43.763  25.002  27.181  1.00  0.00     0.031 A 
ATOM     45  C   UNL A   1      45.208  25.343  26.944  1.00  0.00     0.074 A 
ATOM     46  C   UNL A   1      42.930  25.916  27.718  1.00  0.00     0.049 A 
ATOM     47  N   UNL A   1      45.841  26.462  27.181  1.00  0.00    -0.248 NA
ATOM     48  C   UNL A   1      46.060  24.277  26.390  1.00  0.00     0.031 C 
ATOM     49  C   UNL A   1      41.519  25.689  28.041  1.00  0.00     0.029 A 
ATOM     50  N   UNL A   1      43.147  27.220  28.090  1.00  0.00    -0.354 N 
ATOM     51  C   UNL A   1      47.165  26.230  26.828  1.00  0.00     0.074 A 
ATOM     52  C   UNL A   1      47.254  24.852  26.401  1.00  0.00     0.031 C 
ATOM     53  C   UNL A   1      40.992  26.822  28.533  1.00  0.00     0.029 A 
ATOM     54  C   UNL A   1      42.032  27.845  28.593  1.00  0.00     0.049 A 
ATOM     55  H   UNL A   1      44.022  27.664  28.004  1.00  0.00     0.167 HD
ATOM     56  C   UNL A   1      48.206  27.096  26.838  1.00  0.00     0.037 A 
ATOM     57  C   UNL A   1      41.864  29.102  29.050  1.00  0.00     0.037 A 
ATOM     58  C   UNL A   1      48.101  28.477  27.227  1.00  0.00     0.049 A 
ATOM     59  C   UNL A   1      43.031  30.050  29.032  1.00  0.00     0.074 A 
ATOM     60  C   UNL A   1      49.081  29.455  27.198  1.00  0.00     0.029 A 
ATOM     61  N   UNL A   1      46.950  29.079  27.716  1.00  0.00    -0.354 N 
ATOM     62  N   UNL A   1      44.262  29.832  28.634  1.00  0.00    -0.248 NA
ATOM     63  C   UNL A   1      42.789  31.414  29.523  1.00  0.00     0.031 C 
ATOM     64  C   UNL A   1      48.534  30.636  27.709  1.00  0.00     0.029 A 
ATOM     65  C   UNL A   1      47.201  30.409  28.012  1.00  0.00     0.049 A 
ATOM     66  H   UNL A   1      46.084  28.627  27.835  1.00  0.00     0.167 HD
ATOM     67  C   UNL A   1      44.934  31.039  28.799  1.00  0.00     0.074 A 
ATOM     68  C   UNL A   1      43.970  31.984  29.328  1.00  0.00     0.031 C 
ATOM     69  C   UNL A   1      46.230  31.337  28.534  1.00  0.00     0.037 A 
BRANCH  56  70
ATOM     70  C   UNL A   1      49.551  26.576  26.412  1.00  0.00     0.058 A 
ATOM     71  C   UNL A   1      50.027  26.745  25.102  1.00  0.00     0.135 A 
ATOM     72  C   UNL A   1      50.394  25.940  27.337  1.00  0.00     0.135 A 
ATOM     73  F   UNL A   1      49.255  27.332  24.172  1.00  0.00    -0.206 F 
ATOM     74  C   UNL A   1      51.280  26.282  24.718  1.00  0.00     0.059 A 
ATOM     75  C   UNL A   1      51.664  25.493  26.982  1.00  0.00     0.059 A 
ATOM     76  F   UNL A   1      49.988  25.750  28.602  1.00  0.00    -0.206 F 
ATOM     77  C   UNL A   1      52.094  25.659  25.666  1.00  0.00     0.060 A 
BRANCH  77  78
ATOM     78  S   UNL A   1      53.726  25.082  25.156  1.00  0.00     0.124 S 
ATOM     79  O   UNL A   1      53.565  23.634  25.250  1.00  0.00    -0.237 OA
ATOM     80  O   UNL A   1      53.839  25.620  23.804  1.00  0.00    -0.237 OA
ATOM     81  O   UNL A   1      54.621  25.679  26.142  1.00  0.00    -0.744 OA
ENDBRANCH  77  78
ENDBRANCH  56  70
BRANCH  57  82
ATOM     82  C   UNL A   1      40.525  29.545  29.520  1.00  0.00     0.058 A 
ATOM     83  C   UNL A   1      40.280  29.763  30.885  1.00  0.00     0.135 A 
ATOM     84  C   UNL A   1      39.477  29.792  28.620  1.00  0.00     0.135 A 
ATOM     85  F   UNL A   1      41.249  29.534  31.784  1.00  0.00    -0.206 F 
ATOM     86  C   UNL A   1      39.043  30.205  31.341  1.00  0.00     0.059 A 
ATOM     87  C   UNL A   1      38.238  30.254  29.050  1.00  0.00     0.059 A 
ATOM     88  F   UNL A   1      39.666  29.612  27.304  1.00  0.00    -0.206 F 
ATOM     89  C   UNL A   1      38.028  30.454  30.415  1.00  0.00     0.060 A 
BRANCH  89  90
ATOM     90  S   UNL A   1      36.449  31.096  31.013  1.00  0.00     0.124 S 
ATOM     91  O   UNL A   1      36.874  32.283  31.747  1.00  0.00    -0.237 OA
ATOM     92  O   UNL A   1      35.727  31.339  29.768  1.00  0.00    -0.237 OA
ATOM     93  O   UNL A   1      35.929  30.001  31.827  1.00  0.00    -0.744 OA
ENDBRANCH  89  90
ENDBRANCH  57  82
BRANCH  69  94
ATOM     94  C   UNL A   1      46.681  32.749  28.782  1.00  0.00     0.058 A 
ATOM     95  C   UNL A   1      47.268  33.132  29.998  1.00  0.00     0.135 A 
ATOM     96  C   UNL A   1      46.580  33.715  27.768  1.00  0.00     0.135 A 
ATOM     97  F   UNL A   1      47.382  32.249  31.002  1.00  0.00    -0.206 F 
ATOM     98  C   UNL A   1      47.721  34.432  30.207  1.00  0.00     0.059 A 
ATOM     99  C   UNL A   1      47.050  35.012  27.945  1.00  0.00     0.059 A 
ATOM    100  F   UNL A   1      46.037  33.396  26.582  1.00  0.00    -0.206 F 
ATOM    101  C   UNL A   1      47.609  35.364  29.173  1.00  0.00     0.060 A 
BRANCH 101 102
ATOM    102  S   UNL A   1      48.234  37.036  29.443  1.00  0.00     0.124 S 
ATOM    103  O   UNL A   1      47.708  37.335  30.771  1.00  0.00    -0.237 OA
ATOM    104  O   UNL A   1      49.680  36.848  29.361  1.00  0.00    -0.237 OA
ATOM    105  O   UNL A   1      47.645  37.800  28.348  1.00  0.00    -0.744 OA
ENDBRANCH 101 102
ENDBRANCH  69  94
ENDBRANCH  43  44
ENDBRANCH  35  38
ENDBRANCH  33  34
ENDBRANCH  32  33
ENDBRANCH   1  32
TORSDOF 19
ENDMDL
