MODEL 1
REMARK VINA RESULT:     -10.5      0.000      0.000
REMARK SMILES CCC[C@H](C)C[N@H+]1[C@@H]2CC[C@H]1C[C@H](CC(=O)NCCCCNC(=O)c1ccc(-c3c4nc(c(-c5c(F)cc(S(=O)(=O)[O-])cc5F)c5ccc([nH]5)c(-c5c(F)cc(S(=O)(=O)[O-])cc5F)c5nc(c(-c6c(F)cc(S(=O)(=O)[O-])cc6F)c6ccc3[nH]6)C=C5)C=C4)cc1)C2
REMARK SMILES IDX 18 1 17 2 15 3 16 4 14 6 13 7 7 8 8 9 11 10 9 12 91 13 10 14
REMARK SMILES IDX 12 15 6 16 4 17 5 18 3 19 2 20 1 21 19 22 20 23 21 24 22 25
REMARK SMILES IDX 23 26 24 28 25 29 26 30 90 31 27 32 89 33 28 34 29 35 30 36
REMARK SMILES IDX 83 37 31 38 88 39 82 40 84 41 32 42 87 43 81 44 80 45 33 47
REMARK SMILES IDX 67 48 46 49 66 50 47 51 50 52 65 53 85 54 48 55 49 56 64 58
REMARK SMILES IDX 86 59 51 60 34 61 35 62 44 63 36 64 37 65 43 66 45 67 38 68
REMARK SMILES IDX 39 69 40 70 41 71 42 72 68 73 69 74 78 75 70 76 71 77 77 78
REMARK SMILES IDX 79 79 72 80 73 81 74 82 75 83 76 84 52 85 53 86 62 87 54 88
REMARK SMILES IDX 55 89 61 90 63 91 56 92 57 93 58 94 59 95 60 96
REMARK H PARENT 17 5 7 11 22 27 84 46 50 57
REMARK Flexibility Score: inf
ROOT
ATOM      1  C   UNL A   1      34.213  23.777  22.997  1.00  0.00     0.116 C 
ENDROOT
BRANCH   1   2
ATOM      2  N   UNL A   1      33.056  23.318  23.751  1.00  0.00    -0.356 N 
ATOM      3  C   UNL A   1      31.826  23.883  23.918  1.00  0.00     0.220 C 
ATOM      4  O   UNL A   1      31.037  23.350  24.700  1.00  0.00    -0.275 OA
ATOM      5  H   UNL A   1      33.183  22.460  24.216  1.00  0.00     0.163 HD
BRANCH   3   6
ATOM      6  C   UNL A   1      31.423  25.126  23.146  1.00  0.00     0.104 C 
BRANCH   6   7
ATOM      7  C   UNL A   1      31.900  26.455  23.772  1.00  0.00     0.010 C 
ATOM      8  N   UNL A   1      31.032  29.289  23.328  1.00  0.00    -0.330 N 
ATOM      9  C   UNL A   1      30.860  28.653  24.641  1.00  0.00     0.184 C 
ATOM     10  C   UNL A   1      32.402  28.896  22.966  1.00  0.00     0.184 C 
ATOM     11  H   UNL A   1      30.876  30.294  23.401  1.00  0.00     0.348 HD
ATOM     12  C   UNL A   1      32.162  29.072  25.347  1.00  0.00     0.071 C 
ATOM     13  C   UNL A   1      30.740  27.124  24.536  1.00  0.00     0.069 C 
ATOM     14  C   UNL A   1      33.171  29.287  24.222  1.00  0.00     0.071 C 
ATOM     15  C   UNL A   1      32.516  27.387  22.716  1.00  0.00     0.069 C 
BRANCH   8  16
ATOM     16  C   UNL A   1      30.039  29.014  22.282  1.00  0.00     0.265 C 
BRANCH  16  17
ATOM     17  C   UNL A   1      28.709  29.795  22.386  1.00  0.00     0.041 C 
ATOM     18  C   UNL A   1      27.591  28.911  22.954  1.00  0.00     0.013 C 
BRANCH  17  19
ATOM     19  C   UNL A   1      28.809  31.082  23.247  1.00  0.00     0.009 C 
BRANCH  19  20
ATOM     20  C   UNL A   1      28.581  32.433  22.559  1.00  0.00    -0.003 C 
ATOM     21  C   UNL A   1      28.097  32.344  21.122  1.00  0.00     0.004 C 
ENDBRANCH  19  20
ENDBRANCH  17  19
ENDBRANCH  16  17
ENDBRANCH   8  16
ENDBRANCH   6   7
ENDBRANCH   3   6
ENDBRANCH   1   2
BRANCH   1  22
ATOM     22  C   UNL A   1      35.443  22.919  23.301  1.00  0.00     0.023 C 
BRANCH  22  23
ATOM     23  C   UNL A   1      35.761  22.727  24.772  1.00  0.00     0.023 C 
BRANCH  23  24
ATOM     24  C   UNL A   1      36.998  23.473  25.225  1.00  0.00     0.116 C 
BRANCH  24  25
ATOM     25  N   UNL A   1      38.148  22.607  25.463  1.00  0.00    -0.352 N 
ATOM     26  C   UNL A   1      39.299  22.906  26.165  1.00  0.00     0.251 C 
ATOM     27  H   UNL A   1      38.098  21.702  25.079  1.00  0.00     0.163 HD
ATOM     28  O   UNL A   1      40.226  22.117  26.228  1.00  0.00    -0.269 OA
BRANCH  26  29
ATOM     29  C   UNL A   1      39.387  24.241  26.791  1.00  0.00     0.039 A 
ATOM     30  C   UNL A   1      38.901  24.418  28.088  1.00  0.00     0.014 A 
ATOM     31  C   UNL A   1      40.105  25.252  26.149  1.00  0.00     0.014 A 
ATOM     32  C   UNL A   1      39.225  25.584  28.782  1.00  0.00     0.010 A 
ATOM     33  C   UNL A   1      40.515  26.355  26.879  1.00  0.00     0.010 A 
ATOM     34  C   UNL A   1      40.081  26.534  28.203  1.00  0.00    -0.014 A 
BRANCH  34  35
ATOM     35  C   UNL A   1      40.529  27.748  28.931  1.00  0.00     0.031 A 
ATOM     36  C   UNL A   1      41.875  27.734  29.602  1.00  0.00     0.074 A 
ATOM     37  C   UNL A   1      39.698  28.797  29.088  1.00  0.00     0.049 A 
ATOM     38  N   UNL A   1      42.386  28.583  30.453  1.00  0.00    -0.248 NA
ATOM     39  C   UNL A   1      42.741  26.575  29.317  1.00  0.00     0.031 C 
ATOM     40  C   UNL A   1      38.346  28.907  28.535  1.00  0.00     0.029 A 
ATOM     41  N   UNL A   1      39.863  29.968  29.784  1.00  0.00    -0.354 N 
ATOM     42  C   UNL A   1      43.603  28.038  30.840  1.00  0.00     0.074 A 
ATOM     43  C   UNL A   1      43.734  26.762  30.172  1.00  0.00     0.031 C 
ATOM     44  C   UNL A   1      37.816  30.088  28.893  1.00  0.00     0.029 A 
ATOM     45  C   UNL A   1      38.770  30.801  29.736  1.00  0.00     0.049 A 
ATOM     46  H   UNL A   1      40.688  30.192  30.272  1.00  0.00     0.167 HD
ATOM     47  C   UNL A   1      44.543  28.566  31.658  1.00  0.00     0.037 A 
ATOM     48  C   UNL A   1      38.559  32.000  30.315  1.00  0.00     0.037 A 
ATOM     49  C   UNL A   1      44.438  29.867  32.260  1.00  0.00     0.049 A 
ATOM     50  C   UNL A   1      39.645  32.598  31.169  1.00  0.00     0.074 A 
ATOM     51  C   UNL A   1      45.361  30.529  33.048  1.00  0.00     0.029 A 
ATOM     52  N   UNL A   1      43.347  30.712  32.120  1.00  0.00    -0.354 N 
ATOM     53  N   UNL A   1      40.810  32.087  31.495  1.00  0.00    -0.248 NA
ATOM     54  C   UNL A   1      39.396  33.933  31.729  1.00  0.00     0.031 C 
ATOM     55  C   UNL A   1      44.821  31.771  33.399  1.00  0.00     0.029 A 
ATOM     56  C   UNL A   1      43.576  31.893  32.803  1.00  0.00     0.049 A 
ATOM     57  H   UNL A   1      42.532  30.504  31.609  1.00  0.00     0.167 HD
ATOM     58  C   UNL A   1      41.443  33.051  32.272  1.00  0.00     0.074 A 
ATOM     59  C   UNL A   1      40.535  34.175  32.365  1.00  0.00     0.031 C 
ATOM     60  C   UNL A   1      42.666  33.009  32.855  1.00  0.00     0.037 A 
BRANCH  47  61
ATOM     61  C   UNL A   1      45.768  27.739  31.928  1.00  0.00     0.058 A 
ATOM     62  C   UNL A   1      45.818  26.822  32.990  1.00  0.00     0.135 A 
ATOM     63  C   UNL A   1      46.906  27.863  31.114  1.00  0.00     0.135 A 
ATOM     64  F   UNL A   1      44.765  26.681  33.811  1.00  0.00    -0.206 F 
ATOM     65  C   UNL A   1      46.965  26.086  33.262  1.00  0.00     0.059 A 
ATOM     66  C   UNL A   1      48.056  27.115  31.351  1.00  0.00     0.059 A 
ATOM     67  F   UNL A   1      46.913  28.727  30.087  1.00  0.00    -0.206 F 
ATOM     68  C   UNL A   1      48.081  26.243  32.439  1.00  0.00     0.060 A 
BRANCH  68  69
ATOM     69  S   UNL A   1      49.566  25.287  32.807  1.00  0.00     0.124 S 
ATOM     70  O   UNL A   1      50.270  26.185  33.718  1.00  0.00    -0.237 OA
ATOM     71  O   UNL A   1      49.021  24.075  33.409  1.00  0.00    -0.237 OA
ATOM     72  O   UNL A   1      50.187  25.107  31.498  1.00  0.00    -0.744 OA
ENDBRANCH  68  69
ENDBRANCH  47  61
BRANCH  48  73
ATOM     73  C   UNL A   1      37.286  32.730  30.079  1.00  0.00     0.058 A 
ATOM     74  C   UNL A   1      36.160  32.481  30.879  1.00  0.00     0.135 A 
ATOM     75  C   UNL A   1      37.170  33.696  29.069  1.00  0.00     0.135 A 
ATOM     76  F   UNL A   1      36.220  31.562  31.855  1.00  0.00    -0.206 F 
ATOM     77  C   UNL A   1      34.958  33.152  30.677  1.00  0.00     0.059 A 
ATOM     78  C   UNL A   1      35.985  34.395  28.860  1.00  0.00     0.059 A 
ATOM     79  F   UNL A   1      38.223  33.984  28.289  1.00  0.00    -0.206 F 
ATOM     80  C   UNL A   1      34.881  34.110  29.664  1.00  0.00     0.060 A 
BRANCH  80  81
ATOM     81  S   UNL A   1      33.331  35.012  29.441  1.00  0.00     0.124 S 
ATOM     82  O   UNL A   1      32.786  34.996  30.793  1.00  0.00    -0.237 OA
ATOM     83  O   UNL A   1      33.795  36.307  28.954  1.00  0.00    -0.237 OA
ATOM     84  O   UNL A   1      32.613  34.204  28.459  1.00  0.00    -0.744 OA
ENDBRANCH  80  81
ENDBRANCH  48  73
BRANCH  60  85
ATOM     85  C   UNL A   1      43.120  34.229  33.600  1.00  0.00     0.058 A 
ATOM     86  C   UNL A   1      43.888  35.225  32.982  1.00  0.00     0.135 A 
ATOM     87  C   UNL A   1      42.706  34.440  34.925  1.00  0.00     0.135 A 
ATOM     88  F   UNL A   1      44.311  35.066  31.718  1.00  0.00    -0.206 F 
ATOM     89  C   UNL A   1      44.236  36.391  33.655  1.00  0.00     0.059 A 
ATOM     90  C   UNL A   1      43.025  35.606  35.611  1.00  0.00     0.059 A 
ATOM     91  F   UNL A   1      41.961  33.518  35.555  1.00  0.00    -0.206 F 
ATOM     92  C   UNL A   1      43.797  36.574  34.968  1.00  0.00     0.060 A 
BRANCH  92  93
ATOM     93  S   UNL A   1      44.203  38.118  35.812  1.00  0.00     0.124 S 
ATOM     94  O   UNL A   1      45.659  38.120  35.734  1.00  0.00    -0.237 OA
ATOM     95  O   UNL A   1      43.521  39.114  34.991  1.00  0.00    -0.237 OA
ATOM     96  O   UNL A   1      43.644  37.931  37.148  1.00  0.00    -0.744 OA
ENDBRANCH  92  93
ENDBRANCH  60  85
ENDBRANCH  34  35
ENDBRANCH  26  29
ENDBRANCH  24  25
ENDBRANCH  23  24
ENDBRANCH  22  23
ENDBRANCH   1  22
TORSDOF 19
ENDMDL
MODEL 2
REMARK VINA RESULT:     -10.2      4.447      9.522
REMARK SMILES CCC[C@H](C)C[N@H+]1[C@@H]2CC[C@H]1C[C@H](CC(=O)NCCCCNC(=O)c1ccc(-c3c4nc(c(-c5c(F)cc(S(=O)(=O)[O-])cc5F)c5ccc([nH]5)c(-c5c(F)cc(S(=O)(=O)[O-])cc5F)c5nc(c(-c6c(F)cc(S(=O)(=O)[O-])cc6F)c6ccc3[nH]6)C=C5)C=C4)cc1)C2
REMARK SMILES IDX 18 1 17 2 15 3 16 4 14 6 13 7 7 8 8 9 11 10 9 12 91 13 10 14
REMARK SMILES IDX 12 15 6 16 4 17 5 18 3 19 2 20 1 21 19 22 20 23 21 24 22 25
REMARK SMILES IDX 23 26 24 28 25 29 26 30 90 31 27 32 89 33 28 34 29 35 30 36
REMARK SMILES IDX 83 37 31 38 88 39 82 40 84 41 32 42 87 43 81 44 80 45 33 47
REMARK SMILES IDX 67 48 46 49 66 50 47 51 50 52 65 53 85 54 48 55 49 56 64 58
REMARK SMILES IDX 86 59 51 60 34 61 35 62 44 63 36 64 37 65 43 66 45 67 38 68
REMARK SMILES IDX 39 69 40 70 41 71 42 72 68 73 69 74 78 75 70 76 71 77 77 78
REMARK SMILES IDX 79 79 72 80 73 81 74 82 75 83 76 84 52 85 53 86 62 87 54 88
REMARK SMILES IDX 55 89 61 90 63 91 56 92 57 93 58 94 59 95 60 96
REMARK H PARENT 17 5 7 11 22 27 84 46 50 57
REMARK Flexibility Score: inf
ROOT
ATOM      1  C   UNL A   1      35.986  23.373  24.717  1.00  0.00     0.116 C 
ENDROOT
BRANCH   1   2
ATOM      2  N   UNL A   1      35.081  22.653  25.599  1.00  0.00    -0.356 N 
ATOM      3  C   UNL A   1      33.763  22.861  25.879  1.00  0.00     0.220 C 
ATOM      4  O   UNL A   1      33.232  22.173  26.752  1.00  0.00    -0.275 OA
ATOM      5  H   UNL A   1      35.488  21.891  26.072  1.00  0.00     0.163 HD
BRANCH   3   6
ATOM      6  C   UNL A   1      32.955  23.898  25.120  1.00  0.00     0.104 C 
BRANCH   6   7
ATOM      7  C   UNL A   1      32.848  25.270  25.821  1.00  0.00     0.010 C 
ATOM      8  N   UNL A   1      31.548  27.838  24.985  1.00  0.00    -0.330 N 
ATOM      9  C   UNL A   1      31.077  27.115  26.174  1.00  0.00     0.184 C 
ATOM     10  C   UNL A   1      33.009  27.797  25.152  1.00  0.00     0.184 C 
ATOM     11  H   UNL A   1      31.143  28.773  24.958  1.00  0.00     0.348 HD
ATOM     12  C   UNL A   1      31.903  27.794  27.281  1.00  0.00     0.071 C 
ATOM     13  C   UNL A   1      31.369  25.608  26.094  1.00  0.00     0.069 C 
ATOM     14  C   UNL A   1      33.165  28.296  26.583  1.00  0.00     0.071 C 
ATOM     15  C   UNL A   1      33.559  26.371  25.019  1.00  0.00     0.069 C 
BRANCH   8  16
ATOM     16  C   UNL A   1      31.088  27.387  23.665  1.00  0.00     0.265 C 
BRANCH  16  17
ATOM     17  C   UNL A   1      29.848  28.113  23.094  1.00  0.00     0.041 C 
ATOM     18  C   UNL A   1      28.553  27.400  23.503  1.00  0.00     0.013 C 
BRANCH  17  19
ATOM     19  C   UNL A   1      29.749  29.602  23.519  1.00  0.00     0.009 C 
BRANCH  19  20
ATOM     20  C   UNL A   1      28.825  30.525  22.715  1.00  0.00    -0.003 C 
ATOM     21  C   UNL A   1      27.780  31.258  23.539  1.00  0.00     0.004 C 
ENDBRANCH  19  20
ENDBRANCH  17  19
ENDBRANCH  16  17
ENDBRANCH   8  16
ENDBRANCH   6   7
ENDBRANCH   3   6
ENDBRANCH   1   2
BRANCH   1  22
ATOM     22  C   UNL A   1      37.327  22.647  24.593  1.00  0.00     0.023 C 
BRANCH  22  23
ATOM     23  C   UNL A   1      37.686  21.730  25.747  1.00  0.00     0.023 C 
BRANCH  23  24
ATOM     24  C   UNL A   1      39.164  21.719  26.073  1.00  0.00     0.116 C 
BRANCH  24  25
ATOM     25  N   UNL A   1      39.767  20.391  26.006  1.00  0.00    -0.352 N 
ATOM     26  C   UNL A   1      41.105  20.065  26.108  1.00  0.00     0.251 C 
ATOM     27  H   UNL A   1      39.147  19.638  25.873  1.00  0.00     0.163 HD
ATOM     28  O   UNL A   1      41.491  18.918  25.958  1.00  0.00    -0.269 OA
BRANCH  26  29
ATOM     29  C   UNL A   1      42.057  21.167  26.352  1.00  0.00     0.039 A 
ATOM     30  C   UNL A   1      42.421  22.000  25.292  1.00  0.00     0.014 A 
ATOM     31  C   UNL A   1      42.442  21.462  27.662  1.00  0.00     0.014 A 
ATOM     32  C   UNL A   1      43.091  23.193  25.565  1.00  0.00     0.010 A 
ATOM     33  C   UNL A   1      43.007  22.696  27.937  1.00  0.00     0.010 A 
ATOM     34  C   UNL A   1      43.338  23.576  26.893  1.00  0.00    -0.014 A 
BRANCH  34  35
ATOM     35  C   UNL A   1      43.966  24.875  27.241  1.00  0.00     0.031 A 
ATOM     36  C   UNL A   1      43.101  25.970  27.802  1.00  0.00     0.074 A 
ATOM     37  C   UNL A   1      45.262  25.107  26.950  1.00  0.00     0.049 A 
ATOM     38  N   UNL A   1      43.379  27.233  27.985  1.00  0.00    -0.248 NA
ATOM     39  C   UNL A   1      41.718  25.602  28.151  1.00  0.00     0.031 C 
ATOM     40  C   UNL A   1      46.190  24.144  26.353  1.00  0.00     0.029 A 
ATOM     41  N   UNL A   1      46.019  26.242  27.100  1.00  0.00    -0.354 N 
ATOM     42  C   UNL A   1      42.196  27.816  28.421  1.00  0.00     0.074 A 
ATOM     43  C   UNL A   1      41.185  26.782  28.427  1.00  0.00     0.031 C 
ATOM     44  C   UNL A   1      47.394  24.722  26.208  1.00  0.00     0.029 A 
ATOM     45  C   UNL A   1      47.314  26.107  26.662  1.00  0.00     0.049 A 
ATOM     46  H   UNL A   1      45.666  27.077  27.486  1.00  0.00     0.167 HD
ATOM     47  C   UNL A   1      41.977  29.094  28.808  1.00  0.00     0.037 A 
ATOM     48  C   UNL A   1      48.321  27.003  26.621  1.00  0.00     0.037 A 
ATOM     49  C   UNL A   1      43.004  30.097  28.869  1.00  0.00     0.049 A 
ATOM     50  C   UNL A   1      48.072  28.401  27.120  1.00  0.00     0.074 A 
ATOM     51  C   UNL A   1      42.909  31.403  29.313  1.00  0.00     0.029 A 
ATOM     52  N   UNL A   1      44.324  29.895  28.491  1.00  0.00    -0.354 N 
ATOM     53  N   UNL A   1      46.956  28.929  27.566  1.00  0.00    -0.248 NA
ATOM     54  C   UNL A   1      49.215  29.325  27.115  1.00  0.00     0.031 C 
ATOM     55  C   UNL A   1      44.169  31.997  29.189  1.00  0.00     0.029 A 
ATOM     56  C   UNL A   1      45.055  31.051  28.697  1.00  0.00     0.049 A 
ATOM     57  H   UNL A   1      44.687  29.054  28.132  1.00  0.00     0.167 HD
ATOM     58  C   UNL A   1      47.270  30.235  27.924  1.00  0.00     0.074 A 
ATOM     59  C   UNL A   1      48.679  30.418  27.644  1.00  0.00     0.031 C 
ATOM     60  C   UNL A   1      46.465  31.197  28.438  1.00  0.00     0.037 A 
BRANCH  47  61
ATOM     61  C   UNL A   1      40.578  29.464  29.212  1.00  0.00     0.058 A 
ATOM     62  C   UNL A   1      39.551  29.602  28.265  1.00  0.00     0.135 A 
ATOM     63  C   UNL A   1      40.259  29.682  30.562  1.00  0.00     0.135 A 
ATOM     64  F   UNL A   1      39.807  29.426  26.959  1.00  0.00    -0.206 F 
ATOM     65  C   UNL A   1      38.266  29.982  28.636  1.00  0.00     0.059 A 
ATOM     66  C   UNL A   1      38.973  30.035  30.960  1.00  0.00     0.059 A 
ATOM     67  F   UNL A   1      41.204  29.566  31.508  1.00  0.00    -0.206 F 
ATOM     68  C   UNL A   1      37.988  30.200  29.986  1.00  0.00     0.060 A 
BRANCH  68  69
ATOM     69  S   UNL A   1      36.318  30.700  30.453  1.00  0.00     0.124 S 
ATOM     70  O   UNL A   1      35.639  30.684  29.161  1.00  0.00    -0.237 OA
ATOM     71  O   UNL A   1      35.924  29.651  31.388  1.00  0.00    -0.237 OA
ATOM     72  O   UNL A   1      36.513  32.021  31.045  1.00  0.00    -0.744 OA
ENDBRANCH  68  69
ENDBRANCH  47  61
BRANCH  48  73
ATOM     73  C   UNL A   1      49.662  26.597  26.127  1.00  0.00     0.058 A 
ATOM     74  C   UNL A   1      50.082  26.940  24.832  1.00  0.00     0.135 A 
ATOM     75  C   UNL A   1      50.556  25.877  26.934  1.00  0.00     0.135 A 
ATOM     76  F   UNL A   1      49.261  27.624  24.021  1.00  0.00    -0.206 F 
ATOM     77  C   UNL A   1      51.333  26.571  24.348  1.00  0.00     0.059 A 
ATOM     78  C   UNL A   1      51.821  25.514  26.479  1.00  0.00     0.059 A 
ATOM     79  F   UNL A   1      50.210  25.540  28.186  1.00  0.00    -0.206 F 
ATOM     80  C   UNL A   1      52.197  25.858  25.181  1.00  0.00     0.060 A 
BRANCH  80  81
ATOM     81  S   UNL A   1      53.839  25.427  24.561  1.00  0.00     0.124 S 
ATOM     82  O   UNL A   1      53.724  25.787  23.153  1.00  0.00    -0.237 OA
ATOM     83  O   UNL A   1      54.706  26.278  25.369  1.00  0.00    -0.237 OA
ATOM     84  O   UNL A   1      53.937  23.998  24.844  1.00  0.00    -0.744 OA
ENDBRANCH  80  81
ENDBRANCH  48  73
BRANCH  60  85
ATOM     85  C   UNL A   1      47.092  32.515  28.783  1.00  0.00     0.058 A 
ATOM     86  C   UNL A   1      47.730  32.726  30.013  1.00  0.00     0.135 A 
ATOM     87  C   UNL A   1      47.128  33.548  27.832  1.00  0.00     0.135 A 
ATOM     88  F   UNL A   1      47.718  31.770  30.954  1.00  0.00    -0.206 F 
ATOM     89  C   UNL A   1      48.380  33.923  30.293  1.00  0.00     0.059 A 
ATOM     90  C   UNL A   1      47.789  34.744  28.084  1.00  0.00     0.059 A 
ATOM     91  F   UNL A   1      46.540  33.387  26.637  1.00  0.00    -0.206 F 
ATOM     92  C   UNL A   1      48.408  34.925  29.321  1.00  0.00     0.060 A 
BRANCH  92  93
ATOM     93  S   UNL A   1      49.307  36.451  29.672  1.00  0.00     0.124 S 
ATOM     94  O   UNL A   1      49.752  36.220  31.042  1.00  0.00    -0.237 OA
ATOM     95  O   UNL A   1      50.352  36.441  28.653  1.00  0.00    -0.237 OA
ATOM     96  O   UNL A   1      48.292  37.487  29.506  1.00  0.00    -0.744 OA
ENDBRANCH  92  93
ENDBRANCH  60  85
ENDBRANCH  34  35
ENDBRANCH  26  29
ENDBRANCH  24  25
ENDBRANCH  23  24
ENDBRANCH  22  23
ENDBRANCH   1  22
TORSDOF 19
ENDMDL
MODEL 3
REMARK VINA RESULT:     -10.2      5.182      7.352
REMARK SMILES CCC[C@H](C)C[N@H+]1[C@@H]2CC[C@H]1C[C@H](CC(=O)NCCCCNC(=O)c1ccc(-c3c4nc(c(-c5c(F)cc(S(=O)(=O)[O-])cc5F)c5ccc([nH]5)c(-c5c(F)cc(S(=O)(=O)[O-])cc5F)c5nc(c(-c6c(F)cc(S(=O)(=O)[O-])cc6F)c6ccc3[nH]6)C=C5)C=C4)cc1)C2
REMARK SMILES IDX 18 1 17 2 15 3 16 4 14 6 13 7 7 8 8 9 11 10 9 12 91 13 10 14
REMARK SMILES IDX 12 15 6 16 4 17 5 18 3 19 2 20 1 21 19 22 20 23 21 24 22 25
REMARK SMILES IDX 23 26 24 28 25 29 26 30 90 31 27 32 89 33 28 34 29 35 30 36
REMARK SMILES IDX 83 37 31 38 88 39 82 40 84 41 32 42 87 43 81 44 80 45 33 47
REMARK SMILES IDX 67 48 46 49 66 50 47 51 50 52 65 53 85 54 48 55 49 56 64 58
REMARK SMILES IDX 86 59 51 60 34 61 35 62 44 63 36 64 37 65 43 66 45 67 38 68
REMARK SMILES IDX 39 69 40 70 41 71 42 72 68 73 69 74 78 75 70 76 71 77 77 78
REMARK SMILES IDX 79 79 72 80 73 81 74 82 75 83 76 84 52 85 53 86 62 87 54 88
REMARK SMILES IDX 55 89 61 90 63 91 56 92 57 93 58 94 59 95 60 96
REMARK H PARENT 17 5 7 11 22 27 84 46 50 57
REMARK Flexibility Score: inf
ROOT
ATOM      1  C   UNL A   1      40.454  22.467  26.715  1.00  0.00     0.116 C 
ENDROOT
BRANCH   1   2
ATOM      2  N   UNL A   1      39.866  23.686  27.246  1.00  0.00    -0.356 N 
ATOM      3  C   UNL A   1      38.773  24.394  26.841  1.00  0.00     0.220 C 
ATOM      4  O   UNL A   1      38.531  25.469  27.393  1.00  0.00    -0.275 OA
ATOM      5  H   UNL A   1      40.334  24.063  28.026  1.00  0.00     0.163 HD
BRANCH   3   6
ATOM      6  C   UNL A   1      37.857  23.866  25.751  1.00  0.00     0.104 C 
BRANCH   6   7
ATOM      7  C   UNL A   1      36.531  23.263  26.263  1.00  0.00     0.010 C 
ATOM      8  N   UNL A   1      33.999  22.524  24.837  1.00  0.00    -0.330 N 
ATOM      9  C   UNL A   1      34.806  21.496  25.507  1.00  0.00     0.184 C 
ATOM     10  C   UNL A   1      33.967  23.600  25.839  1.00  0.00     0.184 C 
ATOM     11  H   UNL A   1      33.088  22.146  24.581  1.00  0.00     0.348 HD
ATOM     12  C   UNL A   1      34.139  21.451  26.893  1.00  0.00     0.071 C 
ATOM     13  C   UNL A   1      36.289  21.889  25.605  1.00  0.00     0.069 C 
ATOM     14  C   UNL A   1      33.534  22.840  27.086  1.00  0.00     0.071 C 
ATOM     15  C   UNL A   1      35.352  24.227  26.049  1.00  0.00     0.069 C 
BRANCH   8  16
ATOM     16  C   UNL A   1      34.407  22.971  23.498  1.00  0.00     0.265 C 
BRANCH  16  17
ATOM     17  C   UNL A   1      33.307  22.953  22.412  1.00  0.00     0.041 C 
ATOM     18  C   UNL A   1      32.216  21.928  22.747  1.00  0.00     0.013 C 
BRANCH  17  19
ATOM     19  C   UNL A   1      32.637  24.333  22.182  1.00  0.00     0.009 C 
BRANCH  19  20
ATOM     20  C   UNL A   1      33.214  25.550  22.916  1.00  0.00    -0.003 C 
ATOM     21  C   UNL A   1      33.528  26.741  22.026  1.00  0.00     0.004 C 
ENDBRANCH  19  20
ENDBRANCH  17  19
ENDBRANCH  16  17
ENDBRANCH   8  16
ENDBRANCH   6   7
ENDBRANCH   3   6
ENDBRANCH   1   2
BRANCH   1  22
ATOM     22  C   UNL A   1      41.312  21.765  27.768  1.00  0.00     0.023 C 
BRANCH  22  23
ATOM     23  C   UNL A   1      42.046  20.525  27.296  1.00  0.00     0.023 C 
BRANCH  23  24
ATOM     24  C   UNL A   1      41.986  20.321  25.798  1.00  0.00     0.116 C 
BRANCH  24  25
ATOM     25  N   UNL A   1      42.952  19.346  25.301  1.00  0.00    -0.352 N 
ATOM     26  C   UNL A   1      44.249  19.577  24.888  1.00  0.00     0.251 C 
ATOM     27  H   UNL A   1      42.643  18.413  25.255  1.00  0.00     0.163 HD
ATOM     28  O   UNL A   1      44.934  18.684  24.419  1.00  0.00    -0.269 OA
BRANCH  26  29
ATOM     29  C   UNL A   1      44.758  20.960  24.986  1.00  0.00     0.039 A 
ATOM     30  C   UNL A   1      44.381  21.894  24.018  1.00  0.00     0.014 A 
ATOM     31  C   UNL A   1      45.461  21.352  26.127  1.00  0.00     0.014 A 
ATOM     32  C   UNL A   1      44.626  23.249  24.250  1.00  0.00     0.010 A 
ATOM     33  C   UNL A   1      45.601  22.702  26.402  1.00  0.00     0.010 A 
ATOM     34  C   UNL A   1      45.186  23.666  25.467  1.00  0.00    -0.014 A 
BRANCH  34  35
ATOM     35  C   UNL A   1      45.383  25.098  25.801  1.00  0.00     0.031 A 
ATOM     36  C   UNL A   1      46.764  25.685  25.690  1.00  0.00     0.074 A 
ATOM     37  C   UNL A   1      44.369  25.829  26.306  1.00  0.00     0.049 A 
ATOM     38  N   UNL A   1      47.212  26.835  26.117  1.00  0.00    -0.248 NA
ATOM     39  C   UNL A   1      47.791  24.834  25.063  1.00  0.00     0.031 C 
ATOM     40  C   UNL A   1      42.998  25.357  26.515  1.00  0.00     0.029 A 
ATOM     41  N   UNL A   1      44.343  27.124  26.759  1.00  0.00    -0.354 N 
ATOM     42  C   UNL A   1      48.576  26.824  25.855  1.00  0.00     0.074 A 
ATOM     43  C   UNL A   1      48.893  25.535  25.281  1.00  0.00     0.031 C 
ATOM     44  C   UNL A   1      42.261  26.355  27.033  1.00  0.00     0.029 A 
ATOM     45  C   UNL A   1      43.115  27.521  27.233  1.00  0.00     0.049 A 
ATOM     46  H   UNL A   1      45.130  27.715  26.745  1.00  0.00     0.167 HD
ATOM     47  C   UNL A   1      49.482  27.811  26.051  1.00  0.00     0.037 A 
ATOM     48  C   UNL A   1      42.725  28.692  27.777  1.00  0.00     0.037 A 
ATOM     49  C   UNL A   1      49.146  29.114  26.554  1.00  0.00     0.049 A 
ATOM     50  C   UNL A   1      43.735  29.798  27.924  1.00  0.00     0.074 A 
ATOM     51  C   UNL A   1      49.970  30.211  26.725  1.00  0.00     0.029 A 
ATOM     52  N   UNL A   1      47.873  29.501  26.947  1.00  0.00    -0.354 N 
ATOM     53  N   UNL A   1      45.016  29.787  27.636  1.00  0.00    -0.248 NA
ATOM     54  C   UNL A   1      43.252  31.077  28.463  1.00  0.00     0.031 C 
ATOM     55  C   UNL A   1      49.198  31.259  27.238  1.00  0.00     0.029 A 
ATOM     56  C   UNL A   1      47.888  30.822  27.356  1.00  0.00     0.049 A 
ATOM     57  H   UNL A   1      47.077  28.922  26.936  1.00  0.00     0.167 HD
ATOM     58  C   UNL A   1      45.483  31.063  27.930  1.00  0.00     0.074 A 
ATOM     59  C   UNL A   1      44.349  31.822  28.415  1.00  0.00     0.031 C 
ATOM     60  C   UNL A   1      46.737  31.563  27.808  1.00  0.00     0.037 A 
BRANCH  47  61
ATOM     61  C   UNL A   1      50.912  27.516  25.699  1.00  0.00     0.058 A 
ATOM     62  C   UNL A   1      51.416  27.746  24.409  1.00  0.00     0.135 A 
ATOM     63  C   UNL A   1      51.792  26.999  26.664  1.00  0.00     0.135 A 
ATOM     64  F   UNL A   1      50.611  28.220  23.444  1.00  0.00    -0.206 F 
ATOM     65  C   UNL A   1      52.729  27.437  24.075  1.00  0.00     0.059 A 
ATOM     66  C   UNL A   1      53.119  26.709  26.359  1.00  0.00     0.059 A 
ATOM     67  F   UNL A   1      51.362  26.757  27.912  1.00  0.00    -0.206 F 
ATOM     68  C   UNL A   1      53.573  26.915  25.057  1.00  0.00     0.060 A 
BRANCH  68  69
ATOM     69  S   UNL A   1      55.273  26.510  24.608  1.00  0.00     0.124 S 
ATOM     70  O   UNL A   1      55.245  26.709  23.162  1.00  0.00    -0.237 OA
ATOM     71  O   UNL A   1      56.041  27.492  25.366  1.00  0.00    -0.237 OA
ATOM     72  O   UNL A   1      55.420  25.127  25.050  1.00  0.00    -0.744 OA
ENDBRANCH  68  69
ENDBRANCH  47  61
BRANCH  48  73
ATOM     73  C   UNL A   1      41.311  28.891  28.186  1.00  0.00     0.058 A 
ATOM     74  C   UNL A   1      40.948  28.865  29.542  1.00  0.00     0.135 A 
ATOM     75  C   UNL A   1      40.299  29.127  27.243  1.00  0.00     0.135 A 
ATOM     76  F   UNL A   1      41.879  28.637  30.480  1.00  0.00    -0.206 F 
ATOM     77  C   UNL A   1      39.630  29.048  29.949  1.00  0.00     0.059 A 
ATOM     78  C   UNL A   1      38.977  29.335  27.627  1.00  0.00     0.059 A 
ATOM     79  F   UNL A   1      40.597  29.181  25.936  1.00  0.00    -0.206 F 
ATOM     80  C   UNL A   1      38.651  29.284  28.982  1.00  0.00     0.060 A 
BRANCH  80  81
ATOM     81  S   UNL A   1      36.951  29.572  29.523  1.00  0.00     0.124 S 
ATOM     82  O   UNL A   1      36.190  29.009  28.414  1.00  0.00    -0.237 OA
ATOM     83  O   UNL A   1      36.897  28.829  30.778  1.00  0.00    -0.237 OA
ATOM     84  O   UNL A   1      36.888  31.025  29.662  1.00  0.00    -0.744 OA
ENDBRANCH  80  81
ENDBRANCH  48  73
BRANCH  60  85
ATOM     85  C   UNL A   1      46.944  33.008  28.153  1.00  0.00     0.058 A 
ATOM     86  C   UNL A   1      47.365  33.406  29.429  1.00  0.00     0.135 A 
ATOM     87  C   UNL A   1      46.803  33.995  27.164  1.00  0.00     0.135 A 
ATOM     88  F   UNL A   1      47.509  32.499  30.407  1.00  0.00    -0.206 F 
ATOM     89  C   UNL A   1      47.634  34.739  29.717  1.00  0.00     0.059 A 
ATOM     90  C   UNL A   1      47.086  35.331  27.425  1.00  0.00     0.059 A 
ATOM     91  F   UNL A   1      46.412  33.660  25.925  1.00  0.00    -0.206 F 
ATOM     92  C   UNL A   1      47.496  35.694  28.708  1.00  0.00     0.060 A 
BRANCH  92  93
ATOM     93  S   UNL A   1      47.907  37.413  29.076  1.00  0.00     0.124 S 
ATOM     94  O   UNL A   1      49.231  37.276  29.674  1.00  0.00    -0.237 OA
ATOM     95  O   UNL A   1      47.867  38.036  27.756  1.00  0.00    -0.237 OA
ATOM     96  O   UNL A   1      46.844  37.828  29.988  1.00  0.00    -0.744 OA
ENDBRANCH  92  93
ENDBRANCH  60  85
ENDBRANCH  34  35
ENDBRANCH  26  29
ENDBRANCH  24  25
ENDBRANCH  23  24
ENDBRANCH  22  23
ENDBRANCH   1  22
TORSDOF 19
ENDMDL
