MODEL 1
REMARK VINA RESULT:     -15.2      0.000      0.000
REMARK SMILES Cc1ccc(-c2nc(C)cc(N3CCCC[C@H]3C(=O)NCCCCNC(=O)c3ccc(-c4c5nc(c(-c6c(F)cc(S(=O)(=O)[O-])cc6F)c6ccc([nH]6)c(-c6c(F)cc(S(=O)(=O)[O-])cc6F)c6nc(c(-c7c(F)cc(S(=O)(=O)[O-])cc7F)c7ccc4[nH]7)C=C6)C=C5)cc3)n2)cc1
REMARK SMILES IDX 23 1 22 2 21 3 20 4 18 5 19 6 17 8 12 9 13 10 14 11 16 12
REMARK SMILES IDX 15 13 11 14 6 15 7 16 94 17 8 18 9 19 10 20 5 21 1 22 2 23
REMARK SMILES IDX 3 24 96 25 4 26 95 27 24 28 25 29 26 30 27 32 28 33 29 34
REMARK SMILES IDX 93 35 30 36 92 37 31 38 32 39 33 40 86 41 34 42 91 43 85 44
REMARK SMILES IDX 87 45 35 46 90 47 84 48 83 49 36 51 70 52 49 53 69 54 50 55
REMARK SMILES IDX 53 56 68 57 88 58 51 59 52 60 67 62 89 63 54 64 37 65 38 66
REMARK SMILES IDX 47 67 39 68 40 69 46 70 48 71 41 72 42 73 43 74 44 75 45 76
REMARK SMILES IDX 71 77 72 78 81 79 73 80 74 81 80 82 82 83 75 84 76 85 77 86
REMARK SMILES IDX 78 87 79 88 55 89 56 90 65 91 57 92 58 93 64 94 66 95 59 96
REMARK SMILES IDX 60 97 61 98 62 99 63 100
REMARK H PARENT 20 7 25 31 87 50 53 61
REMARK Flexibility Score: inf
ROOT
ATOM      1  C   UNL A   1      32.724  29.494  27.150  1.00  0.00     0.023 C 
ENDROOT
BRANCH   1   2
ATOM      2  C   UNL A   1      32.001  28.211  27.554  1.00  0.00     0.023 C 
BRANCH   2   3
ATOM      3  C   UNL A   1      31.345  27.421  26.411  1.00  0.00     0.116 C 
BRANCH   3   4
ATOM      4  N   UNL A   1      31.112  26.027  26.749  1.00  0.00    -0.354 N 
ATOM      5  C   UNL A   1      31.822  24.879  26.651  1.00  0.00     0.242 C 
ATOM      6  O   UNL A   1      31.275  23.898  27.188  1.00  0.00    -0.273 OA
ATOM      7  H   UNL A   1      30.222  25.884  27.146  1.00  0.00     0.163 HD
BRANCH   5   8
ATOM      8  C   UNL A   1      33.195  24.663  25.940  1.00  0.00     0.173 C 
ATOM      9  N   UNL A   1      33.028  23.618  24.901  1.00  0.00    -0.344 N 
ATOM     10  C   UNL A   1      32.434  24.043  23.642  1.00  0.00     0.119 C 
ATOM     11  C   UNL A   1      33.257  25.151  22.995  1.00  0.00     0.022 C 
ATOM     12  C   UNL A   1      34.024  25.803  25.339  1.00  0.00     0.035 C 
ATOM     13  C   UNL A   1      33.542  26.289  23.971  1.00  0.00     0.004 C 
BRANCH   9  14
ATOM     14  C   UNL A   1      33.969  22.599  24.865  1.00  0.00     0.133 A 
ATOM     15  C   UNL A   1      34.502  20.370  24.975  1.00  0.00     0.161 A 
ATOM     16  N   UNL A   1      35.828  20.583  24.909  1.00  0.00    -0.233 NA
ATOM     17  N   UNL A   1      33.558  21.326  24.974  1.00  0.00    -0.211 NA
ATOM     18  C   UNL A   1      36.216  21.867  24.787  1.00  0.00     0.043 A 
ATOM     19  C   UNL A   1      37.691  22.117  24.726  1.00  0.00     0.067 C 
ATOM     20  C   UNL A   1      35.311  22.910  24.746  1.00  0.00     0.070 A 
BRANCH  15  21
ATOM     21  C   UNL A   1      34.044  18.981  25.027  1.00  0.00     0.019 A 
ATOM     22  C   UNL A   1      32.696  14.869  25.203  1.00  0.00     0.044 C 
ATOM     23  C   UNL A   1      33.173  16.289  25.145  1.00  0.00    -0.051 A 
ATOM     24  C   UNL A   1      32.365  17.320  25.636  1.00  0.00     0.004 A 
ATOM     25  C   UNL A   1      34.415  16.608  24.584  1.00  0.00     0.004 A 
ATOM     26  C   UNL A   1      32.801  18.649  25.588  1.00  0.00     0.012 A 
ATOM     27  C   UNL A   1      34.839  17.939  24.521  1.00  0.00     0.012 A 
ENDBRANCH  15  21
ENDBRANCH   9  14
ENDBRANCH   5   8
ENDBRANCH   3   4
ENDBRANCH   2   3
ENDBRANCH   1   2
BRANCH   1  28
ATOM     28  C   UNL A   1      34.238  29.400  27.210  1.00  0.00     0.116 C 
BRANCH  28  29
ATOM     29  N   UNL A   1      34.947  30.665  27.262  1.00  0.00    -0.352 N 
ATOM     30  C   UNL A   1      36.176  30.947  27.851  1.00  0.00     0.251 C 
ATOM     31  H   UNL A   1      34.500  31.423  26.822  1.00  0.00     0.163 HD
ATOM     32  O   UNL A   1      36.481  32.102  28.086  1.00  0.00    -0.269 OA
BRANCH  30  33
ATOM     33  C   UNL A   1      37.133  29.835  28.113  1.00  0.00     0.039 A 
ATOM     34  C   UNL A   1      37.061  29.154  29.336  1.00  0.00     0.014 A 
ATOM     35  C   UNL A   1      38.193  29.586  27.253  1.00  0.00     0.014 A 
ATOM     36  C   UNL A   1      38.145  28.383  29.773  1.00  0.00     0.010 A 
ATOM     37  C   UNL A   1      39.314  28.958  27.741  1.00  0.00     0.010 A 
ATOM     38  C   UNL A   1      39.304  28.360  29.007  1.00  0.00    -0.014 A 
BRANCH  38  39
ATOM     39  C   UNL A   1      40.579  27.753  29.372  1.00  0.00     0.031 A 
ATOM     40  C   UNL A   1      40.899  26.388  28.877  1.00  0.00     0.074 A 
ATOM     41  C   UNL A   1      41.559  28.525  29.890  1.00  0.00     0.049 A 
ATOM     42  N   UNL A   1      41.959  25.723  29.187  1.00  0.00    -0.248 NA
ATOM     43  C   UNL A   1      40.015  25.646  27.981  1.00  0.00     0.031 C 
ATOM     44  C   UNL A   1      42.999  28.298  29.784  1.00  0.00     0.029 A 
ATOM     45  N   UNL A   1      41.451  29.589  30.777  1.00  0.00    -0.354 N 
ATOM     46  C   UNL A   1      42.040  24.626  28.356  1.00  0.00     0.074 A 
ATOM     47  C   UNL A   1      40.786  24.609  27.644  1.00  0.00     0.031 C 
ATOM     48  C   UNL A   1      43.632  29.025  30.717  1.00  0.00     0.029 A 
ATOM     49  C   UNL A   1      42.612  29.604  31.571  1.00  0.00     0.049 A 
ATOM     50  H   UNL A   1      40.697  30.219  30.839  1.00  0.00     0.167 HD
ATOM     51  C   UNL A   1      43.212  23.927  28.299  1.00  0.00     0.037 A 
ATOM     52  C   UNL A   1      42.550  29.400  32.924  1.00  0.00     0.037 A 
ATOM     53  C   UNL A   1      44.171  24.453  29.266  1.00  0.00     0.049 A 
ATOM     54  C   UNL A   1      43.294  28.176  33.409  1.00  0.00     0.074 A 
ATOM     55  C   UNL A   1      45.231  25.339  29.161  1.00  0.00     0.029 A 
ATOM     56  N   UNL A   1      43.923  24.291  30.622  1.00  0.00    -0.354 N 
ATOM     57  N   UNL A   1      43.679  27.198  32.637  1.00  0.00    -0.248 NA
ATOM     58  C   UNL A   1      43.664  27.954  34.803  1.00  0.00     0.031 C 
ATOM     59  C   UNL A   1      45.602  25.736  30.471  1.00  0.00     0.029 A 
ATOM     60  C   UNL A   1      44.776  25.080  31.368  1.00  0.00     0.049 A 
ATOM     61  H   UNL A   1      43.235  23.697  31.000  1.00  0.00     0.167 HD
ATOM     62  C   UNL A   1      44.288  26.221  33.387  1.00  0.00     0.074 A 
ATOM     63  C   UNL A   1      44.284  26.762  34.733  1.00  0.00     0.031 C 
ATOM     64  C   UNL A   1      44.722  25.052  32.823  1.00  0.00     0.037 A 
BRANCH  51  65
ATOM     65  C   UNL A   1      43.589  22.918  27.230  1.00  0.00     0.058 A 
ATOM     66  C   UNL A   1      42.860  21.714  27.092  1.00  0.00     0.135 A 
ATOM     67  C   UNL A   1      44.668  23.047  26.335  1.00  0.00     0.135 A 
ATOM     68  F   UNL A   1      41.755  21.473  27.812  1.00  0.00    -0.206 F 
ATOM     69  C   UNL A   1      43.228  20.690  26.215  1.00  0.00     0.059 A 
ATOM     70  C   UNL A   1      45.090  22.015  25.486  1.00  0.00     0.059 A 
ATOM     71  F   UNL A   1      45.332  24.201  26.196  1.00  0.00    -0.206 F 
ATOM     72  C   UNL A   1      44.367  20.835  25.440  1.00  0.00     0.060 A 
BRANCH  72  73
ATOM     73  S   UNL A   1      44.871  19.474  24.371  1.00  0.00     0.124 S 
ATOM     74  O   UNL A   1      46.320  19.469  24.545  1.00  0.00    -0.237 OA
ATOM     75  O   UNL A   1      44.155  18.345  24.954  1.00  0.00    -0.237 OA
ATOM     76  O   UNL A   1      44.409  19.892  23.049  1.00  0.00    -0.744 OA
ENDBRANCH  72  73
ENDBRANCH  51  65
BRANCH  52  77
ATOM     77  C   UNL A   1      41.310  29.959  33.530  1.00  0.00     0.058 A 
ATOM     78  C   UNL A   1      41.246  31.360  33.653  1.00  0.00     0.135 A 
ATOM     79  C   UNL A   1      40.101  29.251  33.450  1.00  0.00     0.135 A 
ATOM     80  F   UNL A   1      42.376  32.077  33.763  1.00  0.00    -0.206 F 
ATOM     81  C   UNL A   1      40.052  32.047  33.473  1.00  0.00     0.059 A 
ATOM     82  C   UNL A   1      38.889  29.921  33.282  1.00  0.00     0.059 A 
ATOM     83  F   UNL A   1      40.106  27.914  33.347  1.00  0.00    -0.206 F 
ATOM     84  C   UNL A   1      38.897  31.315  33.200  1.00  0.00     0.060 A 
BRANCH  84  85
ATOM     85  S   UNL A   1      37.492  32.208  32.493  1.00  0.00     0.124 S 
ATOM     86  O   UNL A   1      37.911  32.399  31.110  1.00  0.00    -0.237 OA
ATOM     87  O   UNL A   1      36.413  31.244  32.701  1.00  0.00    -0.237 OA
ATOM     88  O   UNL A   1      37.421  33.417  33.306  1.00  0.00    -0.744 OA
ENDBRANCH  84  85
ENDBRANCH  52  77
BRANCH  64  89
ATOM     89  C   UNL A   1      45.198  23.794  33.530  1.00  0.00     0.058 A 
ATOM     90  C   UNL A   1      46.513  23.567  33.968  1.00  0.00     0.135 A 
ATOM     91  C   UNL A   1      44.261  22.799  33.925  1.00  0.00     0.135 A 
ATOM     92  F   UNL A   1      47.485  24.466  33.769  1.00  0.00    -0.206 F 
ATOM     93  C   UNL A   1      46.884  22.424  34.685  1.00  0.00     0.059 A 
ATOM     94  C   UNL A   1      44.597  21.687  34.693  1.00  0.00     0.059 A 
ATOM     95  F   UNL A   1      42.964  22.881  33.594  1.00  0.00    -0.206 F 
ATOM     96  C   UNL A   1      45.919  21.491  35.048  1.00  0.00     0.060 A 
BRANCH  96  97
ATOM     97  S   UNL A   1      46.378  20.061  36.042  1.00  0.00     0.124 S 
ATOM     98  O   UNL A   1      47.835  20.131  35.998  1.00  0.00    -0.237 OA
ATOM     99  O   UNL A   1      45.773  20.359  37.337  1.00  0.00    -0.237 OA
ATOM    100  O   UNL A   1      45.776  18.944  35.322  1.00  0.00    -0.744 OA
ENDBRANCH  96  97
ENDBRANCH  64  89
ENDBRANCH  38  39
ENDBRANCH  30  33
ENDBRANCH  28  29
ENDBRANCH   1  28
TORSDOF 16
ENDMDL
MODEL 2
REMARK VINA RESULT:     -14.4      1.590      2.080
REMARK SMILES Cc1ccc(-c2nc(C)cc(N3CCCC[C@H]3C(=O)NCCCCNC(=O)c3ccc(-c4c5nc(c(-c6c(F)cc(S(=O)(=O)[O-])cc6F)c6ccc([nH]6)c(-c6c(F)cc(S(=O)(=O)[O-])cc6F)c6nc(c(-c7c(F)cc(S(=O)(=O)[O-])cc7F)c7ccc4[nH]7)C=C6)C=C5)cc3)n2)cc1
REMARK SMILES IDX 23 1 22 2 21 3 20 4 18 5 19 6 17 8 12 9 13 10 14 11 16 12
REMARK SMILES IDX 15 13 11 14 6 15 7 16 94 17 8 18 9 19 10 20 5 21 1 22 2 23
REMARK SMILES IDX 3 24 96 25 4 26 95 27 24 28 25 29 26 30 27 32 28 33 29 34
REMARK SMILES IDX 93 35 30 36 92 37 31 38 32 39 33 40 86 41 34 42 91 43 85 44
REMARK SMILES IDX 87 45 35 46 90 47 84 48 83 49 36 51 70 52 49 53 69 54 50 55
REMARK SMILES IDX 53 56 68 57 88 58 51 59 52 60 67 62 89 63 54 64 37 65 38 66
REMARK SMILES IDX 47 67 39 68 40 69 46 70 48 71 41 72 42 73 43 74 44 75 45 76
REMARK SMILES IDX 71 77 72 78 81 79 73 80 74 81 80 82 82 83 75 84 76 85 77 86
REMARK SMILES IDX 78 87 79 88 55 89 56 90 65 91 57 92 58 93 64 94 66 95 59 96
REMARK SMILES IDX 60 97 61 98 62 99 63 100
REMARK H PARENT 20 7 25 31 87 50 53 61
REMARK Flexibility Score: inf
ROOT
ATOM      1  C   UNL A   1      31.964  29.354  27.058  1.00  0.00     0.023 C 
ENDROOT
BRANCH   1   2
ATOM      2  C   UNL A   1      31.744  27.868  27.340  1.00  0.00     0.023 C 
BRANCH   2   3
ATOM      3  C   UNL A   1      31.102  27.058  26.204  1.00  0.00     0.116 C 
BRANCH   3   4
ATOM      4  N   UNL A   1      30.893  25.663  26.554  1.00  0.00    -0.354 N 
ATOM      5  C   UNL A   1      31.659  24.547  26.568  1.00  0.00     0.242 C 
ATOM      6  O   UNL A   1      31.099  23.555  27.069  1.00  0.00    -0.273 OA
ATOM      7  H   UNL A   1      29.971  25.488  26.854  1.00  0.00     0.163 HD
BRANCH   5   8
ATOM      8  C   UNL A   1      33.111  24.379  26.020  1.00  0.00     0.173 C 
ATOM      9  N   UNL A   1      33.071  23.456  24.859  1.00  0.00    -0.344 N 
ATOM     10  C   UNL A   1      32.650  24.030  23.589  1.00  0.00     0.119 C 
ATOM     11  C   UNL A   1      33.560  25.182  23.180  1.00  0.00     0.022 C 
ATOM     12  C   UNL A   1      34.021  25.558  25.661  1.00  0.00     0.035 C 
ATOM     13  C   UNL A   1      33.725  26.201  24.304  1.00  0.00     0.004 C 
BRANCH   9  14
ATOM     14  C   UNL A   1      34.000  22.426  24.831  1.00  0.00     0.133 A 
ATOM     15  C   UNL A   1      34.508  20.192  24.963  1.00  0.00     0.161 A 
ATOM     16  N   UNL A   1      35.836  20.389  24.893  1.00  0.00    -0.233 NA
ATOM     17  N   UNL A   1      33.575  21.159  24.954  1.00  0.00    -0.211 NA
ATOM     18  C   UNL A   1      36.238  21.667  24.757  1.00  0.00     0.043 A 
ATOM     19  C   UNL A   1      37.716  21.900  24.690  1.00  0.00     0.067 C 
ATOM     20  C   UNL A   1      35.346  22.721  24.707  1.00  0.00     0.070 A 
BRANCH  15  21
ATOM     21  C   UNL A   1      34.034  18.810  25.030  1.00  0.00     0.019 A 
ATOM     22  C   UNL A   1      32.639  14.716  25.250  1.00  0.00     0.044 C 
ATOM     23  C   UNL A   1      33.132  16.129  25.177  1.00  0.00    -0.051 A 
ATOM     24  C   UNL A   1      32.343  17.173  25.671  1.00  0.00     0.004 A 
ATOM     25  C   UNL A   1      34.370  16.430  24.598  1.00  0.00     0.004 A 
ATOM     26  C   UNL A   1      32.794  18.496  25.609  1.00  0.00     0.012 A 
ATOM     27  C   UNL A   1      34.810  17.755  24.520  1.00  0.00     0.012 A 
ENDBRANCH  15  21
ENDBRANCH   9  14
ENDBRANCH   5   8
ENDBRANCH   3   4
ENDBRANCH   2   3
ENDBRANCH   1   2
BRANCH   1  28
ATOM     28  C   UNL A   1      33.357  29.691  26.555  1.00  0.00     0.116 C 
BRANCH  28  29
ATOM     29  N   UNL A   1      33.822  31.035  26.841  1.00  0.00    -0.352 N 
ATOM     30  C   UNL A   1      34.865  31.434  27.671  1.00  0.00     0.251 C 
ATOM     31  H   UNL A   1      33.336  31.761  26.387  1.00  0.00     0.163 HD
ATOM     32  O   UNL A   1      34.926  32.590  28.051  1.00  0.00    -0.269 OA
BRANCH  30  33
ATOM     33  C   UNL A   1      35.937  30.459  28.018  1.00  0.00     0.039 A 
ATOM     34  C   UNL A   1      35.968  29.918  29.311  1.00  0.00     0.014 A 
ATOM     35  C   UNL A   1      36.994  30.218  27.152  1.00  0.00     0.014 A 
ATOM     36  C   UNL A   1      37.135  29.312  29.789  1.00  0.00     0.010 A 
ATOM     37  C   UNL A   1      38.186  29.763  27.663  1.00  0.00     0.010 A 
ATOM     38  C   UNL A   1      38.270  29.315  28.987  1.00  0.00    -0.014 A 
BRANCH  38  39
ATOM     39  C   UNL A   1      39.610  28.882  29.368  1.00  0.00     0.031 A 
ATOM     40  C   UNL A   1      40.077  27.530  28.961  1.00  0.00     0.074 A 
ATOM     41  C   UNL A   1      40.502  29.793  29.815  1.00  0.00     0.049 A 
ATOM     42  N   UNL A   1      41.208  27.012  29.295  1.00  0.00    -0.248 NA
ATOM     43  C   UNL A   1      39.272  26.633  28.134  1.00  0.00     0.031 C 
ATOM     44  C   UNL A   1      41.957  29.722  29.697  1.00  0.00     0.029 A 
ATOM     45  N   UNL A   1      40.284  30.897  30.629  1.00  0.00    -0.354 N 
ATOM     46  C   UNL A   1      41.404  25.876  28.539  1.00  0.00     0.074 A 
ATOM     47  C   UNL A   1      40.152  25.669  27.853  1.00  0.00     0.031 C 
ATOM     48  C   UNL A   1      42.514  30.578  30.566  1.00  0.00     0.029 A 
ATOM     49  C   UNL A   1      41.444  31.097  31.398  1.00  0.00     0.049 A 
ATOM     50  H   UNL A   1      39.464  31.442  30.662  1.00  0.00     0.167 HD
ATOM     51  C   UNL A   1      42.646  25.310  28.507  1.00  0.00     0.037 A 
ATOM     52  C   UNL A   1      41.421  30.982  32.762  1.00  0.00     0.037 A 
ATOM     53  C   UNL A   1      43.551  26.006  29.419  1.00  0.00     0.049 A 
ATOM     54  C   UNL A   1      42.304  29.886  33.315  1.00  0.00     0.074 A 
ATOM     55  C   UNL A   1      44.502  26.996  29.234  1.00  0.00     0.029 A 
ATOM     56  N   UNL A   1      43.337  25.912  30.787  1.00  0.00    -0.354 N 
ATOM     57  N   UNL A   1      42.788  28.906  32.604  1.00  0.00    -0.248 NA
ATOM     58  C   UNL A   1      42.711  29.804  34.714  1.00  0.00     0.031 C 
ATOM     59  C   UNL A   1      44.840  27.522  30.507  1.00  0.00     0.029 A 
ATOM     60  C   UNL A   1      44.103  26.841  31.461  1.00  0.00     0.049 A 
ATOM     61  H   UNL A   1      42.725  25.272  31.217  1.00  0.00     0.167 HD
ATOM     62  C   UNL A   1      43.512  28.058  33.407  1.00  0.00     0.074 A 
ATOM     63  C   UNL A   1      43.461  28.688  34.714  1.00  0.00     0.031 C 
ATOM     64  C   UNL A   1      44.069  26.909  32.915  1.00  0.00     0.037 A 
BRANCH  51  65
ATOM     65  C   UNL A   1      43.124  24.278  27.503  1.00  0.00     0.058 A 
ATOM     66  C   UNL A   1      42.701  22.931  27.603  1.00  0.00     0.135 A 
ATOM     67  C   UNL A   1      44.017  24.526  26.443  1.00  0.00     0.135 A 
ATOM     68  F   UNL A   1      41.788  22.545  28.505  1.00  0.00    -0.206 F 
ATOM     69  C   UNL A   1      43.197  21.909  26.790  1.00  0.00     0.059 A 
ATOM     70  C   UNL A   1      44.570  23.513  25.651  1.00  0.00     0.059 A 
ATOM     71  F   UNL A   1      44.354  25.771  26.087  1.00  0.00    -0.206 F 
ATOM     72  C   UNL A   1      44.160  22.203  25.838  1.00  0.00     0.060 A 
BRANCH  72  73
ATOM     73  S   UNL A   1      44.845  20.861  24.849  1.00  0.00     0.124 S 
ATOM     74  O   UNL A   1      46.226  20.809  25.319  1.00  0.00    -0.237 OA
ATOM     75  O   UNL A   1      43.999  19.736  25.232  1.00  0.00    -0.237 OA
ATOM     76  O   UNL A   1      44.677  21.331  23.476  1.00  0.00    -0.744 OA
ENDBRANCH  72  73
ENDBRANCH  51  65
BRANCH  52  77
ATOM     77  C   UNL A   1      40.132  31.440  33.352  1.00  0.00     0.058 A 
ATOM     78  C   UNL A   1      39.269  30.437  33.835  1.00  0.00     0.135 A 
ATOM     79  C   UNL A   1      40.024  32.722  33.910  1.00  0.00     0.135 A 
ATOM     80  F   UNL A   1      39.315  29.202  33.309  1.00  0.00    -0.206 F 
ATOM     81  C   UNL A   1      38.498  30.635  34.972  1.00  0.00     0.059 A 
ATOM     82  C   UNL A   1      39.245  32.946  35.046  1.00  0.00     0.059 A 
ATOM     83  F   UNL A   1      40.812  33.717  33.476  1.00  0.00    -0.206 F 
ATOM     84  C   UNL A   1      38.566  31.869  35.618  1.00  0.00     0.060 A 
BRANCH  84  85
ATOM     85  S   UNL A   1      37.969  31.953  37.323  1.00  0.00     0.124 S 
ATOM     86  O   UNL A   1      36.957  33.000  37.244  1.00  0.00    -0.237 OA
ATOM     87  O   UNL A   1      37.460  30.594  37.509  1.00  0.00    -0.237 OA
ATOM     88  O   UNL A   1      39.168  32.287  38.082  1.00  0.00    -0.744 OA
ENDBRANCH  84  85
ENDBRANCH  52  77
BRANCH  64  89
ATOM     89  C   UNL A   1      44.692  25.764  33.698  1.00  0.00     0.058 A 
ATOM     90  C   UNL A   1      46.058  25.437  33.693  1.00  0.00     0.135 A 
ATOM     91  C   UNL A   1      43.907  25.022  34.623  1.00  0.00     0.135 A 
ATOM     92  F   UNL A   1      46.942  26.121  32.955  1.00  0.00    -0.206 F 
ATOM     93  C   UNL A   1      46.595  24.421  34.492  1.00  0.00     0.059 A 
ATOM     94  C   UNL A   1      44.432  24.051  35.474  1.00  0.00     0.059 A 
ATOM     95  F   UNL A   1      42.589  25.228  34.754  1.00  0.00    -0.206 F 
ATOM     96  C   UNL A   1      45.776  23.736  35.383  1.00  0.00     0.060 A 
BRANCH  96  97
ATOM     97  S   UNL A   1      46.479  22.486  36.473  1.00  0.00     0.124 S 
ATOM     98  O   UNL A   1      46.249  21.268  35.704  1.00  0.00    -0.237 OA
ATOM     99  O   UNL A   1      47.874  22.904  36.587  1.00  0.00    -0.237 OA
ATOM    100  O   UNL A   1      45.692  22.623  37.694  1.00  0.00    -0.744 OA
ENDBRANCH  96  97
ENDBRANCH  64  89
ENDBRANCH  38  39
ENDBRANCH  30  33
ENDBRANCH  28  29
ENDBRANCH   1  28
TORSDOF 16
ENDMDL
MODEL 3
REMARK VINA RESULT:     -14.1      4.249     11.113
REMARK SMILES Cc1ccc(-c2nc(C)cc(N3CCCC[C@H]3C(=O)NCCCCNC(=O)c3ccc(-c4c5nc(c(-c6c(F)cc(S(=O)(=O)[O-])cc6F)c6ccc([nH]6)c(-c6c(F)cc(S(=O)(=O)[O-])cc6F)c6nc(c(-c7c(F)cc(S(=O)(=O)[O-])cc7F)c7ccc4[nH]7)C=C6)C=C5)cc3)n2)cc1
REMARK SMILES IDX 23 1 22 2 21 3 20 4 18 5 19 6 17 8 12 9 13 10 14 11 16 12
REMARK SMILES IDX 15 13 11 14 6 15 7 16 94 17 8 18 9 19 10 20 5 21 1 22 2 23
REMARK SMILES IDX 3 24 96 25 4 26 95 27 24 28 25 29 26 30 27 32 28 33 29 34
REMARK SMILES IDX 93 35 30 36 92 37 31 38 32 39 33 40 86 41 34 42 91 43 85 44
REMARK SMILES IDX 87 45 35 46 90 47 84 48 83 49 36 51 70 52 49 53 69 54 50 55
REMARK SMILES IDX 53 56 68 57 88 58 51 59 52 60 67 62 89 63 54 64 37 65 38 66
REMARK SMILES IDX 47 67 39 68 40 69 46 70 48 71 41 72 42 73 43 74 44 75 45 76
REMARK SMILES IDX 71 77 72 78 81 79 73 80 74 81 80 82 82 83 75 84 76 85 77 86
REMARK SMILES IDX 78 87 79 88 55 89 56 90 65 91 57 92 58 93 64 94 66 95 59 96
REMARK SMILES IDX 60 97 61 98 62 99 63 100
REMARK H PARENT 20 7 25 31 87 50 53 61
REMARK Flexibility Score: inf
ROOT
ATOM      1  C   UNL A   1      36.926  21.739  24.414  1.00  0.00     0.023 C 
ENDROOT
BRANCH   1   2
ATOM      2  C   UNL A   1      36.374  20.440  25.000  1.00  0.00     0.023 C 
BRANCH   2   3
ATOM      3  C   UNL A   1      34.846  20.367  25.146  1.00  0.00     0.116 C 
BRANCH   3   4
ATOM      4  N   UNL A   1      34.356  21.076  26.316  1.00  0.00    -0.354 N 
ATOM      5  C   UNL A   1      33.363  21.963  26.560  1.00  0.00     0.242 C 
ATOM      6  O   UNL A   1      33.212  22.233  27.766  1.00  0.00    -0.273 OA
ATOM      7  H   UNL A   1      34.871  20.859  27.127  1.00  0.00     0.163 HD
BRANCH   5   8
ATOM      8  C   UNL A   1      32.437  22.670  25.522  1.00  0.00     0.173 C 
ATOM      9  N   UNL A   1      33.109  23.910  25.060  1.00  0.00    -0.344 N 
ATOM     10  C   UNL A   1      34.140  23.750  24.045  1.00  0.00     0.119 C 
ATOM     11  C   UNL A   1      33.578  23.085  22.794  1.00  0.00     0.022 C 
ATOM     12  C   UNL A   1      31.848  21.964  24.296  1.00  0.00     0.035 C 
ATOM     13  C   UNL A   1      32.818  21.804  23.124  1.00  0.00     0.004 C 
BRANCH   9  14
ATOM     14  C   UNL A   1      32.357  25.075  25.044  1.00  0.00     0.133 A 
ATOM     15  C   UNL A   1      32.065  27.271  25.644  1.00  0.00     0.161 A 
ATOM     16  N   UNL A   1      30.830  27.352  25.120  1.00  0.00    -0.233 NA
ATOM     17  N   UNL A   1      32.840  26.174  25.645  1.00  0.00    -0.211 NA
ATOM     18  C   UNL A   1      30.371  26.242  24.511  1.00  0.00     0.043 A 
ATOM     19  C   UNL A   1      28.991  26.317  23.934  1.00  0.00     0.067 C 
ATOM     20  C   UNL A   1      31.114  25.080  24.438  1.00  0.00     0.070 A 
BRANCH  15  21
ATOM     21  C   UNL A   1      32.624  28.483  26.242  1.00  0.00     0.019 A 
ATOM     22  C   UNL A   1      34.286  32.077  27.995  1.00  0.00     0.044 C 
ATOM     23  C   UNL A   1      33.721  30.831  27.384  1.00  0.00    -0.051 A 
ATOM     24  C   UNL A   1      32.419  30.830  26.872  1.00  0.00     0.004 A 
ATOM     25  C   UNL A   1      34.471  29.651  27.334  1.00  0.00     0.004 A 
ATOM     26  C   UNL A   1      31.882  29.673  26.298  1.00  0.00     0.012 A 
ATOM     27  C   UNL A   1      33.924  28.491  26.776  1.00  0.00     0.012 A 
ENDBRANCH  15  21
ENDBRANCH   9  14
ENDBRANCH   5   8
ENDBRANCH   3   4
ENDBRANCH   2   3
ENDBRANCH   1   2
BRANCH   1  28
ATOM     28  C   UNL A   1      37.602  22.641  25.431  1.00  0.00     0.116 C 
BRANCH  28  29
ATOM     29  N   UNL A   1      38.691  22.043  26.179  1.00  0.00    -0.352 N 
ATOM     30  C   UNL A   1      39.804  22.664  26.737  1.00  0.00     0.251 C 
ATOM     31  H   UNL A   1      38.636  21.069  26.309  1.00  0.00     0.163 HD
ATOM     32  O   UNL A   1      40.774  21.997  27.050  1.00  0.00    -0.269 OA
BRANCH  30  33
ATOM     33  C   UNL A   1      39.761  24.127  27.017  1.00  0.00     0.039 A 
ATOM     34  C   UNL A   1      40.386  25.006  26.120  1.00  0.00     0.014 A 
ATOM     35  C   UNL A   1      39.277  24.612  28.223  1.00  0.00     0.014 A 
ATOM     36  C   UNL A   1      40.695  26.312  26.521  1.00  0.00     0.010 A 
ATOM     37  C   UNL A   1      39.709  25.837  28.672  1.00  0.00     0.010 A 
ATOM     38  C   UNL A   1      40.429  26.693  27.830  1.00  0.00    -0.014 A 
BRANCH  38  39
ATOM     39  C   UNL A   1      40.821  27.943  28.472  1.00  0.00     0.031 A 
ATOM     40  C   UNL A   1      39.807  29.015  28.649  1.00  0.00     0.074 A 
ATOM     41  C   UNL A   1      41.987  28.004  29.152  1.00  0.00     0.049 A 
ATOM     42  N   UNL A   1      40.049  30.183  29.137  1.00  0.00    -0.248 NA
ATOM     43  C   UNL A   1      38.407  28.849  28.264  1.00  0.00     0.031 C 
ATOM     44  C   UNL A   1      42.293  28.874  30.286  1.00  0.00     0.029 A 
ATOM     45  N   UNL A   1      43.205  27.412  28.844  1.00  0.00    -0.354 N 
ATOM     46  C   UNL A   1      38.845  30.808  29.383  1.00  0.00     0.074 A 
ATOM     47  C   UNL A   1      37.853  29.943  28.792  1.00  0.00     0.031 C 
ATOM     48  C   UNL A   1      43.623  28.938  30.448  1.00  0.00     0.029 A 
ATOM     49  C   UNL A   1      44.224  28.258  29.316  1.00  0.00     0.049 A 
ATOM     50  H   UNL A   1      43.333  26.553  28.380  1.00  0.00     0.167 HD
ATOM     51  C   UNL A   1      38.831  31.933  30.156  1.00  0.00     0.037 A 
ATOM     52  C   UNL A   1      45.109  28.853  28.457  1.00  0.00     0.037 A 
ATOM     53  C   UNL A   1      40.192  32.333  30.505  1.00  0.00     0.049 A 
ATOM     54  C   UNL A   1      45.061  30.365  28.454  1.00  0.00     0.074 A 
ATOM     55  C   UNL A   1      40.980  32.131  31.626  1.00  0.00     0.029 A 
ATOM     56  N   UNL A   1      41.036  32.801  29.508  1.00  0.00    -0.354 N 
ATOM     57  N   UNL A   1      44.076  31.068  28.937  1.00  0.00    -0.248 NA
ATOM     58  C   UNL A   1      46.120  31.206  27.906  1.00  0.00     0.031 C 
ATOM     59  C   UNL A   1      42.318  32.453  31.286  1.00  0.00     0.029 A 
ATOM     60  C   UNL A   1      42.337  32.864  29.964  1.00  0.00     0.049 A 
ATOM     61  H   UNL A   1      40.748  33.054  28.601  1.00  0.00     0.167 HD
ATOM     62  C   UNL A   1      44.317  32.407  28.743  1.00  0.00     0.074 A 
ATOM     63  C   UNL A   1      45.629  32.438  28.125  1.00  0.00     0.031 C 
ATOM     64  C   UNL A   1      43.399  33.358  29.099  1.00  0.00     0.037 A 
BRANCH  51  65
ATOM     65  C   UNL A   1      37.602  32.556  30.792  1.00  0.00     0.058 A 
ATOM     66  C   UNL A   1      36.839  33.516  30.087  1.00  0.00     0.135 A 
ATOM     67  C   UNL A   1      37.134  32.287  32.093  1.00  0.00     0.135 A 
ATOM     68  F   UNL A   1      37.102  33.824  28.809  1.00  0.00    -0.206 F 
ATOM     69  C   UNL A   1      35.774  34.217  30.656  1.00  0.00     0.059 A 
ATOM     70  C   UNL A   1      36.105  33.013  32.704  1.00  0.00     0.059 A 
ATOM     71  F   UNL A   1      37.614  31.268  32.815  1.00  0.00    -0.206 F 
ATOM     72  C   UNL A   1      35.434  33.985  31.979  1.00  0.00     0.060 A 
BRANCH  72  73
ATOM     73  S   UNL A   1      34.106  34.952  32.720  1.00  0.00     0.124 S 
ATOM     74  O   UNL A   1      34.818  35.720  33.737  1.00  0.00    -0.237 OA
ATOM     75  O   UNL A   1      33.608  35.713  31.580  1.00  0.00    -0.237 OA
ATOM     76  O   UNL A   1      33.195  33.935  33.240  1.00  0.00    -0.744 OA
ENDBRANCH  72  73
ENDBRANCH  51  65
BRANCH  52  77
ATOM     77  C   UNL A   1      45.434  27.992  27.286  1.00  0.00     0.058 A 
ATOM     78  C   UNL A   1      46.455  27.040  27.468  1.00  0.00     0.135 A 
ATOM     79  C   UNL A   1      44.464  27.734  26.305  1.00  0.00     0.135 A 
ATOM     80  F   UNL A   1      47.422  27.259  28.374  1.00  0.00    -0.206 F 
ATOM     81  C   UNL A   1      46.390  25.788  26.872  1.00  0.00     0.059 A 
ATOM     82  C   UNL A   1      44.388  26.488  25.684  1.00  0.00     0.059 A 
ATOM     83  F   UNL A   1      43.479  28.616  26.080  1.00  0.00    -0.206 F 
ATOM     84  C   UNL A   1      45.301  25.497  26.051  1.00  0.00     0.060 A 
BRANCH  84  85
ATOM     85  S   UNL A   1      44.971  23.756  25.690  1.00  0.00     0.124 S 
ATOM     86  O   UNL A   1      43.576  23.616  26.093  1.00  0.00    -0.237 OA
ATOM     87  O   UNL A   1      45.221  23.715  24.250  1.00  0.00    -0.237 OA
ATOM     88  O   UNL A   1      45.943  23.052  26.519  1.00  0.00    -0.744 OA
ENDBRANCH  84  85
ENDBRANCH  52  77
BRANCH  64  89
ATOM     89  C   UNL A   1      43.405  34.838  28.752  1.00  0.00     0.058 A 
ATOM     90  C   UNL A   1      43.208  35.362  27.464  1.00  0.00     0.135 A 
ATOM     91  C   UNL A   1      43.476  35.813  29.786  1.00  0.00     0.135 A 
ATOM     92  F   UNL A   1      43.014  34.567  26.404  1.00  0.00    -0.206 F 
ATOM     93  C   UNL A   1      43.146  36.737  27.209  1.00  0.00     0.059 A 
ATOM     94  C   UNL A   1      43.352  37.182  29.562  1.00  0.00     0.059 A 
ATOM     95  F   UNL A   1      43.650  35.468  31.070  1.00  0.00    -0.206 F 
ATOM     96  C   UNL A   1      43.213  37.640  28.264  1.00  0.00     0.060 A 
BRANCH  96  97
ATOM     97  S   UNL A   1      43.049  39.406  27.949  1.00  0.00     0.124 S 
ATOM     98  O   UNL A   1      41.900  39.435  27.049  1.00  0.00    -0.237 OA
ATOM     99  O   UNL A   1      42.817  39.952  29.283  1.00  0.00    -0.237 OA
ATOM    100  O   UNL A   1      44.332  39.761  27.351  1.00  0.00    -0.744 OA
ENDBRANCH  96  97
ENDBRANCH  64  89
ENDBRANCH  38  39
ENDBRANCH  30  33
ENDBRANCH  28  29
ENDBRANCH   1  28
TORSDOF 16
ENDMDL
