MODEL 1
REMARK VINA RESULT:     -10.3      0.000      0.000
REMARK SMILES O=C(NCCCCNC(=O)[C@@H]1CC2(CCN(C(=O)C3(c4ccccc4F)CC3)CC2)C[NH2+]1)c1ccc(-c2c3nc(c(-c4c(F)cc(S(=O)(=O)[O-])cc4F)c4ccc([nH]4)c(-c4c(F)cc(S(=O)(=O)[O-])cc4F)c4nc(c(-c5c(F)cc(S(=O)(=O)[O-])cc5F)c5ccc2[nH]5)C=C4)C=C3)cc1
REMARK SMILES IDX 5 1 4 2 3 3 1 4 2 5 33 7 34 8 98 9 35 10 97 11 36 12 37 13
REMARK SMILES IDX 38 14 91 15 39 16 96 17 90 18 92 19 40 20 95 21 89 22 88 23
REMARK SMILES IDX 41 25 75 26 54 27 74 28 55 29 58 30 73 31 93 32 56 33 57 34
REMARK SMILES IDX 72 36 94 37 59 38 42 39 43 40 52 41 44 42 45 43 51 44 53 45
REMARK SMILES IDX 46 46 47 47 48 48 49 49 50 50 76 51 77 52 86 53 78 54 79 55
REMARK SMILES IDX 85 56 87 57 80 58 81 59 82 60 83 61 84 62 60 63 61 64 70 65
REMARK SMILES IDX 62 66 63 67 69 68 71 69 64 70 65 71 66 72 67 73 68 74 6 75
REMARK SMILES IDX 7 76 8 77 9 78 10 80 11 81 12 82 32 83 13 84 31 85 14 88
REMARK SMILES IDX 30 89 15 90 29 91 16 92 17 93 18 94 19 95 27 96 28 97 20 98
REMARK SMILES IDX 21 99 25 100 22 101 24 102 26 103 23 104
REMARK H PARENT 3 6 92 24 58 35 8 79 32 86 32 87
REMARK Flexibility Score: inf
ROOT
ATOM      1  C   UNL A   1      35.174  32.834  29.681  1.00  0.00     0.023 C 
ENDROOT
BRANCH   1   2
ATOM      2  C   UNL A   1      34.702  32.600  28.252  1.00  0.00     0.116 C 
BRANCH   2   3
ATOM      3  N   UNL A   1      33.990  31.343  28.084  1.00  0.00    -0.352 N 
ATOM      4  O   UNL A   1      33.750  29.129  27.751  1.00  0.00    -0.269 OA
ATOM      5  C   UNL A   1      34.492  30.063  28.027  1.00  0.00     0.251 C 
ATOM      6  H   UNL A   1      33.012  31.419  27.998  1.00  0.00     0.163 HD
BRANCH   5   7
ATOM      7  C   UNL A   1      35.934  29.826  28.269  1.00  0.00     0.039 A 
ATOM      8  C   UNL A   1      36.878  30.067  27.268  1.00  0.00     0.014 A 
ATOM      9  C   UNL A   1      36.345  29.356  29.520  1.00  0.00     0.014 A 
ATOM     10  C   UNL A   1      38.207  29.709  27.469  1.00  0.00     0.010 A 
ATOM     11  C   UNL A   1      37.695  29.068  29.747  1.00  0.00     0.010 A 
ATOM     12  C   UNL A   1      38.632  29.215  28.714  1.00  0.00    -0.014 A 
BRANCH  12  13
ATOM     13  C   UNL A   1      40.074  28.922  28.926  1.00  0.00     0.031 A 
ATOM     14  C   UNL A   1      40.666  27.595  28.543  1.00  0.00     0.074 A 
ATOM     15  C   UNL A   1      40.856  29.889  29.446  1.00  0.00     0.049 A 
ATOM     16  N   UNL A   1      41.907  27.191  28.644  1.00  0.00    -0.248 NA
ATOM     17  C   UNL A   1      39.754  26.588  27.979  1.00  0.00     0.031 C 
ATOM     18  C   UNL A   1      40.388  31.213  29.864  1.00  0.00     0.029 A 
ATOM     19  N   UNL A   1      42.204  29.921  29.691  1.00  0.00    -0.354 N 
ATOM     20  C   UNL A   1      41.924  25.884  28.175  1.00  0.00     0.074 A 
ATOM     21  C   UNL A   1      40.565  25.552  27.806  1.00  0.00     0.031 C 
ATOM     22  C   UNL A   1      41.436  31.943  30.268  1.00  0.00     0.029 A 
ATOM     23  C   UNL A   1      42.641  31.124  30.196  1.00  0.00     0.049 A 
ATOM     24  H   UNL A   1      42.802  29.157  29.525  1.00  0.00     0.167 HD
ATOM     25  C   UNL A   1      42.981  25.043  28.056  1.00  0.00     0.037 A 
ATOM     26  C   UNL A   1      43.871  31.523  30.572  1.00  0.00     0.037 A 
ATOM     27  C   UNL A   1      44.336  25.390  28.407  1.00  0.00     0.049 A 
ATOM     28  C   UNL A   1      45.020  30.568  30.444  1.00  0.00     0.074 A 
ATOM     29  C   UNL A   1      45.479  24.619  28.285  1.00  0.00     0.029 A 
ATOM     30  N   UNL A   1      44.731  26.605  28.950  1.00  0.00    -0.354 N 
ATOM     31  N   UNL A   1      45.020  29.342  29.979  1.00  0.00    -0.248 NA
ATOM     32  C   UNL A   1      46.333  31.043  30.900  1.00  0.00     0.031 C 
ATOM     33  C   UNL A   1      46.558  25.350  28.791  1.00  0.00     0.029 A 
ATOM     34  C   UNL A   1      46.096  26.595  29.189  1.00  0.00     0.049 A 
ATOM     35  H   UNL A   1      44.130  27.361  29.137  1.00  0.00     0.167 HD
ATOM     36  C   UNL A   1      46.331  28.898  30.083  1.00  0.00     0.074 A 
ATOM     37  C   UNL A   1      47.102  29.994  30.636  1.00  0.00     0.031 C 
ATOM     38  C   UNL A   1      46.847  27.689  29.752  1.00  0.00     0.037 A 
BRANCH  25  39
ATOM     39  C   UNL A   1      42.725  23.657  27.532  1.00  0.00     0.058 A 
ATOM     40  C   UNL A   1      42.567  22.579  28.419  1.00  0.00     0.135 A 
ATOM     41  C   UNL A   1      42.709  23.379  26.156  1.00  0.00     0.135 A 
ATOM     42  F   UNL A   1      42.570  22.788  29.744  1.00  0.00    -0.206 F 
ATOM     43  C   UNL A   1      42.414  21.275  27.961  1.00  0.00     0.059 A 
ATOM     44  C   UNL A   1      42.537  22.085  25.674  1.00  0.00     0.059 A 
ATOM     45  F   UNL A   1      42.837  24.376  25.266  1.00  0.00    -0.206 F 
ATOM     46  C   UNL A   1      42.404  21.037  26.586  1.00  0.00     0.060 A 
BRANCH  46  47
ATOM     47  S   UNL A   1      42.169  19.342  26.004  1.00  0.00     0.124 S 
ATOM     48  O   UNL A   1      40.735  19.307  25.751  1.00  0.00    -0.237 OA
ATOM     49  O   UNL A   1      43.028  19.300  24.824  1.00  0.00    -0.237 OA
ATOM     50  O   UNL A   1      42.632  18.533  27.129  1.00  0.00    -0.744 OA
ENDBRANCH  46  47
ENDBRANCH  25  39
BRANCH  26  51
ATOM     51  C   UNL A   1      44.055  32.900  31.097  1.00  0.00     0.058 A 
ATOM     52  C   UNL A   1      44.011  33.158  32.476  1.00  0.00     0.135 A 
ATOM     53  C   UNL A   1      44.196  33.991  30.228  1.00  0.00     0.135 A 
ATOM     54  F   UNL A   1      43.865  32.147  33.346  1.00  0.00    -0.206 F 
ATOM     55  C   UNL A   1      44.058  34.455  32.973  1.00  0.00     0.059 A 
ATOM     56  C   UNL A   1      44.270  35.296  30.704  1.00  0.00     0.059 A 
ATOM     57  F   UNL A   1      44.252  33.788  28.903  1.00  0.00    -0.206 F 
ATOM     58  C   UNL A   1      44.176  35.518  32.078  1.00  0.00     0.060 A 
BRANCH  58  59
ATOM     59  S   UNL A   1      44.192  37.198  32.741  1.00  0.00     0.124 S 
ATOM     60  O   UNL A   1      43.950  37.986  31.537  1.00  0.00    -0.237 OA
ATOM     61  O   UNL A   1      43.099  37.159  33.706  1.00  0.00    -0.237 OA
ATOM     62  O   UNL A   1      45.528  37.320  33.314  1.00  0.00    -0.744 OA
ENDBRANCH  58  59
ENDBRANCH  26  51
BRANCH  38  63
ATOM     63  C   UNL A   1      48.317  27.479  29.982  1.00  0.00     0.058 A 
ATOM     64  C   UNL A   1      48.781  26.959  31.200  1.00  0.00     0.135 A 
ATOM     65  C   UNL A   1      49.267  27.858  29.022  1.00  0.00     0.135 A 
ATOM     66  F   UNL A   1      47.913  26.583  32.151  1.00  0.00    -0.206 F 
ATOM     67  C   UNL A   1      50.141  26.839  31.465  1.00  0.00     0.059 A 
ATOM     68  C   UNL A   1      50.632  27.727  29.258  1.00  0.00     0.059 A 
ATOM     69  F   UNL A   1      48.870  28.347  27.836  1.00  0.00    -0.206 F 
ATOM     70  C   UNL A   1      51.059  27.231  30.490  1.00  0.00     0.060 A 
BRANCH  70  71
ATOM     71  S   UNL A   1      52.821  27.061  30.847  1.00  0.00     0.124 S 
ATOM     72  O   UNL A   1      53.392  27.010  29.505  1.00  0.00    -0.237 OA
ATOM     73  O   UNL A   1      53.101  28.273  31.610  1.00  0.00    -0.237 OA
ATOM     74  O   UNL A   1      52.893  25.818  31.610  1.00  0.00    -0.744 OA
ENDBRANCH  70  71
ENDBRANCH  38  63
ENDBRANCH  12  13
ENDBRANCH   5   7
ENDBRANCH   2   3
ENDBRANCH   1   2
BRANCH   1  75
ATOM     75  C   UNL A   1      36.635  33.267  29.830  1.00  0.00     0.023 C 
BRANCH  75  76
ATOM     76  C   UNL A   1      37.014  33.826  31.200  1.00  0.00     0.116 C 
BRANCH  76  77
ATOM     77  N   UNL A   1      36.086  33.431  32.244  1.00  0.00    -0.351 N 
ATOM     78  C   UNL A   1      36.236  33.507  33.599  1.00  0.00     0.278 C 
ATOM     79  H   UNL A   1      35.231  33.056  31.932  1.00  0.00     0.163 HD
ATOM     80  O   UNL A   1      35.259  33.271  34.311  1.00  0.00    -0.268 OA
BRANCH  78  81
ATOM     81  C   UNL A   1      37.609  33.905  34.181  1.00  0.00     0.273 C 
ATOM     82  C   UNL A   1      38.738  33.012  33.695  1.00  0.00     0.088 C 
ATOM     83  N   UNL A   1      37.664  33.733  35.646  1.00  0.00    -0.336 N 
ATOM     84  C   UNL A   1      38.772  31.822  34.679  1.00  0.00     0.029 C 
ATOM     85  C   UNL A   1      37.958  32.317  35.890  1.00  0.00     0.268 C 
ATOM     86  H   UNL A   1      36.768  33.984  36.065  1.00  0.00     0.346 HD
ATOM     87  H   UNL A   1      38.376  34.334  36.062  1.00  0.00     0.346 HD
ATOM     88  C   UNL A   1      40.221  31.483  35.083  1.00  0.00     0.034 C 
ATOM     89  C   UNL A   1      38.118  30.555  34.084  1.00  0.00     0.034 C 
ATOM     90  C   UNL A   1      41.023  30.829  33.953  1.00  0.00     0.120 C 
ATOM     91  C   UNL A   1      38.958  29.944  32.965  1.00  0.00     0.120 C 
ATOM     92  N   UNL A   1      40.321  29.669  33.418  1.00  0.00    -0.342 N 
ATOM     93  C   UNL A   1      40.704  28.328  33.492  1.00  0.00     0.233 C 
ATOM     94  O   UNL A   1      39.836  27.454  33.507  1.00  0.00    -0.274 OA
BRANCH  93  95
ATOM     95  C   UNL A   1      42.156  27.849  33.476  1.00  0.00     0.077 C 
ATOM     96  C   UNL A   1      43.061  27.599  32.273  1.00  0.00     0.023 C 
ATOM     97  C   UNL A   1      43.180  28.888  33.020  1.00  0.00     0.023 C 
BRANCH  95  98
ATOM     98  C   UNL A   1      42.496  26.938  34.677  1.00  0.00     0.003 A 
ATOM     99  C   UNL A   1      42.983  25.631  34.484  1.00  0.00     0.008 A 
ATOM    100  C   UNL A   1      42.272  27.343  36.002  1.00  0.00     0.127 A 
ATOM    101  C   UNL A   1      43.223  24.774  35.562  1.00  0.00     0.001 A 
ATOM    102  C   UNL A   1      42.490  26.490  37.084  1.00  0.00     0.039 A 
ATOM    103  F   UNL A   1      41.828  28.585  36.253  1.00  0.00    -0.207 F 
ATOM    104  C   UNL A   1      42.966  25.201  36.863  1.00  0.00     0.003 A 
ENDBRANCH  95  98
ENDBRANCH  93  95
ENDBRANCH  78  81
ENDBRANCH  76  77
ENDBRANCH  75  76
ENDBRANCH   1  75
TORSDOF 16
ENDMDL
MODEL 2
REMARK VINA RESULT:     -10.2      4.049     10.585
REMARK SMILES O=C(NCCCCNC(=O)[C@@H]1CC2(CCN(C(=O)C3(c4ccccc4F)CC3)CC2)C[NH2+]1)c1ccc(-c2c3nc(c(-c4c(F)cc(S(=O)(=O)[O-])cc4F)c4ccc([nH]4)c(-c4c(F)cc(S(=O)(=O)[O-])cc4F)c4nc(c(-c5c(F)cc(S(=O)(=O)[O-])cc5F)c5ccc2[nH]5)C=C4)C=C3)cc1
REMARK SMILES IDX 5 1 4 2 3 3 1 4 2 5 33 7 34 8 98 9 35 10 97 11 36 12 37 13
REMARK SMILES IDX 38 14 91 15 39 16 96 17 90 18 92 19 40 20 95 21 89 22 88 23
REMARK SMILES IDX 41 25 75 26 54 27 74 28 55 29 58 30 73 31 93 32 56 33 57 34
REMARK SMILES IDX 72 36 94 37 59 38 42 39 43 40 52 41 44 42 45 43 51 44 53 45
REMARK SMILES IDX 46 46 47 47 48 48 49 49 50 50 76 51 77 52 86 53 78 54 79 55
REMARK SMILES IDX 85 56 87 57 80 58 81 59 82 60 83 61 84 62 60 63 61 64 70 65
REMARK SMILES IDX 62 66 63 67 69 68 71 69 64 70 65 71 66 72 67 73 68 74 6 75
REMARK SMILES IDX 7 76 8 77 9 78 10 80 11 81 12 82 32 83 13 84 31 85 14 88
REMARK SMILES IDX 30 89 15 90 29 91 16 92 17 93 18 94 19 95 27 96 28 97 20 98
REMARK SMILES IDX 21 99 25 100 22 101 24 102 26 103 23 104
REMARK H PARENT 3 6 92 24 58 35 8 79 32 86 32 87
REMARK Flexibility Score: inf
ROOT
ATOM      1  C   UNL A   1      35.936  33.341  28.905  1.00  0.00     0.023 C 
ENDROOT
BRANCH   1   2
ATOM      2  C   UNL A   1      36.842  32.934  30.060  1.00  0.00     0.116 C 
BRANCH   2   3
ATOM      3  N   UNL A   1      36.265  31.895  30.898  1.00  0.00    -0.352 N 
ATOM      4  O   UNL A   1      36.027  29.831  31.766  1.00  0.00    -0.269 OA
ATOM      5  C   UNL A   1      36.715  30.614  31.125  1.00  0.00     0.251 C 
ATOM      6  H   UNL A   1      35.436  32.141  31.368  1.00  0.00     0.163 HD
BRANCH   5   7
ATOM      7  C   UNL A   1      38.018  30.182  30.566  1.00  0.00     0.039 A 
ATOM      8  C   UNL A   1      39.100  29.902  31.403  1.00  0.00     0.014 A 
ATOM      9  C   UNL A   1      38.154  30.056  29.180  1.00  0.00     0.014 A 
ATOM     10  C   UNL A   1      40.349  29.634  30.853  1.00  0.00     0.010 A 
ATOM     11  C   UNL A   1      39.392  29.709  28.631  1.00  0.00     0.010 A 
ATOM     12  C   UNL A   1      40.508  29.524  29.461  1.00  0.00    -0.014 A 
BRANCH  12  13
ATOM     13  C   UNL A   1      41.835  29.151  28.908  1.00  0.00     0.031 A 
ATOM     14  C   UNL A   1      42.969  30.136  28.865  1.00  0.00     0.074 A 
ATOM     15  C   UNL A   1      42.016  27.890  28.467  1.00  0.00     0.049 A 
ATOM     16  N   UNL A   1      44.192  29.961  28.433  1.00  0.00    -0.248 NA
ATOM     17  C   UNL A   1      42.701  31.493  29.365  1.00  0.00     0.031 C 
ATOM     18  C   UNL A   1      40.983  26.850  28.451  1.00  0.00     0.029 A 
ATOM     19  N   UNL A   1      43.128  27.260  27.971  1.00  0.00    -0.354 N 
ATOM     20  C   UNL A   1      44.834  31.183  28.592  1.00  0.00     0.074 A 
ATOM     21  C   UNL A   1      43.859  32.100  29.142  1.00  0.00     0.031 C 
ATOM     22  C   UNL A   1      41.521  25.703  28.016  1.00  0.00     0.029 A 
ATOM     23  C   UNL A   1      42.918  25.936  27.666  1.00  0.00     0.049 A 
ATOM     24  H   UNL A   1      43.993  27.713  27.844  1.00  0.00     0.167 HD
ATOM     25  C   UNL A   1      46.120  31.503  28.311  1.00  0.00     0.037 A 
ATOM     26  C   UNL A   1      43.750  25.011  27.150  1.00  0.00     0.037 A 
ATOM     27  C   UNL A   1      47.090  30.576  27.782  1.00  0.00     0.049 A 
ATOM     28  C   UNL A   1      45.165  25.396  26.834  1.00  0.00     0.074 A 
ATOM     29  C   UNL A   1      48.427  30.798  27.502  1.00  0.00     0.029 A 
ATOM     30  N   UNL A   1      46.828  29.254  27.451  1.00  0.00    -0.354 N 
ATOM     31  N   UNL A   1      45.759  26.552  27.010  1.00  0.00    -0.248 NA
ATOM     32  C   UNL A   1      46.020  24.360  26.240  1.00  0.00     0.031 C 
ATOM     33  C   UNL A   1      48.964  29.624  26.964  1.00  0.00     0.029 A 
ATOM     34  C   UNL A   1      47.973  28.656  26.948  1.00  0.00     0.049 A 
ATOM     35  H   UNL A   1      45.957  28.807  27.558  1.00  0.00     0.167 HD
ATOM     36  C   UNL A   1      47.058  26.383  26.552  1.00  0.00     0.074 A 
ATOM     37  C   UNL A   1      47.171  25.008  26.110  1.00  0.00     0.031 C 
ATOM     38  C   UNL A   1      48.066  27.289  26.501  1.00  0.00     0.037 A 
BRANCH  25  39
ATOM     39  C   UNL A   1      46.566  32.918  28.559  1.00  0.00     0.058 A 
ATOM     40  C   UNL A   1      47.032  33.305  29.827  1.00  0.00     0.135 A 
ATOM     41  C   UNL A   1      46.466  33.908  27.569  1.00  0.00     0.135 A 
ATOM     42  F   UNL A   1      47.152  32.399  30.809  1.00  0.00    -0.206 F 
ATOM     43  C   UNL A   1      47.371  34.625  30.107  1.00  0.00     0.059 A 
ATOM     44  C   UNL A   1      46.819  35.231  27.820  1.00  0.00     0.059 A 
ATOM     45  F   UNL A   1      46.045  33.587  26.335  1.00  0.00    -0.206 F 
ATOM     46  C   UNL A   1      47.257  35.582  29.098  1.00  0.00     0.060 A 
BRANCH  46  47
ATOM     47  S   UNL A   1      47.734  37.286  29.466  1.00  0.00     0.124 S 
ATOM     48  O   UNL A   1      48.321  37.713  28.202  1.00  0.00    -0.237 OA
ATOM     49  O   UNL A   1      46.452  37.895  29.813  1.00  0.00    -0.237 OA
ATOM     50  O   UNL A   1      48.667  37.141  30.579  1.00  0.00    -0.744 OA
ENDBRANCH  46  47
ENDBRANCH  25  39
BRANCH  26  51
ATOM     51  C   UNL A   1      43.245  23.636  26.913  1.00  0.00     0.058 A 
ATOM     52  C   UNL A   1      43.100  22.727  27.973  1.00  0.00     0.135 A 
ATOM     53  C   UNL A   1      42.975  23.179  25.615  1.00  0.00     0.135 A 
ATOM     54  F   UNL A   1      43.357  23.115  29.232  1.00  0.00    -0.206 F 
ATOM     55  C   UNL A   1      42.747  21.402  27.750  1.00  0.00     0.059 A 
ATOM     56  C   UNL A   1      42.597  21.863  25.370  1.00  0.00     0.059 A 
ATOM     57  F   UNL A   1      43.092  24.017  24.573  1.00  0.00    -0.206 F 
ATOM     58  C   UNL A   1      42.509  20.976  26.443  1.00  0.00     0.060 A 
BRANCH  58  59
ATOM     59  S   UNL A   1      42.093  19.240  26.170  1.00  0.00     0.124 S 
ATOM     60  O   UNL A   1      42.988  18.898  25.070  1.00  0.00    -0.237 OA
ATOM     61  O   UNL A   1      42.413  18.640  27.461  1.00  0.00    -0.237 OA
ATOM     62  O   UNL A   1      40.673  19.284  25.835  1.00  0.00    -0.744 OA
ENDBRANCH  58  59
ENDBRANCH  26  51
BRANCH  38  63
ATOM     63  C   UNL A   1      49.382  26.827  25.943  1.00  0.00     0.058 A 
ATOM     64  C   UNL A   1      50.327  26.201  26.770  1.00  0.00     0.135 A 
ATOM     65  C   UNL A   1      49.733  27.068  24.606  1.00  0.00     0.135 A 
ATOM     66  F   UNL A   1      50.040  25.949  28.056  1.00  0.00    -0.206 F 
ATOM     67  C   UNL A   1      51.584  25.846  26.293  1.00  0.00     0.059 A 
ATOM     68  C   UNL A   1      50.977  26.702  24.102  1.00  0.00     0.059 A 
ATOM     69  F   UNL A   1      48.856  27.651  23.773  1.00  0.00    -0.206 F 
ATOM     70  C   UNL A   1      51.903  26.105  24.960  1.00  0.00     0.060 A 
BRANCH  70  71
ATOM     71  S   UNL A   1      53.536  25.630  24.354  1.00  0.00     0.124 S 
ATOM     72  O   UNL A   1      54.411  26.451  25.184  1.00  0.00    -0.237 OA
ATOM     73  O   UNL A   1      53.562  24.196  24.627  1.00  0.00    -0.237 OA
ATOM     74  O   UNL A   1      53.490  25.990  22.940  1.00  0.00    -0.744 OA
ENDBRANCH  70  71
ENDBRANCH  38  63
ENDBRANCH  12  13
ENDBRANCH   5   7
ENDBRANCH   2   3
ENDBRANCH   1   2
BRANCH   1  75
ATOM     75  C   UNL A   1      35.774  32.301  27.794  1.00  0.00     0.023 C 
BRANCH  75  76
ATOM     76  C   UNL A   1      34.624  31.315  27.984  1.00  0.00     0.116 C 
BRANCH  76  77
ATOM     77  N   UNL A   1      33.926  31.022  26.745  1.00  0.00    -0.351 N 
ATOM     78  C   UNL A   1      33.090  29.981  26.457  1.00  0.00     0.278 C 
ATOM     79  H   UNL A   1      34.076  31.661  26.012  1.00  0.00     0.163 HD
ATOM     80  O   UNL A   1      32.468  30.006  25.393  1.00  0.00    -0.268 OA
BRANCH  78  81
ATOM     81  C   UNL A   1      32.942  28.833  27.477  1.00  0.00     0.273 C 
ATOM     82  C   UNL A   1      33.419  27.495  26.936  1.00  0.00     0.088 C 
ATOM     83  N   UNL A   1      31.529  28.564  27.812  1.00  0.00    -0.336 N 
ATOM     84  C   UNL A   1      32.198  26.885  26.215  1.00  0.00     0.029 C 
ATOM     85  C   UNL A   1      31.004  27.701  26.748  1.00  0.00     0.268 C 
ATOM     86  H   UNL A   1      31.003  29.437  27.849  1.00  0.00     0.346 HD
ATOM     87  H   UNL A   1      31.445  28.115  28.724  1.00  0.00     0.346 HD
ATOM     88  C   UNL A   1      32.047  25.389  26.557  1.00  0.00     0.034 C 
ATOM     89  C   UNL A   1      32.295  27.030  24.679  1.00  0.00     0.034 C 
ATOM     90  C   UNL A   1      33.121  24.512  25.906  1.00  0.00     0.120 C 
ATOM     91  C   UNL A   1      33.378  26.135  24.083  1.00  0.00     0.120 C 
ATOM     92  N   UNL A   1      33.179  24.739  24.467  1.00  0.00    -0.342 N 
ATOM     93  C   UNL A   1      32.853  23.843  23.446  1.00  0.00     0.233 C 
ATOM     94  O   UNL A   1      32.428  24.279  22.375  1.00  0.00    -0.274 OA
BRANCH  93  95
ATOM     95  C   UNL A   1      33.063  22.330  23.534  1.00  0.00     0.077 C 
ATOM     96  C   UNL A   1      32.055  21.251  23.919  1.00  0.00     0.023 C 
ATOM     97  C   UNL A   1      32.332  21.508  22.473  1.00  0.00     0.023 C 
BRANCH  95  98
ATOM     98  C   UNL A   1      34.514  21.952  23.907  1.00  0.00     0.003 A 
ATOM     99  C   UNL A   1      34.782  20.957  24.869  1.00  0.00     0.008 A 
ATOM    100  C   UNL A   1      35.620  22.623  23.363  1.00  0.00     0.127 A 
ATOM    101  C   UNL A   1      36.089  20.660  25.267  1.00  0.00     0.001 A 
ATOM    102  C   UNL A   1      36.926  22.346  23.766  1.00  0.00     0.039 A 
ATOM    103  F   UNL A   1      35.431  23.566  22.427  1.00  0.00    -0.207 F 
ATOM    104  C   UNL A   1      37.161  21.363  24.723  1.00  0.00     0.003 A 
ENDBRANCH  95  98
ENDBRANCH  93  95
ENDBRANCH  78  81
ENDBRANCH  76  77
ENDBRANCH  75  76
ENDBRANCH   1  75
TORSDOF 16
ENDMDL
MODEL 3
REMARK VINA RESULT:     -10.0      0.805      8.069
REMARK SMILES O=C(NCCCCNC(=O)[C@@H]1CC2(CCN(C(=O)C3(c4ccccc4F)CC3)CC2)C[NH2+]1)c1ccc(-c2c3nc(c(-c4c(F)cc(S(=O)(=O)[O-])cc4F)c4ccc([nH]4)c(-c4c(F)cc(S(=O)(=O)[O-])cc4F)c4nc(c(-c5c(F)cc(S(=O)(=O)[O-])cc5F)c5ccc2[nH]5)C=C4)C=C3)cc1
REMARK SMILES IDX 5 1 4 2 3 3 1 4 2 5 33 7 34 8 98 9 35 10 97 11 36 12 37 13
REMARK SMILES IDX 38 14 91 15 39 16 96 17 90 18 92 19 40 20 95 21 89 22 88 23
REMARK SMILES IDX 41 25 75 26 54 27 74 28 55 29 58 30 73 31 93 32 56 33 57 34
REMARK SMILES IDX 72 36 94 37 59 38 42 39 43 40 52 41 44 42 45 43 51 44 53 45
REMARK SMILES IDX 46 46 47 47 48 48 49 49 50 50 76 51 77 52 86 53 78 54 79 55
REMARK SMILES IDX 85 56 87 57 80 58 81 59 82 60 83 61 84 62 60 63 61 64 70 65
REMARK SMILES IDX 62 66 63 67 69 68 71 69 64 70 65 71 66 72 67 73 68 74 6 75
REMARK SMILES IDX 7 76 8 77 9 78 10 80 11 81 12 82 32 83 13 84 31 85 14 88
REMARK SMILES IDX 30 89 15 90 29 91 16 92 17 93 18 94 19 95 27 96 28 97 20 98
REMARK SMILES IDX 21 99 25 100 22 101 24 102 26 103 23 104
REMARK H PARENT 3 6 92 24 58 35 8 79 32 86 32 87
REMARK Flexibility Score: inf
ROOT
ATOM      1  C   UNL A   1      35.171  32.888  29.347  1.00  0.00     0.023 C 
ENDROOT
BRANCH   1   2
ATOM      2  C   UNL A   1      34.607  32.522  27.980  1.00  0.00     0.116 C 
BRANCH   2   3
ATOM      3  N   UNL A   1      33.928  31.236  27.968  1.00  0.00    -0.352 N 
ATOM      4  O   UNL A   1      33.746  28.993  27.902  1.00  0.00    -0.269 OA
ATOM      5  C   UNL A   1      34.464  29.971  28.059  1.00  0.00     0.251 C 
ATOM      6  H   UNL A   1      32.948  31.275  27.880  1.00  0.00     0.163 HD
BRANCH   5   7
ATOM      7  C   UNL A   1      35.913  29.803  28.319  1.00  0.00     0.039 A 
ATOM      8  C   UNL A   1      36.850  29.992  27.300  1.00  0.00     0.014 A 
ATOM      9  C   UNL A   1      36.337  29.450  29.603  1.00  0.00     0.014 A 
ATOM     10  C   UNL A   1      38.189  29.694  27.529  1.00  0.00     0.010 A 
ATOM     11  C   UNL A   1      37.695  29.226  29.852  1.00  0.00     0.010 A 
ATOM     12  C   UNL A   1      38.629  29.318  28.809  1.00  0.00    -0.014 A 
BRANCH  12  13
ATOM     13  C   UNL A   1      40.079  29.091  29.043  1.00  0.00     0.031 A 
ATOM     14  C   UNL A   1      40.945  30.152  29.662  1.00  0.00     0.074 A 
ATOM     15  C   UNL A   1      40.603  27.894  28.715  1.00  0.00     0.049 A 
ATOM     16  N   UNL A   1      42.221  30.103  29.951  1.00  0.00    -0.248 NA
ATOM     17  C   UNL A   1      40.305  31.433  29.997  1.00  0.00     0.031 C 
ATOM     18  C   UNL A   1      39.858  26.792  28.098  1.00  0.00     0.029 A 
ATOM     19  N   UNL A   1      41.869  27.392  28.870  1.00  0.00    -0.354 N 
ATOM     20  C   UNL A   1      42.542  31.345  30.484  1.00  0.00     0.074 A 
ATOM     21  C   UNL A   1      41.330  32.137  30.462  1.00  0.00     0.031 C 
ATOM     22  C   UNL A   1      40.667  25.731  27.972  1.00  0.00     0.029 A 
ATOM     23  C   UNL A   1      42.001  26.092  28.442  1.00  0.00     0.049 A 
ATOM     24  H   UNL A   1      42.614  27.913  29.249  1.00  0.00     0.167 HD
ATOM     25  C   UNL A   1      43.736  31.778  30.956  1.00  0.00     0.037 A 
ATOM     26  C   UNL A   1      43.075  25.280  28.415  1.00  0.00     0.037 A 
ATOM     27  C   UNL A   1      44.933  30.974  30.993  1.00  0.00     0.049 A 
ATOM     28  C   UNL A   1      44.388  25.790  28.930  1.00  0.00     0.074 A 
ATOM     29  C   UNL A   1      46.180  31.313  31.489  1.00  0.00     0.029 A 
ATOM     30  N   UNL A   1      45.034  29.675  30.515  1.00  0.00    -0.354 N 
ATOM     31  N   UNL A   1      44.666  26.962  29.449  1.00  0.00    -0.248 NA
ATOM     32  C   UNL A   1      45.535  24.877  28.846  1.00  0.00     0.031 C 
ATOM     33  C   UNL A   1      47.045  30.236  31.274  1.00  0.00     0.029 A 
ATOM     34  C   UNL A   1      46.327  29.208  30.684  1.00  0.00     0.049 A 
ATOM     35  H   UNL A   1      44.295  29.162  30.116  1.00  0.00     0.167 HD
ATOM     36  C   UNL A   1      46.020  26.926  29.757  1.00  0.00     0.074 A 
ATOM     37  C   UNL A   1      46.500  25.611  29.385  1.00  0.00     0.031 C 
ATOM     38  C   UNL A   1      46.794  27.900  30.298  1.00  0.00     0.037 A 
BRANCH  25  39
ATOM     39  C   UNL A   1      43.823  33.189  31.467  1.00  0.00     0.058 A 
ATOM     40  C   UNL A   1      43.888  34.268  30.570  1.00  0.00     0.135 A 
ATOM     41  C   UNL A   1      43.917  33.473  32.839  1.00  0.00     0.135 A 
ATOM     42  F   UNL A   1      43.799  34.055  29.248  1.00  0.00    -0.206 F 
ATOM     43  C   UNL A   1      44.054  35.576  31.013  1.00  0.00     0.059 A 
ATOM     44  C   UNL A   1      44.062  34.776  33.307  1.00  0.00     0.059 A 
ATOM     45  F   UNL A   1      43.841  32.480  33.739  1.00  0.00    -0.206 F 
ATOM     46  C   UNL A   1      44.144  35.821  32.384  1.00  0.00     0.060 A 
BRANCH  46  47
ATOM     47  S   UNL A   1      44.325  37.528  32.948  1.00  0.00     0.124 S 
ATOM     48  O   UNL A   1      45.581  37.470  33.684  1.00  0.00    -0.237 OA
ATOM     49  O   UNL A   1      44.356  38.265  31.687  1.00  0.00    -0.237 OA
ATOM     50  O   UNL A   1      43.128  37.744  33.756  1.00  0.00    -0.744 OA
ENDBRANCH  46  47
ENDBRANCH  25  39
BRANCH  26  51
ATOM     51  C   UNL A   1      42.927  23.903  27.883  1.00  0.00     0.058 A 
ATOM     52  C   UNL A   1      42.946  23.657  26.501  1.00  0.00     0.135 A 
ATOM     53  C   UNL A   1      42.683  22.820  28.740  1.00  0.00     0.135 A 
ATOM     54  F   UNL A   1      43.165  24.663  25.641  1.00  0.00    -0.206 F 
ATOM     55  C   UNL A   1      42.687  22.393  25.985  1.00  0.00     0.059 A 
ATOM     56  C   UNL A   1      42.444  21.541  28.247  1.00  0.00     0.059 A 
ATOM     57  F   UNL A   1      42.665  23.009  30.068  1.00  0.00    -0.206 F 
ATOM     58  C   UNL A   1      42.425  21.343  26.866  1.00  0.00     0.060 A 
BRANCH  58  59
ATOM     59  S   UNL A   1      42.047  19.718  26.175  1.00  0.00     0.124 S 
ATOM     60  O   UNL A   1      42.918  19.692  25.005  1.00  0.00    -0.237 OA
ATOM     61  O   UNL A   1      42.421  18.825  27.267  1.00  0.00    -0.237 OA
ATOM     62  O   UNL A   1      40.618  19.797  25.894  1.00  0.00    -0.744 OA
ENDBRANCH  58  59
ENDBRANCH  26  51
BRANCH  38  63
ATOM     63  C   UNL A   1      48.245  27.585  30.518  1.00  0.00     0.058 A 
ATOM     64  C   UNL A   1      48.676  27.009  31.724  1.00  0.00     0.135 A 
ATOM     65  C   UNL A   1      49.218  27.917  29.562  1.00  0.00     0.135 A 
ATOM     66  F   UNL A   1      47.786  26.675  32.670  1.00  0.00    -0.206 F 
ATOM     67  C   UNL A   1      50.025  26.791  31.981  1.00  0.00     0.059 A 
ATOM     68  C   UNL A   1      50.571  27.689  29.790  1.00  0.00     0.059 A 
ATOM     69  F   UNL A   1      48.853  28.457  28.388  1.00  0.00    -0.206 F 
ATOM     70  C   UNL A   1      50.966  27.140  31.011  1.00  0.00     0.060 A 
BRANCH  70  71
ATOM     71  S   UNL A   1      52.712  26.842  31.358  1.00  0.00     0.124 S 
ATOM     72  O   UNL A   1      53.077  28.044  32.100  1.00  0.00    -0.237 OA
ATOM     73  O   UNL A   1      52.669  25.605  32.132  1.00  0.00    -0.237 OA
ATOM     74  O   UNL A   1      53.305  26.719  30.028  1.00  0.00    -0.744 OA
ENDBRANCH  70  71
ENDBRANCH  38  63
ENDBRANCH  12  13
ENDBRANCH   5   7
ENDBRANCH   2   3
ENDBRANCH   1   2
BRANCH   1  75
ATOM     75  C   UNL A   1      36.653  33.271  29.369  1.00  0.00     0.023 C 
BRANCH  75  76
ATOM     76  C   UNL A   1      37.272  33.410  30.758  1.00  0.00     0.116 C 
BRANCH  76  77
ATOM     77  N   UNL A   1      36.484  32.764  31.791  1.00  0.00    -0.351 N 
ATOM     78  C   UNL A   1      36.658  32.790  33.146  1.00  0.00     0.278 C 
ATOM     79  H   UNL A   1      35.719  32.233  31.471  1.00  0.00     0.163 HD
ATOM     80  O   UNL A   1      35.776  32.307  33.859  1.00  0.00    -0.268 OA
BRANCH  78  81
ATOM     81  C   UNL A   1      37.932  33.439  33.726  1.00  0.00     0.273 C 
ATOM     82  C   UNL A   1      39.186  32.625  33.454  1.00  0.00     0.088 C 
ATOM     83  N   UNL A   1      37.900  33.507  35.201  1.00  0.00    -0.336 N 
ATOM     84  C   UNL A   1      39.282  31.618  34.620  1.00  0.00     0.029 C 
ATOM     85  C   UNL A   1      38.332  32.193  35.689  1.00  0.00     0.268 C 
ATOM     86  H   UNL A   1      36.953  33.709  35.524  1.00  0.00     0.346 HD
ATOM     87  H   UNL A   1      38.508  34.247  35.549  1.00  0.00     0.346 HD
ATOM     88  C   UNL A   1      40.727  31.526  35.151  1.00  0.00     0.034 C 
ATOM     89  C   UNL A   1      38.818  30.202  34.208  1.00  0.00     0.034 C 
ATOM     90  C   UNL A   1      41.676  30.805  34.188  1.00  0.00     0.120 C 
ATOM     91  C   UNL A   1      39.799  29.531  33.250  1.00  0.00     0.120 C 
ATOM     92  N   UNL A   1      41.149  29.499  33.813  1.00  0.00    -0.342 N 
ATOM     93  C   UNL A   1      41.673  28.243  34.127  1.00  0.00     0.233 C 
ATOM     94  O   UNL A   1      40.909  27.282  34.239  1.00  0.00    -0.274 OA
BRANCH  93  95
ATOM     95  C   UNL A   1      43.167  27.949  34.267  1.00  0.00     0.077 C 
ATOM     96  C   UNL A   1      44.347  28.887  34.030  1.00  0.00     0.023 C 
ATOM     97  C   UNL A   1      43.866  28.659  35.426  1.00  0.00     0.023 C 
BRANCH  95  98
ATOM     98  C   UNL A   1      43.513  26.471  33.975  1.00  0.00     0.003 A 
ATOM     99  C   UNL A   1      44.119  26.091  32.762  1.00  0.00     0.008 A 
ATOM    100  C   UNL A   1      43.179  25.441  34.868  1.00  0.00     0.127 A 
ATOM    101  C   UNL A   1      44.368  24.749  32.458  1.00  0.00     0.001 A 
ATOM    102  C   UNL A   1      43.406  24.098  34.567  1.00  0.00     0.039 A 
ATOM    103  F   UNL A   1      42.618  25.740  36.050  1.00  0.00    -0.207 F 
ATOM    104  C   UNL A   1      44.001  23.752  33.357  1.00  0.00     0.003 A 
ENDBRANCH  95  98
ENDBRANCH  93  95
ENDBRANCH  78  81
ENDBRANCH  76  77
ENDBRANCH  75  76
ENDBRANCH   1  75
TORSDOF 16
ENDMDL
