MODEL 1
REMARK VINA RESULT:     -11.6      0.000      0.000
REMARK SMILES C[C@@H]1CCCN(c2ccc(NC(=O)Cc3cccs3)c(C(=O)NCCCCNC(=O)c3ccc(-c4c5nc(c(-c6c(F)cc(S(=O)(=O)[O-])cc6F)c6ccc([nH]6)c(-c6c(F)cc(S(=O)(=O)[O-])cc6F)c6nc(c(-c7c(F)cc(S(=O)(=O)[O-])cc7F)c7ccc4[nH]7)C=C6)C=C5)cc3)c2)C1
REMARK SMILES IDX 25 1 24 2 23 3 21 4 22 5 20 7 7 8 8 9 97 10 9 11 10 12 6 13
REMARK SMILES IDX 1 14 2 15 3 16 98 17 4 18 5 19 11 20 12 21 13 23 14 24 15 25
REMARK SMILES IDX 16 26 19 27 17 28 18 29 26 30 27 31 28 32 29 33 30 35 31 36
REMARK SMILES IDX 32 37 96 38 33 39 95 40 34 41 35 42 36 43 89 44 37 45 94 46
REMARK SMILES IDX 88 47 90 48 38 49 93 50 87 51 86 52 39 54 73 55 52 56 72 57
REMARK SMILES IDX 53 58 56 59 71 60 91 61 54 62 55 63 70 65 92 66 57 67 40 68
REMARK SMILES IDX 41 69 50 70 42 71 43 72 49 73 51 74 44 75 45 76 46 77 47 78
REMARK SMILES IDX 48 79 74 80 75 81 84 82 76 83 77 84 83 85 85 86 78 87 79 88
REMARK SMILES IDX 80 89 81 90 82 91 58 92 59 93 68 94 60 95 61 96 67 97 69 98
REMARK SMILES IDX 62 99 63 100 64 101 65 102 66 103
REMARK H PARENT 23 6 11 22 28 34 90 53 56 64
REMARK Flexibility Score: inf
ROOT
ATOM      1  C   UNL A   1      37.378  21.779  24.520  1.00  0.00     0.023 C 
ENDROOT
BRANCH   1   2
ATOM      2  C   UNL A   1      36.953  23.014  25.306  1.00  0.00     0.116 C 
BRANCH   2   3
ATOM      3  N   UNL A   1      36.155  22.764  26.496  1.00  0.00    -0.352 N 
ATOM      4  C   UNL A   1      34.784  22.679  26.656  1.00  0.00     0.253 C 
ATOM      5  O   UNL A   1      34.340  22.429  27.776  1.00  0.00    -0.269 OA
ATOM      6  H   UNL A   1      36.676  22.634  27.322  1.00  0.00     0.163 HD
BRANCH   4   7
ATOM      7  C   UNL A   1      33.821  22.958  25.543  1.00  0.00     0.065 A 
ATOM      8  C   UNL A   1      31.961  24.318  24.747  1.00  0.00     0.038 A 
ATOM      9  C   UNL A   1      31.740  23.366  23.756  1.00  0.00     0.028 A 
ATOM     10  C   UNL A   1      33.087  24.155  25.548  1.00  0.00     0.042 A 
ATOM     11  C   UNL A   1      32.573  22.253  23.609  1.00  0.00     0.029 A 
ATOM     12  C   UNL A   1      33.586  21.991  24.531  1.00  0.00     0.054 A 
BRANCH   8  13
ATOM     13  N   UNL A   1      31.045  25.333  24.960  1.00  0.00    -0.371 N 
ATOM     14  C   UNL A   1      31.724  28.410  27.125  1.00  0.00     0.009 C 
ATOM     15  C   UNL A   1      31.689  27.542  25.867  1.00  0.00     0.005 C 
ATOM     16  C   UNL A   1      30.818  28.196  24.786  1.00  0.00     0.007 C 
ATOM     17  C   UNL A   1      31.177  26.124  26.191  1.00  0.00     0.119 C 
ATOM     18  C   UNL A   1      30.763  27.319  23.537  1.00  0.00     0.022 C 
ATOM     19  C   UNL A   1      30.266  25.914  23.871  1.00  0.00     0.116 C 
ENDBRANCH   8  13
BRANCH  12  20
ATOM     20  N   UNL A   1      34.362  20.808  24.509  1.00  0.00    -0.325 N 
ATOM     21  C   UNL A   1      34.101  19.469  24.566  1.00  0.00     0.229 C 
ATOM     22  H   UNL A   1      35.326  20.995  24.435  1.00  0.00     0.169 HD
ATOM     23  O   UNL A   1      35.070  18.701  24.487  1.00  0.00    -0.274 OA
BRANCH  21  24
ATOM     24  C   UNL A   1      32.714  18.875  24.701  1.00  0.00     0.147 C 
BRANCH  24  25
ATOM     25  C   UNL A   1      32.691  17.421  25.091  1.00  0.00     0.014 A 
ATOM     26  C   UNL A   1      32.161  16.778  26.196  1.00  0.00     0.016 A 
ATOM     27  S   UNL A   1      33.406  16.282  24.012  1.00  0.00    -0.148 S 
ATOM     28  C   UNL A   1      32.303  15.363  26.134  1.00  0.00     0.012 A 
ATOM     29  C   UNL A   1      32.983  14.961  25.009  1.00  0.00     0.065 A 
ENDBRANCH  24  25
ENDBRANCH  21  24
ENDBRANCH  12  20
ENDBRANCH   4   7
ENDBRANCH   2   3
ENDBRANCH   1   2
BRANCH   1  30
ATOM     30  C   UNL A   1      37.916  20.599  25.322  1.00  0.00     0.023 C 
BRANCH  30  31
ATOM     31  C   UNL A   1      39.245  20.806  26.041  1.00  0.00     0.116 C 
BRANCH  31  32
ATOM     32  N   UNL A   1      40.138  19.656  25.986  1.00  0.00    -0.352 N 
ATOM     33  C   UNL A   1      41.509  19.586  26.109  1.00  0.00     0.251 C 
ATOM     34  H   UNL A   1      39.690  18.791  25.838  1.00  0.00     0.163 HD
ATOM     35  O   UNL A   1      42.077  18.508  25.974  1.00  0.00    -0.269 OA
BRANCH  33  36
ATOM     36  C   UNL A   1      42.299  20.816  26.349  1.00  0.00     0.039 A 
ATOM     37  C   UNL A   1      42.794  21.522  25.249  1.00  0.00     0.014 A 
ATOM     38  C   UNL A   1      42.512  21.296  27.642  1.00  0.00     0.014 A 
ATOM     39  C   UNL A   1      43.393  22.771  25.440  1.00  0.00     0.010 A 
ATOM     40  C   UNL A   1      43.039  22.573  27.824  1.00  0.00     0.010 A 
ATOM     41  C   UNL A   1      43.460  23.335  26.724  1.00  0.00    -0.014 A 
BRANCH  41  42
ATOM     42  C   UNL A   1      43.911  24.736  26.939  1.00  0.00     0.031 A 
ATOM     43  C   UNL A   1      45.363  25.097  26.795  1.00  0.00     0.074 A 
ATOM     44  C   UNL A   1      43.027  25.661  27.366  1.00  0.00     0.049 A 
ATOM     45  N   UNL A   1      45.966  26.225  27.074  1.00  0.00    -0.248 NA
ATOM     46  C   UNL A   1      46.261  24.041  26.301  1.00  0.00     0.031 C 
ATOM     47  C   UNL A   1      41.598  25.428  27.592  1.00  0.00     0.029 A 
ATOM     48  N   UNL A   1      43.202  26.980  27.708  1.00  0.00    -0.354 N 
ATOM     49  C   UNL A   1      47.313  26.009  26.810  1.00  0.00     0.074 A 
ATOM     50  C   UNL A   1      47.444  24.630  26.391  1.00  0.00     0.031 C 
ATOM     51  C   UNL A   1      41.025  26.567  28.015  1.00  0.00     0.029 A 
ATOM     52  C   UNL A   1      42.049  27.599  28.135  1.00  0.00     0.049 A 
ATOM     53  H   UNL A   1      44.070  27.440  27.651  1.00  0.00     0.167 HD
ATOM     54  C   UNL A   1      48.343  26.886  26.890  1.00  0.00     0.037 A 
ATOM     55  C   UNL A   1      41.842  28.852  28.586  1.00  0.00     0.037 A 
ATOM     56  C   UNL A   1      48.204  28.265  27.281  1.00  0.00     0.049 A 
ATOM     57  C   UNL A   1      43.001  29.806  28.670  1.00  0.00     0.074 A 
ATOM     58  C   UNL A   1      49.179  29.246  27.335  1.00  0.00     0.029 A 
ATOM     59  N   UNL A   1      47.016  28.859  27.681  1.00  0.00    -0.354 N 
ATOM     60  N   UNL A   1      44.260  29.599  28.367  1.00  0.00    -0.248 NA
ATOM     61  C   UNL A   1      42.714  31.162  29.158  1.00  0.00     0.031 C 
ATOM     62  C   UNL A   1      48.587  30.425  27.800  1.00  0.00     0.029 A 
ATOM     63  C   UNL A   1      47.236  30.189  27.999  1.00  0.00     0.049 A 
ATOM     64  H   UNL A   1      46.145  28.402  27.732  1.00  0.00     0.167 HD
ATOM     65  C   UNL A   1      44.911  30.804  28.606  1.00  0.00     0.074 A 
ATOM     66  C   UNL A   1      43.905  31.738  29.071  1.00  0.00     0.031 C 
ATOM     67  C   UNL A   1      46.223  31.108  28.453  1.00  0.00     0.037 A 
BRANCH  54  68
ATOM     68  C   UNL A   1      49.714  26.375  26.542  1.00  0.00     0.058 A 
ATOM     69  C   UNL A   1      50.209  26.440  25.230  1.00  0.00     0.135 A 
ATOM     70  C   UNL A   1      50.548  25.832  27.532  1.00  0.00     0.135 A 
ATOM     71  F   UNL A   1      49.446  26.936  24.244  1.00  0.00    -0.206 F 
ATOM     72  C   UNL A   1      51.469  25.951  24.904  1.00  0.00     0.059 A 
ATOM     73  C   UNL A   1      51.824  25.361  27.233  1.00  0.00     0.059 A 
ATOM     74  F   UNL A   1      50.126  25.749  28.803  1.00  0.00    -0.206 F 
ATOM     75  C   UNL A   1      52.268  25.408  25.911  1.00  0.00     0.060 A 
BRANCH  75  76
ATOM     76  S   UNL A   1      53.896  24.766  25.471  1.00  0.00     0.124 S 
ATOM     77  O   UNL A   1      54.634  24.976  26.712  1.00  0.00    -0.237 OA
ATOM     78  O   UNL A   1      53.605  23.376  25.135  1.00  0.00    -0.237 OA
ATOM     79  O   UNL A   1      54.301  25.606  24.349  1.00  0.00    -0.744 OA
ENDBRANCH  75  76
ENDBRANCH  54  68
BRANCH  55  80
ATOM     80  C   UNL A   1      40.473  29.282  28.977  1.00  0.00     0.058 A 
ATOM     81  C   UNL A   1      40.114  29.385  30.328  1.00  0.00     0.135 A 
ATOM     82  C   UNL A   1      39.508  29.618  28.015  1.00  0.00     0.135 A 
ATOM     83  F   UNL A   1      41.002  29.068  31.284  1.00  0.00    -0.206 F 
ATOM     84  C   UNL A   1      38.842  29.794  30.715  1.00  0.00     0.059 A 
ATOM     85  C   UNL A   1      38.236  30.050  28.377  1.00  0.00     0.059 A 
ATOM     86  F   UNL A   1      39.809  29.552  26.709  1.00  0.00    -0.206 F 
ATOM     87  C   UNL A   1      37.910  30.127  29.731  1.00  0.00     0.060 A 
BRANCH  87  88
ATOM     88  S   UNL A   1      36.280  30.714  30.246  1.00  0.00     0.124 S 
ATOM     89  O   UNL A   1      36.139  30.080  31.551  1.00  0.00    -0.237 OA
ATOM     90  O   UNL A   1      36.463  32.162  30.253  1.00  0.00    -0.237 OA
ATOM     91  O   UNL A   1      35.398  30.209  29.197  1.00  0.00    -0.744 OA
ENDBRANCH  87  88
ENDBRANCH  55  80
BRANCH  67  92
ATOM     92  C   UNL A   1      46.647  32.516  28.762  1.00  0.00     0.058 A 
ATOM     93  C   UNL A   1      46.637  33.518  27.780  1.00  0.00     0.135 A 
ATOM     94  C   UNL A   1      47.005  32.879  30.070  1.00  0.00     0.135 A 
ATOM     95  F   UNL A   1      46.311  33.220  26.513  1.00  0.00    -0.206 F 
ATOM     96  C   UNL A   1      46.978  34.833  28.082  1.00  0.00     0.059 A 
ATOM     97  C   UNL A   1      47.329  34.191  30.399  1.00  0.00     0.059 A 
ATOM     98  F   UNL A   1      47.023  31.958  31.047  1.00  0.00    -0.206 F 
ATOM     99  C   UNL A   1      47.319  35.160  29.397  1.00  0.00     0.060 A 
BRANCH  99 100
ATOM    100  S   UNL A   1      47.710  36.879  29.788  1.00  0.00     0.124 S 
ATOM    101  O   UNL A   1      48.744  36.721  30.805  1.00  0.00    -0.237 OA
ATOM    102  O   UNL A   1      48.161  37.400  28.501  1.00  0.00    -0.237 OA
ATOM    103  O   UNL A   1      46.438  37.416  30.263  1.00  0.00    -0.744 OA
ENDBRANCH  99 100
ENDBRANCH  67  92
ENDBRANCH  41  42
ENDBRANCH  33  36
ENDBRANCH  31  32
ENDBRANCH  30  31
ENDBRANCH   1  30
TORSDOF 18
ENDMDL
MODEL 2
REMARK VINA RESULT:     -11.6      5.439     14.112
REMARK SMILES C[C@@H]1CCCN(c2ccc(NC(=O)Cc3cccs3)c(C(=O)NCCCCNC(=O)c3ccc(-c4c5nc(c(-c6c(F)cc(S(=O)(=O)[O-])cc6F)c6ccc([nH]6)c(-c6c(F)cc(S(=O)(=O)[O-])cc6F)c6nc(c(-c7c(F)cc(S(=O)(=O)[O-])cc7F)c7ccc4[nH]7)C=C6)C=C5)cc3)c2)C1
REMARK SMILES IDX 25 1 24 2 23 3 21 4 22 5 20 7 7 8 8 9 97 10 9 11 10 12 6 13
REMARK SMILES IDX 1 14 2 15 3 16 98 17 4 18 5 19 11 20 12 21 13 23 14 24 15 25
REMARK SMILES IDX 16 26 19 27 17 28 18 29 26 30 27 31 28 32 29 33 30 35 31 36
REMARK SMILES IDX 32 37 96 38 33 39 95 40 34 41 35 42 36 43 89 44 37 45 94 46
REMARK SMILES IDX 88 47 90 48 38 49 93 50 87 51 86 52 39 54 73 55 52 56 72 57
REMARK SMILES IDX 53 58 56 59 71 60 91 61 54 62 55 63 70 65 92 66 57 67 40 68
REMARK SMILES IDX 41 69 50 70 42 71 43 72 49 73 51 74 44 75 45 76 46 77 47 78
REMARK SMILES IDX 48 79 74 80 75 81 84 82 76 83 77 84 83 85 85 86 78 87 79 88
REMARK SMILES IDX 80 89 81 90 82 91 58 92 59 93 68 94 60 95 61 96 67 97 69 98
REMARK SMILES IDX 62 99 63 100 64 101 65 102 66 103
REMARK H PARENT 23 6 11 22 28 34 90 53 56 64
REMARK Flexibility Score: inf
ROOT
ATOM      1  C   UNL A   1      47.255  39.558  28.275  1.00  0.00     0.023 C 
ENDROOT
BRANCH   1   2
ATOM      2  C   UNL A   1      46.678  40.862  27.737  1.00  0.00     0.116 C 
BRANCH   2   3
ATOM      3  N   UNL A   1      46.523  40.938  26.293  1.00  0.00    -0.352 N 
ATOM      4  C   UNL A   1      45.393  40.823  25.505  1.00  0.00     0.253 C 
ATOM      5  O   UNL A   1      45.513  40.952  24.286  1.00  0.00    -0.269 OA
ATOM      6  H   UNL A   1      47.358  41.098  25.796  1.00  0.00     0.163 HD
BRANCH   4   7
ATOM      7  C   UNL A   1      44.049  40.468  26.063  1.00  0.00     0.065 A 
ATOM      8  C   UNL A   1      42.622  38.724  26.994  1.00  0.00     0.038 A 
ATOM      9  C   UNL A   1      41.527  39.554  26.768  1.00  0.00     0.028 A 
ATOM     10  C   UNL A   1      43.885  39.256  26.752  1.00  0.00     0.042 A 
ATOM     11  C   UNL A   1      41.680  40.846  26.255  1.00  0.00     0.029 A 
ATOM     12  C   UNL A   1      42.926  41.306  25.833  1.00  0.00     0.054 A 
BRANCH   8  13
ATOM     13  N   UNL A   1      42.436  37.407  27.370  1.00  0.00    -0.371 N 
ATOM     14  C   UNL A   1      43.975  34.421  25.546  1.00  0.00     0.009 C 
ATOM     15  C   UNL A   1      43.873  35.569  26.550  1.00  0.00     0.005 C 
ATOM     16  C   UNL A   1      43.943  35.035  27.987  1.00  0.00     0.007 C 
ATOM     17  C   UNL A   1      42.577  36.374  26.334  1.00  0.00     0.119 C 
ATOM     18  C   UNL A   1      43.818  36.178  28.992  1.00  0.00     0.022 C 
ATOM     19  C   UNL A   1      42.537  36.976  28.761  1.00  0.00     0.116 C 
ENDBRANCH   8  13
BRANCH  12  20
ATOM     20  N   UNL A   1      43.111  42.547  25.177  1.00  0.00    -0.325 N 
ATOM     21  C   UNL A   1      42.834  43.044  23.936  1.00  0.00     0.229 C 
ATOM     22  H   UNL A   1      43.543  43.215  25.757  1.00  0.00     0.169 HD
ATOM     23  O   UNL A   1      43.124  44.229  23.726  1.00  0.00    -0.274 OA
BRANCH  21  24
ATOM     24  C   UNL A   1      42.188  42.246  22.822  1.00  0.00     0.147 C 
BRANCH  24  25
ATOM     25  C   UNL A   1      42.410  42.806  21.442  1.00  0.00     0.014 A 
ATOM     26  C   UNL A   1      41.524  43.319  20.510  1.00  0.00     0.016 A 
ATOM     27  S   UNL A   1      44.026  42.883  20.849  1.00  0.00    -0.148 S 
ATOM     28  C   UNL A   1      42.173  43.810  19.341  1.00  0.00     0.012 A 
ATOM     29  C   UNL A   1      43.532  43.613  19.386  1.00  0.00     0.065 A 
ENDBRANCH  24  25
ENDBRANCH  21  24
ENDBRANCH  12  20
ENDBRANCH   4   7
ENDBRANCH   2   3
ENDBRANCH   1   2
BRANCH   1  30
ATOM     30  C   UNL A   1      46.553  38.936  29.478  1.00  0.00     0.023 C 
BRANCH  30  31
ATOM     31  C   UNL A   1      47.384  38.000  30.351  1.00  0.00     0.116 C 
BRANCH  31  32
ATOM     32  N   UNL A   1      48.708  37.706  29.818  1.00  0.00    -0.352 N 
ATOM     33  C   UNL A   1      49.226  36.531  29.317  1.00  0.00     0.251 C 
ATOM     34  H   UNL A   1      49.331  38.469  29.814  1.00  0.00     0.163 HD
ATOM     35  O   UNL A   1      50.399  36.485  28.966  1.00  0.00    -0.269 OA
BRANCH  33  36
ATOM     36  C   UNL A   1      48.384  35.314  29.253  1.00  0.00     0.039 A 
ATOM     37  C   UNL A   1      47.713  35.021  28.062  1.00  0.00     0.014 A 
ATOM     38  C   UNL A   1      48.291  34.443  30.340  1.00  0.00     0.014 A 
ATOM     39  C   UNL A   1      47.054  33.797  27.921  1.00  0.00     0.010 A 
ATOM     40  C   UNL A   1      47.700  33.193  30.172  1.00  0.00     0.010 A 
ATOM     41  C   UNL A   1      47.098  32.846  28.952  1.00  0.00    -0.014 A 
BRANCH  41  42
ATOM     42  C   UNL A   1      46.577  31.465  28.765  1.00  0.00     0.031 A 
ATOM     43  C   UNL A   1      47.401  30.434  28.046  1.00  0.00     0.074 A 
ATOM     44  C   UNL A   1      45.317  31.172  29.149  1.00  0.00     0.049 A 
ATOM     45  N   UNL A   1      47.066  29.226  27.666  1.00  0.00    -0.248 NA
ATOM     46  C   UNL A   1      48.773  30.821  27.680  1.00  0.00     0.031 C 
ATOM     47  C   UNL A   1      44.396  32.098  29.814  1.00  0.00     0.029 A 
ATOM     48  N   UNL A   1      44.584  30.017  29.019  1.00  0.00    -0.354 N 
ATOM     49  C   UNL A   1      48.174  28.718  27.000  1.00  0.00     0.074 A 
ATOM     50  C   UNL A   1      49.175  29.764  26.990  1.00  0.00     0.031 C 
ATOM     51  C   UNL A   1      43.232  31.471  30.049  1.00  0.00     0.029 A 
ATOM     52  C   UNL A   1      43.304  30.115  29.514  1.00  0.00     0.049 A 
ATOM     53  H   UNL A   1      44.943  29.196  28.611  1.00  0.00     0.167 HD
ATOM     54  C   UNL A   1      48.349  27.486  26.464  1.00  0.00     0.037 A 
ATOM     55  C   UNL A   1      42.296  29.221  29.523  1.00  0.00     0.037 A 
ATOM     56  C   UNL A   1      47.361  26.440  26.500  1.00  0.00     0.049 A 
ATOM     57  C   UNL A   1      42.513  27.861  28.919  1.00  0.00     0.074 A 
ATOM     58  C   UNL A   1      47.467  25.140  26.037  1.00  0.00     0.029 A 
ATOM     59  N   UNL A   1      46.087  26.571  27.033  1.00  0.00    -0.354 N 
ATOM     60  N   UNL A   1      43.586  27.381  28.339  1.00  0.00    -0.248 NA
ATOM     61  C   UNL A   1      41.383  26.923  28.968  1.00  0.00     0.031 C 
ATOM     62  C   UNL A   1      46.246  24.495  26.259  1.00  0.00     0.029 A 
ATOM     63  C   UNL A   1      45.391  25.381  26.895  1.00  0.00     0.049 A 
ATOM     64  H   UNL A   1      45.730  27.390  27.447  1.00  0.00     0.167 HD
ATOM     65  C   UNL A   1      43.268  26.077  27.973  1.00  0.00     0.074 A 
ATOM     66  C   UNL A   1      41.906  25.842  28.406  1.00  0.00     0.031 C 
ATOM     67  C   UNL A   1      44.038  25.160  27.338  1.00  0.00     0.037 A 
BRANCH  54  68
ATOM     68  C   UNL A   1      49.666  27.205  25.793  1.00  0.00     0.058 A 
ATOM     69  C   UNL A   1      49.832  27.369  24.409  1.00  0.00     0.135 A 
ATOM     70  C   UNL A   1      50.776  26.787  26.542  1.00  0.00     0.135 A 
ATOM     71  F   UNL A   1      48.798  27.754  23.644  1.00  0.00    -0.206 F 
ATOM     72  C   UNL A   1      51.043  27.093  23.784  1.00  0.00     0.059 A 
ATOM     73  C   UNL A   1      52.006  26.529  25.942  1.00  0.00     0.059 A 
ATOM     74  F   UNL A   1      50.673  26.617  27.870  1.00  0.00    -0.206 F 
ATOM     75  C   UNL A   1      52.124  26.667  24.559  1.00  0.00     0.060 A 
BRANCH  75  76
ATOM     76  S   UNL A   1      53.686  26.299  23.734  1.00  0.00     0.124 S 
ATOM     77  O   UNL A   1      54.366  27.589  23.815  1.00  0.00    -0.237 OA
ATOM     78  O   UNL A   1      54.240  25.238  24.569  1.00  0.00    -0.237 OA
ATOM     79  O   UNL A   1      53.275  25.888  22.395  1.00  0.00    -0.744 OA
ENDBRANCH  75  76
ENDBRANCH  54  68
BRANCH  55  80
ATOM     80  C   UNL A   1      40.994  29.578  30.145  1.00  0.00     0.058 A 
ATOM     81  C   UNL A   1      39.902  29.958  29.350  1.00  0.00     0.135 A 
ATOM     82  C   UNL A   1      40.806  29.528  31.535  1.00  0.00     0.135 A 
ATOM     83  F   UNL A   1      40.036  30.026  28.017  1.00  0.00    -0.206 F 
ATOM     84  C   UNL A   1      38.672  30.287  29.911  1.00  0.00     0.059 A 
ATOM     85  C   UNL A   1      39.580  29.832  32.118  1.00  0.00     0.059 A 
ATOM     86  F   UNL A   1      41.816  29.155  32.336  1.00  0.00    -0.206 F 
ATOM     87  C   UNL A   1      38.521  30.219  31.297  1.00  0.00     0.060 A 
BRANCH  87  88
ATOM     88  S   UNL A   1      36.903  30.591  32.010  1.00  0.00     0.124 S 
ATOM     89  O   UNL A   1      37.193  31.794  32.782  1.00  0.00    -0.237 OA
ATOM     90  O   UNL A   1      36.078  30.778  30.820  1.00  0.00    -0.237 OA
ATOM     91  O   UNL A   1      36.599  29.395  32.790  1.00  0.00    -0.744 OA
ENDBRANCH  87  88
ENDBRANCH  55  80
BRANCH  67  92
ATOM     92  C   UNL A   1      43.438  23.803  27.095  1.00  0.00     0.058 A 
ATOM     93  C   UNL A   1      42.816  23.483  25.879  1.00  0.00     0.135 A 
ATOM     94  C   UNL A   1      43.547  22.795  28.065  1.00  0.00     0.135 A 
ATOM     95  F   UNL A   1      42.680  24.415  24.924  1.00  0.00    -0.206 F 
ATOM     96  C   UNL A   1      42.311  22.210  25.636  1.00  0.00     0.059 A 
ATOM     97  C   UNL A   1      43.069  21.509  27.836  1.00  0.00     0.059 A 
ATOM     98  F   UNL A   1      44.141  23.050  29.242  1.00  0.00    -0.206 F 
ATOM     99  C   UNL A   1      42.446  21.228  26.621  1.00  0.00     0.060 A 
BRANCH  99 100
ATOM    100  S   UNL A   1      41.833  19.564  26.276  1.00  0.00     0.124 S 
ATOM    101  O   UNL A   1      42.596  19.212  25.083  1.00  0.00    -0.237 OA
ATOM    102  O   UNL A   1      42.189  18.840  27.492  1.00  0.00    -0.237 OA
ATOM    103  O   UNL A   1      40.402  19.766  26.070  1.00  0.00    -0.744 OA
ENDBRANCH  99 100
ENDBRANCH  67  92
ENDBRANCH  41  42
ENDBRANCH  33  36
ENDBRANCH  31  32
ENDBRANCH  30  31
ENDBRANCH   1  30
TORSDOF 18
ENDMDL
MODEL 3
REMARK VINA RESULT:     -11.4      5.152     16.181
REMARK SMILES C[C@@H]1CCCN(c2ccc(NC(=O)Cc3cccs3)c(C(=O)NCCCCNC(=O)c3ccc(-c4c5nc(c(-c6c(F)cc(S(=O)(=O)[O-])cc6F)c6ccc([nH]6)c(-c6c(F)cc(S(=O)(=O)[O-])cc6F)c6nc(c(-c7c(F)cc(S(=O)(=O)[O-])cc7F)c7ccc4[nH]7)C=C6)C=C5)cc3)c2)C1
REMARK SMILES IDX 25 1 24 2 23 3 21 4 22 5 20 7 7 8 8 9 97 10 9 11 10 12 6 13
REMARK SMILES IDX 1 14 2 15 3 16 98 17 4 18 5 19 11 20 12 21 13 23 14 24 15 25
REMARK SMILES IDX 16 26 19 27 17 28 18 29 26 30 27 31 28 32 29 33 30 35 31 36
REMARK SMILES IDX 32 37 96 38 33 39 95 40 34 41 35 42 36 43 89 44 37 45 94 46
REMARK SMILES IDX 88 47 90 48 38 49 93 50 87 51 86 52 39 54 73 55 52 56 72 57
REMARK SMILES IDX 53 58 56 59 71 60 91 61 54 62 55 63 70 65 92 66 57 67 40 68
REMARK SMILES IDX 41 69 50 70 42 71 43 72 49 73 51 74 44 75 45 76 46 77 47 78
REMARK SMILES IDX 48 79 74 80 75 81 84 82 76 83 77 84 83 85 85 86 78 87 79 88
REMARK SMILES IDX 80 89 81 90 82 91 58 92 59 93 68 94 60 95 61 96 67 97 69 98
REMARK SMILES IDX 62 99 63 100 64 101 65 102 66 103
REMARK H PARENT 23 6 11 22 28 34 90 53 56 64
REMARK Flexibility Score: inf
ROOT
ATOM      1  C   UNL A   1      46.648  38.987  26.392  1.00  0.00     0.023 C 
ENDROOT
BRANCH   1   2
ATOM      2  C   UNL A   1      46.735  40.468  26.044  1.00  0.00     0.116 C 
BRANCH   2   3
ATOM      3  N   UNL A   1      46.074  41.376  26.967  1.00  0.00    -0.352 N 
ATOM      4  C   UNL A   1      44.870  42.048  26.858  1.00  0.00     0.253 C 
ATOM      5  O   UNL A   1      44.505  42.752  27.799  1.00  0.00    -0.269 OA
ATOM      6  H   UNL A   1      46.562  41.538  27.807  1.00  0.00     0.163 HD
BRANCH   4   7
ATOM      7  C   UNL A   1      44.038  42.020  25.612  1.00  0.00     0.065 A 
ATOM      8  C   UNL A   1      43.734  42.854  23.341  1.00  0.00     0.038 A 
ATOM      9  C   UNL A   1      42.428  42.374  23.382  1.00  0.00     0.028 A 
ATOM     10  C   UNL A   1      44.558  42.550  24.421  1.00  0.00     0.042 A 
ATOM     11  C   UNL A   1      41.938  41.675  24.489  1.00  0.00     0.029 A 
ATOM     12  C   UNL A   1      42.703  41.538  25.646  1.00  0.00     0.054 A 
BRANCH   8  13
ATOM     13  N   UNL A   1      44.152  43.660  22.298  1.00  0.00    -0.371 N 
ATOM     14  C   UNL A   1      47.269  45.870  22.416  1.00  0.00     0.009 C 
ATOM     15  C   UNL A   1      46.431  44.614  22.180  1.00  0.00     0.005 C 
ATOM     16  C   UNL A   1      46.483  44.202  20.702  1.00  0.00     0.007 C 
ATOM     17  C   UNL A   1      44.973  44.833  22.629  1.00  0.00     0.119 C 
ATOM     18  C   UNL A   1      45.627  42.961  20.459  1.00  0.00     0.022 C 
ATOM     19  C   UNL A   1      44.189  43.185  20.919  1.00  0.00     0.116 C 
ENDBRANCH   8  13
BRANCH  12  20
ATOM     20  N   UNL A   1      42.203  40.966  26.840  1.00  0.00    -0.325 N 
ATOM     21  C   UNL A   1      42.265  39.737  27.432  1.00  0.00     0.229 C 
ATOM     22  H   UNL A   1      41.685  41.610  27.375  1.00  0.00     0.169 HD
ATOM     23  O   UNL A   1      41.710  39.612  28.533  1.00  0.00    -0.274 OA
BRANCH  21  24
ATOM     24  C   UNL A   1      42.974  38.538  26.838  1.00  0.00     0.147 C 
BRANCH  24  25
ATOM     25  C   UNL A   1      42.976  37.313  27.714  1.00  0.00     0.014 A 
ATOM     26  C   UNL A   1      43.818  36.925  28.741  1.00  0.00     0.016 A 
ATOM     27  S   UNL A   1      41.727  36.149  27.481  1.00  0.00    -0.148 S 
ATOM     28  C   UNL A   1      43.414  35.707  29.358  1.00  0.00     0.012 A 
ATOM     29  C   UNL A   1      42.304  35.167  28.754  1.00  0.00     0.065 A 
ENDBRANCH  24  25
ENDBRANCH  21  24
ENDBRANCH  12  20
ENDBRANCH   4   7
ENDBRANCH   2   3
ENDBRANCH   1   2
BRANCH   1  30
ATOM     30  C   UNL A   1      47.850  38.120  26.033  1.00  0.00     0.023 C 
BRANCH  30  31
ATOM     31  C   UNL A   1      48.604  37.475  27.192  1.00  0.00     0.116 C 
BRANCH  31  32
ATOM     32  N   UNL A   1      47.991  37.691  28.495  1.00  0.00    -0.352 N 
ATOM     33  C   UNL A   1      47.346  36.807  29.334  1.00  0.00     0.251 C 
ATOM     34  H   UNL A   1      48.047  38.615  28.831  1.00  0.00     0.163 HD
ATOM     35  O   UNL A   1      46.847  37.213  30.377  1.00  0.00    -0.269 OA
BRANCH  33  36
ATOM     36  C   UNL A   1      47.209  35.383  28.951  1.00  0.00     0.039 A 
ATOM     37  C   UNL A   1      47.317  34.406  29.946  1.00  0.00     0.014 A 
ATOM     38  C   UNL A   1      46.931  35.012  27.635  1.00  0.00     0.014 A 
ATOM     39  C   UNL A   1      47.023  33.073  29.642  1.00  0.00     0.010 A 
ATOM     40  C   UNL A   1      46.564  33.699  27.352  1.00  0.00     0.010 A 
ATOM     41  C   UNL A   1      46.580  32.721  28.358  1.00  0.00    -0.014 A 
BRANCH  41  42
ATOM     42  C   UNL A   1      46.075  31.355  28.054  1.00  0.00     0.031 A 
ATOM     43  C   UNL A   1      44.650  30.986  28.361  1.00  0.00     0.074 A 
ATOM     44  C   UNL A   1      46.931  30.416  27.599  1.00  0.00     0.049 A 
ATOM     45  N   UNL A   1      44.067  29.816  28.296  1.00  0.00    -0.248 NA
ATOM     46  C   UNL A   1      43.773  32.071  28.829  1.00  0.00     0.031 C 
ATOM     47  C   UNL A   1      48.350  30.631  27.307  1.00  0.00     0.029 A 
ATOM     48  N   UNL A   1      46.737  29.084  27.321  1.00  0.00    -0.354 N 
ATOM     49  C   UNL A   1      42.764  30.018  28.735  1.00  0.00     0.074 A 
ATOM     50  C   UNL A   1      42.656  31.414  29.104  1.00  0.00     0.031 C 
ATOM     51  C   UNL A   1      48.892  29.481  26.875  1.00  0.00     0.029 A 
ATOM     52  C   UNL A   1      47.876  28.436  26.901  1.00  0.00     0.049 A 
ATOM     53  H   UNL A   1      45.866  28.637  27.414  1.00  0.00     0.167 HD
ATOM     54  C   UNL A   1      41.746  29.127  28.804  1.00  0.00     0.037 A 
ATOM     55  C   UNL A   1      48.082  27.142  26.586  1.00  0.00     0.037 A 
ATOM     56  C   UNL A   1      41.851  27.746  28.410  1.00  0.00     0.049 A 
ATOM     57  C   UNL A   1      46.938  26.170  26.675  1.00  0.00     0.074 A 
ATOM     58  C   UNL A   1      40.859  26.780  28.388  1.00  0.00     0.029 A 
ATOM     59  N   UNL A   1      43.014  27.135  27.966  1.00  0.00    -0.354 N 
ATOM     60  N   UNL A   1      45.699  26.390  27.043  1.00  0.00    -0.248 NA
ATOM     61  C   UNL A   1      47.219  24.775  26.307  1.00  0.00     0.031 C 
ATOM     62  C   UNL A   1      41.430  25.576  27.962  1.00  0.00     0.029 A 
ATOM     63  C   UNL A   1      42.769  25.801  27.683  1.00  0.00     0.049 A 
ATOM     64  H   UNL A   1      43.885  27.583  27.866  1.00  0.00     0.167 HD
ATOM     65  C   UNL A   1      45.047  25.168  26.930  1.00  0.00     0.074 A 
ATOM     66  C   UNL A   1      46.026  24.214  26.452  1.00  0.00     0.031 C 
ATOM     67  C   UNL A   1      43.753  24.865  27.199  1.00  0.00     0.037 A 
BRANCH  54  68
ATOM     68  C   UNL A   1      40.426  29.625  29.325  1.00  0.00     0.058 A 
ATOM     69  C   UNL A   1      39.339  29.851  28.467  1.00  0.00     0.135 A 
ATOM     70  C   UNL A   1      40.240  29.860  30.696  1.00  0.00     0.135 A 
ATOM     71  F   UNL A   1      39.468  29.656  27.145  1.00  0.00    -0.206 F 
ATOM     72  C   UNL A   1      38.123  30.329  28.945  1.00  0.00     0.059 A 
ATOM     73  C   UNL A   1      39.024  30.314  31.200  1.00  0.00     0.059 A 
ATOM     74  F   UNL A   1      41.247  29.657  31.561  1.00  0.00    -0.206 F 
ATOM     75  C   UNL A   1      37.977  30.563  30.313  1.00  0.00     0.060 A 
BRANCH  75  76
ATOM     76  S   UNL A   1      36.399  31.195  30.917  1.00  0.00     0.124 S 
ATOM     77  O   UNL A   1      36.044  30.186  31.910  1.00  0.00    -0.237 OA
ATOM     78  O   UNL A   1      36.767  32.504  31.448  1.00  0.00    -0.237 OA
ATOM     79  O   UNL A   1      35.562  31.221  29.721  1.00  0.00    -0.744 OA
ENDBRANCH  75  76
ENDBRANCH  54  68
BRANCH  55  80
ATOM     80  C   UNL A   1      49.427  26.693  26.137  1.00  0.00     0.058 A 
ATOM     81  C   UNL A   1      49.808  26.812  24.793  1.00  0.00     0.135 A 
ATOM     82  C   UNL A   1      50.361  26.160  27.038  1.00  0.00     0.135 A 
ATOM     83  F   UNL A   1      48.947  27.310  23.893  1.00  0.00    -0.206 F 
ATOM     84  C   UNL A   1      51.065  26.406  24.353  1.00  0.00     0.059 A 
ATOM     85  C   UNL A   1      51.631  25.767  26.627  1.00  0.00     0.059 A 
ATOM     86  F   UNL A   1      50.048  26.042  28.338  1.00  0.00    -0.206 F 
ATOM     87  C   UNL A   1      51.971  25.887  25.280  1.00  0.00     0.060 A 
BRANCH  87  88
ATOM     88  S   UNL A   1      53.620  25.419  24.709  1.00  0.00     0.124 S 
ATOM     89  O   UNL A   1      54.468  26.052  25.712  1.00  0.00    -0.237 OA
ATOM     90  O   UNL A   1      53.557  23.961  24.751  1.00  0.00    -0.237 OA
ATOM     91  O   UNL A   1      53.685  25.995  23.369  1.00  0.00    -0.744 OA
ENDBRANCH  87  88
ENDBRANCH  55  80
BRANCH  67  92
ATOM     92  C   UNL A   1      43.309  23.450  26.955  1.00  0.00     0.058 A 
ATOM     93  C   UNL A   1      43.102  22.960  25.657  1.00  0.00     0.135 A 
ATOM     94  C   UNL A   1      43.152  22.560  28.028  1.00  0.00     0.135 A 
ATOM     95  F   UNL A   1      43.230  23.774  24.598  1.00  0.00    -0.206 F 
ATOM     96  C   UNL A   1      42.743  21.634  25.432  1.00  0.00     0.059 A 
ATOM     97  C   UNL A   1      42.816  21.226  27.826  1.00  0.00     0.059 A 
ATOM     98  F   UNL A   1      43.347  22.980  29.289  1.00  0.00    -0.206 F 
ATOM     99  C   UNL A   1      42.606  20.774  26.524  1.00  0.00     0.060 A 
BRANCH  99 100
ATOM    100  S   UNL A   1      42.192  19.043  26.217  1.00  0.00     0.124 S 
ATOM    101  O   UNL A   1      42.464  18.441  27.517  1.00  0.00    -0.237 OA
ATOM    102  O   UNL A   1      40.785  19.120  25.836  1.00  0.00    -0.237 OA
ATOM    103  O   UNL A   1      43.105  18.662  25.143  1.00  0.00    -0.744 OA
ENDBRANCH  99 100
ENDBRANCH  67  92
ENDBRANCH  41  42
ENDBRANCH  33  36
ENDBRANCH  31  32
ENDBRANCH  30  31
ENDBRANCH   1  30
TORSDOF 18
ENDMDL
