MODEL 1
REMARK VINA RESULT:     -10.7      0.000      0.000
REMARK SMILES C[C@@H](CCC(=O)NCCCCNC(=O)c1ccc(-c2c3nc(c(-c4c(F)cc(S(=O)(=O)[O-])cc4F)c4ccc([nH]4)c(-c4c(F)cc(S(=O)(=O)[O-])cc4F)c4nc(c(-c5c(F)cc(S(=O)(=O)[O-])cc5F)c5ccc2[nH]5)C=C4)C=C3)cc1)NC(=O)Nc1ccc(Cl)c(Br)c1
REMARK SMILES IDX 9 1 8 2 7 3 5 4 6 5 4 7 3 8 2 9 1 10 81 11 82 12 83 14 84 15
REMARK SMILES IDX 85 17 86 18 92 19 87 20 90 21 88 22 91 23 89 24 10 25 11 26
REMARK SMILES IDX 12 27 13 28 14 30 15 31 16 32 80 33 17 34 79 35 18 36 19 37
REMARK SMILES IDX 20 38 73 39 21 40 78 41 72 42 74 43 22 44 77 45 71 46 70 47
REMARK SMILES IDX 23 49 57 50 36 51 56 52 37 53 40 54 55 55 75 56 38 57 39 58
REMARK SMILES IDX 54 60 76 61 41 62 24 63 25 64 34 65 26 66 27 67 33 68 35 69
REMARK SMILES IDX 28 70 29 71 30 72 31 73 32 74 58 75 59 76 68 77 60 78 61 79
REMARK SMILES IDX 67 80 69 81 62 82 63 83 64 84 65 85 66 86 42 87 43 88 52 89
REMARK SMILES IDX 44 90 45 91 51 92 53 93 46 94 47 95 48 96 49 97 50 98
REMARK H PARENT 7 6 81 13 84 16 12 29 74 48 40 59
REMARK Flexibility Score: inf
ROOT
ATOM      1  C   UNL A   1      32.716  28.097  24.921  1.00  0.00     0.023 C 
ENDROOT
BRANCH   1   2
ATOM      2  C   UNL A   1      32.307  26.631  24.807  1.00  0.00     0.116 C 
BRANCH   2   3
ATOM      3  N   UNL A   1      32.866  25.970  23.641  1.00  0.00    -0.356 N 
ATOM      4  C   UNL A   1      33.907  25.102  23.523  1.00  0.00     0.220 C 
ATOM      5  O   UNL A   1      34.165  24.641  22.410  1.00  0.00    -0.275 OA
ATOM      6  H   UNL A   1      32.416  26.186  22.792  1.00  0.00     0.163 HD
BRANCH   4   7
ATOM      7  C   UNL A   1      34.792  24.778  24.705  1.00  0.00     0.102 C 
BRANCH   7   8
ATOM      8  C   UNL A   1      35.905  23.790  24.338  1.00  0.00     0.034 C 
BRANCH   8   9
ATOM      9  C   UNL A   1      36.637  23.084  25.500  1.00  0.00     0.081 C 
ATOM     10  C   UNL A   1      37.585  24.043  26.233  1.00  0.00     0.031 C 
BRANCH   9  11
ATOM     11  N   UNL A   1      37.213  21.801  25.061  1.00  0.00    -0.335 N 
ATOM     12  C   UNL A   1      36.834  20.508  25.027  1.00  0.00     0.319 C 
ATOM     13  H   UNL A   1      38.119  21.919  24.695  1.00  0.00     0.165 HD
ATOM     14  O   UNL A   1      37.702  19.670  24.765  1.00  0.00    -0.248 OA
ATOM     15  N   UNL A   1      35.612  20.072  25.390  1.00  0.00    -0.308 N 
ATOM     16  H   UNL A   1      35.588  19.137  25.696  1.00  0.00     0.171 HD
BRANCH  15  17
ATOM     17  C   UNL A   1      34.378  20.717  25.409  1.00  0.00     0.044 A 
ATOM     18  C   UNL A   1      33.916  21.214  26.626  1.00  0.00     0.028 A 
ATOM     19  C   UNL A   1      33.625  20.899  24.251  1.00  0.00     0.043 A 
ATOM     20  C   UNL A   1      32.808  22.062  26.644  1.00  0.00     0.024 A 
ATOM     21  C   UNL A   1      32.526  21.758  24.261  1.00  0.00     0.038 A 
ATOM     22  C   UNL A   1      32.136  22.369  25.456  1.00  0.00     0.055 A 
ATOM     23  Br  UNL A   1      31.686  22.110  22.596  1.00  0.00    -0.049 Br
ATOM     24  Cl  UNL A   1      30.868  23.537  25.533  1.00  0.00    -0.083 Cl
ENDBRANCH  15  17
ENDBRANCH   9  11
ENDBRANCH   8   9
ENDBRANCH   7   8
ENDBRANCH   4   7
ENDBRANCH   2   3
ENDBRANCH   1   2
BRANCH   1  25
ATOM     25  C   UNL A   1      34.019  28.359  25.667  1.00  0.00     0.023 C 
BRANCH  25  26
ATOM     26  C   UNL A   1      33.815  28.424  27.164  1.00  0.00     0.116 C 
BRANCH  26  27
ATOM     27  N   UNL A   1      33.681  29.795  27.649  1.00  0.00    -0.352 N 
ATOM     28  C   UNL A   1      34.635  30.569  28.264  1.00  0.00     0.251 C 
ATOM     29  H   UNL A   1      32.801  30.215  27.519  1.00  0.00     0.163 HD
ATOM     30  O   UNL A   1      34.346  31.668  28.728  1.00  0.00    -0.269 OA
BRANCH  28  31
ATOM     31  C   UNL A   1      35.997  30.020  28.403  1.00  0.00     0.039 A 
ATOM     32  C   UNL A   1      36.884  30.121  27.330  1.00  0.00     0.014 A 
ATOM     33  C   UNL A   1      36.419  29.500  29.629  1.00  0.00     0.014 A 
ATOM     34  C   UNL A   1      38.217  29.758  27.513  1.00  0.00     0.010 A 
ATOM     35  C   UNL A   1      37.764  29.256  29.842  1.00  0.00     0.010 A 
ATOM     36  C   UNL A   1      38.673  29.359  28.780  1.00  0.00    -0.014 A 
BRANCH  36  37
ATOM     37  C   UNL A   1      40.088  28.989  29.013  1.00  0.00     0.031 A 
ATOM     38  C   UNL A   1      41.030  30.021  29.573  1.00  0.00     0.074 A 
ATOM     39  C   UNL A   1      40.529  27.767  28.660  1.00  0.00     0.049 A 
ATOM     40  N   UNL A   1      42.318  29.940  29.775  1.00  0.00    -0.248 NA
ATOM     41  C   UNL A   1      40.454  31.335  29.910  1.00  0.00     0.031 C 
ATOM     42  C   UNL A   1      39.714  26.717  28.041  1.00  0.00     0.029 A 
ATOM     43  N   UNL A   1      41.773  27.202  28.762  1.00  0.00    -0.354 N 
ATOM     44  C   UNL A   1      42.705  31.192  30.238  1.00  0.00     0.074 A 
ATOM     45  C   UNL A   1      41.534  32.037  30.216  1.00  0.00     0.031 C 
ATOM     46  C   UNL A   1      40.474  25.626  27.849  1.00  0.00     0.029 A 
ATOM     47  C   UNL A   1      41.833  25.909  28.296  1.00  0.00     0.049 A 
ATOM     48  H   UNL A   1      42.551  27.677  29.134  1.00  0.00     0.167 HD
ATOM     49  C   UNL A   1      43.920  31.590  30.682  1.00  0.00     0.037 A 
ATOM     50  C   UNL A   1      42.872  25.054  28.239  1.00  0.00     0.037 A 
ATOM     51  C   UNL A   1      45.064  30.721  30.741  1.00  0.00     0.049 A 
ATOM     52  C   UNL A   1      44.206  25.507  28.770  1.00  0.00     0.074 A 
ATOM     53  C   UNL A   1      46.329  30.994  31.227  1.00  0.00     0.029 A 
ATOM     54  N   UNL A   1      45.074  29.403  30.306  1.00  0.00    -0.354 N 
ATOM     55  N   UNL A   1      44.540  26.675  29.267  1.00  0.00    -0.248 NA
ATOM     56  C   UNL A   1      45.298  24.527  28.746  1.00  0.00     0.031 C 
ATOM     57  C   UNL A   1      47.115  29.849  31.054  1.00  0.00     0.029 A 
ATOM     58  C   UNL A   1      46.326  28.850  30.504  1.00  0.00     0.049 A 
ATOM     59  H   UNL A   1      44.304  28.931  29.915  1.00  0.00     0.167 HD
ATOM     60  C   UNL A   1      45.876  26.562  29.636  1.00  0.00     0.074 A 
ATOM     61  C   UNL A   1      46.281  25.207  29.320  1.00  0.00     0.031 C 
ATOM     62  C   UNL A   1      46.695  27.493  30.186  1.00  0.00     0.037 A 
BRANCH  49  63
ATOM     63  C   UNL A   1      44.056  33.011  31.153  1.00  0.00     0.058 A 
ATOM     64  C   UNL A   1      43.777  33.378  32.480  1.00  0.00     0.135 A 
ATOM     65  C   UNL A   1      44.481  34.020  30.273  1.00  0.00     0.135 A 
ATOM     66  F   UNL A   1      43.346  32.458  33.359  1.00  0.00    -0.206 F 
ATOM     67  C   UNL A   1      43.877  34.696  32.910  1.00  0.00     0.059 A 
ATOM     68  C   UNL A   1      44.619  35.342  30.690  1.00  0.00     0.059 A 
ATOM     69  F   UNL A   1      44.757  33.729  28.992  1.00  0.00    -0.206 F 
ATOM     70  C   UNL A   1      44.300  35.672  32.006  1.00  0.00     0.060 A 
BRANCH  70  71
ATOM     71  S   UNL A   1      44.429  37.378  32.582  1.00  0.00     0.124 S 
ATOM     72  O   UNL A   1      43.680  37.320  33.834  1.00  0.00    -0.237 OA
ATOM     73  O   UNL A   1      45.871  37.555  32.714  1.00  0.00    -0.237 OA
ATOM     74  O   UNL A   1      43.802  38.147  31.510  1.00  0.00    -0.744 OA
ENDBRANCH  70  71
ENDBRANCH  49  63
BRANCH  50  75
ATOM     75  C   UNL A   1      42.680  23.683  27.694  1.00  0.00     0.058 A 
ATOM     76  C   UNL A   1      42.787  23.432  26.319  1.00  0.00     0.135 A 
ATOM     77  C   UNL A   1      42.410  22.594  28.537  1.00  0.00     0.135 A 
ATOM     78  F   UNL A   1      43.043  24.439  25.471  1.00  0.00    -0.206 F 
ATOM     79  C   UNL A   1      42.615  22.154  25.794  1.00  0.00     0.059 A 
ATOM     80  C   UNL A   1      42.258  21.303  28.040  1.00  0.00     0.059 A 
ATOM     81  F   UNL A   1      42.318  22.777  29.864  1.00  0.00    -0.206 F 
ATOM     82  C   UNL A   1      42.352  21.095  26.664  1.00  0.00     0.060 A 
BRANCH  82  83
ATOM     83  S   UNL A   1      42.175  19.434  25.977  1.00  0.00     0.124 S 
ATOM     84  O   UNL A   1      42.699  18.610  27.060  1.00  0.00    -0.237 OA
ATOM     85  O   UNL A   1      40.736  19.348  25.749  1.00  0.00    -0.237 OA
ATOM     86  O   UNL A   1      42.992  19.481  24.768  1.00  0.00    -0.744 OA
ENDBRANCH  82  83
ENDBRANCH  50  75
BRANCH  62  87
ATOM     87  C   UNL A   1      48.100  27.069  30.508  1.00  0.00     0.058 A 
ATOM     88  C   UNL A   1      49.167  27.344  29.641  1.00  0.00     0.135 A 
ATOM     89  C   UNL A   1      48.386  26.436  31.728  1.00  0.00     0.135 A 
ATOM     90  F   UNL A   1      48.944  27.944  28.461  1.00  0.00    -0.206 F 
ATOM     91  C   UNL A   1      50.472  26.985  29.964  1.00  0.00     0.059 A 
ATOM     92  C   UNL A   1      49.685  26.094  32.083  1.00  0.00     0.059 A 
ATOM     93  F   UNL A   1      47.398  26.162  32.596  1.00  0.00    -0.206 F 
ATOM     94  C   UNL A   1      50.721  26.363  31.188  1.00  0.00     0.060 A 
BRANCH  94  95
ATOM     95  S   UNL A   1      52.422  25.938  31.612  1.00  0.00     0.124 S 
ATOM     96  O   UNL A   1      52.761  26.994  32.560  1.00  0.00    -0.237 OA
ATOM     97  O   UNL A   1      52.278  24.600  32.178  1.00  0.00    -0.237 OA
ATOM     98  O   UNL A   1      53.117  25.998  30.329  1.00  0.00    -0.744 OA
ENDBRANCH  94  95
ENDBRANCH  62  87
ENDBRANCH  36  37
ENDBRANCH  28  31
ENDBRANCH  26  27
ENDBRANCH  25  26
ENDBRANCH   1  25
TORSDOF 18
ENDMDL
MODEL 2
REMARK VINA RESULT:     -10.5      1.513      2.397
REMARK SMILES C[C@@H](CCC(=O)NCCCCNC(=O)c1ccc(-c2c3nc(c(-c4c(F)cc(S(=O)(=O)[O-])cc4F)c4ccc([nH]4)c(-c4c(F)cc(S(=O)(=O)[O-])cc4F)c4nc(c(-c5c(F)cc(S(=O)(=O)[O-])cc5F)c5ccc2[nH]5)C=C4)C=C3)cc1)NC(=O)Nc1ccc(Cl)c(Br)c1
REMARK SMILES IDX 9 1 8 2 7 3 5 4 6 5 4 7 3 8 2 9 1 10 81 11 82 12 83 14 84 15
REMARK SMILES IDX 85 17 86 18 92 19 87 20 90 21 88 22 91 23 89 24 10 25 11 26
REMARK SMILES IDX 12 27 13 28 14 30 15 31 16 32 80 33 17 34 79 35 18 36 19 37
REMARK SMILES IDX 20 38 73 39 21 40 78 41 72 42 74 43 22 44 77 45 71 46 70 47
REMARK SMILES IDX 23 49 57 50 36 51 56 52 37 53 40 54 55 55 75 56 38 57 39 58
REMARK SMILES IDX 54 60 76 61 41 62 24 63 25 64 34 65 26 66 27 67 33 68 35 69
REMARK SMILES IDX 28 70 29 71 30 72 31 73 32 74 58 75 59 76 68 77 60 78 61 79
REMARK SMILES IDX 67 80 69 81 62 82 63 83 64 84 65 85 66 86 42 87 43 88 52 89
REMARK SMILES IDX 44 90 45 91 51 92 53 93 46 94 47 95 48 96 49 97 50 98
REMARK H PARENT 7 6 81 13 84 16 12 29 74 48 40 59
REMARK Flexibility Score: inf
ROOT
ATOM      1  C   UNL A   1      33.171  28.683  24.829  1.00  0.00     0.023 C 
ENDROOT
BRANCH   1   2
ATOM      2  C   UNL A   1      32.189  27.821  24.041  1.00  0.00     0.116 C 
BRANCH   2   3
ATOM      3  N   UNL A   1      32.692  27.428  22.736  1.00  0.00    -0.356 N 
ATOM      4  C   UNL A   1      33.049  26.209  22.250  1.00  0.00     0.220 C 
ATOM      5  O   UNL A   1      33.413  26.127  21.076  1.00  0.00    -0.275 OA
ATOM      6  H   UNL A   1      32.791  28.168  22.095  1.00  0.00     0.163 HD
BRANCH   4   7
ATOM      7  C   UNL A   1      33.092  24.992  23.147  1.00  0.00     0.102 C 
BRANCH   7   8
ATOM      8  C   UNL A   1      32.973  23.686  22.352  1.00  0.00     0.034 C 
BRANCH   8   9
ATOM      9  C   UNL A   1      32.591  22.413  23.137  1.00  0.00     0.081 C 
ATOM     10  C   UNL A   1      32.096  21.302  22.201  1.00  0.00     0.031 C 
BRANCH   9  11
ATOM     11  N   UNL A   1      31.724  22.738  24.284  1.00  0.00    -0.335 N 
ATOM     12  C   UNL A   1      31.796  22.670  25.628  1.00  0.00     0.319 C 
ATOM     13  H   UNL A   1      30.859  23.103  23.989  1.00  0.00     0.165 HD
ATOM     14  O   UNL A   1      30.753  22.852  26.261  1.00  0.00    -0.248 OA
ATOM     15  N   UNL A   1      32.896  22.285  26.303  1.00  0.00    -0.308 N 
ATOM     16  H   UNL A   1      32.715  21.903  27.192  1.00  0.00     0.171 HD
BRANCH  15  17
ATOM     17  C   UNL A   1      34.245  22.332  25.960  1.00  0.00     0.044 A 
ATOM     18  C   UNL A   1      34.928  23.533  26.145  1.00  0.00     0.028 A 
ATOM     19  C   UNL A   1      34.920  21.215  25.474  1.00  0.00     0.043 A 
ATOM     20  C   UNL A   1      36.318  23.555  26.037  1.00  0.00     0.024 A 
ATOM     21  C   UNL A   1      36.312  21.227  25.379  1.00  0.00     0.038 A 
ATOM     22  C   UNL A   1      37.017  22.392  25.695  1.00  0.00     0.055 A 
ATOM     23  Br  UNL A   1      37.163  19.597  24.909  1.00  0.00    -0.049 Br
ATOM     24  Cl  UNL A   1      38.741  22.456  25.723  1.00  0.00    -0.083 Cl
ENDBRANCH  15  17
ENDBRANCH   9  11
ENDBRANCH   8   9
ENDBRANCH   7   8
ENDBRANCH   4   7
ENDBRANCH   2   3
ENDBRANCH   1   2
BRANCH   1  25
ATOM     25  C   UNL A   1      34.010  27.942  25.864  1.00  0.00     0.023 C 
BRANCH  25  26
ATOM     26  C   UNL A   1      33.572  28.251  27.278  1.00  0.00     0.116 C 
BRANCH  26  27
ATOM     27  N   UNL A   1      33.470  29.686  27.529  1.00  0.00    -0.352 N 
ATOM     28  C   UNL A   1      34.444  30.532  27.998  1.00  0.00     0.251 C 
ATOM     29  H   UNL A   1      32.596  30.096  27.339  1.00  0.00     0.163 HD
ATOM     30  O   UNL A   1      34.181  31.698  28.275  1.00  0.00    -0.269 OA
BRANCH  28  31
ATOM     31  C   UNL A   1      35.798  29.987  28.215  1.00  0.00     0.039 A 
ATOM     32  C   UNL A   1      36.739  30.077  27.188  1.00  0.00     0.014 A 
ATOM     33  C   UNL A   1      36.155  29.483  29.467  1.00  0.00     0.014 A 
ATOM     34  C   UNL A   1      38.061  29.719  27.445  1.00  0.00     0.010 A 
ATOM     35  C   UNL A   1      37.488  29.243  29.753  1.00  0.00     0.010 A 
ATOM     36  C   UNL A   1      38.451  29.335  28.739  1.00  0.00    -0.014 A 
BRANCH  36  37
ATOM     37  C   UNL A   1      39.853  28.971  29.050  1.00  0.00     0.031 A 
ATOM     38  C   UNL A   1      40.746  29.992  29.701  1.00  0.00     0.074 A 
ATOM     39  C   UNL A   1      40.328  27.764  28.688  1.00  0.00     0.049 A 
ATOM     40  N   UNL A   1      42.019  29.916  29.981  1.00  0.00    -0.248 NA
ATOM     41  C   UNL A   1      40.135  31.290  30.042  1.00  0.00     0.031 C 
ATOM     42  C   UNL A   1      39.566  26.728  27.985  1.00  0.00     0.029 A 
ATOM     43  N   UNL A   1      41.569  27.208  28.851  1.00  0.00    -0.354 N 
ATOM     44  C   UNL A   1      42.362  31.156  30.508  1.00  0.00     0.074 A 
ATOM     45  C   UNL A   1      41.186  31.991  30.437  1.00  0.00     0.031 C 
ATOM     46  C   UNL A   1      40.348  25.650  27.808  1.00  0.00     0.029 A 
ATOM     47  C   UNL A   1      41.672  25.931  28.349  1.00  0.00     0.049 A 
ATOM     48  H   UNL A   1      42.316  27.677  29.286  1.00  0.00     0.167 HD
ATOM     49  C   UNL A   1      43.542  31.551  31.040  1.00  0.00     0.037 A 
ATOM     50  C   UNL A   1      42.722  25.088  28.332  1.00  0.00     0.037 A 
ATOM     51  C   UNL A   1      44.689  30.690  31.145  1.00  0.00     0.049 A 
ATOM     52  C   UNL A   1      44.014  25.534  28.961  1.00  0.00     0.074 A 
ATOM     53  C   UNL A   1      45.918  30.959  31.718  1.00  0.00     0.029 A 
ATOM     54  N   UNL A   1      44.742  29.388  30.671  1.00  0.00    -0.354 N 
ATOM     55  N   UNL A   1      44.304  26.689  29.514  1.00  0.00    -0.248 NA
ATOM     56  C   UNL A   1      45.117  24.565  28.976  1.00  0.00     0.031 C 
ATOM     57  C   UNL A   1      46.726  29.828  31.560  1.00  0.00     0.029 A 
ATOM     58  C   UNL A   1      45.985  28.840  30.930  1.00  0.00     0.049 A 
ATOM     59  H   UNL A   1      44.003  28.921  30.217  1.00  0.00     0.167 HD
ATOM     60  C   UNL A   1      45.616  26.577  29.964  1.00  0.00     0.074 A 
ATOM     61  C   UNL A   1      46.054  25.236  29.632  1.00  0.00     0.031 C 
ATOM     62  C   UNL A   1      46.388  27.497  30.593  1.00  0.00     0.037 A 
BRANCH  49  63
ATOM     63  C   UNL A   1      43.633  32.957  31.563  1.00  0.00     0.058 A 
ATOM     64  C   UNL A   1      43.359  33.264  32.906  1.00  0.00     0.135 A 
ATOM     65  C   UNL A   1      44.008  34.014  30.717  1.00  0.00     0.135 A 
ATOM     66  F   UNL A   1      42.974  32.296  33.755  1.00  0.00    -0.206 F 
ATOM     67  C   UNL A   1      43.417  34.567  33.385  1.00  0.00     0.059 A 
ATOM     68  C   UNL A   1      44.103  35.323  31.182  1.00  0.00     0.059 A 
ATOM     69  F   UNL A   1      44.277  33.782  29.423  1.00  0.00    -0.206 F 
ATOM     70  C   UNL A   1      43.791  35.592  32.514  1.00  0.00     0.060 A 
BRANCH  70  71
ATOM     71  S   UNL A   1      43.865  37.278  33.152  1.00  0.00     0.124 S 
ATOM     72  O   UNL A   1      45.126  37.255  33.889  1.00  0.00    -0.237 OA
ATOM     73  O   UNL A   1      43.861  38.075  31.930  1.00  0.00    -0.237 OA
ATOM     74  O   UNL A   1      42.661  37.386  33.971  1.00  0.00    -0.744 OA
ENDBRANCH  70  71
ENDBRANCH  49  63
BRANCH  50  75
ATOM     75  C   UNL A   1      42.581  23.733  27.733  1.00  0.00     0.058 A 
ATOM     76  C   UNL A   1      42.680  23.542  26.348  1.00  0.00     0.135 A 
ATOM     77  C   UNL A   1      42.366  22.600  28.533  1.00  0.00     0.135 A 
ATOM     78  F   UNL A   1      42.883  24.593  25.539  1.00  0.00    -0.206 F 
ATOM     79  C   UNL A   1      42.554  22.280  25.773  1.00  0.00     0.059 A 
ATOM     80  C   UNL A   1      42.261  21.325  27.986  1.00  0.00     0.059 A 
ATOM     81  F   UNL A   1      42.283  22.725  29.868  1.00  0.00    -0.206 F 
ATOM     82  C   UNL A   1      42.347  21.177  26.601  1.00  0.00     0.060 A 
BRANCH  82  83
ATOM     83  S   UNL A   1      42.229  19.539  25.849  1.00  0.00     0.124 S 
ATOM     84  O   UNL A   1      42.576  18.674  26.970  1.00  0.00    -0.237 OA
ATOM     85  O   UNL A   1      40.835  19.498  25.419  1.00  0.00    -0.237 OA
ATOM     86  O   UNL A   1      43.209  19.595  24.768  1.00  0.00    -0.744 OA
ENDBRANCH  82  83
ENDBRANCH  50  75
BRANCH  62  87
ATOM     87  C   UNL A   1      47.773  27.075  30.991  1.00  0.00     0.058 A 
ATOM     88  C   UNL A   1      48.026  26.449  32.221  1.00  0.00     0.135 A 
ATOM     89  C   UNL A   1      48.847  27.242  30.103  1.00  0.00     0.135 A 
ATOM     90  F   UNL A   1      47.033  26.270  33.106  1.00  0.00    -0.206 F 
ATOM     91  C   UNL A   1      49.304  26.024  32.567  1.00  0.00     0.059 A 
ATOM     92  C   UNL A   1      50.127  26.799  30.416  1.00  0.00     0.059 A 
ATOM     93  F   UNL A   1      48.652  27.824  28.908  1.00  0.00    -0.206 F 
ATOM     94  C   UNL A   1      50.347  26.200  31.656  1.00  0.00     0.060 A 
BRANCH  94  95
ATOM     95  S   UNL A   1      51.993  25.609  32.101  1.00  0.00     0.124 S 
ATOM     96  O   UNL A   1      52.785  26.065  30.963  1.00  0.00    -0.237 OA
ATOM     97  O   UNL A   1      52.241  26.297  33.364  1.00  0.00    -0.237 OA
ATOM     98  O   UNL A   1      51.817  24.163  32.205  1.00  0.00    -0.744 OA
ENDBRANCH  94  95
ENDBRANCH  62  87
ENDBRANCH  36  37
ENDBRANCH  28  31
ENDBRANCH  26  27
ENDBRANCH  25  26
ENDBRANCH   1  25
TORSDOF 18
ENDMDL
MODEL 3
REMARK VINA RESULT:     -10.5      4.862     10.461
REMARK SMILES C[C@@H](CCC(=O)NCCCCNC(=O)c1ccc(-c2c3nc(c(-c4c(F)cc(S(=O)(=O)[O-])cc4F)c4ccc([nH]4)c(-c4c(F)cc(S(=O)(=O)[O-])cc4F)c4nc(c(-c5c(F)cc(S(=O)(=O)[O-])cc5F)c5ccc2[nH]5)C=C4)C=C3)cc1)NC(=O)Nc1ccc(Cl)c(Br)c1
REMARK SMILES IDX 9 1 8 2 7 3 5 4 6 5 4 7 3 8 2 9 1 10 81 11 82 12 83 14 84 15
REMARK SMILES IDX 85 17 86 18 92 19 87 20 90 21 88 22 91 23 89 24 10 25 11 26
REMARK SMILES IDX 12 27 13 28 14 30 15 31 16 32 80 33 17 34 79 35 18 36 19 37
REMARK SMILES IDX 20 38 73 39 21 40 78 41 72 42 74 43 22 44 77 45 71 46 70 47
REMARK SMILES IDX 23 49 57 50 36 51 56 52 37 53 40 54 55 55 75 56 38 57 39 58
REMARK SMILES IDX 54 60 76 61 41 62 24 63 25 64 34 65 26 66 27 67 33 68 35 69
REMARK SMILES IDX 28 70 29 71 30 72 31 73 32 74 58 75 59 76 68 77 60 78 61 79
REMARK SMILES IDX 67 80 69 81 62 82 63 83 64 84 65 85 66 86 42 87 43 88 52 89
REMARK SMILES IDX 44 90 45 91 51 92 53 93 46 94 47 95 48 96 49 97 50 98
REMARK H PARENT 7 6 81 13 84 16 12 29 74 48 40 59
REMARK Flexibility Score: inf
ROOT
ATOM      1  C   UNL A   1      38.516  23.217  26.230  1.00  0.00     0.023 C 
ENDROOT
BRANCH   1   2
ATOM      2  C   UNL A   1      37.465  22.463  25.419  1.00  0.00     0.116 C 
BRANCH   2   3
ATOM      3  N   UNL A   1      36.176  22.386  26.084  1.00  0.00    -0.356 N 
ATOM      4  C   UNL A   1      34.914  22.362  25.578  1.00  0.00     0.220 C 
ATOM      5  O   UNL A   1      33.969  22.250  26.360  1.00  0.00    -0.275 OA
ATOM      6  H   UNL A   1      36.224  22.345  27.066  1.00  0.00     0.163 HD
BRANCH   4   7
ATOM      7  C   UNL A   1      34.660  22.562  24.101  1.00  0.00     0.102 C 
BRANCH   7   8
ATOM      8  C   UNL A   1      33.925  23.877  23.815  1.00  0.00     0.034 C 
BRANCH   8   9
ATOM      9  C   UNL A   1      32.685  23.810  22.898  1.00  0.00     0.081 C 
ATOM     10  C   UNL A   1      32.037  22.420  22.930  1.00  0.00     0.031 C 
BRANCH   9  11
ATOM     11  N   UNL A   1      32.982  24.365  21.565  1.00  0.00    -0.335 N 
ATOM     12  C   UNL A   1      32.648  25.460  20.855  1.00  0.00     0.319 C 
ATOM     13  H   UNL A   1      33.586  23.777  21.057  1.00  0.00     0.165 HD
ATOM     14  O   UNL A   1      32.945  25.470  19.657  1.00  0.00    -0.248 OA
ATOM     15  N   UNL A   1      31.899  26.470  21.336  1.00  0.00    -0.308 N 
ATOM     16  H   UNL A   1      31.409  26.978  20.649  1.00  0.00     0.171 HD
BRANCH  15  17
ATOM     17  C   UNL A   1      31.695  26.919  22.639  1.00  0.00     0.044 A 
ATOM     18  C   UNL A   1      30.466  26.654  23.240  1.00  0.00     0.028 A 
ATOM     19  C   UNL A   1      32.688  27.589  23.350  1.00  0.00     0.043 A 
ATOM     20  C   UNL A   1      30.309  26.877  24.607  1.00  0.00     0.024 A 
ATOM     21  C   UNL A   1      32.543  27.800  24.721  1.00  0.00     0.038 A 
ATOM     22  C   UNL A   1      31.361  27.412  25.360  1.00  0.00     0.055 A 
ATOM     23  Br  UNL A   1      34.029  28.530  25.649  1.00  0.00    -0.049 Br
ATOM     24  Cl  UNL A   1      31.147  27.525  27.068  1.00  0.00    -0.083 Cl
ENDBRANCH  15  17
ENDBRANCH   9  11
ENDBRANCH   8   9
ENDBRANCH   7   8
ENDBRANCH   4   7
ENDBRANCH   2   3
ENDBRANCH   1   2
BRANCH   1  25
ATOM     25  C   UNL A   1      39.591  22.353  26.876  1.00  0.00     0.023 C 
BRANCH  25  26
ATOM     26  C   UNL A   1      40.820  23.154  27.247  1.00  0.00     0.116 C 
BRANCH  26  27
ATOM     27  N   UNL A   1      41.365  23.893  26.111  1.00  0.00    -0.352 N 
ATOM     28  C   UNL A   1      41.713  25.221  26.057  1.00  0.00     0.251 C 
ATOM     29  H   UNL A   1      41.499  23.377  25.284  1.00  0.00     0.163 HD
ATOM     30  O   UNL A   1      42.048  25.738  24.996  1.00  0.00    -0.269 OA
BRANCH  28  31
ATOM     31  C   UNL A   1      41.616  26.019  27.294  1.00  0.00     0.039 A 
ATOM     32  C   UNL A   1      42.611  26.956  27.578  1.00  0.00     0.014 A 
ATOM     33  C   UNL A   1      40.490  25.906  28.112  1.00  0.00     0.014 A 
ATOM     34  C   UNL A   1      42.438  27.827  28.652  1.00  0.00     0.010 A 
ATOM     35  C   UNL A   1      40.265  26.849  29.100  1.00  0.00     0.010 A 
ATOM     36  C   UNL A   1      41.247  27.803  29.397  1.00  0.00    -0.014 A 
BRANCH  36  37
ATOM     37  C   UNL A   1      41.022  28.731  30.529  1.00  0.00     0.031 A 
ATOM     38  C   UNL A   1      41.867  28.594  31.766  1.00  0.00     0.074 A 
ATOM     39  C   UNL A   1      40.025  29.635  30.466  1.00  0.00     0.049 A 
ATOM     40  N   UNL A   1      41.783  29.238  32.899  1.00  0.00    -0.248 NA
ATOM     41  C   UNL A   1      42.919  27.562  31.742  1.00  0.00     0.031 C 
ATOM     42  C   UNL A   1      39.100  29.801  29.342  1.00  0.00     0.029 A 
ATOM     43  N   UNL A   1      39.617  30.578  31.372  1.00  0.00    -0.354 N 
ATOM     44  C   UNL A   1      42.752  28.677  33.723  1.00  0.00     0.074 A 
ATOM     45  C   UNL A   1      43.359  27.590  32.990  1.00  0.00     0.031 C 
ATOM     46  C   UNL A   1      38.253  30.808  29.614  1.00  0.00     0.029 A 
ATOM     47  C   UNL A   1      38.551  31.333  30.941  1.00  0.00     0.049 A 
ATOM     48  H   UNL A   1      40.045  30.702  32.249  1.00  0.00     0.167 HD
ATOM     49  C   UNL A   1      43.129  29.060  34.965  1.00  0.00     0.037 A 
ATOM     50  C   UNL A   1      37.895  32.337  31.554  1.00  0.00     0.037 A 
ATOM     51  C   UNL A   1      42.546  30.174  35.660  1.00  0.00     0.049 A 
ATOM     52  C   UNL A   1      38.354  32.769  32.920  1.00  0.00     0.074 A 
ATOM     53  C   UNL A   1      42.886  30.693  36.896  1.00  0.00     0.029 A 
ATOM     54  N   UNL A   1      41.502  30.947  35.172  1.00  0.00    -0.354 N 
ATOM     55  N   UNL A   1      39.316  32.270  33.661  1.00  0.00    -0.248 NA
ATOM     56  C   UNL A   1      37.652  33.904  33.530  1.00  0.00     0.031 C 
ATOM     57  C   UNL A   1      42.025  31.761  37.169  1.00  0.00     0.029 A 
ATOM     58  C   UNL A   1      41.179  31.936  36.084  1.00  0.00     0.049 A 
ATOM     59  H   UNL A   1      41.058  30.813  34.303  1.00  0.00     0.167 HD
ATOM     60  C   UNL A   1      39.350  33.045  34.815  1.00  0.00     0.074 A 
ATOM     61  C   UNL A   1      38.322  34.056  34.664  1.00  0.00     0.031 C 
ATOM     62  C   UNL A   1      40.155  32.934  35.900  1.00  0.00     0.037 A 
BRANCH  49  63
ATOM     63  C   UNL A   1      44.232  28.281  35.627  1.00  0.00     0.058 A 
ATOM     64  C   UNL A   1      45.585  28.584  35.402  1.00  0.00     0.135 A 
ATOM     65  C   UNL A   1      43.937  27.225  36.504  1.00  0.00     0.135 A 
ATOM     66  F   UNL A   1      45.926  29.569  34.555  1.00  0.00    -0.206 F 
ATOM     67  C   UNL A   1      46.606  27.848  35.993  1.00  0.00     0.059 A 
ATOM     68  C   UNL A   1      44.943  26.494  37.132  1.00  0.00     0.059 A 
ATOM     69  F   UNL A   1      42.662  26.888  36.753  1.00  0.00    -0.206 F 
ATOM     70  C   UNL A   1      46.275  26.804  36.858  1.00  0.00     0.060 A 
BRANCH  70  71
ATOM     71  S   UNL A   1      47.611  25.861  37.620  1.00  0.00     0.124 S 
ATOM     72  O   UNL A   1      48.763  26.714  37.344  1.00  0.00    -0.237 OA
ATOM     73  O   UNL A   1      47.191  25.796  39.015  1.00  0.00    -0.237 OA
ATOM     74  O   UNL A   1      47.584  24.590  36.901  1.00  0.00    -0.744 OA
ENDBRANCH  70  71
ENDBRANCH  49  63
BRANCH  50  75
ATOM     75  C   UNL A   1      36.764  33.017  30.866  1.00  0.00     0.058 A 
ATOM     76  C   UNL A   1      35.439  32.806  31.273  1.00  0.00     0.135 A 
ATOM     77  C   UNL A   1      36.985  33.909  29.805  1.00  0.00     0.135 A 
ATOM     78  F   UNL A   1      35.174  31.961  32.281  1.00  0.00    -0.206 F 
ATOM     79  C   UNL A   1      34.371  33.438  30.643  1.00  0.00     0.059 A 
ATOM     80  C   UNL A   1      35.937  34.573  29.175  1.00  0.00     0.059 A 
ATOM     81  F   UNL A   1      38.237  34.162  29.390  1.00  0.00    -0.206 F 
ATOM     82  C   UNL A   1      34.631  34.322  29.595  1.00  0.00     0.060 A 
BRANCH  82  83
ATOM     83  S   UNL A   1      33.242  35.172  28.814  1.00  0.00     0.124 S 
ATOM     84  O   UNL A   1      32.475  35.610  29.973  1.00  0.00    -0.237 OA
ATOM     85  O   UNL A   1      33.912  36.225  28.057  1.00  0.00    -0.237 OA
ATOM     86  O   UNL A   1      32.621  34.127  28.004  1.00  0.00    -0.744 OA
ENDBRANCH  82  83
ENDBRANCH  50  75
BRANCH  62  87
ATOM     87  C   UNL A   1      39.978  33.947  36.995  1.00  0.00     0.058 A 
ATOM     88  C   UNL A   1      40.638  35.184  36.964  1.00  0.00     0.135 A 
ATOM     89  C   UNL A   1      39.088  33.699  38.051  1.00  0.00     0.135 A 
ATOM     90  F   UNL A   1      41.501  35.466  35.976  1.00  0.00    -0.206 F 
ATOM     91  C   UNL A   1      40.438  36.135  37.959  1.00  0.00     0.059 A 
ATOM     92  C   UNL A   1      38.852  34.646  39.042  1.00  0.00     0.059 A 
ATOM     93  F   UNL A   1      38.423  32.534  38.117  1.00  0.00    -0.206 F 
ATOM     94  C   UNL A   1      39.541  35.858  38.992  1.00  0.00     0.060 A 
BRANCH  94  95
ATOM     95  S   UNL A   1      39.262  37.115  40.256  1.00  0.00     0.124 S 
ATOM     96  O   UNL A   1      40.629  37.473  40.620  1.00  0.00    -0.237 OA
ATOM     97  O   UNL A   1      38.513  38.132  39.524  1.00  0.00    -0.237 OA
ATOM     98  O   UNL A   1      38.504  36.404  41.281  1.00  0.00    -0.744 OA
ENDBRANCH  94  95
ENDBRANCH  62  87
ENDBRANCH  36  37
ENDBRANCH  28  31
ENDBRANCH  26  27
ENDBRANCH  25  26
ENDBRANCH   1  25
TORSDOF 18
ENDMDL
