MODEL 1
REMARK VINA RESULT:     -11.2      0.000      0.000
REMARK SMILES CC(C)(C)OC(=O)N[C@@H](CC(=O)NCCCCNC(=O)c1ccc(-c2c3nc(c(-c4c(F)cc(S(=O)(=O)[O-])cc4F)c4ccc([nH]4)c(-c4c(F)cc(S(=O)(=O)[O-])cc4F)c4nc(c(-c5c(F)cc(S(=O)(=O)[O-])cc5F)c5ccc2[nH]5)C=C4)C=C3)cc1)c1cccnc1
REMARK SMILES IDX 15 1 14 2 13 3 11 4 12 5 10 7 9 8 8 9 6 10 7 11 5 13 2 14
REMARK SMILES IDX 1 15 3 16 4 17 87 18 88 19 92 20 89 21 91 22 90 23 16 24
REMARK SMILES IDX 17 25 18 26 19 27 20 29 21 30 22 31 86 32 23 33 85 34 24 35
REMARK SMILES IDX 25 36 26 37 79 38 27 39 84 40 78 41 80 42 28 43 83 44 77 45
REMARK SMILES IDX 76 46 29 48 63 49 42 50 62 51 43 52 46 53 61 54 81 55 44 56
REMARK SMILES IDX 45 57 60 59 82 60 47 61 30 62 31 63 40 64 32 65 33 66 39 67
REMARK SMILES IDX 41 68 34 69 35 70 36 71 37 72 38 73 64 74 65 75 74 76 66 77
REMARK SMILES IDX 67 78 73 79 75 80 68 81 69 82 70 83 71 84 72 85 48 86 49 87
REMARK SMILES IDX 58 88 50 89 51 90 57 91 59 92 52 93 53 94 54 95 55 96 56 97
REMARK H PARENT 13 6 8 12 18 28 80 47 46 58
REMARK Flexibility Score: inf
ROOT
ATOM      1  C   UNL A   1      38.871  22.762  26.150  1.00  0.00     0.023 C 
ENDROOT
BRANCH   1   2
ATOM      2  C   UNL A   1      37.837  21.747  25.666  1.00  0.00     0.116 C 
BRANCH   2   3
ATOM      3  N   UNL A   1      37.371  22.062  24.334  1.00  0.00    -0.356 N 
ATOM      4  C   UNL A   1      36.300  22.793  23.933  1.00  0.00     0.222 C 
ATOM      5  O   UNL A   1      36.229  23.069  22.732  1.00  0.00    -0.275 OA
ATOM      6  H   UNL A   1      37.914  21.688  23.603  1.00  0.00     0.163 HD
BRANCH   4   7
ATOM      7  C   UNL A   1      35.246  23.315  24.905  1.00  0.00     0.130 C 
BRANCH   7   8
ATOM      8  C   UNL A   1      33.766  22.898  24.726  1.00  0.00     0.126 C 
BRANCH   8   9
ATOM      9  N   UNL A   1      33.013  23.107  25.954  1.00  0.00    -0.314 N 
ATOM     10  C   UNL A   1      32.116  24.045  26.338  1.00  0.00     0.408 C 
ATOM     11  O   UNL A   1      31.801  24.114  27.520  1.00  0.00    -0.225 OA
ATOM     12  H   UNL A   1      33.193  22.429  26.645  1.00  0.00     0.167 HD
BRANCH  10  13
ATOM     13  O   UNL A   1      31.612  24.804  25.343  1.00  0.00    -0.444 OA
BRANCH  13  14
ATOM     14  C   UNL A   1      32.018  26.204  25.289  1.00  0.00     0.106 C 
ATOM     15  C   UNL A   1      32.058  26.558  23.795  1.00  0.00     0.056 C 
ATOM     16  C   UNL A   1      33.422  26.373  25.882  1.00  0.00     0.056 C 
ATOM     17  C   UNL A   1      31.007  27.155  25.960  1.00  0.00     0.056 C 
ENDBRANCH  13  14
ENDBRANCH  10  13
ENDBRANCH   8   9
BRANCH   8  18
ATOM     18  C   UNL A   1      33.449  21.487  24.249  1.00  0.00    -0.007 A 
ATOM     19  C   UNL A   1      33.787  20.301  24.902  1.00  0.00     0.009 A 
ATOM     20  C   UNL A   1      32.673  21.342  23.092  1.00  0.00     0.116 A 
ATOM     21  C   UNL A   1      33.283  19.079  24.454  1.00  0.00     0.020 A 
ATOM     22  N   UNL A   1      32.186  20.171  22.619  1.00  0.00    -0.264 NA
ATOM     23  C   UNL A   1      32.483  19.066  23.328  1.00  0.00     0.111 A 
ENDBRANCH   8  18
ENDBRANCH   7   8
ENDBRANCH   4   7
ENDBRANCH   2   3
ENDBRANCH   1   2
BRANCH   1  24
ATOM     24  C   UNL A   1      39.979  22.212  27.031  1.00  0.00     0.023 C 
BRANCH  24  25
ATOM     25  C   UNL A   1      41.104  23.188  27.304  1.00  0.00     0.116 C 
BRANCH  25  26
ATOM     26  N   UNL A   1      41.460  24.003  26.151  1.00  0.00    -0.352 N 
ATOM     27  C   UNL A   1      41.579  25.369  26.069  1.00  0.00     0.251 C 
ATOM     28  H   UNL A   1      41.638  23.509  25.318  1.00  0.00     0.163 HD
ATOM     29  O   UNL A   1      41.777  25.913  24.987  1.00  0.00    -0.269 OA
BRANCH  27  30
ATOM     30  C   UNL A   1      41.426  26.173  27.298  1.00  0.00     0.039 A 
ATOM     31  C   UNL A   1      42.364  27.166  27.579  1.00  0.00     0.014 A 
ATOM     32  C   UNL A   1      40.320  25.984  28.131  1.00  0.00     0.014 A 
ATOM     33  C   UNL A   1      42.159  28.005  28.673  1.00  0.00     0.010 A 
ATOM     34  C   UNL A   1      40.054  26.899  29.138  1.00  0.00     0.010 A 
ATOM     35  C   UNL A   1      40.985  27.900  29.441  1.00  0.00    -0.014 A 
BRANCH  35  36
ATOM     36  C   UNL A   1      40.742  28.802  30.592  1.00  0.00     0.031 A 
ATOM     37  C   UNL A   1      41.572  28.662  31.841  1.00  0.00     0.074 A 
ATOM     38  C   UNL A   1      39.753  29.714  30.528  1.00  0.00     0.049 A 
ATOM     39  N   UNL A   1      41.518  29.353  32.949  1.00  0.00    -0.248 NA
ATOM     40  C   UNL A   1      42.570  27.579  31.863  1.00  0.00     0.031 C 
ATOM     41  C   UNL A   1      38.833  29.888  29.400  1.00  0.00     0.029 A 
ATOM     42  N   UNL A   1      39.357  30.670  31.427  1.00  0.00    -0.354 N 
ATOM     43  C   UNL A   1      42.459  28.781  33.798  1.00  0.00     0.074 A 
ATOM     44  C   UNL A   1      43.015  27.640  33.108  1.00  0.00     0.031 C 
ATOM     45  C   UNL A   1      38.009  30.916  29.659  1.00  0.00     0.029 A 
ATOM     46  C   UNL A   1      38.319  31.453  30.981  1.00  0.00     0.049 A 
ATOM     47  H   UNL A   1      39.777  30.785  32.310  1.00  0.00     0.167 HD
ATOM     48  C   UNL A   1      42.853  29.191  35.027  1.00  0.00     0.037 A 
ATOM     49  C   UNL A   1      37.694  32.490  31.569  1.00  0.00     0.037 A 
ATOM     50  C   UNL A   1      42.313  30.347  35.690  1.00  0.00     0.049 A 
ATOM     51  C   UNL A   1      38.169  32.949  32.921  1.00  0.00     0.074 A 
ATOM     52  C   UNL A   1      42.683  30.894  36.906  1.00  0.00     0.029 A 
ATOM     53  N   UNL A   1      41.282  31.134  35.195  1.00  0.00    -0.354 N 
ATOM     54  N   UNL A   1      39.119  32.449  33.676  1.00  0.00    -0.248 NA
ATOM     55  C   UNL A   1      37.501  34.125  33.491  1.00  0.00     0.031 C 
ATOM     56  C   UNL A   1      41.840  31.978  37.170  1.00  0.00     0.029 A 
ATOM     57  C   UNL A   1      40.987  32.148  36.090  1.00  0.00     0.049 A 
ATOM     58  H   UNL A   1      40.828  30.992  34.333  1.00  0.00     0.167 HD
ATOM     59  C   UNL A   1      39.180  33.264  34.801  1.00  0.00     0.074 A 
ATOM     60  C   UNL A   1      38.185  34.302  34.614  1.00  0.00     0.031 C 
ATOM     61  C   UNL A   1      39.986  33.167  35.889  1.00  0.00     0.037 A 
BRANCH  48  62
ATOM     62  C   UNL A   1      43.915  28.382  35.723  1.00  0.00     0.058 A 
ATOM     63  C   UNL A   1      45.285  28.627  35.526  1.00  0.00     0.135 A 
ATOM     64  C   UNL A   1      43.559  27.352  36.610  1.00  0.00     0.135 A 
ATOM     65  F   UNL A   1      45.686  29.585  34.675  1.00  0.00    -0.206 F 
ATOM     66  C   UNL A   1      46.261  27.858  36.150  1.00  0.00     0.059 A 
ATOM     67  C   UNL A   1      44.519  26.593  37.272  1.00  0.00     0.059 A 
ATOM     68  F   UNL A   1      42.267  27.070  36.834  1.00  0.00    -0.206 F 
ATOM     69  C   UNL A   1      45.868  26.842  37.022  1.00  0.00     0.060 A 
BRANCH  69  70
ATOM     70  S   UNL A   1      47.146  25.852  37.825  1.00  0.00     0.124 S 
ATOM     71  O   UNL A   1      46.443  25.374  39.011  1.00  0.00    -0.237 OA
ATOM     72  O   UNL A   1      47.439  24.842  36.812  1.00  0.00    -0.237 OA
ATOM     73  O   UNL A   1      48.215  26.813  38.075  1.00  0.00    -0.744 OA
ENDBRANCH  69  70
ENDBRANCH  48  62
BRANCH  49  74
ATOM     74  C   UNL A   1      36.582  33.183  30.863  1.00  0.00     0.058 A 
ATOM     75  C   UNL A   1      35.244  32.961  31.222  1.00  0.00     0.135 A 
ATOM     76  C   UNL A   1      36.837  34.103  29.835  1.00  0.00     0.135 A 
ATOM     77  F   UNL A   1      34.946  32.089  32.197  1.00  0.00    -0.206 F 
ATOM     78  C   UNL A   1      34.198  33.612  30.576  1.00  0.00     0.059 A 
ATOM     79  C   UNL A   1      35.810  34.789  29.194  1.00  0.00     0.059 A 
ATOM     80  F   UNL A   1      38.101  34.366  29.467  1.00  0.00    -0.206 F 
ATOM     81  C   UNL A   1      34.492  34.530  29.566  1.00  0.00     0.060 A 
BRANCH  81  82
ATOM     82  S   UNL A   1      33.130  35.413  28.775  1.00  0.00     0.124 S 
ATOM     83  O   UNL A   1      33.844  36.401  27.975  1.00  0.00    -0.237 OA
ATOM     84  O   UNL A   1      32.465  34.348  28.031  1.00  0.00    -0.237 OA
ATOM     85  O   UNL A   1      32.373  35.944  29.905  1.00  0.00    -0.744 OA
ENDBRANCH  81  82
ENDBRANCH  49  74
BRANCH  61  86
ATOM     86  C   UNL A   1      39.843  34.231  36.943  1.00  0.00     0.058 A 
ATOM     87  C   UNL A   1      40.499  35.468  36.844  1.00  0.00     0.135 A 
ATOM     88  C   UNL A   1      39.026  34.012  38.065  1.00  0.00     0.135 A 
ATOM     89  F   UNL A   1      41.292  35.730  35.792  1.00  0.00    -0.206 F 
ATOM     90  C   UNL A   1      40.392  36.429  37.843  1.00  0.00     0.059 A 
ATOM     91  C   UNL A   1      38.875  34.973  39.058  1.00  0.00     0.059 A 
ATOM     92  F   UNL A   1      38.360  32.854  38.202  1.00  0.00    -0.206 F 
ATOM     93  C   UNL A   1      39.582  36.169  38.950  1.00  0.00     0.060 A 
BRANCH  93  94
ATOM     94  S   UNL A   1      39.463  37.418  40.247  1.00  0.00     0.124 S 
ATOM     95  O   UNL A   1      38.550  38.382  39.643  1.00  0.00    -0.237 OA
ATOM     96  O   UNL A   1      38.927  36.654  41.369  1.00  0.00    -0.237 OA
ATOM     97  O   UNL A   1      40.841  37.873  40.408  1.00  0.00    -0.744 OA
ENDBRANCH  93  94
ENDBRANCH  61  86
ENDBRANCH  35  36
ENDBRANCH  27  30
ENDBRANCH  25  26
ENDBRANCH  24  25
ENDBRANCH   1  24
TORSDOF 19
ENDMDL
MODEL 2
REMARK VINA RESULT:     -11.0      6.189     10.874
REMARK SMILES CC(C)(C)OC(=O)N[C@@H](CC(=O)NCCCCNC(=O)c1ccc(-c2c3nc(c(-c4c(F)cc(S(=O)(=O)[O-])cc4F)c4ccc([nH]4)c(-c4c(F)cc(S(=O)(=O)[O-])cc4F)c4nc(c(-c5c(F)cc(S(=O)(=O)[O-])cc5F)c5ccc2[nH]5)C=C4)C=C3)cc1)c1cccnc1
REMARK SMILES IDX 15 1 14 2 13 3 11 4 12 5 10 7 9 8 8 9 6 10 7 11 5 13 2 14
REMARK SMILES IDX 1 15 3 16 4 17 87 18 88 19 92 20 89 21 91 22 90 23 16 24
REMARK SMILES IDX 17 25 18 26 19 27 20 29 21 30 22 31 86 32 23 33 85 34 24 35
REMARK SMILES IDX 25 36 26 37 79 38 27 39 84 40 78 41 80 42 28 43 83 44 77 45
REMARK SMILES IDX 76 46 29 48 63 49 42 50 62 51 43 52 46 53 61 54 81 55 44 56
REMARK SMILES IDX 45 57 60 59 82 60 47 61 30 62 31 63 40 64 32 65 33 66 39 67
REMARK SMILES IDX 41 68 34 69 35 70 36 71 37 72 38 73 64 74 65 75 74 76 66 77
REMARK SMILES IDX 67 78 73 79 75 80 68 81 69 82 70 83 71 84 72 85 48 86 49 87
REMARK SMILES IDX 58 88 50 89 51 90 57 91 59 92 52 93 53 94 54 95 55 96 56 97
REMARK H PARENT 13 6 8 12 18 28 80 47 46 58
REMARK Flexibility Score: inf
ROOT
ATOM      1  C   UNL A   1      37.410  21.342  24.596  1.00  0.00     0.023 C 
ENDROOT
BRANCH   1   2
ATOM      2  C   UNL A   1      37.196  22.587  25.454  1.00  0.00     0.116 C 
BRANCH   2   3
ATOM      3  N   UNL A   1      36.241  22.343  26.512  1.00  0.00    -0.356 N 
ATOM      4  C   UNL A   1      34.897  22.161  26.451  1.00  0.00     0.222 C 
ATOM      5  O   UNL A   1      34.337  21.781  27.483  1.00  0.00    -0.275 OA
ATOM      6  H   UNL A   1      36.624  22.303  27.418  1.00  0.00     0.163 HD
BRANCH   4   7
ATOM      7  C   UNL A   1      34.096  22.350  25.167  1.00  0.00     0.130 C 
BRANCH   7   8
ATOM      8  C   UNL A   1      32.744  21.616  24.993  1.00  0.00     0.126 C 
BRANCH   8   9
ATOM      9  N   UNL A   1      31.848  21.902  26.103  1.00  0.00    -0.314 N 
ATOM     10  C   UNL A   1      30.962  22.898  26.341  1.00  0.00     0.408 C 
ATOM     11  O   UNL A   1      30.497  23.020  27.468  1.00  0.00    -0.225 OA
ATOM     12  H   UNL A   1      31.896  21.238  26.828  1.00  0.00     0.167 HD
BRANCH  10  13
ATOM     13  O   UNL A   1      30.638  23.651  25.270  1.00  0.00    -0.444 OA
BRANCH  13  14
ATOM     14  C   UNL A   1      31.193  24.998  25.197  1.00  0.00     0.106 C 
ATOM     15  C   UNL A   1      29.999  25.942  25.406  1.00  0.00     0.056 C 
ATOM     16  C   UNL A   1      31.796  25.251  23.810  1.00  0.00     0.056 C 
ATOM     17  C   UNL A   1      32.213  25.295  26.314  1.00  0.00     0.056 C 
ENDBRANCH  13  14
ENDBRANCH  10  13
ENDBRANCH   8   9
BRANCH   8  18
ATOM     18  C   UNL A   1      32.744  20.105  24.805  1.00  0.00    -0.007 A 
ATOM     19  C   UNL A   1      32.872  19.149  25.814  1.00  0.00     0.009 A 
ATOM     20  C   UNL A   1      32.511  19.601  23.519  1.00  0.00     0.116 A 
ATOM     21  C   UNL A   1      32.676  17.796  25.534  1.00  0.00     0.020 A 
ATOM     22  N   UNL A   1      32.337  18.295  23.210  1.00  0.00    -0.264 NA
ATOM     23  C   UNL A   1      32.398  17.422  24.233  1.00  0.00     0.111 A 
ENDBRANCH   8  18
ENDBRANCH   7   8
ENDBRANCH   4   7
ENDBRANCH   2   3
ENDBRANCH   1   2
BRANCH   1  24
ATOM     24  C   UNL A   1      38.120  20.183  25.274  1.00  0.00     0.023 C 
BRANCH  24  25
ATOM     25  C   UNL A   1      39.454  20.540  25.893  1.00  0.00     0.116 C 
BRANCH  25  26
ATOM     26  N   UNL A   1      40.373  19.414  25.984  1.00  0.00    -0.352 N 
ATOM     27  C   UNL A   1      41.736  19.430  26.156  1.00  0.00     0.251 C 
ATOM     28  H   UNL A   1      39.964  18.522  25.911  1.00  0.00     0.163 HD
ATOM     29  O   UNL A   1      42.383  18.390  26.098  1.00  0.00    -0.269 OA
BRANCH  27  30
ATOM     30  C   UNL A   1      42.412  20.725  26.374  1.00  0.00     0.039 A 
ATOM     31  C   UNL A   1      42.792  21.484  25.268  1.00  0.00     0.014 A 
ATOM     32  C   UNL A   1      42.609  21.209  27.670  1.00  0.00     0.014 A 
ATOM     33  C   UNL A   1      43.322  22.758  25.468  1.00  0.00     0.010 A 
ATOM     34  C   UNL A   1      43.014  22.521  27.859  1.00  0.00     0.010 A 
ATOM     35  C   UNL A   1      43.405  23.300  26.763  1.00  0.00    -0.014 A 
BRANCH  35  36
ATOM     36  C   UNL A   1      43.943  24.663  26.989  1.00  0.00     0.031 A 
ATOM     37  C   UNL A   1      43.024  25.762  27.453  1.00  0.00     0.074 A 
ATOM     38  C   UNL A   1      45.241  24.918  26.738  1.00  0.00     0.049 A 
ATOM     39  N   UNL A   1      43.300  27.014  27.711  1.00  0.00    -0.248 NA
ATOM     40  C   UNL A   1      41.600  25.421  27.614  1.00  0.00     0.031 C 
ATOM     41  C   UNL A   1      46.208  23.952  26.210  1.00  0.00     0.029 A 
ATOM     42  N   UNL A   1      45.975  26.065  26.897  1.00  0.00    -0.354 N 
ATOM     43  C   UNL A   1      42.087  27.606  28.049  1.00  0.00     0.074 A 
ATOM     44  C   UNL A   1      41.064  26.599  27.888  1.00  0.00     0.031 C 
ATOM     45  C   UNL A   1      47.415  24.535  26.129  1.00  0.00     0.029 A 
ATOM     46  C   UNL A   1      47.302  25.923  26.568  1.00  0.00     0.049 A 
ATOM     47  H   UNL A   1      45.587  26.912  27.217  1.00  0.00     0.167 HD
ATOM     48  C   UNL A   1      41.852  28.864  28.488  1.00  0.00     0.037 A 
ATOM     49  C   UNL A   1      48.313  26.810  26.620  1.00  0.00     0.037 A 
ATOM     50  C   UNL A   1      42.885  29.849  28.673  1.00  0.00     0.049 A 
ATOM     51  C   UNL A   1      48.036  28.193  27.143  1.00  0.00     0.074 A 
ATOM     52  C   UNL A   1      42.772  31.133  29.175  1.00  0.00     0.029 A 
ATOM     53  N   UNL A   1      44.223  29.660  28.356  1.00  0.00    -0.354 N 
ATOM     54  N   UNL A   1      46.898  28.713  27.539  1.00  0.00    -0.248 NA
ATOM     55  C   UNL A   1      49.183  29.103  27.245  1.00  0.00     0.031 C 
ATOM     56  C   UNL A   1      44.031  31.737  29.112  1.00  0.00     0.029 A 
ATOM     57  C   UNL A   1      44.943  30.810  28.630  1.00  0.00     0.049 A 
ATOM     58  H   UNL A   1      44.605  28.829  27.990  1.00  0.00     0.167 HD
ATOM     59  C   UNL A   1      47.195  30.005  27.961  1.00  0.00     0.074 A 
ATOM     60  C   UNL A   1      48.625  30.175  27.791  1.00  0.00     0.031 C 
ATOM     61  C   UNL A   1      46.365  30.963  28.446  1.00  0.00     0.037 A 
BRANCH  48  62
ATOM     62  C   UNL A   1      40.426  29.238  28.798  1.00  0.00     0.058 A 
ATOM     63  C   UNL A   1      39.484  29.482  27.785  1.00  0.00     0.135 A 
ATOM     64  C   UNL A   1      39.993  29.345  30.130  1.00  0.00     0.135 A 
ATOM     65  F   UNL A   1      39.846  29.413  26.493  1.00  0.00    -0.206 F 
ATOM     66  C   UNL A   1      38.176  29.854  28.078  1.00  0.00     0.059 A 
ATOM     67  C   UNL A   1      38.680  29.682  30.447  1.00  0.00     0.059 A 
ATOM     68  F   UNL A   1      40.850  29.128  31.140  1.00  0.00    -0.206 F 
ATOM     69  C   UNL A   1      37.784  29.952  29.414  1.00  0.00     0.060 A 
BRANCH  69  70
ATOM     70  S   UNL A   1      36.084  30.436  29.779  1.00  0.00     0.124 S 
ATOM     71  O   UNL A   1      36.165  31.890  29.669  1.00  0.00    -0.237 OA
ATOM     72  O   UNL A   1      35.335  29.762  28.723  1.00  0.00    -0.237 OA
ATOM     73  O   UNL A   1      35.864  29.921  31.127  1.00  0.00    -0.744 OA
ENDBRANCH  69  70
ENDBRANCH  48  62
BRANCH  49  74
ATOM     74  C   UNL A   1      49.682  26.400  26.203  1.00  0.00     0.058 A 
ATOM     75  C   UNL A   1      50.203  26.774  24.956  1.00  0.00     0.135 A 
ATOM     76  C   UNL A   1      50.506  25.650  27.056  1.00  0.00     0.135 A 
ATOM     77  F   UNL A   1      49.455  27.488  24.102  1.00  0.00    -0.206 F 
ATOM     78  C   UNL A   1      51.486  26.406  24.561  1.00  0.00     0.059 A 
ATOM     79  C   UNL A   1      51.803  25.296  26.697  1.00  0.00     0.059 A 
ATOM     80  F   UNL A   1      50.062  25.284  28.269  1.00  0.00    -0.206 F 
ATOM     81  C   UNL A   1      52.281  25.671  25.443  1.00  0.00     0.060 A 
BRANCH  81  82
ATOM     82  S   UNL A   1      53.964  25.249  24.944  1.00  0.00     0.124 S 
ATOM     83  O   UNL A   1      53.906  23.792  24.909  1.00  0.00    -0.237 OA
ATOM     84  O   UNL A   1      54.076  25.916  23.651  1.00  0.00    -0.237 OA
ATOM     85  O   UNL A   1      54.783  25.821  26.009  1.00  0.00    -0.744 OA
ENDBRANCH  81  82
ENDBRANCH  49  74
BRANCH  61  86
ATOM     86  C   UNL A   1      46.992  32.267  28.857  1.00  0.00     0.058 A 
ATOM     87  C   UNL A   1      47.477  32.481  30.157  1.00  0.00     0.135 A 
ATOM     88  C   UNL A   1      47.119  33.315  27.931  1.00  0.00     0.135 A 
ATOM     89  F   UNL A   1      47.381  31.513  31.083  1.00  0.00    -0.206 F 
ATOM     90  C   UNL A   1      48.019  33.704  30.538  1.00  0.00     0.059 A 
ATOM     91  C   UNL A   1      47.691  34.534  28.279  1.00  0.00     0.059 A 
ATOM     92  F   UNL A   1      46.689  33.160  26.668  1.00  0.00    -0.206 F 
ATOM     93  C   UNL A   1      48.115  34.726  29.593  1.00  0.00     0.060 A 
BRANCH  93  94
ATOM     94  S   UNL A   1      48.806  36.314  30.103  1.00  0.00     0.124 S 
ATOM     95  O   UNL A   1      49.978  36.414  29.240  1.00  0.00    -0.237 OA
ATOM     96  O   UNL A   1      47.718  37.240  29.804  1.00  0.00    -0.237 OA
ATOM     97  O   UNL A   1      49.085  36.123  31.523  1.00  0.00    -0.744 OA
ENDBRANCH  93  94
ENDBRANCH  61  86
ENDBRANCH  35  36
ENDBRANCH  27  30
ENDBRANCH  25  26
ENDBRANCH  24  25
ENDBRANCH   1  24
TORSDOF 19
ENDMDL
MODEL 3
REMARK VINA RESULT:     -10.9      4.718     10.478
REMARK SMILES CC(C)(C)OC(=O)N[C@@H](CC(=O)NCCCCNC(=O)c1ccc(-c2c3nc(c(-c4c(F)cc(S(=O)(=O)[O-])cc4F)c4ccc([nH]4)c(-c4c(F)cc(S(=O)(=O)[O-])cc4F)c4nc(c(-c5c(F)cc(S(=O)(=O)[O-])cc5F)c5ccc2[nH]5)C=C4)C=C3)cc1)c1cccnc1
REMARK SMILES IDX 15 1 14 2 13 3 11 4 12 5 10 7 9 8 8 9 6 10 7 11 5 13 2 14
REMARK SMILES IDX 1 15 3 16 4 17 87 18 88 19 92 20 89 21 91 22 90 23 16 24
REMARK SMILES IDX 17 25 18 26 19 27 20 29 21 30 22 31 86 32 23 33 85 34 24 35
REMARK SMILES IDX 25 36 26 37 79 38 27 39 84 40 78 41 80 42 28 43 83 44 77 45
REMARK SMILES IDX 76 46 29 48 63 49 42 50 62 51 43 52 46 53 61 54 81 55 44 56
REMARK SMILES IDX 45 57 60 59 82 60 47 61 30 62 31 63 40 64 32 65 33 66 39 67
REMARK SMILES IDX 41 68 34 69 35 70 36 71 37 72 38 73 64 74 65 75 74 76 66 77
REMARK SMILES IDX 67 78 73 79 75 80 68 81 69 82 70 83 71 84 72 85 48 86 49 87
REMARK SMILES IDX 58 88 50 89 51 90 57 91 59 92 52 93 53 94 54 95 55 96 56 97
REMARK H PARENT 13 6 8 12 18 28 80 47 46 58
REMARK Flexibility Score: inf
ROOT
ATOM      1  C   UNL A   1      32.040  27.317  25.487  1.00  0.00     0.023 C 
ENDROOT
BRANCH   1   2
ATOM      2  C   UNL A   1      32.320  26.317  26.607  1.00  0.00     0.116 C 
BRANCH   2   3
ATOM      3  N   UNL A   1      31.238  25.367  26.750  1.00  0.00    -0.356 N 
ATOM      4  C   UNL A   1      31.271  24.014  26.850  1.00  0.00     0.222 C 
ATOM      5  O   UNL A   1      30.215  23.451  27.155  1.00  0.00    -0.275 OA
ATOM      6  H   UNL A   1      30.337  25.764  26.780  1.00  0.00     0.163 HD
BRANCH   4   7
ATOM      7  C   UNL A   1      32.548  23.203  26.661  1.00  0.00     0.130 C 
BRANCH   7   8
ATOM      8  C   UNL A   1      32.916  22.672  25.254  1.00  0.00     0.126 C 
BRANCH   8   9
ATOM      9  N   UNL A   1      34.219  22.024  25.265  1.00  0.00    -0.314 N 
ATOM     10  C   UNL A   1      34.656  20.821  24.825  1.00  0.00     0.408 C 
ATOM     11  O   UNL A   1      35.767  20.434  25.166  1.00  0.00    -0.225 OA
ATOM     12  H   UNL A   1      34.927  22.573  25.675  1.00  0.00     0.167 HD
BRANCH  10  13
ATOM     13  O   UNL A   1      33.815  20.169  23.996  1.00  0.00    -0.444 OA
BRANCH  13  14
ATOM     14  C   UNL A   1      33.422  18.812  24.361  1.00  0.00     0.106 C 
ATOM     15  C   UNL A   1      32.394  18.387  23.303  1.00  0.00     0.056 C 
ATOM     16  C   UNL A   1      32.753  18.806  25.741  1.00  0.00     0.056 C 
ATOM     17  C   UNL A   1      34.588  17.806  24.300  1.00  0.00     0.056 C 
ENDBRANCH  13  14
ENDBRANCH  10  13
ENDBRANCH   8   9
BRANCH   8  18
ATOM     18  C   UNL A   1      32.913  23.636  24.076  1.00  0.00    -0.007 A 
ATOM     19  C   UNL A   1      31.817  23.947  23.268  1.00  0.00     0.009 A 
ATOM     20  C   UNL A   1      34.085  24.355  23.808  1.00  0.00     0.116 A 
ATOM     21  C   UNL A   1      31.898  24.981  22.334  1.00  0.00     0.020 A 
ATOM     22  N   UNL A   1      34.203  25.348  22.897  1.00  0.00    -0.264 NA
ATOM     23  C   UNL A   1      33.095  25.655  22.196  1.00  0.00     0.111 A 
ENDBRANCH   8  18
ENDBRANCH   7   8
ENDBRANCH   4   7
ENDBRANCH   2   3
ENDBRANCH   1   2
BRANCH   1  24
ATOM     24  C   UNL A   1      33.119  28.356  25.240  1.00  0.00     0.023 C 
BRANCH  24  25
ATOM     25  C   UNL A   1      34.061  28.570  26.406  1.00  0.00     0.116 C 
BRANCH  25  26
ATOM     26  N   UNL A   1      33.813  29.807  27.134  1.00  0.00    -0.352 N 
ATOM     27  C   UNL A   1      34.642  30.470  28.008  1.00  0.00     0.251 C 
ATOM     28  H   UNL A   1      32.935  30.223  26.982  1.00  0.00     0.163 HD
ATOM     29  O   UNL A   1      34.236  31.446  28.630  1.00  0.00    -0.269 OA
BRANCH  27  30
ATOM     30  C   UNL A   1      36.014  29.964  28.213  1.00  0.00     0.039 A 
ATOM     31  C   UNL A   1      36.937  30.069  27.173  1.00  0.00     0.014 A 
ATOM     32  C   UNL A   1      36.397  29.447  29.453  1.00  0.00     0.014 A 
ATOM     33  C   UNL A   1      38.262  29.702  27.401  1.00  0.00     0.010 A 
ATOM     34  C   UNL A   1      37.737  29.206  29.713  1.00  0.00     0.010 A 
ATOM     35  C   UNL A   1      38.680  29.300  28.682  1.00  0.00    -0.014 A 
BRANCH  35  36
ATOM     36  C   UNL A   1      40.092  28.931  28.945  1.00  0.00     0.031 A 
ATOM     37  C   UNL A   1      41.022  29.934  29.575  1.00  0.00     0.074 A 
ATOM     38  C   UNL A   1      40.542  27.715  28.583  1.00  0.00     0.049 A 
ATOM     39  N   UNL A   1      42.284  29.805  29.889  1.00  0.00    -0.248 NA
ATOM     40  C   UNL A   1      40.473  31.272  29.856  1.00  0.00     0.031 C 
ATOM     41  C   UNL A   1      39.753  26.689  27.894  1.00  0.00     0.029 A 
ATOM     42  N   UNL A   1      41.772  27.131  28.745  1.00  0.00    -0.354 N 
ATOM     43  C   UNL A   1      42.678  31.042  30.387  1.00  0.00     0.074 A 
ATOM     44  C   UNL A   1      41.547  31.930  30.263  1.00  0.00     0.031 C 
ATOM     45  C   UNL A   1      40.506  25.590  27.732  1.00  0.00     0.029 A 
ATOM     46  C   UNL A   1      41.838  25.841  28.274  1.00  0.00     0.049 A 
ATOM     47  H   UNL A   1      42.536  27.593  29.160  1.00  0.00     0.167 HD
ATOM     48  C   UNL A   1      43.865  31.396  30.934  1.00  0.00     0.037 A 
ATOM     49  C   UNL A   1      42.856  24.961  28.285  1.00  0.00     0.037 A 
ATOM     50  C   UNL A   1      44.975  30.493  31.080  1.00  0.00     0.049 A 
ATOM     51  C   UNL A   1      44.155  25.364  28.927  1.00  0.00     0.074 A 
ATOM     52  C   UNL A   1      46.201  30.724  31.679  1.00  0.00     0.029 A 
ATOM     53  N   UNL A   1      44.996  29.185  30.618  1.00  0.00    -0.354 N 
ATOM     54  N   UNL A   1      44.486  26.512  29.471  1.00  0.00    -0.248 NA
ATOM     55  C   UNL A   1      45.213  24.347  28.975  1.00  0.00     0.031 C 
ATOM     56  C   UNL A   1      46.981  29.573  31.530  1.00  0.00     0.029 A 
ATOM     57  C   UNL A   1      46.221  28.602  30.896  1.00  0.00     0.049 A 
ATOM     58  H   UNL A   1      44.249  28.736  30.159  1.00  0.00     0.167 HD
ATOM     59  C   UNL A   1      45.782  26.348  29.948  1.00  0.00     0.074 A 
ATOM     60  C   UNL A   1      46.163  24.982  29.647  1.00  0.00     0.031 C 
ATOM     61  C   UNL A   1      46.584  27.243  30.580  1.00  0.00     0.037 A 
BRANCH  48  62
ATOM     62  C   UNL A   1      44.014  32.817  31.412  1.00  0.00     0.058 A 
ATOM     63  C   UNL A   1      43.614  33.215  32.699  1.00  0.00     0.135 A 
ATOM     64  C   UNL A   1      44.577  33.794  30.574  1.00  0.00     0.135 A 
ATOM     65  F   UNL A   1      43.053  32.328  33.537  1.00  0.00    -0.206 F 
ATOM     66  C   UNL A   1      43.730  34.534  33.124  1.00  0.00     0.059 A 
ATOM     67  C   UNL A   1      44.733  35.113  30.991  1.00  0.00     0.059 A 
ATOM     68  F   UNL A   1      44.973  33.473  29.333  1.00  0.00    -0.206 F 
ATOM     69  C   UNL A   1      44.290  35.476  32.261  1.00  0.00     0.060 A 
BRANCH  69  70
ATOM     70  S   UNL A   1      44.433  37.185  32.827  1.00  0.00     0.124 S 
ATOM     71  O   UNL A   1      45.880  37.330  32.955  1.00  0.00    -0.237 OA
ATOM     72  O   UNL A   1      43.816  37.927  31.732  1.00  0.00    -0.237 OA
ATOM     73  O   UNL A   1      43.689  37.192  34.082  1.00  0.00    -0.744 OA
ENDBRANCH  69  70
ENDBRANCH  48  62
BRANCH  49  74
ATOM     74  C   UNL A   1      42.669  23.603  27.704  1.00  0.00     0.058 A 
ATOM     75  C   UNL A   1      42.796  23.379  26.325  1.00  0.00     0.135 A 
ATOM     76  C   UNL A   1      42.387  22.497  28.521  1.00  0.00     0.135 A 
ATOM     77  F   UNL A   1      43.061  24.403  25.501  1.00  0.00    -0.206 F 
ATOM     78  C   UNL A   1      42.634  22.112  25.774  1.00  0.00     0.059 A 
ATOM     79  C   UNL A   1      42.250  21.215  27.998  1.00  0.00     0.059 A 
ATOM     80  F   UNL A   1      42.275  22.654  29.850  1.00  0.00    -0.206 F 
ATOM     81  C   UNL A   1      42.367  21.034  26.621  1.00  0.00     0.060 A 
BRANCH  81  82
ATOM     82  S   UNL A   1      42.217  19.384  25.902  1.00  0.00     0.124 S 
ATOM     83  O   UNL A   1      43.059  19.501  24.717  1.00  0.00    -0.237 OA
ATOM     84  O   UNL A   1      42.732  18.536  26.972  1.00  0.00    -0.237 OA
ATOM     85  O   UNL A   1      40.784  19.259  25.648  1.00  0.00    -0.744 OA
ENDBRANCH  81  82
ENDBRANCH  49  74
BRANCH  61  86
ATOM     86  C   UNL A   1      47.941  26.758  31.014  1.00  0.00     0.058 A 
ATOM     87  C   UNL A   1      49.088  26.962  30.232  1.00  0.00     0.135 A 
ATOM     88  C   UNL A   1      48.095  26.089  32.240  1.00  0.00     0.135 A 
ATOM     89  F   UNL A   1      48.998  27.596  29.051  1.00  0.00    -0.206 F 
ATOM     90  C   UNL A   1      50.330  26.475  30.623  1.00  0.00     0.059 A 
ATOM     91  C   UNL A   1      49.334  25.625  32.669  1.00  0.00     0.059 A 
ATOM     92  F   UNL A   1      47.034  25.882  33.037  1.00  0.00    -0.206 F 
ATOM     93  C   UNL A   1      50.441  25.801  31.841  1.00  0.00     0.060 A 
BRANCH  93  94
ATOM     94  S   UNL A   1      52.056  25.160  32.332  1.00  0.00     0.124 S 
ATOM     95  O   UNL A   1      51.798  23.724  32.376  1.00  0.00    -0.237 OA
ATOM     96  O   UNL A   1      52.917  25.617  31.247  1.00  0.00    -0.237 OA
ATOM     97  O   UNL A   1      52.295  25.795  33.624  1.00  0.00    -0.744 OA
ENDBRANCH  93  94
ENDBRANCH  61  86
ENDBRANCH  35  36
ENDBRANCH  27  30
ENDBRANCH  25  26
ENDBRANCH  24  25
ENDBRANCH   1  24
TORSDOF 19
ENDMDL
