MODEL 1
REMARK VINA RESULT:     -12.0      0.000      0.000
REMARK SMILES Cc1oc2c(c1C(=O)NCCCC(=O)NCCCCNC(=O)c1ccc(-c3c4nc(c(-c5c(F)cc(S(=O)(=O)[O-])cc5F)c5ccc([nH]5)c(-c5c(F)cc(S(=O)(=O)[O-])cc5F)c5nc(c(-c6c(F)cc(S(=O)(=O)[O-])cc6F)c6ccc3[nH]6)C=C5)C=C4)cc1)CCCC2
REMARK SMILES IDX 17 1 16 2 15 3 13 4 14 5 12 7 11 8 10 9 9 10 7 11 8 12 6 14
REMARK SMILES IDX 1 15 2 16 3 17 4 18 5 19 92 20 89 21 91 22 90 23 18 24 19 25
REMARK SMILES IDX 20 26 21 27 22 29 23 30 24 31 88 32 25 33 87 34 26 35 27 36
REMARK SMILES IDX 28 37 81 38 29 39 86 40 80 41 82 42 30 43 85 44 79 45 78 46
REMARK SMILES IDX 31 48 65 49 44 50 64 51 45 52 48 53 63 54 83 55 46 56 47 57
REMARK SMILES IDX 62 59 84 60 49 61 32 62 33 63 42 64 34 65 35 66 41 67 43 68
REMARK SMILES IDX 36 69 37 70 38 71 39 72 40 73 66 74 67 75 76 76 68 77 69 78
REMARK SMILES IDX 75 79 77 80 70 81 71 82 72 83 73 84 74 85 50 86 51 87 60 88
REMARK SMILES IDX 52 89 53 90 59 91 61 92 54 93 55 94 56 95 57 96 58 97
REMARK H PARENT 15 6 9 13 20 28 82 47 48 58
REMARK Flexibility Score: inf
ROOT
ATOM      1  C   UNL A   1      41.189  21.070  27.581  1.00  0.00     0.023 C 
ENDROOT
BRANCH   1   2
ATOM      2  C   UNL A   1      40.013  21.167  26.606  1.00  0.00     0.116 C 
BRANCH   2   3
ATOM      3  N   UNL A   1      39.276  22.402  26.800  1.00  0.00    -0.356 N 
ATOM      4  C   UNL A   1      38.234  22.926  26.100  1.00  0.00     0.220 C 
ATOM      5  O   UNL A   1      37.882  24.080  26.350  1.00  0.00    -0.275 OA
ATOM      6  H   UNL A   1      39.579  22.950  27.560  1.00  0.00     0.163 HD
BRANCH   4   7
ATOM      7  C   UNL A   1      37.514  22.112  25.043  1.00  0.00     0.102 C 
BRANCH   7   8
ATOM      8  C   UNL A   1      36.790  22.948  23.987  1.00  0.00     0.031 C 
BRANCH   8   9
ATOM      9  C   UNL A   1      35.391  23.438  24.347  1.00  0.00     0.116 C 
BRANCH   9  10
ATOM     10  N   UNL A   1      34.814  22.858  25.532  1.00  0.00    -0.352 N 
ATOM     11  C   UNL A   1      33.950  21.805  25.699  1.00  0.00     0.255 C 
ATOM     12  O   UNL A   1      33.694  21.521  26.872  1.00  0.00    -0.269 OA
ATOM     13  H   UNL A   1      35.087  23.294  26.372  1.00  0.00     0.163 HD
BRANCH  11  14
ATOM     14  C   UNL A   1      33.284  21.102  24.597  1.00  0.00     0.084 A 
ATOM     15  C   UNL A   1      31.754  22.760  23.138  1.00  0.00     0.088 C 
ATOM     16  C   UNL A   1      32.374  21.505  23.613  1.00  0.00     0.114 A 
ATOM     17  O   UNL A   1      31.992  20.441  22.840  1.00  0.00    -0.465 OA
ATOM     18  C   UNL A   1      32.698  19.382  23.255  1.00  0.00     0.108 A 
ATOM     19  C   UNL A   1      33.548  19.718  24.276  1.00  0.00     0.007 A 
ATOM     20  C   UNL A   1      32.528  18.077  22.587  1.00  0.00     0.076 C 
ATOM     21  C   UNL A   1      34.482  18.711  24.868  1.00  0.00     0.040 C 
ATOM     22  C   UNL A   1      33.186  16.992  23.456  1.00  0.00     0.008 C 
ATOM     23  C   UNL A   1      34.564  17.440  23.988  1.00  0.00     0.005 C 
ENDBRANCH  11  14
ENDBRANCH   9  10
ENDBRANCH   8   9
ENDBRANCH   7   8
ENDBRANCH   4   7
ENDBRANCH   2   3
ENDBRANCH   1   2
BRANCH   1  24
ATOM     24  C   UNL A   1      42.316  20.103  27.208  1.00  0.00     0.023 C 
BRANCH  24  25
ATOM     25  C   UNL A   1      42.310  19.638  25.760  1.00  0.00     0.116 C 
BRANCH  25  26
ATOM     26  N   UNL A   1      43.616  19.179  25.301  1.00  0.00    -0.352 N 
ATOM     27  C   UNL A   1      44.624  19.953  24.748  1.00  0.00     0.251 C 
ATOM     28  H   UNL A   1      43.803  18.217  25.394  1.00  0.00     0.163 HD
ATOM     29  O   UNL A   1      45.457  19.459  24.007  1.00  0.00    -0.269 OA
BRANCH  27  30
ATOM     30  C   UNL A   1      44.648  21.393  25.070  1.00  0.00     0.039 A 
ATOM     31  C   UNL A   1      43.830  22.287  24.387  1.00  0.00     0.014 A 
ATOM     32  C   UNL A   1      45.453  21.824  26.126  1.00  0.00     0.014 A 
ATOM     33  C   UNL A   1      43.746  23.597  24.852  1.00  0.00     0.010 A 
ATOM     34  C   UNL A   1      45.274  23.084  26.661  1.00  0.00     0.010 A 
ATOM     35  C   UNL A   1      44.428  23.985  26.027  1.00  0.00    -0.014 A 
BRANCH  35  36
ATOM     36  C   UNL A   1      44.091  25.265  26.662  1.00  0.00     0.031 A 
ATOM     37  C   UNL A   1      45.070  26.344  26.359  1.00  0.00     0.074 A 
ATOM     38  C   UNL A   1      42.968  25.553  27.359  1.00  0.00     0.049 A 
ATOM     39  N   UNL A   1      46.032  26.734  27.126  1.00  0.00    -0.248 NA
ATOM     40  C   UNL A   1      45.129  26.908  25.001  1.00  0.00     0.031 C 
ATOM     41  C   UNL A   1      41.774  24.726  27.544  1.00  0.00     0.029 A 
ATOM     42  N   UNL A   1      42.636  26.704  28.019  1.00  0.00    -0.354 N 
ATOM     43  C   UNL A   1      46.637  27.793  26.464  1.00  0.00     0.074 A 
ATOM     44  C   UNL A   1      46.199  27.704  25.096  1.00  0.00     0.031 C 
ATOM     45  C   UNL A   1      40.776  25.471  28.072  1.00  0.00     0.029 A 
ATOM     46  C   UNL A   1      41.307  26.773  28.434  1.00  0.00     0.049 A 
ATOM     47  H   UNL A   1      43.283  27.428  28.186  1.00  0.00     0.167 HD
ATOM     48  C   UNL A   1      47.194  28.811  27.178  1.00  0.00     0.037 A 
ATOM     49  C   UNL A   1      40.688  27.805  29.065  1.00  0.00     0.037 A 
ATOM     50  C   UNL A   1      47.376  28.424  28.560  1.00  0.00     0.049 A 
ATOM     51  C   UNL A   1      41.748  28.574  29.757  1.00  0.00     0.074 A 
ATOM     52  C   UNL A   1      48.035  27.407  29.223  1.00  0.00     0.029 A 
ATOM     53  N   UNL A   1      46.471  28.937  29.456  1.00  0.00    -0.354 N 
ATOM     54  N   UNL A   1      42.438  28.113  30.764  1.00  0.00    -0.248 NA
ATOM     55  C   UNL A   1      42.322  29.723  29.079  1.00  0.00     0.031 C 
ATOM     56  C   UNL A   1      47.193  27.073  30.328  1.00  0.00     0.029 A 
ATOM     57  C   UNL A   1      46.109  27.951  30.332  1.00  0.00     0.049 A 
ATOM     58  H   UNL A   1      46.139  29.864  29.468  1.00  0.00     0.167 HD
ATOM     59  C   UNL A   1      43.717  28.599  30.556  1.00  0.00     0.074 A 
ATOM     60  C   UNL A   1      43.554  29.684  29.591  1.00  0.00     0.031 C 
ATOM     61  C   UNL A   1      44.808  27.888  30.966  1.00  0.00     0.037 A 
BRANCH  48  62
ATOM     62  C   UNL A   1      47.125  30.271  26.774  1.00  0.00     0.058 A 
ATOM     63  C   UNL A   1      48.287  31.065  26.902  1.00  0.00     0.135 A 
ATOM     64  C   UNL A   1      45.922  30.989  26.583  1.00  0.00     0.135 A 
ATOM     65  F   UNL A   1      49.488  30.495  27.090  1.00  0.00    -0.206 F 
ATOM     66  C   UNL A   1      48.242  32.459  26.941  1.00  0.00     0.059 A 
ATOM     67  C   UNL A   1      45.863  32.377  26.565  1.00  0.00     0.059 A 
ATOM     68  F   UNL A   1      44.730  30.391  26.502  1.00  0.00    -0.206 F 
ATOM     69  C   UNL A   1      47.019  33.104  26.786  1.00  0.00     0.060 A 
BRANCH  69  70
ATOM     70  S   UNL A   1      46.943  34.897  26.912  1.00  0.00     0.124 S 
ATOM     71  O   UNL A   1      47.686  35.302  25.725  1.00  0.00    -0.237 OA
ATOM     72  O   UNL A   1      45.505  35.139  26.883  1.00  0.00    -0.237 OA
ATOM     73  O   UNL A   1      47.592  35.169  28.191  1.00  0.00    -0.744 OA
ENDBRANCH  69  70
ENDBRANCH  48  62
BRANCH  49  74
ATOM     74  C   UNL A   1      39.314  28.351  28.874  1.00  0.00     0.058 A 
ATOM     75  C   UNL A   1      38.424  28.463  29.963  1.00  0.00     0.135 A 
ATOM     76  C   UNL A   1      38.961  29.067  27.715  1.00  0.00     0.135 A 
ATOM     77  F   UNL A   1      38.674  27.813  31.109  1.00  0.00    -0.206 F 
ATOM     78  C   UNL A   1      37.310  29.308  29.938  1.00  0.00     0.059 A 
ATOM     79  C   UNL A   1      37.848  29.910  27.663  1.00  0.00     0.059 A 
ATOM     80  F   UNL A   1      39.743  29.047  26.626  1.00  0.00    -0.206 F 
ATOM     81  C   UNL A   1      37.047  30.054  28.791  1.00  0.00     0.060 A 
BRANCH  81  82
ATOM     82  S   UNL A   1      35.743  31.309  28.825  1.00  0.00     0.124 S 
ATOM     83  O   UNL A   1      36.366  32.412  28.101  1.00  0.00    -0.237 OA
ATOM     84  O   UNL A   1      34.645  30.635  28.139  1.00  0.00    -0.237 OA
ATOM     85  O   UNL A   1      35.532  31.539  30.253  1.00  0.00    -0.744 OA
ENDBRANCH  81  82
ENDBRANCH  49  74
BRANCH  61  86
ATOM     86  C   UNL A   1      44.621  26.844  32.036  1.00  0.00     0.058 A 
ATOM     87  C   UNL A   1      44.507  27.091  33.416  1.00  0.00     0.135 A 
ATOM     88  C   UNL A   1      44.435  25.521  31.605  1.00  0.00     0.135 A 
ATOM     89  F   UNL A   1      44.581  28.336  33.907  1.00  0.00    -0.206 F 
ATOM     90  C   UNL A   1      44.258  26.057  34.324  1.00  0.00     0.059 A 
ATOM     91  C   UNL A   1      44.153  24.484  32.486  1.00  0.00     0.059 A 
ATOM     92  F   UNL A   1      44.485  25.227  30.294  1.00  0.00    -0.206 F 
ATOM     93  C   UNL A   1      44.079  24.757  33.848  1.00  0.00     0.060 A 
BRANCH  93  94
ATOM     94  S   UNL A   1      43.690  23.430  35.010  1.00  0.00     0.124 S 
ATOM     95  O   UNL A   1      42.244  23.554  35.147  1.00  0.00    -0.237 OA
ATOM     96  O   UNL A   1      44.160  22.242  34.303  1.00  0.00    -0.237 OA
ATOM     97  O   UNL A   1      44.461  23.780  36.200  1.00  0.00    -0.744 OA
ENDBRANCH  93  94
ENDBRANCH  61  86
ENDBRANCH  35  36
ENDBRANCH  27  30
ENDBRANCH  25  26
ENDBRANCH  24  25
ENDBRANCH   1  24
TORSDOF 18
ENDMDL
MODEL 2
REMARK VINA RESULT:     -11.7      1.488      2.512
REMARK SMILES Cc1oc2c(c1C(=O)NCCCC(=O)NCCCCNC(=O)c1ccc(-c3c4nc(c(-c5c(F)cc(S(=O)(=O)[O-])cc5F)c5ccc([nH]5)c(-c5c(F)cc(S(=O)(=O)[O-])cc5F)c5nc(c(-c6c(F)cc(S(=O)(=O)[O-])cc6F)c6ccc3[nH]6)C=C5)C=C4)cc1)CCCC2
REMARK SMILES IDX 17 1 16 2 15 3 13 4 14 5 12 7 11 8 10 9 9 10 7 11 8 12 6 14
REMARK SMILES IDX 1 15 2 16 3 17 4 18 5 19 92 20 89 21 91 22 90 23 18 24 19 25
REMARK SMILES IDX 20 26 21 27 22 29 23 30 24 31 88 32 25 33 87 34 26 35 27 36
REMARK SMILES IDX 28 37 81 38 29 39 86 40 80 41 82 42 30 43 85 44 79 45 78 46
REMARK SMILES IDX 31 48 65 49 44 50 64 51 45 52 48 53 63 54 83 55 46 56 47 57
REMARK SMILES IDX 62 59 84 60 49 61 32 62 33 63 42 64 34 65 35 66 41 67 43 68
REMARK SMILES IDX 36 69 37 70 38 71 39 72 40 73 66 74 67 75 76 76 68 77 69 78
REMARK SMILES IDX 75 79 77 80 70 81 71 82 72 83 73 84 74 85 50 86 51 87 60 88
REMARK SMILES IDX 52 89 53 90 59 91 61 92 54 93 55 94 56 95 57 96 58 97
REMARK H PARENT 15 6 9 13 20 28 82 47 48 58
REMARK Flexibility Score: inf
ROOT
ATOM      1  C   UNL A   1      40.241  20.957  26.358  1.00  0.00     0.023 C 
ENDROOT
BRANCH   1   2
ATOM      2  C   UNL A   1      38.894  21.057  25.639  1.00  0.00     0.116 C 
BRANCH   2   3
ATOM      3  N   UNL A   1      38.146  22.215  26.092  1.00  0.00    -0.356 N 
ATOM      4  C   UNL A   1      37.250  22.998  25.432  1.00  0.00     0.220 C 
ATOM      5  O   UNL A   1      36.869  24.037  25.975  1.00  0.00    -0.275 OA
ATOM      6  H   UNL A   1      38.314  22.477  27.026  1.00  0.00     0.163 HD
BRANCH   4   7
ATOM      7  C   UNL A   1      36.722  22.604  24.066  1.00  0.00     0.102 C 
BRANCH   7   8
ATOM      8  C   UNL A   1      35.300  23.086  23.777  1.00  0.00     0.031 C 
BRANCH   8   9
ATOM      9  C   UNL A   1      34.167  22.290  24.417  1.00  0.00     0.116 C 
BRANCH   9  10
ATOM     10  N   UNL A   1      34.163  22.261  25.857  1.00  0.00    -0.352 N 
ATOM     11  C   UNL A   1      33.336  22.859  26.775  1.00  0.00     0.255 C 
ATOM     12  O   UNL A   1      33.574  22.576  27.952  1.00  0.00    -0.269 OA
ATOM     13  H   UNL A   1      34.881  21.716  26.253  1.00  0.00     0.163 HD
BRANCH  11  14
ATOM     14  C   UNL A   1      32.299  23.838  26.435  1.00  0.00     0.084 A 
ATOM     15  C   UNL A   1      29.839  22.927  27.013  1.00  0.00     0.088 C 
ATOM     16  C   UNL A   1      30.901  23.818  26.502  1.00  0.00     0.114 A 
ATOM     17  O   UNL A   1      30.374  24.977  25.998  1.00  0.00    -0.465 OA
ATOM     18  C   UNL A   1      31.404  25.773  25.684  1.00  0.00     0.108 A 
ATOM     19  C   UNL A   1      32.603  25.177  25.979  1.00  0.00     0.007 A 
ATOM     20  C   UNL A   1      31.153  27.120  25.139  1.00  0.00     0.076 C 
ATOM     21  C   UNL A   1      33.897  25.895  25.768  1.00  0.00     0.040 C 
ATOM     22  C   UNL A   1      32.471  27.671  24.567  1.00  0.00     0.008 C 
ATOM     23  C   UNL A   1      33.662  27.404  25.511  1.00  0.00     0.005 C 
ENDBRANCH  11  14
ENDBRANCH   9  10
ENDBRANCH   8   9
ENDBRANCH   7   8
ENDBRANCH   4   7
ENDBRANCH   2   3
ENDBRANCH   1   2
BRANCH   1  24
ATOM     24  C   UNL A   1      41.048  19.675  26.136  1.00  0.00     0.023 C 
BRANCH  24  25
ATOM     25  C   UNL A   1      42.405  19.644  26.821  1.00  0.00     0.116 C 
BRANCH  25  26
ATOM     26  N   UNL A   1      43.489  19.258  25.925  1.00  0.00    -0.352 N 
ATOM     27  C   UNL A   1      44.172  20.078  25.041  1.00  0.00     0.251 C 
ATOM     28  H   UNL A   1      43.766  18.313  25.950  1.00  0.00     0.163 HD
ATOM     29  O   UNL A   1      44.717  19.617  24.053  1.00  0.00    -0.269 OA
BRANCH  27  30
ATOM     30  C   UNL A   1      44.206  21.526  25.324  1.00  0.00     0.039 A 
ATOM     31  C   UNL A   1      43.354  22.401  24.656  1.00  0.00     0.014 A 
ATOM     32  C   UNL A   1      45.057  21.987  26.330  1.00  0.00     0.014 A 
ATOM     33  C   UNL A   1      43.287  23.722  25.091  1.00  0.00     0.010 A 
ATOM     34  C   UNL A   1      44.898  23.260  26.840  1.00  0.00     0.010 A 
ATOM     35  C   UNL A   1      44.020  24.142  26.223  1.00  0.00    -0.014 A 
BRANCH  35  36
ATOM     36  C   UNL A   1      43.709  25.437  26.839  1.00  0.00     0.031 A 
ATOM     37  C   UNL A   1      44.687  26.502  26.491  1.00  0.00     0.074 A 
ATOM     38  C   UNL A   1      42.605  25.748  27.557  1.00  0.00     0.049 A 
ATOM     39  N   UNL A   1      45.671  26.900  27.226  1.00  0.00    -0.248 NA
ATOM     40  C   UNL A   1      44.718  27.038  25.121  1.00  0.00     0.031 C 
ATOM     41  C   UNL A   1      41.409  24.935  27.787  1.00  0.00     0.029 A 
ATOM     42  N   UNL A   1      42.297  26.915  28.201  1.00  0.00    -0.354 N 
ATOM     43  C   UNL A   1      46.268  27.941  26.528  1.00  0.00     0.074 A 
ATOM     44  C   UNL A   1      45.796  27.827  25.173  1.00  0.00     0.031 C 
ATOM     45  C   UNL A   1      40.430  25.698  28.324  1.00  0.00     0.029 A 
ATOM     46  C   UNL A   1      40.979  27.003  28.646  1.00  0.00     0.049 A 
ATOM     47  H   UNL A   1      42.954  27.637  28.338  1.00  0.00     0.167 HD
ATOM     48  C   UNL A   1      46.849  28.969  27.208  1.00  0.00     0.037 A 
ATOM     49  C   UNL A   1      40.383  28.052  29.270  1.00  0.00     0.037 A 
ATOM     50  C   UNL A   1      47.062  28.608  28.593  1.00  0.00     0.049 A 
ATOM     51  C   UNL A   1      41.465  28.827  29.921  1.00  0.00     0.074 A 
ATOM     52  C   UNL A   1      47.728  27.599  29.261  1.00  0.00     0.029 A 
ATOM     53  N   UNL A   1      46.182  29.147  29.500  1.00  0.00    -0.354 N 
ATOM     54  N   UNL A   1      42.176  28.381  30.920  1.00  0.00    -0.248 NA
ATOM     55  C   UNL A   1      42.031  29.957  29.206  1.00  0.00     0.031 C 
ATOM     56  C   UNL A   1      46.911  27.295  30.392  1.00  0.00     0.029 A 
ATOM     57  C   UNL A   1      45.834  28.181  30.404  1.00  0.00     0.049 A 
ATOM     58  H   UNL A   1      45.857  30.076  29.500  1.00  0.00     0.167 HD
ATOM     59  C   UNL A   1      43.453  28.853  30.671  1.00  0.00     0.074 A 
ATOM     60  C   UNL A   1      43.275  29.919  29.689  1.00  0.00     0.031 C 
ATOM     61  C   UNL A   1      44.548  28.141  31.070  1.00  0.00     0.037 A 
BRANCH  48  62
ATOM     62  C   UNL A   1      46.781  30.421  26.775  1.00  0.00     0.058 A 
ATOM     63  C   UNL A   1      47.947  31.213  26.877  1.00  0.00     0.135 A 
ATOM     64  C   UNL A   1      45.578  31.138  26.582  1.00  0.00     0.135 A 
ATOM     65  F   UNL A   1      49.147  30.642  27.065  1.00  0.00    -0.206 F 
ATOM     66  C   UNL A   1      47.906  32.608  26.889  1.00  0.00     0.059 A 
ATOM     67  C   UNL A   1      45.525  32.526  26.537  1.00  0.00     0.059 A 
ATOM     68  F   UNL A   1      44.384  30.543  26.524  1.00  0.00    -0.206 F 
ATOM     69  C   UNL A   1      46.685  33.254  26.733  1.00  0.00     0.060 A 
BRANCH  69  70
ATOM     70  S   UNL A   1      46.615  35.050  26.824  1.00  0.00     0.124 S 
ATOM     71  O   UNL A   1      47.120  35.425  25.509  1.00  0.00    -0.237 OA
ATOM     72  O   UNL A   1      45.195  35.283  27.058  1.00  0.00    -0.237 OA
ATOM     73  O   UNL A   1      47.489  35.359  27.952  1.00  0.00    -0.744 OA
ENDBRANCH  69  70
ENDBRANCH  48  62
BRANCH  49  74
ATOM     74  C   UNL A   1      39.009  28.605  29.101  1.00  0.00     0.058 A 
ATOM     75  C   UNL A   1      38.141  28.730  30.205  1.00  0.00     0.135 A 
ATOM     76  C   UNL A   1      38.638  29.315  27.944  1.00  0.00     0.135 A 
ATOM     77  F   UNL A   1      38.408  28.087  31.352  1.00  0.00    -0.206 F 
ATOM     78  C   UNL A   1      37.031  29.582  30.196  1.00  0.00     0.059 A 
ATOM     79  C   UNL A   1      37.530  30.164  27.907  1.00  0.00     0.059 A 
ATOM     80  F   UNL A   1      39.400  29.283  26.840  1.00  0.00    -0.206 F 
ATOM     81  C   UNL A   1      36.751  30.321  29.048  1.00  0.00     0.060 A 
BRANCH  81  82
ATOM     82  S   UNL A   1      35.455  31.584  29.098  1.00  0.00     0.124 S 
ATOM     83  O   UNL A   1      34.403  30.969  28.295  1.00  0.00    -0.237 OA
ATOM     84  O   UNL A   1      35.183  31.695  30.527  1.00  0.00    -0.237 OA
ATOM     85  O   UNL A   1      36.098  32.751  28.497  1.00  0.00    -0.744 OA
ENDBRANCH  81  82
ENDBRANCH  49  74
BRANCH  61  86
ATOM     86  C   UNL A   1      44.379  27.122  32.166  1.00  0.00     0.058 A 
ATOM     87  C   UNL A   1      44.277  27.399  33.540  1.00  0.00     0.135 A 
ATOM     88  C   UNL A   1      44.200  25.787  31.767  1.00  0.00     0.135 A 
ATOM     89  F   UNL A   1      44.345  28.656  34.002  1.00  0.00    -0.206 F 
ATOM     90  C   UNL A   1      44.044  26.385  34.474  1.00  0.00     0.059 A 
ATOM     91  C   UNL A   1      43.934  24.769  32.674  1.00  0.00     0.059 A 
ATOM     92  F   UNL A   1      44.240  25.464  30.463  1.00  0.00    -0.206 F 
ATOM     93  C   UNL A   1      43.870  25.073  34.030  1.00  0.00     0.060 A 
BRANCH  93  94
ATOM     94  S   UNL A   1      43.503  23.770  35.226  1.00  0.00     0.124 S 
ATOM     95  O   UNL A   1      42.252  24.234  35.813  1.00  0.00    -0.237 OA
ATOM     96  O   UNL A   1      43.404  22.583  34.381  1.00  0.00    -0.237 OA
ATOM     97  O   UNL A   1      44.657  23.790  36.121  1.00  0.00    -0.744 OA
ENDBRANCH  93  94
ENDBRANCH  61  86
ENDBRANCH  35  36
ENDBRANCH  27  30
ENDBRANCH  25  26
ENDBRANCH  24  25
ENDBRANCH   1  24
TORSDOF 18
ENDMDL
MODEL 3
REMARK VINA RESULT:     -11.6      3.069      9.544
REMARK SMILES Cc1oc2c(c1C(=O)NCCCC(=O)NCCCCNC(=O)c1ccc(-c3c4nc(c(-c5c(F)cc(S(=O)(=O)[O-])cc5F)c5ccc([nH]5)c(-c5c(F)cc(S(=O)(=O)[O-])cc5F)c5nc(c(-c6c(F)cc(S(=O)(=O)[O-])cc6F)c6ccc3[nH]6)C=C5)C=C4)cc1)CCCC2
REMARK SMILES IDX 17 1 16 2 15 3 13 4 14 5 12 7 11 8 10 9 9 10 7 11 8 12 6 14
REMARK SMILES IDX 1 15 2 16 3 17 4 18 5 19 92 20 89 21 91 22 90 23 18 24 19 25
REMARK SMILES IDX 20 26 21 27 22 29 23 30 24 31 88 32 25 33 87 34 26 35 27 36
REMARK SMILES IDX 28 37 81 38 29 39 86 40 80 41 82 42 30 43 85 44 79 45 78 46
REMARK SMILES IDX 31 48 65 49 44 50 64 51 45 52 48 53 63 54 83 55 46 56 47 57
REMARK SMILES IDX 62 59 84 60 49 61 32 62 33 63 42 64 34 65 35 66 41 67 43 68
REMARK SMILES IDX 36 69 37 70 38 71 39 72 40 73 66 74 67 75 76 76 68 77 69 78
REMARK SMILES IDX 75 79 77 80 70 81 71 82 72 83 73 84 74 85 50 86 51 87 60 88
REMARK SMILES IDX 52 89 53 90 59 91 61 92 54 93 55 94 56 95 57 96 58 97
REMARK H PARENT 15 6 9 13 20 28 82 47 48 58
REMARK Flexibility Score: inf
ROOT
ATOM      1  C   UNL A   1      33.319  29.871  26.862  1.00  0.00     0.023 C 
ENDROOT
BRANCH   1   2
ATOM      2  C   UNL A   1      33.183  29.650  25.354  1.00  0.00     0.116 C 
BRANCH   2   3
ATOM      3  N   UNL A   1      31.846  29.980  24.897  1.00  0.00    -0.356 N 
ATOM      4  C   UNL A   1      30.918  29.214  24.262  1.00  0.00     0.220 C 
ATOM      5  O   UNL A   1      29.910  29.765  23.817  1.00  0.00    -0.275 OA
ATOM      6  H   UNL A   1      31.566  30.907  25.073  1.00  0.00     0.163 HD
BRANCH   4   7
ATOM      7  C   UNL A   1      31.108  27.717  24.113  1.00  0.00     0.102 C 
BRANCH   7   8
ATOM      8  C   UNL A   1      30.617  26.896  25.306  1.00  0.00     0.031 C 
BRANCH   8   9
ATOM      9  C   UNL A   1      31.655  26.555  26.371  1.00  0.00     0.116 C 
BRANCH   9  10
ATOM     10  N   UNL A   1      31.514  25.260  26.985  1.00  0.00    -0.352 N 
ATOM     11  C   UNL A   1      31.954  24.019  26.599  1.00  0.00     0.255 C 
ATOM     12  O   UNL A   1      31.713  23.109  27.396  1.00  0.00    -0.269 OA
ATOM     13  H   UNL A   1      31.012  25.266  27.833  1.00  0.00     0.163 HD
BRANCH  11  14
ATOM     14  C   UNL A   1      32.582  23.733  25.305  1.00  0.00     0.084 A 
ATOM     15  C   UNL A   1      30.786  23.707  23.308  1.00  0.00     0.088 C 
ATOM     16  C   UNL A   1      32.080  23.572  24.009  1.00  0.00     0.114 A 
ATOM     17  O   UNL A   1      33.084  23.246  23.136  1.00  0.00    -0.465 OA
ATOM     18  C   UNL A   1      34.230  23.275  23.828  1.00  0.00     0.108 A 
ATOM     19  C   UNL A   1      34.014  23.624  25.135  1.00  0.00     0.007 A 
ATOM     20  C   UNL A   1      35.507  22.994  23.146  1.00  0.00     0.076 C 
ATOM     21  C   UNL A   1      35.152  23.777  26.093  1.00  0.00     0.040 C 
ATOM     22  C   UNL A   1      36.593  22.768  24.213  1.00  0.00     0.008 C 
ATOM     23  C   UNL A   1      36.509  23.811  25.347  1.00  0.00     0.005 C 
ENDBRANCH  11  14
ENDBRANCH   9  10
ENDBRANCH   8   9
ENDBRANCH   7   8
ENDBRANCH   4   7
ENDBRANCH   2   3
ENDBRANCH   1   2
BRANCH   1  24
ATOM     24  C   UNL A   1      32.970  31.265  27.390  1.00  0.00     0.023 C 
BRANCH  24  25
ATOM     25  C   UNL A   1      34.162  32.179  27.626  1.00  0.00     0.116 C 
BRANCH  25  26
ATOM     26  N   UNL A   1      34.240  32.674  28.996  1.00  0.00    -0.352 N 
ATOM     27  C   UNL A   1      35.044  32.185  30.014  1.00  0.00     0.251 C 
ATOM     28  H   UNL A   1      33.661  33.436  29.223  1.00  0.00     0.163 HD
ATOM     29  O   UNL A   1      34.737  32.340  31.183  1.00  0.00    -0.269 OA
BRANCH  27  30
ATOM     30  C   UNL A   1      36.274  31.460  29.638  1.00  0.00     0.039 A 
ATOM     31  C   UNL A   1      37.498  32.120  29.581  1.00  0.00     0.014 A 
ATOM     32  C   UNL A   1      36.193  30.084  29.417  1.00  0.00     0.014 A 
ATOM     33  C   UNL A   1      38.653  31.361  29.412  1.00  0.00     0.010 A 
ATOM     34  C   UNL A   1      37.344  29.322  29.376  1.00  0.00     0.010 A 
ATOM     35  C   UNL A   1      38.582  29.951  29.364  1.00  0.00    -0.014 A 
BRANCH  35  36
ATOM     36  C   UNL A   1      39.817  29.167  29.489  1.00  0.00     0.031 A 
ATOM     37  C   UNL A   1      40.194  28.888  30.901  1.00  0.00     0.074 A 
ATOM     38  C   UNL A   1      40.529  28.611  28.482  1.00  0.00     0.049 A 
ATOM     39  N   UNL A   1      41.071  29.534  31.595  1.00  0.00    -0.248 NA
ATOM     40  C   UNL A   1      39.388  27.947  31.695  1.00  0.00     0.031 C 
ATOM     41  C   UNL A   1      40.190  28.539  27.059  1.00  0.00     0.029 A 
ATOM     42  N   UNL A   1      41.712  27.927  28.539  1.00  0.00    -0.354 N 
ATOM     43  C   UNL A   1      41.130  28.889  32.823  1.00  0.00     0.074 A 
ATOM     44  C   UNL A   1      39.937  28.089  32.905  1.00  0.00     0.031 C 
ATOM     45  C   UNL A   1      41.021  27.675  26.431  1.00  0.00     0.029 A 
ATOM     46  C   UNL A   1      42.062  27.272  27.359  1.00  0.00     0.049 A 
ATOM     47  H   UNL A   1      42.272  27.897  29.349  1.00  0.00     0.167 HD
ATOM     48  C   UNL A   1      42.305  28.848  33.511  1.00  0.00     0.037 A 
ATOM     49  C   UNL A   1      43.148  26.486  27.138  1.00  0.00     0.037 A 
ATOM     50  C   UNL A   1      43.237  29.824  32.988  1.00  0.00     0.049 A 
ATOM     51  C   UNL A   1      44.178  26.902  28.119  1.00  0.00     0.074 A 
ATOM     52  C   UNL A   1      43.232  31.191  32.796  1.00  0.00     0.029 A 
ATOM     53  N   UNL A   1      44.245  29.333  32.195  1.00  0.00    -0.354 N 
ATOM     54  N   UNL A   1      44.770  28.064  28.100  1.00  0.00    -0.248 NA
ATOM     55  C   UNL A   1      44.274  26.171  29.370  1.00  0.00     0.031 C 
ATOM     56  C   UNL A   1      43.940  31.401  31.574  1.00  0.00     0.029 A 
ATOM     57  C   UNL A   1      44.409  30.166  31.123  1.00  0.00     0.049 A 
ATOM     58  H   UNL A   1      44.766  28.516  32.370  1.00  0.00     0.167 HD
ATOM     59  C   UNL A   1      44.900  28.406  29.435  1.00  0.00     0.074 A 
ATOM     60  C   UNL A   1      44.705  27.155  30.163  1.00  0.00     0.031 C 
ATOM     61  C   UNL A   1      44.867  29.714  29.826  1.00  0.00     0.037 A 
BRANCH  48  62
ATOM     62  C   UNL A   1      42.787  27.645  34.300  1.00  0.00     0.058 A 
ATOM     63  C   UNL A   1      42.937  27.769  35.700  1.00  0.00     0.135 A 
ATOM     64  C   UNL A   1      43.406  26.512  33.725  1.00  0.00     0.135 A 
ATOM     65  F   UNL A   1      42.395  28.808  36.356  1.00  0.00    -0.206 F 
ATOM     66  C   UNL A   1      43.723  26.894  36.450  1.00  0.00     0.059 A 
ATOM     67  C   UNL A   1      44.149  25.599  34.464  1.00  0.00     0.059 A 
ATOM     68  F   UNL A   1      43.407  26.279  32.409  1.00  0.00    -0.206 F 
ATOM     69  C   UNL A   1      44.337  25.819  35.817  1.00  0.00     0.060 A 
BRANCH  69  70
ATOM     70  S   UNL A   1      45.414  24.732  36.763  1.00  0.00     0.124 S 
ATOM     71  O   UNL A   1      44.946  24.974  38.122  1.00  0.00    -0.237 OA
ATOM     72  O   UNL A   1      45.095  23.427  36.197  1.00  0.00    -0.237 OA
ATOM     73  O   UNL A   1      46.749  25.234  36.452  1.00  0.00    -0.744 OA
ENDBRANCH  69  70
ENDBRANCH  48  62
BRANCH  49  74
ATOM     74  C   UNL A   1      43.263  25.217  26.364  1.00  0.00     0.058 A 
ATOM     75  C   UNL A   1      44.240  25.073  25.356  1.00  0.00     0.135 A 
ATOM     76  C   UNL A   1      42.654  24.028  26.805  1.00  0.00     0.135 A 
ATOM     77  F   UNL A   1      44.872  26.151  24.869  1.00  0.00    -0.206 F 
ATOM     78  C   UNL A   1      44.656  23.823  24.887  1.00  0.00     0.059 A 
ATOM     79  C   UNL A   1      43.046  22.769  26.344  1.00  0.00     0.059 A 
ATOM     80  F   UNL A   1      41.725  24.045  27.771  1.00  0.00    -0.206 F 
ATOM     81  C   UNL A   1      44.074  22.671  25.412  1.00  0.00     0.060 A 
BRANCH  81  82
ATOM     82  S   UNL A   1      44.754  21.052  24.976  1.00  0.00     0.124 S 
ATOM     83  O   UNL A   1      43.841  20.145  25.663  1.00  0.00    -0.237 OA
ATOM     84  O   UNL A   1      44.668  21.060  23.519  1.00  0.00    -0.237 OA
ATOM     85  O   UNL A   1      46.112  21.099  25.516  1.00  0.00    -0.744 OA
ENDBRANCH  81  82
ENDBRANCH  49  74
BRANCH  61  86
ATOM     86  C   UNL A   1      45.164  30.775  28.799  1.00  0.00     0.058 A 
ATOM     87  C   UNL A   1      44.247  31.309  27.877  1.00  0.00     0.135 A 
ATOM     88  C   UNL A   1      46.442  31.356  28.841  1.00  0.00     0.135 A 
ATOM     89  F   UNL A   1      42.979  30.876  27.830  1.00  0.00    -0.206 F 
ATOM     90  C   UNL A   1      44.602  32.350  27.013  1.00  0.00     0.059 A 
ATOM     91  C   UNL A   1      46.805  32.413  28.016  1.00  0.00     0.059 A 
ATOM     92  F   UNL A   1      47.350  30.922  29.731  1.00  0.00    -0.206 F 
ATOM     93  C   UNL A   1      45.883  32.898  27.093  1.00  0.00     0.060 A 
BRANCH  93  94
ATOM     94  S   UNL A   1      46.325  34.286  26.025  1.00  0.00     0.124 S 
ATOM     95  O   UNL A   1      47.720  34.001  25.710  1.00  0.00    -0.237 OA
ATOM     96  O   UNL A   1      45.384  34.146  24.917  1.00  0.00    -0.237 OA
ATOM     97  O   UNL A   1      46.105  35.454  26.874  1.00  0.00    -0.744 OA
ENDBRANCH  93  94
ENDBRANCH  61  86
ENDBRANCH  35  36
ENDBRANCH  27  30
ENDBRANCH  25  26
ENDBRANCH  24  25
ENDBRANCH   1  24
TORSDOF 18
ENDMDL
