MODEL 1
REMARK VINA RESULT:     -11.4      0.000      0.000
REMARK SMILES Cn1cc(CCC(=O)N2CCCC2)cc1C(=O)NCCCCNC(=O)c1ccc(-c2c3nc(c(-c4c(F)cc(S(=O)(=O)[O-])cc4F)c4ccc([nH]4)c(-c4c(F)cc(S(=O)(=O)[O-])cc4F)c4nc(c(-c5c(F)cc(S(=O)(=O)[O-])cc5F)c5ccc2[nH]5)C=C4)C=C3)cc1
REMARK SMILES IDX 20 1 19 2 18 3 16 4 17 5 15 7 1 8 2 9 3 10 4 11 14 12 5 13
REMARK SMILES IDX 6 14 7 15 8 16 9 17 10 18 13 19 11 20 12 21 21 22 22 23
REMARK SMILES IDX 23 24 24 25 25 27 26 28 27 29 91 30 28 31 90 32 29 33 30 34
REMARK SMILES IDX 31 35 84 36 32 37 89 38 83 39 85 40 33 41 88 42 82 43 81 44
REMARK SMILES IDX 34 46 68 47 47 48 67 49 48 50 51 51 66 52 86 53 49 54 50 55
REMARK SMILES IDX 65 57 87 58 52 59 35 60 36 61 45 62 37 63 38 64 44 65 46 66
REMARK SMILES IDX 39 67 40 68 41 69 42 70 43 71 69 72 70 73 79 74 71 75 72 76
REMARK SMILES IDX 78 77 80 78 73 79 74 80 75 81 76 82 77 83 53 84 54 85 63 86
REMARK SMILES IDX 55 87 56 88 62 89 64 90 57 91 58 92 59 93 60 94 61 95
REMARK H PARENT 18 6 23 26 85 45 51 56
REMARK Flexibility Score: inf
ROOT
ATOM      1  C   UNL A   1      32.915  29.318  24.830  1.00  0.00     0.023 C 
ENDROOT
BRANCH   1   2
ATOM      2  C   UNL A   1      31.389  29.337  24.907  1.00  0.00     0.116 C 
BRANCH   2   3
ATOM      3  N   UNL A   1      30.737  29.569  23.637  1.00  0.00    -0.351 N 
ATOM      4  C   UNL A   1      30.449  28.700  22.610  1.00  0.00     0.267 C 
ATOM      5  O   UNL A   1      29.966  29.184  21.590  1.00  0.00    -0.268 OA
ATOM      6  H   UNL A   1      30.454  30.500  23.482  1.00  0.00     0.163 HD
BRANCH   4   7
ATOM      7  C   UNL A   1      30.787  27.293  22.712  1.00  0.00     0.107 A 
ATOM      8  C   UNL A   1      28.925  26.376  24.172  1.00  0.00     0.150 C 
ATOM      9  N   UNL A   1      30.133  26.280  23.385  1.00  0.00    -0.346 N 
ATOM     10  C   UNL A   1      30.812  25.094  23.231  1.00  0.00     0.089 A 
ATOM     11  C   UNL A   1      31.926  25.322  22.453  1.00  0.00    -0.029 A 
ATOM     12  C   UNL A   1      31.845  26.681  22.045  1.00  0.00     0.037 A 
BRANCH  11  13
ATOM     13  C   UNL A   1      33.009  24.343  22.139  1.00  0.00     0.047 C 
BRANCH  13  14
ATOM     14  C   UNL A   1      32.846  23.012  22.870  1.00  0.00     0.105 C 
BRANCH  14  15
ATOM     15  C   UNL A   1      33.902  22.743  23.932  1.00  0.00     0.222 C 
ATOM     16  O   UNL A   1      35.088  22.654  23.603  1.00  0.00    -0.275 OA
ATOM     17  N   UNL A   1      33.515  22.677  25.251  1.00  0.00    -0.343 N 
ATOM     18  C   UNL A   1      32.173  22.527  25.782  1.00  0.00     0.119 C 
ATOM     19  C   UNL A   1      34.491  22.680  26.328  1.00  0.00     0.119 C 
ATOM     20  C   UNL A   1      32.294  22.901  27.247  1.00  0.00     0.023 C 
ATOM     21  C   UNL A   1      33.688  22.398  27.594  1.00  0.00     0.023 C 
ENDBRANCH  14  15
ENDBRANCH  13  14
ENDBRANCH  11  13
ENDBRANCH   4   7
ENDBRANCH   2   3
ENDBRANCH   1   2
BRANCH   1  22
ATOM     22  C   UNL A   1      33.624  28.298  25.723  1.00  0.00     0.023 C 
BRANCH  22  23
ATOM     23  C   UNL A   1      33.475  28.494  27.230  1.00  0.00     0.116 C 
BRANCH  23  24
ATOM     24  N   UNL A   1      33.474  29.890  27.642  1.00  0.00    -0.352 N 
ATOM     25  C   UNL A   1      34.489  30.648  28.185  1.00  0.00     0.251 C 
ATOM     26  H   UNL A   1      32.620  30.364  27.513  1.00  0.00     0.163 HD
ATOM     27  O   UNL A   1      34.261  31.798  28.543  1.00  0.00    -0.269 OA
BRANCH  25  28
ATOM     28  C   UNL A   1      35.838  30.062  28.377  1.00  0.00     0.039 A 
ATOM     29  C   UNL A   1      36.748  30.107  27.316  1.00  0.00     0.014 A 
ATOM     30  C   UNL A   1      36.216  29.499  29.597  1.00  0.00     0.014 A 
ATOM     31  C   UNL A   1      38.064  29.677  27.512  1.00  0.00     0.010 A 
ATOM     32  C   UNL A   1      37.548  29.146  29.813  1.00  0.00     0.010 A 
ATOM     33  C   UNL A   1      38.490  29.242  28.777  1.00  0.00    -0.014 A 
BRANCH  33  34
ATOM     34  C   UNL A   1      39.916  28.910  29.048  1.00  0.00     0.031 A 
ATOM     35  C   UNL A   1      40.846  29.951  29.610  1.00  0.00     0.074 A 
ATOM     36  C   UNL A   1      40.395  27.694  28.710  1.00  0.00     0.049 A 
ATOM     37  N   UNL A   1      42.135  29.880  29.821  1.00  0.00    -0.248 NA
ATOM     38  C   UNL A   1      40.253  31.255  29.951  1.00  0.00     0.031 C 
ATOM     39  C   UNL A   1      39.613  26.612  28.107  1.00  0.00     0.029 A 
ATOM     40  N   UNL A   1      41.659  27.168  28.811  1.00  0.00    -0.354 N 
ATOM     41  C   UNL A   1      42.510  31.130  30.301  1.00  0.00     0.074 A 
ATOM     42  C   UNL A   1      41.322  31.956  30.301  1.00  0.00     0.031 C 
ATOM     43  C   UNL A   1      40.407  25.548  27.912  1.00  0.00     0.029 A 
ATOM     44  C   UNL A   1      41.764  25.881  28.336  1.00  0.00     0.049 A 
ATOM     45  H   UNL A   1      42.421  27.664  29.189  1.00  0.00     0.167 HD
ATOM     46  C   UNL A   1      43.729  31.546  30.724  1.00  0.00     0.037 A 
ATOM     47  C   UNL A   1      42.831  25.063  28.242  1.00  0.00     0.037 A 
ATOM     48  C   UNL A   1      44.902  30.713  30.752  1.00  0.00     0.049 A 
ATOM     49  C   UNL A   1      44.172  25.543  28.727  1.00  0.00     0.074 A 
ATOM     50  C   UNL A   1      46.167  31.024  31.222  1.00  0.00     0.029 A 
ATOM     51  N   UNL A   1      44.958  29.405  30.294  1.00  0.00    -0.354 N 
ATOM     52  N   UNL A   1      44.493  26.709  29.236  1.00  0.00    -0.248 NA
ATOM     53  C   UNL A   1      45.293  24.598  28.633  1.00  0.00     0.031 C 
ATOM     54  C   UNL A   1      46.996  29.919  31.011  1.00  0.00     0.029 A 
ATOM     55  C   UNL A   1      46.238  28.901  30.455  1.00  0.00     0.049 A 
ATOM     56  H   UNL A   1      44.199  28.907  29.913  1.00  0.00     0.167 HD
ATOM     57  C   UNL A   1      45.846  26.626  29.551  1.00  0.00     0.074 A 
ATOM     58  C   UNL A   1      46.279  25.294  29.183  1.00  0.00     0.031 C 
ATOM     59  C   UNL A   1      46.654  27.567  30.098  1.00  0.00     0.037 A 
BRANCH  46  60
ATOM     60  C   UNL A   1      43.852  32.968  31.203  1.00  0.00     0.058 A 
ATOM     61  C   UNL A   1      43.637  33.313  32.546  1.00  0.00     0.135 A 
ATOM     62  C   UNL A   1      44.226  33.991  30.317  1.00  0.00     0.135 A 
ATOM     63  F   UNL A   1      43.263  32.378  33.434  1.00  0.00    -0.206 F 
ATOM     64  C   UNL A   1      43.756  34.626  32.989  1.00  0.00     0.059 A 
ATOM     65  C   UNL A   1      44.379  35.307  30.743  1.00  0.00     0.059 A 
ATOM     66  F   UNL A   1      44.446  33.717  29.021  1.00  0.00    -0.206 F 
ATOM     67  C   UNL A   1      44.127  35.617  32.079  1.00  0.00     0.060 A 
BRANCH  67  68
ATOM     68  S   UNL A   1      44.279  37.316  32.670  1.00  0.00     0.124 S 
ATOM     69  O   UNL A   1      45.675  37.350  33.098  1.00  0.00    -0.237 OA
ATOM     70  O   UNL A   1      43.965  38.092  31.474  1.00  0.00    -0.237 OA
ATOM     71  O   UNL A   1      43.292  37.393  33.741  1.00  0.00    -0.744 OA
ENDBRANCH  67  68
ENDBRANCH  46  60
BRANCH  47  72
ATOM     72  C   UNL A   1      42.671  23.691  27.685  1.00  0.00     0.058 A 
ATOM     73  C   UNL A   1      42.449  22.593  28.530  1.00  0.00     0.135 A 
ATOM     74  C   UNL A   1      42.729  23.452  26.303  1.00  0.00     0.135 A 
ATOM     75  F   UNL A   1      42.393  22.770  29.859  1.00  0.00    -0.206 F 
ATOM     76  C   UNL A   1      42.306  21.304  28.027  1.00  0.00     0.059 A 
ATOM     77  C   UNL A   1      42.564  22.176  25.775  1.00  0.00     0.059 A 
ATOM     78  F   UNL A   1      42.922  24.472  25.452  1.00  0.00    -0.206 F 
ATOM     79  C   UNL A   1      42.363  21.106  26.647  1.00  0.00     0.060 A 
BRANCH  79  80
ATOM     80  S   UNL A   1      42.128  19.435  26.001  1.00  0.00     0.124 S 
ATOM     81  O   UNL A   1      42.618  18.621  27.106  1.00  0.00    -0.237 OA
ATOM     82  O   UNL A   1      40.687  19.396  25.768  1.00  0.00    -0.237 OA
ATOM     83  O   UNL A   1      42.949  19.424  24.794  1.00  0.00    -0.744 OA
ENDBRANCH  79  80
ENDBRANCH  47  72
BRANCH  59  84
ATOM     84  C   UNL A   1      48.081  27.184  30.375  1.00  0.00     0.058 A 
ATOM     85  C   UNL A   1      49.113  27.472  29.469  1.00  0.00     0.135 A 
ATOM     86  C   UNL A   1      48.426  26.573  31.592  1.00  0.00     0.135 A 
ATOM     87  F   UNL A   1      48.836  28.049  28.290  1.00  0.00    -0.206 F 
ATOM     88  C   UNL A   1      50.437  27.150  29.751  1.00  0.00     0.059 A 
ATOM     89  C   UNL A   1      49.746  26.266  31.905  1.00  0.00     0.059 A 
ATOM     90  F   UNL A   1      47.478  26.284  32.496  1.00  0.00    -0.206 F 
ATOM     91  C   UNL A   1      50.744  26.550  30.974  1.00  0.00     0.060 A 
BRANCH  91  92
ATOM     92  S   UNL A   1      52.470  26.176  31.346  1.00  0.00     0.124 S 
ATOM     93  O   UNL A   1      52.811  27.248  32.275  1.00  0.00    -0.237 OA
ATOM     94  O   UNL A   1      52.384  24.839  31.925  1.00  0.00    -0.237 OA
ATOM     95  O   UNL A   1      53.122  26.245  30.042  1.00  0.00    -0.744 OA
ENDBRANCH  91  92
ENDBRANCH  59  84
ENDBRANCH  33  34
ENDBRANCH  25  28
ENDBRANCH  23  24
ENDBRANCH  22  23
ENDBRANCH   1  22
TORSDOF 17
ENDMDL
MODEL 2
REMARK VINA RESULT:     -11.3      0.793      1.703
REMARK SMILES Cn1cc(CCC(=O)N2CCCC2)cc1C(=O)NCCCCNC(=O)c1ccc(-c2c3nc(c(-c4c(F)cc(S(=O)(=O)[O-])cc4F)c4ccc([nH]4)c(-c4c(F)cc(S(=O)(=O)[O-])cc4F)c4nc(c(-c5c(F)cc(S(=O)(=O)[O-])cc5F)c5ccc2[nH]5)C=C4)C=C3)cc1
REMARK SMILES IDX 20 1 19 2 18 3 16 4 17 5 15 7 1 8 2 9 3 10 4 11 14 12 5 13
REMARK SMILES IDX 6 14 7 15 8 16 9 17 10 18 13 19 11 20 12 21 21 22 22 23
REMARK SMILES IDX 23 24 24 25 25 27 26 28 27 29 91 30 28 31 90 32 29 33 30 34
REMARK SMILES IDX 31 35 84 36 32 37 89 38 83 39 85 40 33 41 88 42 82 43 81 44
REMARK SMILES IDX 34 46 68 47 47 48 67 49 48 50 51 51 66 52 86 53 49 54 50 55
REMARK SMILES IDX 65 57 87 58 52 59 35 60 36 61 45 62 37 63 38 64 44 65 46 66
REMARK SMILES IDX 39 67 40 68 41 69 42 70 43 71 69 72 70 73 79 74 71 75 72 76
REMARK SMILES IDX 78 77 80 78 73 79 74 80 75 81 76 82 77 83 53 84 54 85 63 86
REMARK SMILES IDX 55 87 56 88 62 89 64 90 57 91 58 92 59 93 60 94 61 95
REMARK H PARENT 18 6 23 26 85 45 51 56
REMARK Flexibility Score: inf
ROOT
ATOM      1  C   UNL A   1      32.937  29.439  24.949  1.00  0.00     0.023 C 
ENDROOT
BRANCH   1   2
ATOM      2  C   UNL A   1      31.450  29.785  24.995  1.00  0.00     0.116 C 
BRANCH   2   3
ATOM      3  N   UNL A   1      30.764  29.610  23.733  1.00  0.00    -0.351 N 
ATOM      4  C   UNL A   1      30.458  28.465  23.036  1.00  0.00     0.267 C 
ATOM      5  O   UNL A   1      29.946  28.607  21.929  1.00  0.00    -0.268 OA
ATOM      6  H   UNL A   1      30.469  30.447  23.304  1.00  0.00     0.163 HD
BRANCH   4   7
ATOM      7  C   UNL A   1      30.811  27.159  23.561  1.00  0.00     0.107 A 
ATOM      8  C   UNL A   1      32.752  26.469  22.079  1.00  0.00     0.150 C 
ATOM      9  N   UNL A   1      31.802  26.289  23.154  1.00  0.00    -0.346 N 
ATOM     10  C   UNL A   1      31.774  25.148  23.920  1.00  0.00     0.089 A 
ATOM     11  C   UNL A   1      30.756  25.260  24.840  1.00  0.00    -0.029 A 
ATOM     12  C   UNL A   1      30.225  26.568  24.676  1.00  0.00     0.037 A 
BRANCH  11  13
ATOM     13  C   UNL A   1      30.289  24.202  25.786  1.00  0.00     0.047 C 
BRANCH  13  14
ATOM     14  C   UNL A   1      31.023  22.875  25.612  1.00  0.00     0.105 C 
BRANCH  14  15
ATOM     15  C   UNL A   1      32.187  22.669  26.570  1.00  0.00     0.222 C 
ATOM     16  O   UNL A   1      32.025  22.865  27.778  1.00  0.00    -0.275 OA
ATOM     17  N   UNL A   1      33.379  22.194  26.072  1.00  0.00    -0.343 N 
ATOM     18  C   UNL A   1      33.809  22.134  24.688  1.00  0.00     0.119 C 
ATOM     19  C   UNL A   1      34.438  21.733  26.955  1.00  0.00     0.119 C 
ATOM     20  C   UNL A   1      34.996  21.189  24.694  1.00  0.00     0.023 C 
ATOM     21  C   UNL A   1      35.636  21.484  26.043  1.00  0.00     0.023 C 
ENDBRANCH  14  15
ENDBRANCH  13  14
ENDBRANCH  11  13
ENDBRANCH   4   7
ENDBRANCH   2   3
ENDBRANCH   1   2
BRANCH   1  22
ATOM     22  C   UNL A   1      33.381  28.252  25.807  1.00  0.00     0.023 C 
BRANCH  22  23
ATOM     23  C   UNL A   1      33.439  28.487  27.314  1.00  0.00     0.116 C 
BRANCH  23  24
ATOM     24  N   UNL A   1      33.452  29.893  27.688  1.00  0.00    -0.352 N 
ATOM     25  C   UNL A   1      34.478  30.659  28.198  1.00  0.00     0.251 C 
ATOM     26  H   UNL A   1      32.599  30.368  27.557  1.00  0.00     0.163 HD
ATOM     27  O   UNL A   1      34.261  31.819  28.527  1.00  0.00    -0.269 OA
BRANCH  25  28
ATOM     28  C   UNL A   1      35.825  30.070  28.389  1.00  0.00     0.039 A 
ATOM     29  C   UNL A   1      36.724  30.086  27.318  1.00  0.00     0.014 A 
ATOM     30  C   UNL A   1      36.214  29.534  29.618  1.00  0.00     0.014 A 
ATOM     31  C   UNL A   1      38.040  29.653  27.510  1.00  0.00     0.010 A 
ATOM     32  C   UNL A   1      37.546  29.179  29.828  1.00  0.00     0.010 A 
ATOM     33  C   UNL A   1      38.477  29.245  28.781  1.00  0.00    -0.014 A 
BRANCH  33  34
ATOM     34  C   UNL A   1      39.904  28.911  29.044  1.00  0.00     0.031 A 
ATOM     35  C   UNL A   1      40.840  29.954  29.594  1.00  0.00     0.074 A 
ATOM     36  C   UNL A   1      40.378  27.693  28.712  1.00  0.00     0.049 A 
ATOM     37  N   UNL A   1      42.130  29.882  29.797  1.00  0.00    -0.248 NA
ATOM     38  C   UNL A   1      40.253  31.262  29.930  1.00  0.00     0.031 C 
ATOM     39  C   UNL A   1      39.590  26.608  28.121  1.00  0.00     0.029 A 
ATOM     40  N   UNL A   1      41.642  27.164  28.808  1.00  0.00    -0.354 N 
ATOM     41  C   UNL A   1      42.512  31.134  30.266  1.00  0.00     0.074 A 
ATOM     42  C   UNL A   1      41.325  31.962  30.269  1.00  0.00     0.031 C 
ATOM     43  C   UNL A   1      40.380  25.542  27.927  1.00  0.00     0.029 A 
ATOM     44  C   UNL A   1      41.741  25.874  28.340  1.00  0.00     0.049 A 
ATOM     45  H   UNL A   1      42.407  27.661  29.177  1.00  0.00     0.167 HD
ATOM     46  C   UNL A   1      43.734  31.550  30.679  1.00  0.00     0.037 A 
ATOM     47  C   UNL A   1      42.805  25.053  28.244  1.00  0.00     0.037 A 
ATOM     48  C   UNL A   1      44.905  30.714  30.705  1.00  0.00     0.049 A 
ATOM     49  C   UNL A   1      44.150  25.533  28.717  1.00  0.00     0.074 A 
ATOM     50  C   UNL A   1      46.174  31.025  31.164  1.00  0.00     0.029 A 
ATOM     51  N   UNL A   1      44.956  29.403  30.255  1.00  0.00    -0.354 N 
ATOM     52  N   UNL A   1      44.478  26.701  29.217  1.00  0.00    -0.248 NA
ATOM     53  C   UNL A   1      45.269  24.585  28.622  1.00  0.00     0.031 C 
ATOM     54  C   UNL A   1      47.000  29.917  30.954  1.00  0.00     0.029 A 
ATOM     55  C   UNL A   1      46.235  28.897  30.410  1.00  0.00     0.049 A 
ATOM     56  H   UNL A   1      44.193  28.904  29.881  1.00  0.00     0.167 HD
ATOM     57  C   UNL A   1      45.832  26.617  29.524  1.00  0.00     0.074 A 
ATOM     58  C   UNL A   1      46.260  25.282  29.161  1.00  0.00     0.031 C 
ATOM     59  C   UNL A   1      46.646  27.560  30.058  1.00  0.00     0.037 A 
BRANCH  46  60
ATOM     60  C   UNL A   1      43.863  32.974  31.148  1.00  0.00     0.058 A 
ATOM     61  C   UNL A   1      43.704  33.322  32.498  1.00  0.00     0.135 A 
ATOM     62  C   UNL A   1      44.188  33.998  30.243  1.00  0.00     0.135 A 
ATOM     63  F   UNL A   1      43.378  32.385  33.404  1.00  0.00    -0.206 F 
ATOM     64  C   UNL A   1      43.828  34.637  32.931  1.00  0.00     0.059 A 
ATOM     65  C   UNL A   1      44.346  35.317  30.658  1.00  0.00     0.059 A 
ATOM     66  F   UNL A   1      44.354  33.722  28.940  1.00  0.00    -0.206 F 
ATOM     67  C   UNL A   1      44.150  35.629  32.003  1.00  0.00     0.060 A 
BRANCH  67  68
ATOM     68  S   UNL A   1      44.310  37.331  32.581  1.00  0.00     0.124 S 
ATOM     69  O   UNL A   1      43.217  37.414  33.547  1.00  0.00    -0.237 OA
ATOM     70  O   UNL A   1      45.656  37.343  33.147  1.00  0.00    -0.237 OA
ATOM     71  O   UNL A   1      44.136  38.121  31.367  1.00  0.00    -0.744 OA
ENDBRANCH  67  68
ENDBRANCH  46  60
BRANCH  47  72
ATOM     72  C   UNL A   1      42.639  23.678  27.698  1.00  0.00     0.058 A 
ATOM     73  C   UNL A   1      42.695  23.440  26.316  1.00  0.00     0.135 A 
ATOM     74  C   UNL A   1      42.430  22.576  28.542  1.00  0.00     0.135 A 
ATOM     75  F   UNL A   1      42.886  24.463  25.468  1.00  0.00    -0.206 F 
ATOM     76  C   UNL A   1      42.533  22.164  25.789  1.00  0.00     0.059 A 
ATOM     77  C   UNL A   1      42.290  21.286  28.040  1.00  0.00     0.059 A 
ATOM     78  F   UNL A   1      42.385  22.748  29.872  1.00  0.00    -0.206 F 
ATOM     79  C   UNL A   1      42.333  21.092  26.659  1.00  0.00     0.060 A 
BRANCH  79  80
ATOM     80  S   UNL A   1      42.173  19.431  25.967  1.00  0.00     0.124 S 
ATOM     81  O   UNL A   1      40.736  19.346  25.736  1.00  0.00    -0.237 OA
ATOM     82  O   UNL A   1      43.009  19.514  24.773  1.00  0.00    -0.237 OA
ATOM     83  O   UNL A   1      42.694  18.575  27.028  1.00  0.00    -0.744 OA
ENDBRANCH  79  80
ENDBRANCH  47  72
BRANCH  59  84
ATOM     84  C   UNL A   1      48.074  27.175  30.329  1.00  0.00     0.058 A 
ATOM     85  C   UNL A   1      49.107  27.491  29.433  1.00  0.00     0.135 A 
ATOM     86  C   UNL A   1      48.419  26.534  31.530  1.00  0.00     0.135 A 
ATOM     87  F   UNL A   1      48.829  28.098  28.269  1.00  0.00    -0.206 F 
ATOM     88  C   UNL A   1      50.432  27.167  29.710  1.00  0.00     0.059 A 
ATOM     89  C   UNL A   1      49.740  26.224  31.838  1.00  0.00     0.059 A 
ATOM     90  F   UNL A   1      47.470  26.217  32.424  1.00  0.00    -0.206 F 
ATOM     91  C   UNL A   1      50.738  26.537  30.917  1.00  0.00     0.060 A 
BRANCH  91  92
ATOM     92  S   UNL A   1      52.465  26.160  31.283  1.00  0.00     0.124 S 
ATOM     93  O   UNL A   1      52.350  24.862  31.941  1.00  0.00    -0.237 OA
ATOM     94  O   UNL A   1      53.071  26.146  29.956  1.00  0.00    -0.237 OA
ATOM     95  O   UNL A   1      52.880  27.264  32.142  1.00  0.00    -0.744 OA
ENDBRANCH  91  92
ENDBRANCH  59  84
ENDBRANCH  33  34
ENDBRANCH  25  28
ENDBRANCH  23  24
ENDBRANCH  22  23
ENDBRANCH   1  22
TORSDOF 17
ENDMDL
MODEL 3
REMARK VINA RESULT:     -11.0      2.861      9.448
REMARK SMILES Cn1cc(CCC(=O)N2CCCC2)cc1C(=O)NCCCCNC(=O)c1ccc(-c2c3nc(c(-c4c(F)cc(S(=O)(=O)[O-])cc4F)c4ccc([nH]4)c(-c4c(F)cc(S(=O)(=O)[O-])cc4F)c4nc(c(-c5c(F)cc(S(=O)(=O)[O-])cc5F)c5ccc2[nH]5)C=C4)C=C3)cc1
REMARK SMILES IDX 20 1 19 2 18 3 16 4 17 5 15 7 1 8 2 9 3 10 4 11 14 12 5 13
REMARK SMILES IDX 6 14 7 15 8 16 9 17 10 18 13 19 11 20 12 21 21 22 22 23
REMARK SMILES IDX 23 24 24 25 25 27 26 28 27 29 91 30 28 31 90 32 29 33 30 34
REMARK SMILES IDX 31 35 84 36 32 37 89 38 83 39 85 40 33 41 88 42 82 43 81 44
REMARK SMILES IDX 34 46 68 47 47 48 67 49 48 50 51 51 66 52 86 53 49 54 50 55
REMARK SMILES IDX 65 57 87 58 52 59 35 60 36 61 45 62 37 63 38 64 44 65 46 66
REMARK SMILES IDX 39 67 40 68 41 69 42 70 43 71 69 72 70 73 79 74 71 75 72 76
REMARK SMILES IDX 78 77 80 78 73 79 74 80 75 81 76 82 77 83 53 84 54 85 63 86
REMARK SMILES IDX 55 87 56 88 62 89 64 90 57 91 58 92 59 93 60 94 61 95
REMARK H PARENT 18 6 23 26 85 45 51 56
REMARK Flexibility Score: inf
ROOT
ATOM      1  C   UNL A   1      35.421  22.319  26.665  1.00  0.00     0.023 C 
ENDROOT
BRANCH   1   2
ATOM      2  C   UNL A   1      34.074  22.167  27.369  1.00  0.00     0.116 C 
BRANCH   2   3
ATOM      3  N   UNL A   1      33.121  21.349  26.650  1.00  0.00    -0.351 N 
ATOM      4  C   UNL A   1      32.234  21.681  25.653  1.00  0.00     0.267 C 
ATOM      5  O   UNL A   1      31.464  20.801  25.278  1.00  0.00    -0.268 OA
ATOM      6  H   UNL A   1      33.106  20.401  26.919  1.00  0.00     0.163 HD
BRANCH   4   7
ATOM      7  C   UNL A   1      32.165  23.037  25.142  1.00  0.00     0.107 A 
ATOM      8  C   UNL A   1      33.341  22.849  22.902  1.00  0.00     0.150 C 
ATOM      9  N   UNL A   1      32.641  23.551  23.952  1.00  0.00    -0.346 N 
ATOM     10  C   UNL A   1      32.375  24.898  23.879  1.00  0.00     0.089 A 
ATOM     11  C   UNL A   1      31.721  25.282  25.029  1.00  0.00    -0.029 A 
ATOM     12  C   UNL A   1      31.501  24.088  25.768  1.00  0.00     0.037 A 
BRANCH  11  13
ATOM     13  C   UNL A   1      31.357  26.675  25.425  1.00  0.00     0.047 C 
BRANCH  13  14
ATOM     14  C   UNL A   1      32.087  27.740  24.610  1.00  0.00     0.105 C 
BRANCH  14  15
ATOM     15  C   UNL A   1      31.983  29.149  25.178  1.00  0.00     0.222 C 
ATOM     16  O   UNL A   1      31.029  29.865  24.862  1.00  0.00    -0.275 OA
ATOM     17  N   UNL A   1      32.922  29.566  26.094  1.00  0.00    -0.343 N 
ATOM     18  C   UNL A   1      34.207  28.961  26.395  1.00  0.00     0.119 C 
ATOM     19  C   UNL A   1      32.741  30.786  26.862  1.00  0.00     0.119 C 
ATOM     20  C   UNL A   1      34.626  29.585  27.712  1.00  0.00     0.023 C 
ATOM     21  C   UNL A   1      34.062  30.994  27.596  1.00  0.00     0.023 C 
ENDBRANCH  14  15
ENDBRANCH  13  14
ENDBRANCH  11  13
ENDBRANCH   4   7
ENDBRANCH   2   3
ENDBRANCH   1   2
BRANCH   1  22
ATOM     22  C   UNL A   1      35.664  23.651  25.952  1.00  0.00     0.023 C 
BRANCH  22  23
ATOM     23  C   UNL A   1      36.861  23.707  25.007  1.00  0.00     0.116 C 
BRANCH  23  24
ATOM     24  N   UNL A   1      37.915  22.761  25.339  1.00  0.00    -0.352 N 
ATOM     25  C   UNL A   1      39.048  22.937  26.105  1.00  0.00     0.251 C 
ATOM     26  H   UNL A   1      37.803  21.859  24.959  1.00  0.00     0.163 HD
ATOM     27  O   UNL A   1      39.862  22.027  26.199  1.00  0.00    -0.269 OA
BRANCH  25  28
ATOM     28  C   UNL A   1      39.299  24.235  26.776  1.00  0.00     0.039 A 
ATOM     29  C   UNL A   1      38.780  24.443  28.057  1.00  0.00     0.014 A 
ATOM     30  C   UNL A   1      40.064  25.230  26.164  1.00  0.00     0.014 A 
ATOM     31  C   UNL A   1      39.110  25.605  28.761  1.00  0.00     0.010 A 
ATOM     32  C   UNL A   1      40.456  26.350  26.897  1.00  0.00     0.010 A 
ATOM     33  C   UNL A   1      39.994  26.545  28.207  1.00  0.00    -0.014 A 
BRANCH  33  34
ATOM     34  C   UNL A   1      40.470  27.721  28.986  1.00  0.00     0.031 A 
ATOM     35  C   UNL A   1      41.814  27.692  29.663  1.00  0.00     0.074 A 
ATOM     36  C   UNL A   1      39.657  28.785  29.155  1.00  0.00     0.049 A 
ATOM     37  N   UNL A   1      42.358  28.575  30.460  1.00  0.00    -0.248 NA
ATOM     38  C   UNL A   1      42.645  26.498  29.437  1.00  0.00     0.031 C 
ATOM     39  C   UNL A   1      38.308  28.918  28.599  1.00  0.00     0.029 A 
ATOM     40  N   UNL A   1      39.839  29.952  29.856  1.00  0.00    -0.354 N 
ATOM     41  C   UNL A   1      43.581  28.038  30.845  1.00  0.00     0.074 A 
ATOM     42  C   UNL A   1      43.677  26.730  30.234  1.00  0.00     0.031 C 
ATOM     43  C   UNL A   1      37.795  30.104  28.962  1.00  0.00     0.029 A 
ATOM     44  C   UNL A   1      38.757  30.801  29.810  1.00  0.00     0.049 A 
ATOM     45  H   UNL A   1      40.666  30.162  30.347  1.00  0.00     0.167 HD
ATOM     46  C   UNL A   1      44.547  28.592  31.618  1.00  0.00     0.037 A 
ATOM     47  C   UNL A   1      38.556  32.001  30.390  1.00  0.00     0.037 A 
ATOM     48  C   UNL A   1      44.461  29.907  32.198  1.00  0.00     0.049 A 
ATOM     49  C   UNL A   1      39.647  32.601  31.236  1.00  0.00     0.074 A 
ATOM     50  C   UNL A   1      45.413  30.581  32.944  1.00  0.00     0.029 A 
ATOM     51  N   UNL A   1      43.363  30.749  32.099  1.00  0.00    -0.354 N 
ATOM     52  N   UNL A   1      40.823  32.104  31.537  1.00  0.00    -0.248 NA
ATOM     53  C   UNL A   1      39.388  33.926  31.816  1.00  0.00     0.031 C 
ATOM     54  C   UNL A   1      44.875  31.813  33.329  1.00  0.00     0.029 A 
ATOM     55  C   UNL A   1      43.607  31.929  32.783  1.00  0.00     0.049 A 
ATOM     56  H   UNL A   1      42.533  30.539  31.612  1.00  0.00     0.167 HD
ATOM     57  C   UNL A   1      41.456  33.068  32.315  1.00  0.00     0.074 A 
ATOM     58  C   UNL A   1      40.535  34.180  32.431  1.00  0.00     0.031 C 
ATOM     59  C   UNL A   1      42.688  33.035  32.879  1.00  0.00     0.037 A 
BRANCH  46  60
ATOM     60  C   UNL A   1      45.787  27.780  31.872  1.00  0.00     0.058 A 
ATOM     61  C   UNL A   1      46.933  27.917  31.074  1.00  0.00     0.135 A 
ATOM     62  C   UNL A   1      45.845  26.881  32.949  1.00  0.00     0.135 A 
ATOM     63  F   UNL A   1      46.929  28.751  30.021  1.00  0.00    -0.206 F 
ATOM     64  C   UNL A   1      48.081  27.169  31.312  1.00  0.00     0.059 A 
ATOM     65  C   UNL A   1      46.993  26.143  33.225  1.00  0.00     0.059 A 
ATOM     66  F   UNL A   1      44.779  26.711  33.747  1.00  0.00    -0.206 F 
ATOM     67  C   UNL A   1      48.101  26.284  32.391  1.00  0.00     0.060 A 
BRANCH  67  68
ATOM     68  S   UNL A   1      49.599  25.323  32.689  1.00  0.00     0.124 S 
ATOM     69  O   UNL A   1      50.462  26.318  33.319  1.00  0.00    -0.237 OA
ATOM     70  O   UNL A   1      49.119  24.257  33.563  1.00  0.00    -0.237 OA
ATOM     71  O   UNL A   1      50.003  24.899  31.352  1.00  0.00    -0.744 OA
ENDBRANCH  67  68
ENDBRANCH  46  60
BRANCH  47  72
ATOM     72  C   UNL A   1      37.277  32.729  30.171  1.00  0.00     0.058 A 
ATOM     73  C   UNL A   1      37.132  33.626  29.101  1.00  0.00     0.135 A 
ATOM     74  C   UNL A   1      36.174  32.539  31.019  1.00  0.00     0.135 A 
ATOM     75  F   UNL A   1      38.161  33.846  28.268  1.00  0.00    -0.206 F 
ATOM     76  C   UNL A   1      35.946  34.320  28.888  1.00  0.00     0.059 A 
ATOM     77  C   UNL A   1      34.969  33.204  30.811  1.00  0.00     0.059 A 
ATOM     78  F   UNL A   1      36.256  31.680  32.046  1.00  0.00    -0.206 F 
ATOM     79  C   UNL A   1      34.869  34.101  29.747  1.00  0.00     0.060 A 
BRANCH  79  80
ATOM     80  S   UNL A   1      33.318  34.973  29.433  1.00  0.00     0.124 S 
ATOM     81  O   UNL A   1      32.699  34.116  28.428  1.00  0.00    -0.237 OA
ATOM     82  O   UNL A   1      32.691  34.967  30.751  1.00  0.00    -0.237 OA
ATOM     83  O   UNL A   1      33.759  36.282  28.963  1.00  0.00    -0.744 OA
ENDBRANCH  79  80
ENDBRANCH  47  72
BRANCH  59  84
ATOM     84  C   UNL A   1      43.138  34.251  33.640  1.00  0.00     0.058 A 
ATOM     85  C   UNL A   1      43.637  35.389  32.987  1.00  0.00     0.135 A 
ATOM     86  C   UNL A   1      43.012  34.298  35.038  1.00  0.00     0.135 A 
ATOM     87  F   UNL A   1      43.782  35.393  31.653  1.00  0.00    -0.206 F 
ATOM     88  C   UNL A   1      44.012  36.526  33.696  1.00  0.00     0.059 A 
ATOM     89  C   UNL A   1      43.358  35.434  35.764  1.00  0.00     0.059 A 
ATOM     90  F   UNL A   1      42.533  33.240  35.710  1.00  0.00    -0.206 F 
ATOM     91  C   UNL A   1      43.866  36.539  35.085  1.00  0.00     0.060 A 
BRANCH  91  92
ATOM     92  S   UNL A   1      44.319  38.035  35.988  1.00  0.00     0.124 S 
ATOM     93  O   UNL A   1      43.439  37.955  37.149  1.00  0.00    -0.237 OA
ATOM     94  O   UNL A   1      45.738  37.824  36.253  1.00  0.00    -0.237 OA
ATOM     95  O   UNL A   1      44.017  39.107  35.045  1.00  0.00    -0.744 OA
ENDBRANCH  91  92
ENDBRANCH  59  84
ENDBRANCH  33  34
ENDBRANCH  25  28
ENDBRANCH  23  24
ENDBRANCH  22  23
ENDBRANCH   1  22
TORSDOF 17
ENDMDL
