MODEL 1
REMARK VINA RESULT:     -11.5      0.000      0.000
REMARK SMILES NC(=O)[C@@H]1CCCCN1c1cncc(C(=O)NCCCCNC(=O)c2ccc(-c3c4nc(c(-c5c(F)cc(S(=O)(=O)[O-])cc5F)c5ccc([nH]5)c(-c5c(F)cc(S(=O)(=O)[O-])cc5F)c5nc(c(-c6c(F)cc(S(=O)(=O)[O-])cc6F)c6ccc3[nH]6)C=C5)C=C4)cc2)n1
REMARK SMILES IDX 20 1 19 2 18 3 17 4 15 5 16 6 14 8 10 9 11 10 91 11 12 12
REMARK SMILES IDX 13 13 9 14 4 15 5 16 6 17 8 18 7 19 2 20 1 21 3 24 21 25
REMARK SMILES IDX 22 26 23 27 24 29 25 30 26 31 90 32 27 33 89 34 28 35 29 36
REMARK SMILES IDX 30 37 83 38 31 39 88 40 82 41 84 42 32 43 87 44 81 45 80 46
REMARK SMILES IDX 33 48 67 49 46 50 66 51 47 52 50 53 65 54 85 55 48 56 49 57
REMARK SMILES IDX 64 59 86 60 51 61 34 62 35 63 44 64 36 65 37 66 43 67 45 68
REMARK SMILES IDX 38 69 39 70 40 71 41 72 42 73 68 74 69 75 78 76 70 77 71 78
REMARK SMILES IDX 77 79 79 80 72 81 73 82 74 83 75 84 76 85 52 86 53 87 62 88
REMARK SMILES IDX 54 89 55 90 61 91 63 92 56 93 57 94 58 95 59 96 60 97
REMARK H PARENT 17 7 1 22 1 23 22 28 84 47 50 58
REMARK Flexibility Score: inf
ROOT
ATOM      1  C   UNL A   1      33.658  28.191  25.697  1.00  0.00     0.023 C 
ENDROOT
BRANCH   1   2
ATOM      2  C   UNL A   1      32.895  29.288  24.957  1.00  0.00     0.023 C 
BRANCH   2   3
ATOM      3  C   UNL A   1      31.380  29.169  25.071  1.00  0.00     0.116 C 
BRANCH   3   4
ATOM      4  N   UNL A   1      30.727  29.201  23.777  1.00  0.00    -0.351 N 
ATOM      5  C   UNL A   1      30.801  28.351  22.697  1.00  0.00     0.271 C 
ATOM      6  O   UNL A   1      30.158  28.653  21.689  1.00  0.00    -0.267 OA
ATOM      7  H   UNL A   1      30.122  29.967  23.648  1.00  0.00     0.163 HD
BRANCH   5   8
ATOM      8  C   UNL A   1      31.601  27.089  22.690  1.00  0.00     0.148 A 
ATOM      9  C   UNL A   1      31.851  24.842  23.209  1.00  0.00     0.148 A 
ATOM     10  C   UNL A   1      33.100  24.889  22.576  1.00  0.00     0.157 A 
ATOM     11  N   UNL A   1      31.090  25.957  23.254  1.00  0.00    -0.222 NA
ATOM     12  N   UNL A   1      33.621  25.995  21.988  1.00  0.00    -0.258 NA
ATOM     13  C   UNL A   1      32.838  27.096  22.059  1.00  0.00     0.145 A 
BRANCH   9  14
ATOM     14  N   UNL A   1      31.407  23.675  23.799  1.00  0.00    -0.343 N 
ATOM     15  C   UNL A   1      31.200  23.481  25.258  1.00  0.00     0.172 C 
ATOM     16  C   UNL A   1      32.414  22.805  25.902  1.00  0.00     0.035 C 
ATOM     17  C   UNL A   1      32.743  21.498  25.178  1.00  0.00     0.004 C 
ATOM     18  C   UNL A   1      31.731  22.448  23.059  1.00  0.00     0.119 C 
ATOM     19  C   UNL A   1      32.943  21.747  23.684  1.00  0.00     0.022 C 
BRANCH  15  20
ATOM     20  C   UNL A   1      30.702  24.683  26.084  1.00  0.00     0.240 C 
ATOM     21  N   UNL A   1      29.435  25.130  25.886  1.00  0.00    -0.368 N 
ATOM     22  H   UNL A   1      29.097  25.897  26.404  1.00  0.00     0.159 HD
ATOM     23  H   UNL A   1      28.854  24.689  25.224  1.00  0.00     0.159 HD
ATOM     24  O   UNL A   1      31.441  25.300  26.852  1.00  0.00    -0.273 OA
ENDBRANCH  15  20
ENDBRANCH   9  14
ENDBRANCH   5   8
ENDBRANCH   3   4
ENDBRANCH   2   3
ENDBRANCH   1   2
BRANCH   1  25
ATOM     25  C   UNL A   1      33.735  28.363  27.213  1.00  0.00     0.116 C 
BRANCH  25  26
ATOM     26  N   UNL A   1      33.597  29.747  27.645  1.00  0.00    -0.352 N 
ATOM     27  C   UNL A   1      34.531  30.553  28.251  1.00  0.00     0.251 C 
ATOM     28  H   UNL A   1      32.719  30.160  27.479  1.00  0.00     0.163 HD
ATOM     29  O   UNL A   1      34.208  31.662  28.663  1.00  0.00    -0.269 OA
BRANCH  27  30
ATOM     30  C   UNL A   1      35.911  30.057  28.434  1.00  0.00     0.039 A 
ATOM     31  C   UNL A   1      36.789  30.091  27.348  1.00  0.00     0.014 A 
ATOM     32  C   UNL A   1      36.345  29.585  29.676  1.00  0.00     0.014 A 
ATOM     33  C   UNL A   1      38.120  29.711  27.527  1.00  0.00     0.010 A 
ATOM     34  C   UNL A   1      37.690  29.284  29.871  1.00  0.00     0.010 A 
ATOM     35  C   UNL A   1      38.591  29.338  28.798  1.00  0.00    -0.014 A 
BRANCH  35  36
ATOM     36  C   UNL A   1      40.021  29.001  29.015  1.00  0.00     0.031 A 
ATOM     37  C   UNL A   1      40.965  30.031  29.578  1.00  0.00     0.074 A 
ATOM     38  C   UNL A   1      40.481  27.785  28.660  1.00  0.00     0.049 A 
ATOM     39  N   UNL A   1      42.248  29.932  29.814  1.00  0.00    -0.248 NA
ATOM     40  C   UNL A   1      40.399  31.353  29.891  1.00  0.00     0.031 C 
ATOM     41  C   UNL A   1      39.678  26.721  28.051  1.00  0.00     0.029 A 
ATOM     42  N   UNL A   1      41.735  27.236  28.757  1.00  0.00    -0.354 N 
ATOM     43  C   UNL A   1      42.642  31.177  30.292  1.00  0.00     0.074 A 
ATOM     44  C   UNL A   1      41.476  32.032  30.254  1.00  0.00     0.031 C 
ATOM     45  C   UNL A   1      40.450  25.641  27.858  1.00  0.00     0.029 A 
ATOM     46  C   UNL A   1      41.810  25.942  28.297  1.00  0.00     0.049 A 
ATOM     47  H   UNL A   1      42.509  27.722  29.123  1.00  0.00     0.167 HD
ATOM     48  C   UNL A   1      43.858  31.564  30.747  1.00  0.00     0.037 A 
ATOM     49  C   UNL A   1      42.855  25.094  28.235  1.00  0.00     0.037 A 
ATOM     50  C   UNL A   1      45.008  30.700  30.804  1.00  0.00     0.049 A 
ATOM     51  C   UNL A   1      44.193  25.543  28.757  1.00  0.00     0.074 A 
ATOM     52  C   UNL A   1      46.271  30.979  31.297  1.00  0.00     0.029 A 
ATOM     53  N   UNL A   1      45.039  29.390  30.350  1.00  0.00    -0.354 N 
ATOM     54  N   UNL A   1      44.531  26.702  29.269  1.00  0.00    -0.248 NA
ATOM     55  C   UNL A   1      45.289  24.565  28.705  1.00  0.00     0.031 C 
ATOM     56  C   UNL A   1      47.076  29.852  31.102  1.00  0.00     0.029 A 
ATOM     57  C   UNL A   1      46.301  28.851  30.537  1.00  0.00     0.049 A 
ATOM     58  H   UNL A   1      44.275  28.911  29.953  1.00  0.00     0.167 HD
ATOM     59  C   UNL A   1      45.869  26.583  29.630  1.00  0.00     0.074 A 
ATOM     60  C   UNL A   1      46.274  25.234  29.287  1.00  0.00     0.031 C 
ATOM     61  C   UNL A   1      46.687  27.504  30.199  1.00  0.00     0.037 A 
BRANCH  48  62
ATOM     62  C   UNL A   1      44.002  32.983  31.229  1.00  0.00     0.058 A 
ATOM     63  C   UNL A   1      44.411  34.015  30.370  1.00  0.00     0.135 A 
ATOM     64  C   UNL A   1      43.695  33.322  32.557  1.00  0.00     0.135 A 
ATOM     65  F   UNL A   1      44.732  33.747  29.094  1.00  0.00    -0.206 F 
ATOM     66  C   UNL A   1      44.544  35.326  30.817  1.00  0.00     0.059 A 
ATOM     67  C   UNL A   1      43.792  34.632  33.018  1.00  0.00     0.059 A 
ATOM     68  F   UNL A   1      43.299  32.376  33.423  1.00  0.00    -0.206 F 
ATOM     69  C   UNL A   1      44.233  35.625  32.144  1.00  0.00     0.060 A 
BRANCH  69  70
ATOM     70  S   UNL A   1      44.406  37.330  32.706  1.00  0.00     0.124 S 
ATOM     71  O   UNL A   1      43.480  37.360  33.833  1.00  0.00    -0.237 OA
ATOM     72  O   UNL A   1      45.823  37.403  33.048  1.00  0.00    -0.237 OA
ATOM     73  O   UNL A   1      44.004  38.116  31.543  1.00  0.00    -0.744 OA
ENDBRANCH  69  70
ENDBRANCH  48  62
BRANCH  49  74
ATOM     74  C   UNL A   1      42.668  23.721  27.691  1.00  0.00     0.058 A 
ATOM     75  C   UNL A   1      42.722  23.478  26.311  1.00  0.00     0.135 A 
ATOM     76  C   UNL A   1      42.445  22.626  28.539  1.00  0.00     0.135 A 
ATOM     77  F   UNL A   1      42.928  24.493  25.458  1.00  0.00    -0.206 F 
ATOM     78  C   UNL A   1      42.543  22.201  25.788  1.00  0.00     0.059 A 
ATOM     79  C   UNL A   1      42.290  21.335  28.041  1.00  0.00     0.059 A 
ATOM     80  F   UNL A   1      42.403  22.801  29.870  1.00  0.00    -0.206 F 
ATOM     81  C   UNL A   1      42.331  21.135  26.662  1.00  0.00     0.060 A 
BRANCH  81  82
ATOM     82  S   UNL A   1      42.147  19.475  25.976  1.00  0.00     0.124 S 
ATOM     83  O   UNL A   1      42.655  18.649  27.064  1.00  0.00    -0.237 OA
ATOM     84  O   UNL A   1      40.708  19.402  25.735  1.00  0.00    -0.237 OA
ATOM     85  O   UNL A   1      42.973  19.515  24.773  1.00  0.00    -0.744 OA
ENDBRANCH  81  82
ENDBRANCH  49  74
BRANCH  61  86
ATOM     86  C   UNL A   1      48.091  27.073  30.527  1.00  0.00     0.058 A 
ATOM     87  C   UNL A   1      49.183  27.420  29.716  1.00  0.00     0.135 A 
ATOM     88  C   UNL A   1      48.349  26.339  31.697  1.00  0.00     0.135 A 
ATOM     89  F   UNL A   1      48.990  28.117  28.585  1.00  0.00    -0.206 F 
ATOM     90  C   UNL A   1      50.477  27.025  30.035  1.00  0.00     0.059 A 
ATOM     91  C   UNL A   1      49.640  25.960  32.051  1.00  0.00     0.059 A 
ATOM     92  F   UNL A   1      47.342  25.992  32.514  1.00  0.00    -0.206 F 
ATOM     93  C   UNL A   1      50.696  26.295  31.205  1.00  0.00     0.060 A 
BRANCH  93  94
ATOM     94  S   UNL A   1      52.385  25.808  31.620  1.00  0.00     0.124 S 
ATOM     95  O   UNL A   1      53.038  25.877  30.317  1.00  0.00    -0.237 OA
ATOM     96  O   UNL A   1      52.778  26.832  32.582  1.00  0.00    -0.237 OA
ATOM     97  O   UNL A   1      52.225  24.466  32.171  1.00  0.00    -0.744 OA
ENDBRANCH  93  94
ENDBRANCH  61  86
ENDBRANCH  35  36
ENDBRANCH  27  30
ENDBRANCH  25  26
ENDBRANCH   1  25
TORSDOF 16
ENDMDL
MODEL 2
REMARK VINA RESULT:     -11.4      1.004      2.091
REMARK SMILES NC(=O)[C@@H]1CCCCN1c1cncc(C(=O)NCCCCNC(=O)c2ccc(-c3c4nc(c(-c5c(F)cc(S(=O)(=O)[O-])cc5F)c5ccc([nH]5)c(-c5c(F)cc(S(=O)(=O)[O-])cc5F)c5nc(c(-c6c(F)cc(S(=O)(=O)[O-])cc6F)c6ccc3[nH]6)C=C5)C=C4)cc2)n1
REMARK SMILES IDX 20 1 19 2 18 3 17 4 15 5 16 6 14 8 10 9 11 10 91 11 12 12
REMARK SMILES IDX 13 13 9 14 4 15 5 16 6 17 8 18 7 19 2 20 1 21 3 24 21 25
REMARK SMILES IDX 22 26 23 27 24 29 25 30 26 31 90 32 27 33 89 34 28 35 29 36
REMARK SMILES IDX 30 37 83 38 31 39 88 40 82 41 84 42 32 43 87 44 81 45 80 46
REMARK SMILES IDX 33 48 67 49 46 50 66 51 47 52 50 53 65 54 85 55 48 56 49 57
REMARK SMILES IDX 64 59 86 60 51 61 34 62 35 63 44 64 36 65 37 66 43 67 45 68
REMARK SMILES IDX 38 69 39 70 40 71 41 72 42 73 68 74 69 75 78 76 70 77 71 78
REMARK SMILES IDX 77 79 79 80 72 81 73 82 74 83 75 84 76 85 52 86 53 87 62 88
REMARK SMILES IDX 54 89 55 90 61 91 63 92 56 93 57 94 58 95 59 96 60 97
REMARK H PARENT 17 7 1 22 1 23 22 28 84 47 50 58
REMARK Flexibility Score: inf
ROOT
ATOM      1  C   UNL A   1      33.771  28.124  25.743  1.00  0.00     0.023 C 
ENDROOT
BRANCH   1   2
ATOM      2  C   UNL A   1      33.313  29.255  24.823  1.00  0.00     0.023 C 
BRANCH   2   3
ATOM      3  C   UNL A   1      33.478  28.947  23.340  1.00  0.00     0.116 C 
BRANCH   3   4
ATOM      4  N   UNL A   1      32.203  28.775  22.669  1.00  0.00    -0.351 N 
ATOM      5  C   UNL A   1      31.273  27.762  22.724  1.00  0.00     0.271 C 
ATOM      6  O   UNL A   1      30.281  27.860  22.000  1.00  0.00    -0.267 OA
ATOM      7  H   UNL A   1      31.960  29.516  22.068  1.00  0.00     0.163 HD
BRANCH   5   8
ATOM      8  C   UNL A   1      31.398  26.571  23.619  1.00  0.00     0.148 A 
ATOM      9  C   UNL A   1      32.572  24.724  24.386  1.00  0.00     0.148 A 
ATOM     10  C   UNL A   1      31.529  24.505  25.295  1.00  0.00     0.157 A 
ATOM     11  N   UNL A   1      32.507  25.780  23.547  1.00  0.00    -0.222 NA
ATOM     12  N   UNL A   1      30.427  25.289  25.403  1.00  0.00    -0.258 NA
ATOM     13  C   UNL A   1      30.389  26.331  24.541  1.00  0.00     0.145 A 
BRANCH   9  14
ATOM     14  N   UNL A   1      33.649  23.862  24.333  1.00  0.00    -0.343 N 
ATOM     15  C   UNL A   1      33.637  22.516  23.702  1.00  0.00     0.172 C 
ATOM     16  C   UNL A   1      33.396  21.421  24.746  1.00  0.00     0.035 C 
ATOM     17  C   UNL A   1      34.420  21.527  25.876  1.00  0.00     0.004 C 
ATOM     18  C   UNL A   1      34.615  24.013  25.430  1.00  0.00     0.119 C 
ATOM     19  C   UNL A   1      34.400  22.927  26.490  1.00  0.00     0.022 C 
BRANCH  15  20
ATOM     20  C   UNL A   1      32.770  22.315  22.444  1.00  0.00     0.240 C 
ATOM     21  N   UNL A   1      32.889  23.202  21.422  1.00  0.00    -0.368 N 
ATOM     22  H   UNL A   1      32.344  23.093  20.609  1.00  0.00     0.159 HD
ATOM     23  H   UNL A   1      33.519  23.956  21.495  1.00  0.00     0.159 HD
ATOM     24  O   UNL A   1      31.916  21.431  22.372  1.00  0.00    -0.273 OA
ENDBRANCH  15  20
ENDBRANCH   9  14
ENDBRANCH   5   8
ENDBRANCH   3   4
ENDBRANCH   2   3
ENDBRANCH   1   2
BRANCH   1  25
ATOM     25  C   UNL A   1      33.542  28.366  27.233  1.00  0.00     0.116 C 
BRANCH  25  26
ATOM     26  N   UNL A   1      33.416  29.775  27.577  1.00  0.00    -0.352 N 
ATOM     27  C   UNL A   1      34.357  30.610  28.130  1.00  0.00     0.251 C 
ATOM     28  H   UNL A   1      32.541  30.184  27.387  1.00  0.00     0.163 HD
ATOM     29  O   UNL A   1      34.044  31.746  28.471  1.00  0.00    -0.269 OA
BRANCH  27  30
ATOM     30  C   UNL A   1      35.734  30.115  28.342  1.00  0.00     0.039 A 
ATOM     31  C   UNL A   1      36.627  30.126  27.268  1.00  0.00     0.014 A 
ATOM     32  C   UNL A   1      36.149  29.667  29.600  1.00  0.00     0.014 A 
ATOM     33  C   UNL A   1      37.955  29.747  27.474  1.00  0.00     0.010 A 
ATOM     34  C   UNL A   1      37.490  29.367  29.820  1.00  0.00     0.010 A 
ATOM     35  C   UNL A   1      38.406  29.398  28.759  1.00  0.00    -0.014 A 
BRANCH  35  36
ATOM     36  C   UNL A   1      39.833  29.063  29.004  1.00  0.00     0.031 A 
ATOM     37  C   UNL A   1      40.763  30.091  29.589  1.00  0.00     0.074 A 
ATOM     38  C   UNL A   1      40.302  27.849  28.652  1.00  0.00     0.049 A 
ATOM     39  N   UNL A   1      42.042  29.994  29.850  1.00  0.00    -0.248 NA
ATOM     40  C   UNL A   1      40.189  31.411  29.897  1.00  0.00     0.031 C 
ATOM     41  C   UNL A   1      39.513  26.787  28.022  1.00  0.00     0.029 A 
ATOM     42  N   UNL A   1      41.554  27.302  28.772  1.00  0.00    -0.354 N 
ATOM     43  C   UNL A   1      42.423  31.237  30.342  1.00  0.00     0.074 A 
ATOM     44  C   UNL A   1      41.257  32.090  30.285  1.00  0.00     0.031 C 
ATOM     45  C   UNL A   1      40.291  25.709  27.839  1.00  0.00     0.029 A 
ATOM     46  C   UNL A   1      41.641  26.010  28.307  1.00  0.00     0.049 A 
ATOM     47  H   UNL A   1      42.320  27.788  29.155  1.00  0.00     0.167 HD
ATOM     48  C   UNL A   1      43.629  31.624  30.824  1.00  0.00     0.037 A 
ATOM     49  C   UNL A   1      42.689  25.164  28.262  1.00  0.00     0.037 A 
ATOM     50  C   UNL A   1      44.780  30.762  30.899  1.00  0.00     0.049 A 
ATOM     51  C   UNL A   1      44.015  25.613  28.813  1.00  0.00     0.074 A 
ATOM     52  C   UNL A   1      46.032  31.041  31.419  1.00  0.00     0.029 A 
ATOM     53  N   UNL A   1      44.822  29.454  30.440  1.00  0.00    -0.354 N 
ATOM     54  N   UNL A   1      44.341  26.771  29.337  1.00  0.00    -0.248 NA
ATOM     55  C   UNL A   1      45.113  24.638  28.778  1.00  0.00     0.031 C 
ATOM     56  C   UNL A   1      46.843  29.916  31.235  1.00  0.00     0.029 A 
ATOM     57  C   UNL A   1      46.081  28.917  30.650  1.00  0.00     0.049 A 
ATOM     58  H   UNL A   1      44.067  28.976  30.026  1.00  0.00     0.167 HD
ATOM     59  C   UNL A   1      45.671  26.652  29.724  1.00  0.00     0.074 A 
ATOM     60  C   UNL A   1      46.085  25.306  29.383  1.00  0.00     0.031 C 
ATOM     61  C   UNL A   1      46.476  27.572  30.313  1.00  0.00     0.037 A 
BRANCH  48  62
ATOM     62  C   UNL A   1      43.761  33.041  31.315  1.00  0.00     0.058 A 
ATOM     63  C   UNL A   1      43.493  33.386  32.649  1.00  0.00     0.135 A 
ATOM     64  C   UNL A   1      44.191  34.061  30.450  1.00  0.00     0.135 A 
ATOM     65  F   UNL A   1      43.065  32.456  33.517  1.00  0.00    -0.206 F 
ATOM     66  C   UNL A   1      43.615  34.697  33.101  1.00  0.00     0.059 A 
ATOM     67  C   UNL A   1      44.349  35.373  30.888  1.00  0.00     0.059 A 
ATOM     68  F   UNL A   1      44.461  33.789  29.164  1.00  0.00    -0.206 F 
ATOM     69  C   UNL A   1      44.043  35.683  32.213  1.00  0.00     0.060 A 
BRANCH  69  70
ATOM     70  S   UNL A   1      44.199  37.377  32.817  1.00  0.00     0.124 S 
ATOM     71  O   UNL A   1      45.538  37.356  33.397  1.00  0.00    -0.237 OA
ATOM     72  O   UNL A   1      44.051  38.159  31.594  1.00  0.00    -0.237 OA
ATOM     73  O   UNL A   1      43.104  37.501  33.774  1.00  0.00    -0.744 OA
ENDBRANCH  69  70
ENDBRANCH  48  62
BRANCH  49  74
ATOM     74  C   UNL A   1      42.515  23.794  27.709  1.00  0.00     0.058 A 
ATOM     75  C   UNL A   1      42.321  22.692  28.555  1.00  0.00     0.135 A 
ATOM     76  C   UNL A   1      42.526  23.560  26.325  1.00  0.00     0.135 A 
ATOM     77  F   UNL A   1      42.307  22.863  29.886  1.00  0.00    -0.206 F 
ATOM     78  C   UNL A   1      42.163  21.405  28.052  1.00  0.00     0.059 A 
ATOM     79  C   UNL A   1      42.344  22.285  25.797  1.00  0.00     0.059 A 
ATOM     80  F   UNL A   1      42.689  24.583  25.470  1.00  0.00    -0.206 F 
ATOM     81  C   UNL A   1      42.173  21.212  26.670  1.00  0.00     0.060 A 
BRANCH  81  82
ATOM     82  S   UNL A   1      41.920  19.544  26.026  1.00  0.00     0.124 S 
ATOM     83  O   UNL A   1      42.842  19.522  24.897  1.00  0.00    -0.237 OA
ATOM     84  O   UNL A   1      42.289  18.715  27.170  1.00  0.00    -0.237 OA
ATOM     85  O   UNL A   1      40.500  19.528  25.684  1.00  0.00    -0.744 OA
ENDBRANCH  81  82
ENDBRANCH  49  74
BRANCH  61  86
ATOM     86  C   UNL A   1      47.874  27.142  30.667  1.00  0.00     0.058 A 
ATOM     87  C   UNL A   1      48.958  27.352  29.801  1.00  0.00     0.135 A 
ATOM     88  C   UNL A   1      48.136  26.550  31.915  1.00  0.00     0.135 A 
ATOM     89  F   UNL A   1      48.761  27.910  28.596  1.00  0.00    -0.206 F 
ATOM     90  C   UNL A   1      50.247  26.960  30.143  1.00  0.00     0.059 A 
ATOM     91  C   UNL A   1      49.423  26.178  32.290  1.00  0.00     0.059 A 
ATOM     92  F   UNL A   1      47.138  26.338  32.786  1.00  0.00    -0.206 F 
ATOM     93  C   UNL A   1      50.470  26.374  31.391  1.00  0.00     0.060 A 
BRANCH  93  94
ATOM     94  S   UNL A   1      52.153  25.890  31.833  1.00  0.00     0.124 S 
ATOM     95  O   UNL A   1      51.983  24.470  32.121  1.00  0.00    -0.237 OA
ATOM     96  O   UNL A   1      52.898  26.207  30.619  1.00  0.00    -0.237 OA
ATOM     97  O   UNL A   1      52.456  26.732  32.986  1.00  0.00    -0.744 OA
ENDBRANCH  93  94
ENDBRANCH  61  86
ENDBRANCH  35  36
ENDBRANCH  27  30
ENDBRANCH  25  26
ENDBRANCH   1  25
TORSDOF 16
ENDMDL
MODEL 3
REMARK VINA RESULT:     -11.3      4.908     10.502
REMARK SMILES NC(=O)[C@@H]1CCCCN1c1cncc(C(=O)NCCCCNC(=O)c2ccc(-c3c4nc(c(-c5c(F)cc(S(=O)(=O)[O-])cc5F)c5ccc([nH]5)c(-c5c(F)cc(S(=O)(=O)[O-])cc5F)c5nc(c(-c6c(F)cc(S(=O)(=O)[O-])cc6F)c6ccc3[nH]6)C=C5)C=C4)cc2)n1
REMARK SMILES IDX 20 1 19 2 18 3 17 4 15 5 16 6 14 8 10 9 11 10 91 11 12 12
REMARK SMILES IDX 13 13 9 14 4 15 5 16 6 17 8 18 7 19 2 20 1 21 3 24 21 25
REMARK SMILES IDX 22 26 23 27 24 29 25 30 26 31 90 32 27 33 89 34 28 35 29 36
REMARK SMILES IDX 30 37 83 38 31 39 88 40 82 41 84 42 32 43 87 44 81 45 80 46
REMARK SMILES IDX 33 48 67 49 46 50 66 51 47 52 50 53 65 54 85 55 48 56 49 57
REMARK SMILES IDX 64 59 86 60 51 61 34 62 35 63 44 64 36 65 37 66 43 67 45 68
REMARK SMILES IDX 38 69 39 70 40 71 41 72 42 73 68 74 69 75 78 76 70 77 71 78
REMARK SMILES IDX 77 79 79 80 72 81 73 82 74 83 75 84 76 85 52 86 53 87 62 88
REMARK SMILES IDX 54 89 55 90 61 91 63 92 56 93 57 94 58 95 59 96 60 97
REMARK H PARENT 17 7 1 22 1 23 22 28 84 47 50 58
REMARK Flexibility Score: inf
ROOT
ATOM      1  C   UNL A   1      37.356  23.591  25.324  1.00  0.00     0.023 C 
ENDROOT
BRANCH   1   2
ATOM      2  C   UNL A   1      37.574  22.135  24.916  1.00  0.00     0.023 C 
BRANCH   2   3
ATOM      3  C   UNL A   1      36.351  21.249  25.118  1.00  0.00     0.116 C 
BRANCH   3   4
ATOM      4  N   UNL A   1      35.706  21.487  26.395  1.00  0.00    -0.351 N 
ATOM      5  C   UNL A   1      34.513  22.095  26.715  1.00  0.00     0.271 C 
ATOM      6  O   UNL A   1      34.230  22.199  27.910  1.00  0.00    -0.267 OA
ATOM      7  H   UNL A   1      36.211  21.153  27.172  1.00  0.00     0.163 HD
BRANCH   5   8
ATOM      8  C   UNL A   1      33.551  22.616  25.697  1.00  0.00     0.148 A 
ATOM      9  C   UNL A   1      32.598  24.369  24.515  1.00  0.00     0.148 A 
ATOM     10  C   UNL A   1      31.830  23.420  23.828  1.00  0.00     0.157 A 
ATOM     11  N   UNL A   1      33.478  23.956  25.453  1.00  0.00    -0.222 NA
ATOM     12  N   UNL A   1      31.899  22.081  24.036  1.00  0.00    -0.258 NA
ATOM     13  C   UNL A   1      32.782  21.702  24.989  1.00  0.00     0.145 A 
BRANCH   9  14
ATOM     14  N   UNL A   1      32.449  25.717  24.252  1.00  0.00    -0.343 N 
ATOM     15  C   UNL A   1      31.325  26.562  24.734  1.00  0.00     0.172 C 
ATOM     16  C   UNL A   1      30.240  26.699  23.661  1.00  0.00     0.035 C 
ATOM     17  C   UNL A   1      30.843  27.217  22.355  1.00  0.00     0.004 C 
ATOM     18  C   UNL A   1      33.060  26.171  22.996  1.00  0.00     0.119 C 
ATOM     19  C   UNL A   1      31.995  26.321  21.902  1.00  0.00     0.022 C 
BRANCH  15  20
ATOM     20  C   UNL A   1      30.730  26.252  26.121  1.00  0.00     0.240 C 
ATOM     21  N   UNL A   1      29.749  25.317  26.215  1.00  0.00    -0.368 N 
ATOM     22  H   UNL A   1      29.355  25.103  27.092  1.00  0.00     0.159 HD
ATOM     23  H   UNL A   1      29.430  24.854  25.406  1.00  0.00     0.159 HD
ATOM     24  O   UNL A   1      31.055  26.881  27.128  1.00  0.00    -0.273 OA
ENDBRANCH  15  20
ENDBRANCH   9  14
ENDBRANCH   5   8
ENDBRANCH   3   4
ENDBRANCH   2   3
ENDBRANCH   1   2
BRANCH   1  25
ATOM     25  C   UNL A   1      38.285  24.104  26.422  1.00  0.00     0.116 C 
BRANCH  25  26
ATOM     26  N   UNL A   1      39.696  23.903  26.124  1.00  0.00    -0.352 N 
ATOM     27  C   UNL A   1      40.778  24.626  26.568  1.00  0.00     0.251 C 
ATOM     28  H   UNL A   1      39.903  23.149  25.527  1.00  0.00     0.163 HD
ATOM     29  O   UNL A   1      41.896  24.395  26.118  1.00  0.00    -0.269 OA
BRANCH  27  30
ATOM     30  C   UNL A   1      40.575  25.704  27.559  1.00  0.00     0.039 A 
ATOM     31  C   UNL A   1      39.540  25.577  28.489  1.00  0.00     0.014 A 
ATOM     32  C   UNL A   1      41.417  26.819  27.588  1.00  0.00     0.014 A 
ATOM     33  C   UNL A   1      39.392  26.542  29.488  1.00  0.00     0.010 A 
ATOM     34  C   UNL A   1      41.316  27.735  28.631  1.00  0.00     0.010 A 
ATOM     35  C   UNL A   1      40.300  27.610  29.589  1.00  0.00    -0.014 A 
BRANCH  35  36
ATOM     36  C   UNL A   1      40.195  28.601  30.690  1.00  0.00     0.031 A 
ATOM     37  C   UNL A   1      41.059  28.467  31.915  1.00  0.00     0.074 A 
ATOM     38  C   UNL A   1      39.287  29.594  30.609  1.00  0.00     0.049 A 
ATOM     39  N   UNL A   1      41.092  29.215  32.988  1.00  0.00    -0.248 NA
ATOM     40  C   UNL A   1      41.988  27.325  31.954  1.00  0.00     0.031 C 
ATOM     41  C   UNL A   1      38.351  29.796  29.499  1.00  0.00     0.029 A 
ATOM     42  N   UNL A   1      38.997  30.619  31.474  1.00  0.00    -0.354 N 
ATOM     43  C   UNL A   1      42.034  28.633  33.828  1.00  0.00     0.074 A 
ATOM     44  C   UNL A   1      42.504  27.435  33.169  1.00  0.00     0.031 C 
ATOM     45  C   UNL A   1      37.615  30.893  29.737  1.00  0.00     0.029 A 
ATOM     46  C   UNL A   1      38.001  31.455  31.028  1.00  0.00     0.049 A 
ATOM     47  H   UNL A   1      39.460  30.745  32.334  1.00  0.00     0.167 HD
ATOM     48  C   UNL A   1      42.487  29.071  35.027  1.00  0.00     0.037 A 
ATOM     49  C   UNL A   1      37.458  32.551  31.595  1.00  0.00     0.037 A 
ATOM     50  C   UNL A   1      42.031  30.278  35.667  1.00  0.00     0.049 A 
ATOM     51  C   UNL A   1      37.986  33.024  32.922  1.00  0.00     0.074 A 
ATOM     52  C   UNL A   1      42.465  30.838  36.857  1.00  0.00     0.029 A 
ATOM     53  N   UNL A   1      41.037  31.110  35.173  1.00  0.00    -0.354 N 
ATOM     54  N   UNL A   1      38.925  32.499  33.671  1.00  0.00    -0.248 NA
ATOM     55  C   UNL A   1      37.387  34.247  33.476  1.00  0.00     0.031 C 
ATOM     56  C   UNL A   1      41.703  31.986  37.102  1.00  0.00     0.029 A 
ATOM     57  C   UNL A   1      40.832  32.171  36.040  1.00  0.00     0.049 A 
ATOM     58  H   UNL A   1      40.549  30.969  34.330  1.00  0.00     0.167 HD
ATOM     59  C   UNL A   1      39.054  33.344  34.768  1.00  0.00     0.074 A 
ATOM     60  C   UNL A   1      38.103  34.420  34.578  1.00  0.00     0.031 C 
ATOM     61  C   UNL A   1      39.888  33.241  35.833  1.00  0.00     0.037 A 
BRANCH  48  62
ATOM     62  C   UNL A   1      43.537  28.244  35.720  1.00  0.00     0.058 A 
ATOM     63  C   UNL A   1      44.908  28.478  35.525  1.00  0.00     0.135 A 
ATOM     64  C   UNL A   1      43.169  27.227  36.616  1.00  0.00     0.135 A 
ATOM     65  F   UNL A   1      45.317  29.428  34.668  1.00  0.00    -0.206 F 
ATOM     66  C   UNL A   1      45.876  27.712  36.166  1.00  0.00     0.059 A 
ATOM     67  C   UNL A   1      44.121  26.468  37.292  1.00  0.00     0.059 A 
ATOM     68  F   UNL A   1      41.874  26.959  36.842  1.00  0.00    -0.206 F 
ATOM     69  C   UNL A   1      45.473  26.709  37.047  1.00  0.00     0.060 A 
BRANCH  69  70
ATOM     70  S   UNL A   1      46.742  25.727  37.874  1.00  0.00     0.124 S 
ATOM     71  O   UNL A   1      45.950  24.999  38.859  1.00  0.00    -0.237 OA
ATOM     72  O   UNL A   1      47.281  24.928  36.778  1.00  0.00    -0.237 OA
ATOM     73  O   UNL A   1      47.650  26.733  38.418  1.00  0.00    -0.744 OA
ENDBRANCH  69  70
ENDBRANCH  48  62
BRANCH  49  74
ATOM     74  C   UNL A   1      36.379  33.295  30.891  1.00  0.00     0.058 A 
ATOM     75  C   UNL A   1      35.038  33.167  31.284  1.00  0.00     0.135 A 
ATOM     76  C   UNL A   1      36.666  34.157  29.822  1.00  0.00     0.135 A 
ATOM     77  F   UNL A   1      34.711  32.351  32.298  1.00  0.00    -0.206 F 
ATOM     78  C   UNL A   1      34.018  33.852  30.632  1.00  0.00     0.059 A 
ATOM     79  C   UNL A   1      35.666  34.874  29.171  1.00  0.00     0.059 A 
ATOM     80  F   UNL A   1      37.935  34.330  29.419  1.00  0.00    -0.206 F 
ATOM     81  C   UNL A   1      34.343  34.707  29.578  1.00  0.00     0.060 A 
BRANCH  81  82
ATOM     82  S   UNL A   1      33.017  35.627  28.768  1.00  0.00     0.124 S 
ATOM     83  O   UNL A   1      32.372  34.584  27.981  1.00  0.00    -0.237 OA
ATOM     84  O   UNL A   1      32.256  36.132  29.907  1.00  0.00    -0.237 OA
ATOM     85  O   UNL A   1      33.733  36.645  28.004  1.00  0.00    -0.744 OA
ENDBRANCH  81  82
ENDBRANCH  49  74
BRANCH  61  86
ATOM     86  C   UNL A   1      39.842  34.343  36.857  1.00  0.00     0.058 A 
ATOM     87  C   UNL A   1      38.966  34.303  37.953  1.00  0.00     0.135 A 
ATOM     88  C   UNL A   1      40.721  35.435  36.759  1.00  0.00     0.135 A 
ATOM     89  F   UNL A   1      38.103  33.284  38.091  1.00  0.00    -0.206 F 
ATOM     90  C   UNL A   1      38.940  35.322  38.898  1.00  0.00     0.059 A 
ATOM     91  C   UNL A   1      40.733  36.450  37.710  1.00  0.00     0.059 A 
ATOM     92  F   UNL A   1      41.588  35.516  35.738  1.00  0.00    -0.206 F 
ATOM     93  C   UNL A   1      39.827  36.392  38.769  1.00  0.00     0.060 A 
BRANCH  93  94
ATOM     94  S   UNL A   1      39.799  37.698  40.015  1.00  0.00     0.124 S 
ATOM     95  O   UNL A   1      41.002  38.451  39.678  1.00  0.00    -0.237 OA
ATOM     96  O   UNL A   1      38.532  38.368  39.737  1.00  0.00    -0.237 OA
ATOM     97  O   UNL A   1      39.850  36.965  41.277  1.00  0.00    -0.744 OA
ENDBRANCH  93  94
ENDBRANCH  61  86
ENDBRANCH  35  36
ENDBRANCH  27  30
ENDBRANCH  25  26
ENDBRANCH   1  25
TORSDOF 16
ENDMDL
