MODEL 1
REMARK VINA RESULT:     -11.9      0.000      0.000
REMARK SMILES CC(=O)c1nnn(-c2ccc(C(=O)NCCCCNC(=O)c3ccc(-c4c5nc(c(-c6c(F)cc(S(=O)(=O)[O-])cc6F)c6ccc([nH]6)c(-c6c(F)cc(S(=O)(=O)[O-])cc6F)c6nc(c(-c7c(F)cc(S(=O)(=O)[O-])cc7F)c7ccc4[nH]7)C=C6)C=C5)cc3)cc2)c1C
REMARK SMILES IDX 17 1 16 2 15 3 14 4 12 5 13 6 11 8 8 9 9 10 89 11 10 12
REMARK SMILES IDX 88 13 7 14 4 15 5 16 90 17 6 18 91 19 2 20 1 21 3 22 18 23
REMARK SMILES IDX 19 24 20 25 21 27 22 28 23 29 87 30 24 31 86 32 25 33 26 34
REMARK SMILES IDX 27 35 80 36 28 37 85 38 79 39 81 40 29 41 84 42 78 43 77 44
REMARK SMILES IDX 30 46 64 47 43 48 63 49 44 50 47 51 62 52 82 53 45 54 46 55
REMARK SMILES IDX 61 57 83 58 48 59 31 60 32 61 41 62 33 63 34 64 40 65 42 66
REMARK SMILES IDX 35 67 36 68 37 69 38 70 39 71 65 72 66 73 75 74 67 75 68 76
REMARK SMILES IDX 74 77 76 78 69 79 70 80 71 81 72 82 73 83 49 84 50 85 59 86
REMARK SMILES IDX 51 87 52 88 58 89 60 90 53 91 54 92 55 93 56 94 57 95
REMARK H PARENT 14 7 19 26 81 45 47 56
REMARK Flexibility Score: inf
ROOT
ATOM      1  C   UNL A   1      40.557  20.444  26.344  1.00  0.00     0.023 C 
ENDROOT
BRANCH   1   2
ATOM      2  C   UNL A   1      40.061  21.796  26.880  1.00  0.00     0.023 C 
BRANCH   2   3
ATOM      3  C   UNL A   1      38.887  22.410  26.106  1.00  0.00     0.116 C 
BRANCH   3   4
ATOM      4  N   UNL A   1      37.991  21.379  25.610  1.00  0.00    -0.352 N 
ATOM      5  C   UNL A   1      36.648  21.352  25.322  1.00  0.00     0.251 C 
ATOM      6  O   UNL A   1      36.174  20.291  24.917  1.00  0.00    -0.269 OA
ATOM      7  H   UNL A   1      38.442  20.518  25.445  1.00  0.00     0.163 HD
BRANCH   5   8
ATOM      8  C   UNL A   1      35.754  22.543  25.417  1.00  0.00     0.039 A 
ATOM      9  C   UNL A   1      33.833  24.571  25.558  1.00  0.00     0.067 A 
ATOM     10  C   UNL A   1      33.822  23.567  26.523  1.00  0.00     0.029 A 
ATOM     11  C   UNL A   1      34.853  24.638  24.606  1.00  0.00     0.029 A 
ATOM     12  C   UNL A   1      34.768  22.538  26.426  1.00  0.00     0.016 A 
ATOM     13  C   UNL A   1      35.834  23.651  24.573  1.00  0.00     0.016 A 
BRANCH   9  14
ATOM     14  N   UNL A   1      32.776  25.493  25.479  1.00  0.00    -0.217 N 
ATOM     15  C   UNL A   1      31.304  26.891  24.696  1.00  0.00     0.151 A 
ATOM     16  N   UNL A   1      31.761  27.341  25.914  1.00  0.00    -0.126 NA
ATOM     17  C   UNL A   1      31.898  25.669  24.423  1.00  0.00     0.073 A 
ATOM     18  N   UNL A   1      32.581  26.431  26.422  1.00  0.00    -0.061 NA
ATOM     19  C   UNL A   1      31.753  24.657  23.346  1.00  0.00     0.069 C 
BRANCH  15  20
ATOM     20  C   UNL A   1      30.342  27.667  23.920  1.00  0.00     0.181 C 
ATOM     21  C   UNL A   1      28.983  27.077  23.641  1.00  0.00     0.095 C 
ATOM     22  O   UNL A   1      30.617  28.790  23.494  1.00  0.00    -0.293 OA
ENDBRANCH  15  20
ENDBRANCH   9  14
ENDBRANCH   5   8
ENDBRANCH   3   4
ENDBRANCH   2   3
ENDBRANCH   1   2
BRANCH   1  23
ATOM     23  C   UNL A   1      41.787  19.890  27.053  1.00  0.00     0.116 C 
BRANCH  23  24
ATOM     24  N   UNL A   1      42.885  19.590  26.133  1.00  0.00    -0.352 N 
ATOM     25  C   UNL A   1      43.611  20.481  25.370  1.00  0.00     0.251 C 
ATOM     26  H   UNL A   1      43.135  18.641  26.049  1.00  0.00     0.163 HD
ATOM     27  O   UNL A   1      44.200  20.106  24.354  1.00  0.00    -0.269 OA
BRANCH  25  28
ATOM     28  C   UNL A   1      43.689  21.885  25.801  1.00  0.00     0.039 A 
ATOM     29  C   UNL A   1      42.990  22.899  25.139  1.00  0.00     0.014 A 
ATOM     30  C   UNL A   1      44.459  22.165  26.927  1.00  0.00     0.014 A 
ATOM     31  C   UNL A   1      43.006  24.185  25.673  1.00  0.00     0.010 A 
ATOM     32  C   UNL A   1      44.366  23.397  27.525  1.00  0.00     0.010 A 
ATOM     33  C   UNL A   1      43.679  24.425  26.882  1.00  0.00    -0.014 A 
BRANCH  33  34
ATOM     34  C   UNL A   1      43.532  25.698  27.589  1.00  0.00     0.031 A 
ATOM     35  C   UNL A   1      44.588  26.698  27.245  1.00  0.00     0.074 A 
ATOM     36  C   UNL A   1      42.403  26.026  28.261  1.00  0.00     0.049 A 
ATOM     37  N   UNL A   1      45.486  27.207  28.022  1.00  0.00    -0.248 NA
ATOM     38  C   UNL A   1      44.779  27.047  25.823  1.00  0.00     0.031 C 
ATOM     39  C   UNL A   1      41.174  25.230  28.384  1.00  0.00     0.029 A 
ATOM     40  N   UNL A   1      42.050  27.192  28.871  1.00  0.00    -0.354 N 
ATOM     41  C   UNL A   1      46.170  28.143  27.246  1.00  0.00     0.074 A 
ATOM     42  C   UNL A   1      45.857  27.831  25.878  1.00  0.00     0.031 C 
ATOM     43  C   UNL A   1      40.155  26.021  28.786  1.00  0.00     0.029 A 
ATOM     44  C   UNL A   1      40.681  27.333  29.111  1.00  0.00     0.049 A 
ATOM     45  H   UNL A   1      42.707  27.880  29.122  1.00  0.00     0.167 HD
ATOM     46  C   UNL A   1      46.693  29.271  27.804  1.00  0.00     0.037 A 
ATOM     47  C   UNL A   1      40.024  28.454  29.515  1.00  0.00     0.037 A 
ATOM     48  C   UNL A   1      46.795  29.133  29.237  1.00  0.00     0.049 A 
ATOM     49  C   UNL A   1      41.045  29.369  30.087  1.00  0.00     0.074 A 
ATOM     50  C   UNL A   1      47.423  28.245  30.088  1.00  0.00     0.029 A 
ATOM     51  N   UNL A   1      45.854  29.779  30.000  1.00  0.00    -0.354 N 
ATOM     52  N   UNL A   1      41.711  29.118  31.179  1.00  0.00    -0.248 NA
ATOM     53  C   UNL A   1      41.661  30.331  29.188  1.00  0.00     0.031 C 
ATOM     54  C   UNL A   1      46.506  28.055  31.165  1.00  0.00     0.029 A 
ATOM     55  C   UNL A   1      45.416  28.902  30.959  1.00  0.00     0.049 A 
ATOM     56  H   UNL A   1      45.546  30.706  29.879  1.00  0.00     0.167 HD
ATOM     57  C   UNL A   1      43.009  29.521  30.900  1.00  0.00     0.074 A 
ATOM     58  C   UNL A   1      42.897  30.337  29.692  1.00  0.00     0.031 C 
ATOM     59  C   UNL A   1      44.076  28.914  31.501  1.00  0.00     0.037 A 
BRANCH  46  60
ATOM     60  C   UNL A   1      46.713  30.630  27.128  1.00  0.00     0.058 A 
ATOM     61  C   UNL A   1      47.918  31.367  27.107  1.00  0.00     0.135 A 
ATOM     62  C   UNL A   1      45.557  31.360  26.769  1.00  0.00     0.135 A 
ATOM     63  F   UNL A   1      49.082  30.783  27.434  1.00  0.00    -0.206 F 
ATOM     64  C   UNL A   1      47.957  32.735  26.834  1.00  0.00     0.059 A 
ATOM     65  C   UNL A   1      45.582  32.711  26.441  1.00  0.00     0.059 A 
ATOM     66  F   UNL A   1      44.329  30.833  26.809  1.00  0.00    -0.206 F 
ATOM     67  C   UNL A   1      46.778  33.401  26.516  1.00  0.00     0.060 A 
BRANCH  67  68
ATOM     68  S   UNL A   1      46.808  35.182  26.249  1.00  0.00     0.124 S 
ATOM     69  O   UNL A   1      46.667  35.682  27.611  1.00  0.00    -0.237 OA
ATOM     70  O   UNL A   1      48.115  35.370  25.628  1.00  0.00    -0.237 OA
ATOM     71  O   UNL A   1      45.664  35.407  25.370  1.00  0.00    -0.744 OA
ENDBRANCH  67  68
ENDBRANCH  46  60
BRANCH  47  72
ATOM     72  C   UNL A   1      38.661  28.929  29.143  1.00  0.00     0.058 A 
ATOM     73  C   UNL A   1      37.667  29.135  30.120  1.00  0.00     0.135 A 
ATOM     74  C   UNL A   1      38.395  29.477  27.872  1.00  0.00     0.135 A 
ATOM     75  F   UNL A   1      37.837  28.663  31.365  1.00  0.00    -0.206 F 
ATOM     76  C   UNL A   1      36.511  29.886  29.871  1.00  0.00     0.059 A 
ATOM     77  C   UNL A   1      37.248  30.223  27.598  1.00  0.00     0.059 A 
ATOM     78  F   UNL A   1      39.292  29.385  26.879  1.00  0.00    -0.206 F 
ATOM     79  C   UNL A   1      36.322  30.449  28.610  1.00  0.00     0.060 A 
BRANCH  79  80
ATOM     80  S   UNL A   1      34.932  31.574  28.329  1.00  0.00     0.124 S 
ATOM     81  O   UNL A   1      33.976  30.710  27.645  1.00  0.00    -0.237 OA
ATOM     82  O   UNL A   1      34.575  31.970  29.687  1.00  0.00    -0.237 OA
ATOM     83  O   UNL A   1      35.514  32.632  27.508  1.00  0.00    -0.744 OA
ENDBRANCH  79  80
ENDBRANCH  47  72
BRANCH  59  84
ATOM     84  C   UNL A   1      43.814  28.048  32.709  1.00  0.00     0.058 A 
ATOM     85  C   UNL A   1      43.698  26.646  32.699  1.00  0.00     0.135 A 
ATOM     86  C   UNL A   1      43.781  28.679  33.963  1.00  0.00     0.135 A 
ATOM     87  F   UNL A   1      43.834  25.949  31.562  1.00  0.00    -0.206 F 
ATOM     88  C   UNL A   1      43.485  25.916  33.871  1.00  0.00     0.059 A 
ATOM     89  C   UNL A   1      43.609  27.969  35.146  1.00  0.00     0.059 A 
ATOM     90  F   UNL A   1      43.954  30.008  34.052  1.00  0.00    -0.206 F 
ATOM     91  C   UNL A   1      43.434  26.589  35.091  1.00  0.00     0.060 A 
BRANCH  91  92
ATOM     92  S   UNL A   1      43.168  25.651  36.610  1.00  0.00     0.124 S 
ATOM     93  O   UNL A   1      42.187  24.657  36.189  1.00  0.00    -0.237 OA
ATOM     94  O   UNL A   1      44.503  25.139  36.905  1.00  0.00    -0.237 OA
ATOM     95  O   UNL A   1      42.675  26.656  37.550  1.00  0.00    -0.744 OA
ENDBRANCH  91  92
ENDBRANCH  59  84
ENDBRANCH  33  34
ENDBRANCH  25  28
ENDBRANCH  23  24
ENDBRANCH   1  23
TORSDOF 16
ENDMDL
MODEL 2
REMARK VINA RESULT:     -11.8      2.429      3.480
REMARK SMILES CC(=O)c1nnn(-c2ccc(C(=O)NCCCCNC(=O)c3ccc(-c4c5nc(c(-c6c(F)cc(S(=O)(=O)[O-])cc6F)c6ccc([nH]6)c(-c6c(F)cc(S(=O)(=O)[O-])cc6F)c6nc(c(-c7c(F)cc(S(=O)(=O)[O-])cc7F)c7ccc4[nH]7)C=C6)C=C5)cc3)cc2)c1C
REMARK SMILES IDX 17 1 16 2 15 3 14 4 12 5 13 6 11 8 8 9 9 10 89 11 10 12
REMARK SMILES IDX 88 13 7 14 4 15 5 16 90 17 6 18 91 19 2 20 1 21 3 22 18 23
REMARK SMILES IDX 19 24 20 25 21 27 22 28 23 29 87 30 24 31 86 32 25 33 26 34
REMARK SMILES IDX 27 35 80 36 28 37 85 38 79 39 81 40 29 41 84 42 78 43 77 44
REMARK SMILES IDX 30 46 64 47 43 48 63 49 44 50 47 51 62 52 82 53 45 54 46 55
REMARK SMILES IDX 61 57 83 58 48 59 31 60 32 61 41 62 33 63 34 64 40 65 42 66
REMARK SMILES IDX 35 67 36 68 37 69 38 70 39 71 65 72 66 73 75 74 67 75 68 76
REMARK SMILES IDX 74 77 76 78 69 79 70 80 71 81 72 82 73 83 49 84 50 85 59 86
REMARK SMILES IDX 51 87 52 88 58 89 60 90 53 91 54 92 55 93 56 94 57 95
REMARK H PARENT 14 7 19 26 81 45 47 56
REMARK Flexibility Score: inf
ROOT
ATOM      1  C   UNL A   1      35.833  22.915  25.680  1.00  0.00     0.023 C 
ENDROOT
BRANCH   1   2
ATOM      2  C   UNL A   1      35.536  21.475  26.125  1.00  0.00     0.023 C 
BRANCH   2   3
ATOM      3  C   UNL A   1      35.450  20.450  24.986  1.00  0.00     0.116 C 
BRANCH   3   4
ATOM      4  N   UNL A   1      34.290  19.589  25.143  1.00  0.00    -0.352 N 
ATOM      5  C   UNL A   1      32.935  19.814  25.106  1.00  0.00     0.251 C 
ATOM      6  O   UNL A   1      32.194  18.849  25.293  1.00  0.00    -0.269 OA
ATOM      7  H   UNL A   1      34.524  18.647  25.310  1.00  0.00     0.163 HD
BRANCH   5   8
ATOM      8  C   UNL A   1      32.320  21.138  24.799  1.00  0.00     0.039 A 
ATOM      9  C   UNL A   1      31.446  23.697  24.084  1.00  0.00     0.067 A 
ATOM     10  C   UNL A   1      31.802  22.803  23.077  1.00  0.00     0.029 A 
ATOM     11  C   UNL A   1      31.410  23.294  25.421  1.00  0.00     0.029 A 
ATOM     12  C   UNL A   1      32.268  21.535  23.446  1.00  0.00     0.016 A 
ATOM     13  C   UNL A   1      31.800  22.001  25.764  1.00  0.00     0.016 A 
BRANCH   9  14
ATOM     14  N   UNL A   1      31.190  25.044  23.781  1.00  0.00    -0.217 N 
ATOM     15  C   UNL A   1      31.337  27.215  23.712  1.00  0.00     0.151 A 
ATOM     16  N   UNL A   1      30.010  26.846  23.735  1.00  0.00    -0.126 NA
ATOM     17  C   UNL A   1      32.116  26.069  23.678  1.00  0.00     0.073 A 
ATOM     18  N   UNL A   1      29.938  25.523  23.677  1.00  0.00    -0.061 NA
ATOM     19  C   UNL A   1      33.571  25.802  23.550  1.00  0.00     0.069 C 
BRANCH  15  20
ATOM     20  C   UNL A   1      31.726  28.621  23.718  1.00  0.00     0.181 C 
ATOM     21  C   UNL A   1      31.294  29.494  24.868  1.00  0.00     0.095 C 
ATOM     22  O   UNL A   1      32.400  29.105  22.807  1.00  0.00    -0.293 OA
ENDBRANCH  15  20
ENDBRANCH   9  14
ENDBRANCH   5   8
ENDBRANCH   3   4
ENDBRANCH   2   3
ENDBRANCH   1   2
BRANCH   1  23
ATOM     23  C   UNL A   1      37.315  23.251  25.557  1.00  0.00     0.116 C 
BRANCH  23  24
ATOM     24  N   UNL A   1      38.179  22.244  26.174  1.00  0.00    -0.352 N 
ATOM     25  C   UNL A   1      39.451  22.421  26.677  1.00  0.00     0.251 C 
ATOM     26  H   UNL A   1      37.809  21.333  26.236  1.00  0.00     0.163 HD
ATOM     27  O   UNL A   1      40.225  21.467  26.781  1.00  0.00    -0.269 OA
BRANCH  25  28
ATOM     28  C   UNL A   1      39.863  23.765  27.109  1.00  0.00     0.039 A 
ATOM     29  C   UNL A   1      39.030  24.876  26.956  1.00  0.00     0.014 A 
ATOM     30  C   UNL A   1      41.110  23.884  27.720  1.00  0.00     0.014 A 
ATOM     31  C   UNL A   1      39.428  26.095  27.500  1.00  0.00     0.010 A 
ATOM     32  C   UNL A   1      41.439  25.047  28.370  1.00  0.00     0.010 A 
ATOM     33  C   UNL A   1      40.627  26.170  28.228  1.00  0.00    -0.014 A 
BRANCH  33  34
ATOM     34  C   UNL A   1      40.967  27.365  29.001  1.00  0.00     0.031 A 
ATOM     35  C   UNL A   1      42.088  28.159  28.413  1.00  0.00     0.074 A 
ATOM     36  C   UNL A   1      40.166  27.844  29.982  1.00  0.00     0.049 A 
ATOM     37  N   UNL A   1      43.253  28.390  28.921  1.00  0.00    -0.248 NA
ATOM     38  C   UNL A   1      41.961  28.610  27.012  1.00  0.00     0.031 C 
ATOM     39  C   UNL A   1      38.869  27.307  30.419  1.00  0.00     0.029 A 
ATOM     40  N   UNL A   1      40.263  28.986  30.719  1.00  0.00    -0.354 N 
ATOM     41  C   UNL A   1      43.895  29.242  28.022  1.00  0.00     0.074 A 
ATOM     42  C   UNL A   1      43.161  29.147  26.790  1.00  0.00     0.031 C 
ATOM     43  C   UNL A   1      38.203  28.242  31.130  1.00  0.00     0.029 A 
ATOM     44  C   UNL A   1      39.078  29.377  31.347  1.00  0.00     0.049 A 
ATOM     45  H   UNL A   1      41.101  29.496  30.800  1.00  0.00     0.167 HD
ATOM     46  C   UNL A   1      44.789  30.176  28.455  1.00  0.00     0.037 A 
ATOM     47  C   UNL A   1      38.826  30.560  31.971  1.00  0.00     0.037 A 
ATOM     48  C   UNL A   1      45.241  29.869  29.791  1.00  0.00     0.049 A 
ATOM     49  C   UNL A   1      40.142  31.182  32.265  1.00  0.00     0.074 A 
ATOM     50  C   UNL A   1      45.859  28.787  30.387  1.00  0.00     0.029 A 
ATOM     51  N   UNL A   1      44.712  30.609  30.819  1.00  0.00    -0.354 N 
ATOM     52  N   UNL A   1      41.004  30.687  33.108  1.00  0.00    -0.248 NA
ATOM     53  C   UNL A   1      40.692  32.087  31.269  1.00  0.00     0.031 C 
ATOM     54  C   UNL A   1      45.249  28.677  31.673  1.00  0.00     0.029 A 
ATOM     55  C   UNL A   1      44.364  29.744  31.824  1.00  0.00     0.049 A 
ATOM     56  H   UNL A   1      44.600  31.587  30.833  1.00  0.00     0.167 HD
ATOM     57  C   UNL A   1      42.234  30.844  32.486  1.00  0.00     0.074 A 
ATOM     58  C   UNL A   1      41.987  31.788  31.397  1.00  0.00     0.031 C 
ATOM     59  C   UNL A   1      43.259  29.972  32.729  1.00  0.00     0.037 A 
BRANCH  46  60
ATOM     60  C   UNL A   1      44.932  31.565  27.862  1.00  0.00     0.058 A 
ATOM     61  C   UNL A   1      46.172  31.949  27.306  1.00  0.00     0.135 A 
ATOM     62  C   UNL A   1      44.017  32.622  28.076  1.00  0.00     0.135 A 
ATOM     63  F   UNL A   1      47.123  31.035  27.062  1.00  0.00    -0.206 F 
ATOM     64  C   UNL A   1      46.506  33.283  27.063  1.00  0.00     0.059 A 
ATOM     65  C   UNL A   1      44.309  33.950  27.790  1.00  0.00     0.059 A 
ATOM     66  F   UNL A   1      42.828  32.441  28.662  1.00  0.00    -0.206 F 
ATOM     67  C   UNL A   1      45.570  34.278  27.323  1.00  0.00     0.060 A 
BRANCH  67  68
ATOM     68  S   UNL A   1      46.024  36.006  27.095  1.00  0.00     0.124 S 
ATOM     69  O   UNL A   1      46.514  35.998  25.722  1.00  0.00    -0.237 OA
ATOM     70  O   UNL A   1      44.751  36.683  27.319  1.00  0.00    -0.237 OA
ATOM     71  O   UNL A   1      47.034  36.224  28.127  1.00  0.00    -0.744 OA
ENDBRANCH  67  68
ENDBRANCH  46  60
BRANCH  47  72
ATOM     72  C   UNL A   1      37.556  31.340  32.026  1.00  0.00     0.058 A 
ATOM     73  C   UNL A   1      37.025  31.784  33.254  1.00  0.00     0.135 A 
ATOM     74  C   UNL A   1      37.000  31.921  30.870  1.00  0.00     0.135 A 
ATOM     75  F   UNL A   1      37.502  31.298  34.410  1.00  0.00    -0.206 F 
ATOM     76  C   UNL A   1      36.047  32.784  33.332  1.00  0.00     0.059 A 
ATOM     77  C   UNL A   1      36.020  32.914  30.923  1.00  0.00     0.059 A 
ATOM     78  F   UNL A   1      37.462  31.610  29.650  1.00  0.00    -0.206 F 
ATOM     79  C   UNL A   1      35.567  33.363  32.158  1.00  0.00     0.060 A 
BRANCH  79  80
ATOM     80  S   UNL A   1      34.446  34.781  32.250  1.00  0.00     0.124 S 
ATOM     81  O   UNL A   1      35.237  35.742  33.011  1.00  0.00    -0.237 OA
ATOM     82  O   UNL A   1      34.235  35.101  30.842  1.00  0.00    -0.237 OA
ATOM     83  O   UNL A   1      33.279  34.244  32.945  1.00  0.00    -0.744 OA
ENDBRANCH  79  80
ENDBRANCH  47  72
BRANCH  59  84
ATOM     84  C   UNL A   1      43.145  29.056  33.922  1.00  0.00     0.058 A 
ATOM     85  C   UNL A   1      43.460  29.401  35.249  1.00  0.00     0.135 A 
ATOM     86  C   UNL A   1      42.587  27.785  33.712  1.00  0.00     0.135 A 
ATOM     87  F   UNL A   1      43.889  30.633  35.561  1.00  0.00    -0.206 F 
ATOM     88  C   UNL A   1      43.296  28.499  36.304  1.00  0.00     0.059 A 
ATOM     89  C   UNL A   1      42.379  26.885  34.752  1.00  0.00     0.059 A 
ATOM     90  F   UNL A   1      42.201  27.415  32.480  1.00  0.00    -0.206 F 
ATOM     91  C   UNL A   1      42.761  27.238  36.043  1.00  0.00     0.060 A 
BRANCH  91  92
ATOM     92  S   UNL A   1      42.538  26.072  37.402  1.00  0.00     0.124 S 
ATOM     93  O   UNL A   1      41.128  26.250  37.731  1.00  0.00    -0.237 OA
ATOM     94  O   UNL A   1      42.889  24.795  36.785  1.00  0.00    -0.237 OA
ATOM     95  O   UNL A   1      43.481  26.543  38.415  1.00  0.00    -0.744 OA
ENDBRANCH  91  92
ENDBRANCH  59  84
ENDBRANCH  33  34
ENDBRANCH  25  28
ENDBRANCH  23  24
ENDBRANCH   1  23
TORSDOF 16
ENDMDL
MODEL 3
REMARK VINA RESULT:     -11.8      1.256      1.713
REMARK SMILES CC(=O)c1nnn(-c2ccc(C(=O)NCCCCNC(=O)c3ccc(-c4c5nc(c(-c6c(F)cc(S(=O)(=O)[O-])cc6F)c6ccc([nH]6)c(-c6c(F)cc(S(=O)(=O)[O-])cc6F)c6nc(c(-c7c(F)cc(S(=O)(=O)[O-])cc7F)c7ccc4[nH]7)C=C6)C=C5)cc3)cc2)c1C
REMARK SMILES IDX 17 1 16 2 15 3 14 4 12 5 13 6 11 8 8 9 9 10 89 11 10 12
REMARK SMILES IDX 88 13 7 14 4 15 5 16 90 17 6 18 91 19 2 20 1 21 3 22 18 23
REMARK SMILES IDX 19 24 20 25 21 27 22 28 23 29 87 30 24 31 86 32 25 33 26 34
REMARK SMILES IDX 27 35 80 36 28 37 85 38 79 39 81 40 29 41 84 42 78 43 77 44
REMARK SMILES IDX 30 46 64 47 43 48 63 49 44 50 47 51 62 52 82 53 45 54 46 55
REMARK SMILES IDX 61 57 83 58 48 59 31 60 32 61 41 62 33 63 34 64 40 65 42 66
REMARK SMILES IDX 35 67 36 68 37 69 38 70 39 71 65 72 66 73 75 74 67 75 68 76
REMARK SMILES IDX 74 77 76 78 69 79 70 80 71 81 72 82 73 83 49 84 50 85 59 86
REMARK SMILES IDX 51 87 52 88 58 89 60 90 53 91 54 92 55 93 56 94 57 95
REMARK H PARENT 14 7 19 26 81 45 47 56
REMARK Flexibility Score: inf
ROOT
ATOM      1  C   UNL A   1      39.909  21.088  26.359  1.00  0.00     0.023 C 
ENDROOT
BRANCH   1   2
ATOM      2  C   UNL A   1      39.388  22.513  26.597  1.00  0.00     0.023 C 
BRANCH   2   3
ATOM      3  C   UNL A   1      38.148  22.895  25.776  1.00  0.00     0.116 C 
BRANCH   3   4
ATOM      4  N   UNL A   1      37.083  21.923  25.953  1.00  0.00    -0.352 N 
ATOM      5  C   UNL A   1      35.729  21.953  25.723  1.00  0.00     0.251 C 
ATOM      6  O   UNL A   1      35.084  20.941  25.996  1.00  0.00    -0.269 OA
ATOM      7  H   UNL A   1      37.398  21.062  26.312  1.00  0.00     0.163 HD
BRANCH   5   8
ATOM      8  C   UNL A   1      35.015  23.113  25.116  1.00  0.00     0.039 A 
ATOM      9  C   UNL A   1      33.483  25.281  24.233  1.00  0.00     0.067 A 
ATOM     10  C   UNL A   1      34.191  25.400  25.427  1.00  0.00     0.029 A 
ATOM     11  C   UNL A   1      33.624  24.150  23.425  1.00  0.00     0.029 A 
ATOM     12  C   UNL A   1      34.929  24.298  25.876  1.00  0.00     0.016 A 
ATOM     13  C   UNL A   1      34.428  23.094  23.849  1.00  0.00     0.016 A 
BRANCH   9  14
ATOM     14  N   UNL A   1      32.556  26.266  23.855  1.00  0.00    -0.217 N 
ATOM     15  C   UNL A   1      30.687  27.275  23.380  1.00  0.00     0.151 A 
ATOM     16  N   UNL A   1      31.673  27.709  22.522  1.00  0.00    -0.126 NA
ATOM     17  C   UNL A   1      31.246  26.391  24.289  1.00  0.00     0.073 A 
ATOM     18  N   UNL A   1      32.824  27.160  22.888  1.00  0.00    -0.061 NA
ATOM     19  C   UNL A   1      30.745  25.674  25.489  1.00  0.00     0.069 C 
BRANCH  15  20
ATOM     20  C   UNL A   1      29.314  27.754  23.251  1.00  0.00     0.181 C 
ATOM     21  C   UNL A   1      29.074  29.152  22.743  1.00  0.00     0.095 C 
ATOM     22  O   UNL A   1      28.355  27.040  23.545  1.00  0.00    -0.293 OA
ENDBRANCH  15  20
ENDBRANCH   9  14
ENDBRANCH   5   8
ENDBRANCH   3   4
ENDBRANCH   2   3
ENDBRANCH   1   2
BRANCH   1  23
ATOM     23  C   UNL A   1      41.106  20.695  27.218  1.00  0.00     0.116 C 
BRANCH  23  24
ATOM     24  N   UNL A   1      42.300  20.395  26.426  1.00  0.00    -0.352 N 
ATOM     25  C   UNL A   1      43.147  21.291  25.808  1.00  0.00     0.251 C 
ATOM     26  H   UNL A   1      42.524  19.441  26.322  1.00  0.00     0.163 HD
ATOM     27  O   UNL A   1      43.845  20.942  24.854  1.00  0.00    -0.269 OA
BRANCH  25  28
ATOM     28  C   UNL A   1      43.220  22.668  26.320  1.00  0.00     0.039 A 
ATOM     29  C   UNL A   1      42.630  23.738  25.643  1.00  0.00     0.014 A 
ATOM     30  C   UNL A   1      43.871  22.862  27.537  1.00  0.00     0.014 A 
ATOM     31  C   UNL A   1      42.627  24.995  26.245  1.00  0.00     0.010 A 
ATOM     32  C   UNL A   1      43.750  24.065  28.187  1.00  0.00     0.010 A 
ATOM     33  C   UNL A   1      43.170  25.148  27.531  1.00  0.00    -0.014 A 
BRANCH  33  34
ATOM     34  C   UNL A   1      42.986  26.389  28.285  1.00  0.00     0.031 A 
ATOM     35  C   UNL A   1      44.079  27.385  28.072  1.00  0.00     0.074 A 
ATOM     36  C   UNL A   1      41.813  26.703  28.884  1.00  0.00     0.049 A 
ATOM     37  N   UNL A   1      44.921  27.842  28.939  1.00  0.00    -0.248 NA
ATOM     38  C   UNL A   1      44.383  27.799  26.687  1.00  0.00     0.031 C 
ATOM     39  C   UNL A   1      40.568  25.923  28.875  1.00  0.00     0.029 A 
ATOM     40  N   UNL A   1      41.429  27.844  29.522  1.00  0.00    -0.354 N 
ATOM     41  C   UNL A   1      45.675  28.802  28.264  1.00  0.00     0.074 A 
ATOM     42  C   UNL A   1      45.464  28.561  26.863  1.00  0.00     0.031 C 
ATOM     43  C   UNL A   1      39.531  26.711  29.236  1.00  0.00     0.029 A 
ATOM     44  C   UNL A   1      40.048  27.997  29.664  1.00  0.00     0.049 A 
ATOM     45  H   UNL A   1      42.074  28.509  29.856  1.00  0.00     0.167 HD
ATOM     46  C   UNL A   1      46.168  29.893  28.914  1.00  0.00     0.037 A 
ATOM     47  C   UNL A   1      39.377  29.108  30.070  1.00  0.00     0.037 A 
ATOM     48  C   UNL A   1      46.158  29.685  30.343  1.00  0.00     0.049 A 
ATOM     49  C   UNL A   1      40.362  29.978  30.763  1.00  0.00     0.074 A 
ATOM     50  C   UNL A   1      46.707  28.747  31.194  1.00  0.00     0.029 A 
ATOM     51  N   UNL A   1      45.169  30.310  31.062  1.00  0.00    -0.354 N 
ATOM     52  N   UNL A   1      40.940  29.664  31.889  1.00  0.00    -0.248 NA
ATOM     53  C   UNL A   1      41.059  30.971  29.961  1.00  0.00     0.031 C 
ATOM     54  C   UNL A   1      45.707  28.522  32.188  1.00  0.00     0.029 A 
ATOM     55  C   UNL A   1      44.648  29.396  31.941  1.00  0.00     0.049 A 
ATOM     56  H   UNL A   1      44.884  31.247  30.964  1.00  0.00     0.167 HD
ATOM     57  C   UNL A   1      42.260  30.057  31.729  1.00  0.00     0.074 A 
ATOM     58  C   UNL A   1      42.252  30.932  30.557  1.00  0.00     0.031 C 
ATOM     59  C   UNL A   1      43.270  29.405  32.380  1.00  0.00     0.037 A 
BRANCH  46  60
ATOM     60  C   UNL A   1      46.258  31.283  28.309  1.00  0.00     0.058 A 
ATOM     61  C   UNL A   1      45.083  31.893  27.819  1.00  0.00     0.135 A 
ATOM     62  C   UNL A   1      47.466  31.908  27.925  1.00  0.00     0.135 A 
ATOM     63  F   UNL A   1      43.876  31.387  28.114  1.00  0.00    -0.206 F 
ATOM     64  C   UNL A   1      45.111  32.985  26.949  1.00  0.00     0.059 A 
ATOM     65  C   UNL A   1      47.513  33.029  27.103  1.00  0.00     0.059 A 
ATOM     66  F   UNL A   1      48.668  31.416  28.241  1.00  0.00    -0.206 F 
ATOM     67  C   UNL A   1      46.335  33.537  26.586  1.00  0.00     0.060 A 
BRANCH  67  68
ATOM     68  S   UNL A   1      46.382  34.888  25.396  1.00  0.00     0.124 S 
ATOM     69  O   UNL A   1      45.968  36.016  26.222  1.00  0.00    -0.237 OA
ATOM     70  O   UNL A   1      47.781  34.874  24.982  1.00  0.00    -0.237 OA
ATOM     71  O   UNL A   1      45.427  34.466  24.375  1.00  0.00    -0.744 OA
ENDBRANCH  67  68
ENDBRANCH  46  60
BRANCH  47  72
ATOM     72  C   UNL A   1      38.053  29.624  29.619  1.00  0.00     0.058 A 
ATOM     73  C   UNL A   1      37.082  30.055  30.546  1.00  0.00     0.135 A 
ATOM     74  C   UNL A   1      37.824  29.986  28.277  1.00  0.00     0.135 A 
ATOM     75  F   UNL A   1      37.222  29.771  31.850  1.00  0.00    -0.206 F 
ATOM     76  C   UNL A   1      35.987  30.845  30.174  1.00  0.00     0.059 A 
ATOM     77  C   UNL A   1      36.737  30.766  27.882  1.00  0.00     0.059 A 
ATOM     78  F   UNL A   1      38.707  29.672  27.317  1.00  0.00    -0.206 F 
ATOM     79  C   UNL A   1      35.836  31.218  28.839  1.00  0.00     0.060 A 
BRANCH  79  80
ATOM     80  S   UNL A   1      34.535  32.390  28.377  1.00  0.00     0.124 S 
ATOM     81  O   UNL A   1      34.065  32.849  29.680  1.00  0.00    -0.237 OA
ATOM     82  O   UNL A   1      35.269  33.369  27.582  1.00  0.00    -0.237 OA
ATOM     83  O   UNL A   1      33.590  31.566  27.628  1.00  0.00    -0.744 OA
ENDBRANCH  79  80
ENDBRANCH  47  72
BRANCH  59  84
ATOM     84  C   UNL A   1      42.904  28.487  33.521  1.00  0.00     0.058 A 
ATOM     85  C   UNL A   1      42.885  27.081  33.463  1.00  0.00     0.135 A 
ATOM     86  C   UNL A   1      42.658  29.075  34.771  1.00  0.00     0.135 A 
ATOM     87  F   UNL A   1      43.221  26.430  32.341  1.00  0.00    -0.206 F 
ATOM     88  C   UNL A   1      42.564  26.303  34.578  1.00  0.00     0.059 A 
ATOM     89  C   UNL A   1      42.374  28.319  35.904  1.00  0.00     0.059 A 
ATOM     90  F   UNL A   1      42.728  30.409  34.913  1.00  0.00    -0.206 F 
ATOM     91  C   UNL A   1      42.302  26.933  35.794  1.00  0.00     0.060 A 
BRANCH  91  92
ATOM     92  S   UNL A   1      41.895  25.933  37.241  1.00  0.00     0.124 S 
ATOM     93  O   UNL A   1      42.057  24.576  36.731  1.00  0.00    -0.237 OA
ATOM     94  O   UNL A   1      42.890  26.368  38.217  1.00  0.00    -0.237 OA
ATOM     95  O   UNL A   1      40.521  26.323  37.550  1.00  0.00    -0.744 OA
ENDBRANCH  91  92
ENDBRANCH  59  84
ENDBRANCH  33  34
ENDBRANCH  25  28
ENDBRANCH  23  24
ENDBRANCH   1  23
TORSDOF 16
ENDMDL
