MODEL 1
REMARK VINA RESULT:      -9.8      0.000      0.000
REMARK SMILES NS(=O)(=O)c1ccc(-n2nc(C(=O)NCCCC(=O)NCCCCNC(=O)c3ccc(-c4c5nc(c(-c6c(F)cc(S(=O)(=O)[O-])cc6F)c6ccc([nH]6)c(-c6c(F)cc(S(=O)(=O)[O-])cc6F)c6nc(c(-c7c(F)cc(S(=O)(=O)[O-])cc7F)c7ccc4[nH]7)C=C6)C=C5)cc3)cc2-c2ccccc2)cc1
REMARK SMILES IDX 18 1 19 2 20 3 17 5 16 6 15 7 14 8 12 9 13 10 11 12 9 13
REMARK SMILES IDX 10 14 95 15 94 16 8 17 5 18 6 19 103 20 7 21 102 22 2 23
REMARK SMILES IDX 3 24 4 25 1 26 96 29 97 30 101 31 98 32 100 33 99 34 21 35
REMARK SMILES IDX 22 36 23 37 24 38 25 39 26 40 27 42 28 43 29 44 93 45 30 46
REMARK SMILES IDX 92 47 31 48 32 49 33 50 86 51 34 52 91 53 85 54 87 55 35 56
REMARK SMILES IDX 90 57 84 58 83 59 36 61 70 62 49 63 69 64 50 65 53 66 68 67
REMARK SMILES IDX 88 68 51 69 52 70 67 72 89 73 54 74 37 75 38 76 47 77 39 78
REMARK SMILES IDX 40 79 46 80 48 81 41 82 42 83 43 84 44 85 45 86 71 87 72 88
REMARK SMILES IDX 81 89 73 90 74 91 80 92 82 93 75 94 76 95 77 96 78 97 79 98
REMARK SMILES IDX 55 99 56 100 65 101 57 102 58 103 64 104 66 105 59 106
REMARK SMILES IDX 60 107 61 108 62 109 63 110
REMARK H PARENT 20 4 14 11 1 27 1 28 25 41 87 60 53 71
REMARK Flexibility Score: inf
ROOT
ATOM      1  C   UNL A   1      39.155  28.733  30.046  1.00  0.00     0.220 C 
ATOM      2  O   UNL A   1      39.122  28.084  31.094  1.00  0.00    -0.275 OA
ATOM      3  N   UNL A   1      38.321  29.801  29.925  1.00  0.00    -0.356 N 
ATOM      4  H   UNL A   1      37.873  30.069  30.761  1.00  0.00     0.163 HD
ENDROOT
BRANCH   1   5
ATOM      5  C   UNL A   1      40.099  28.341  28.927  1.00  0.00     0.102 C 
BRANCH   5   6
ATOM      6  C   UNL A   1      39.695  27.054  28.204  1.00  0.00     0.031 C 
BRANCH   6   7
ATOM      7  C   UNL A   1      40.724  26.515  27.215  1.00  0.00     0.116 C 
BRANCH   7   8
ATOM      8  N   UNL A   1      41.068  27.449  26.162  1.00  0.00    -0.351 N 
ATOM      9  C   UNL A   1      42.227  27.579  25.427  1.00  0.00     0.271 C 
ATOM     10  O   UNL A   1      42.274  28.510  24.621  1.00  0.00    -0.267 OA
ATOM     11  H   UNL A   1      40.360  28.096  25.935  1.00  0.00     0.163 HD
BRANCH   9  12
ATOM     12  C   UNL A   1      43.353  26.649  25.629  1.00  0.00     0.151 A 
ATOM     13  N   UNL A   1      44.468  24.819  25.492  1.00  0.00    -0.232 N 
ATOM     14  N   UNL A   1      43.359  25.440  25.034  1.00  0.00    -0.162 NA
ATOM     15  C   UNL A   1      45.317  25.709  26.137  1.00  0.00     0.075 A 
ATOM     16  C   UNL A   1      44.541  26.823  26.381  1.00  0.00     0.065 A 
BRANCH  13  17
ATOM     17  C   UNL A   1      44.674  23.430  25.264  1.00  0.00     0.065 A 
ATOM     18  C   UNL A   1      45.153  20.698  24.990  1.00  0.00     0.082 A 
ATOM     19  C   UNL A   1      43.956  21.133  25.559  1.00  0.00     0.024 A 
ATOM     20  C   UNL A   1      46.087  21.619  24.501  1.00  0.00     0.024 A 
ATOM     21  C   UNL A   1      43.720  22.499  25.700  1.00  0.00     0.030 A 
ATOM     22  C   UNL A   1      45.837  22.992  24.616  1.00  0.00     0.030 A 
BRANCH  18  23
ATOM     23  S   UNL A   1      45.542  18.978  24.900  1.00  0.00     0.238 S 
ATOM     24  O   UNL A   1      46.065  18.703  23.574  1.00  0.00    -0.207 OA
ATOM     25  O   UNL A   1      44.469  18.221  25.485  1.00  0.00    -0.207 OA
BRANCH  23  26
ATOM     26  N   UNL A   1      46.854  18.779  25.934  1.00  0.00    -0.225 NA
ATOM     27  H   UNL A   1      46.809  19.476  26.678  1.00  0.00     0.137 HD
ATOM     28  H   UNL A   1      47.721  18.897  25.409  1.00  0.00     0.137 HD
ENDBRANCH  23  26
ENDBRANCH  18  23
ENDBRANCH  13  17
BRANCH  15  29
ATOM     29  C   UNL A   1      46.753  25.534  26.345  1.00  0.00     0.000 A 
ATOM     30  C   UNL A   1      47.660  26.042  25.402  1.00  0.00     0.010 A 
ATOM     31  C   UNL A   1      47.246  24.923  27.501  1.00  0.00     0.010 A 
ATOM     32  C   UNL A   1      49.036  25.920  25.599  1.00  0.00     0.001 A 
ATOM     33  C   UNL A   1      48.625  24.802  27.698  1.00  0.00     0.001 A 
ATOM     34  C   UNL A   1      49.517  25.297  26.747  1.00  0.00     0.000 A 
ENDBRANCH  15  29
ENDBRANCH   9  12
ENDBRANCH   7   8
ENDBRANCH   6   7
ENDBRANCH   5   6
ENDBRANCH   1   5
BRANCH   3  35
ATOM     35  C   UNL A   1      37.980  30.613  28.769  1.00  0.00     0.116 C 
BRANCH  35  36
ATOM     36  C   UNL A   1      37.615  32.042  29.196  1.00  0.00     0.023 C 
BRANCH  36  37
ATOM     37  C   UNL A   1      36.120  32.379  29.188  1.00  0.00     0.023 C 
BRANCH  37  38
ATOM     38  C   UNL A   1      35.312  31.678  30.271  1.00  0.00     0.116 C 
BRANCH  38  39
ATOM     39  N   UNL A   1      34.392  32.578  30.966  1.00  0.00    -0.352 N 
ATOM     40  C   UNL A   1      34.569  33.172  32.200  1.00  0.00     0.251 C 
ATOM     41  H   UNL A   1      33.549  32.784  30.499  1.00  0.00     0.163 HD
ATOM     42  O   UNL A   1      33.617  33.590  32.847  1.00  0.00    -0.269 OA
BRANCH  40  43
ATOM     43  C   UNL A   1      35.941  33.278  32.719  1.00  0.00     0.039 A 
ATOM     44  C   UNL A   1      36.519  32.238  33.454  1.00  0.00     0.014 A 
ATOM     45  C   UNL A   1      36.681  34.393  32.337  1.00  0.00     0.014 A 
ATOM     46  C   UNL A   1      37.888  32.277  33.716  1.00  0.00     0.010 A 
ATOM     47  C   UNL A   1      38.046  34.364  32.484  1.00  0.00     0.010 A 
ATOM     48  C   UNL A   1      38.658  33.329  33.200  1.00  0.00    -0.014 A 
BRANCH  48  49
ATOM     49  C   UNL A   1      40.121  33.312  33.296  1.00  0.00     0.031 A 
ATOM     50  C   UNL A   1      40.857  32.513  32.267  1.00  0.00     0.074 A 
ATOM     51  C   UNL A   1      40.779  34.202  34.071  1.00  0.00     0.049 A 
ATOM     52  N   UNL A   1      41.731  31.576  32.453  1.00  0.00    -0.248 NA
ATOM     53  C   UNL A   1      40.534  32.737  30.848  1.00  0.00     0.031 C 
ATOM     54  C   UNL A   1      40.203  35.257  34.916  1.00  0.00     0.029 A 
ATOM     55  N   UNL A   1      42.113  34.462  34.136  1.00  0.00    -0.354 N 
ATOM     56  C   UNL A   1      42.215  31.226  31.190  1.00  0.00     0.074 A 
ATOM     57  C   UNL A   1      41.334  31.857  30.242  1.00  0.00     0.031 C 
ATOM     58  C   UNL A   1      41.145  36.185  35.177  1.00  0.00     0.029 A 
ATOM     59  C   UNL A   1      42.417  35.708  34.671  1.00  0.00     0.049 A 
ATOM     60  H   UNL A   1      42.799  33.826  33.833  1.00  0.00     0.167 HD
ATOM     61  C   UNL A   1      43.421  30.607  31.022  1.00  0.00     0.037 A 
ATOM     62  C   UNL A   1      43.620  36.332  34.662  1.00  0.00     0.037 A 
ATOM     63  C   UNL A   1      43.903  30.062  32.266  1.00  0.00     0.049 A 
ATOM     64  C   UNL A   1      44.651  35.279  34.475  1.00  0.00     0.074 A 
ATOM     65  C   UNL A   1      43.417  29.147  33.181  1.00  0.00     0.029 A 
ATOM     66  N   UNL A   1      44.917  30.726  32.914  1.00  0.00    -0.354 N 
ATOM     67  N   UNL A   1      44.897  34.342  35.351  1.00  0.00    -0.248 NA
ATOM     68  C   UNL A   1      45.114  34.997  33.125  1.00  0.00     0.031 C 
ATOM     69  C   UNL A   1      43.807  29.657  34.454  1.00  0.00     0.029 A 
ATOM     70  C   UNL A   1      44.558  30.814  34.235  1.00  0.00     0.049 A 
ATOM     71  H   UNL A   1      45.744  31.073  32.508  1.00  0.00     0.167 HD
ATOM     72  C   UNL A   1      45.137  33.203  34.597  1.00  0.00     0.074 A 
ATOM     73  C   UNL A   1      45.377  33.693  33.242  1.00  0.00     0.031 C 
ATOM     74  C   UNL A   1      44.839  31.957  35.077  1.00  0.00     0.037 A 
BRANCH  61  75
ATOM     75  C   UNL A   1      44.339  30.775  29.825  1.00  0.00     0.058 A 
ATOM     76  C   UNL A   1      44.859  29.626  29.183  1.00  0.00     0.135 A 
ATOM     77  C   UNL A   1      44.962  31.991  29.472  1.00  0.00     0.135 A 
ATOM     78  F   UNL A   1      44.336  28.413  29.423  1.00  0.00    -0.206 F 
ATOM     79  C   UNL A   1      45.980  29.670  28.351  1.00  0.00     0.059 A 
ATOM     80  C   UNL A   1      46.045  32.065  28.601  1.00  0.00     0.059 A 
ATOM     81  F   UNL A   1      44.619  33.158  30.030  1.00  0.00    -0.206 F 
ATOM     82  C   UNL A   1      46.584  30.895  28.091  1.00  0.00     0.060 A 
BRANCH  82  83
ATOM     83  S   UNL A   1      48.125  30.944  27.160  1.00  0.00     0.124 S 
ATOM     84  O   UNL A   1      49.098  31.150  28.227  1.00  0.00    -0.237 OA
ATOM     85  O   UNL A   1      48.141  29.633  26.521  1.00  0.00    -0.237 OA
ATOM     86  O   UNL A   1      47.932  32.075  26.255  1.00  0.00    -0.744 OA
ENDBRANCH  82  83
ENDBRANCH  61  75
BRANCH  62  87
ATOM     87  C   UNL A   1      43.885  37.789  34.542  1.00  0.00     0.058 A 
ATOM     88  C   UNL A   1      43.646  38.479  33.343  1.00  0.00     0.135 A 
ATOM     89  C   UNL A   1      44.145  38.591  35.676  1.00  0.00     0.135 A 
ATOM     90  F   UNL A   1      43.367  37.802  32.219  1.00  0.00    -0.206 F 
ATOM     91  C   UNL A   1      43.621  39.878  33.278  1.00  0.00     0.059 A 
ATOM     92  C   UNL A   1      44.146  39.983  35.631  1.00  0.00     0.059 A 
ATOM     93  F   UNL A   1      44.316  38.048  36.891  1.00  0.00    -0.206 F 
ATOM     94  C   UNL A   1      43.855  40.622  34.434  1.00  0.00     0.060 A 
BRANCH  94  95
ATOM     95  S   UNL A   1      43.638  42.417  34.403  1.00  0.00     0.124 S 
ATOM     96  O   UNL A   1      42.468  42.565  33.544  1.00  0.00    -0.237 OA
ATOM     97  O   UNL A   1      43.437  42.726  35.816  1.00  0.00    -0.237 OA
ATOM     98  O   UNL A   1      44.895  42.900  33.837  1.00  0.00    -0.744 OA
ENDBRANCH  94  95
ENDBRANCH  62  87
BRANCH  74  99
ATOM     99  C   UNL A   1      44.511  31.809  36.542  1.00  0.00     0.058 A 
ATOM    100  C   UNL A   1      45.478  31.719  37.560  1.00  0.00     0.135 A 
ATOM    101  C   UNL A   1      43.175  31.940  36.948  1.00  0.00     0.135 A 
ATOM    102  F   UNL A   1      46.784  31.708  37.272  1.00  0.00    -0.206 F 
ATOM    103  C   UNL A   1      45.134  31.711  38.911  1.00  0.00     0.059 A 
ATOM    104  C   UNL A   1      42.810  31.968  38.293  1.00  0.00     0.059 A 
ATOM    105  F   UNL A   1      42.206  32.101  36.031  1.00  0.00    -0.206 F 
ATOM    106  C   UNL A   1      43.795  31.839  39.269  1.00  0.00     0.060 A 
BRANCH 106 107
ATOM    107  S   UNL A   1      43.364  31.923  41.021  1.00  0.00     0.124 S 
ATOM    108  O   UNL A   1      44.329  31.005  41.617  1.00  0.00    -0.237 OA
ATOM    109  O   UNL A   1      43.559  33.337  41.331  1.00  0.00    -0.237 OA
ATOM    110  O   UNL A   1      41.973  31.476  41.050  1.00  0.00    -0.744 OA
ENDBRANCH 106 107
ENDBRANCH  74  99
ENDBRANCH  48  49
ENDBRANCH  40  43
ENDBRANCH  38  39
ENDBRANCH  37  38
ENDBRANCH  36  37
ENDBRANCH  35  36
ENDBRANCH   3  35
TORSDOF 22
ENDMDL
MODEL 2
REMARK VINA RESULT:      -9.6      2.757      8.094
REMARK SMILES NS(=O)(=O)c1ccc(-n2nc(C(=O)NCCCC(=O)NCCCCNC(=O)c3ccc(-c4c5nc(c(-c6c(F)cc(S(=O)(=O)[O-])cc6F)c6ccc([nH]6)c(-c6c(F)cc(S(=O)(=O)[O-])cc6F)c6nc(c(-c7c(F)cc(S(=O)(=O)[O-])cc7F)c7ccc4[nH]7)C=C6)C=C5)cc3)cc2-c2ccccc2)cc1
REMARK SMILES IDX 18 1 19 2 20 3 17 5 16 6 15 7 14 8 12 9 13 10 11 12 9 13
REMARK SMILES IDX 10 14 95 15 94 16 8 17 5 18 6 19 103 20 7 21 102 22 2 23
REMARK SMILES IDX 3 24 4 25 1 26 96 29 97 30 101 31 98 32 100 33 99 34 21 35
REMARK SMILES IDX 22 36 23 37 24 38 25 39 26 40 27 42 28 43 29 44 93 45 30 46
REMARK SMILES IDX 92 47 31 48 32 49 33 50 86 51 34 52 91 53 85 54 87 55 35 56
REMARK SMILES IDX 90 57 84 58 83 59 36 61 70 62 49 63 69 64 50 65 53 66 68 67
REMARK SMILES IDX 88 68 51 69 52 70 67 72 89 73 54 74 37 75 38 76 47 77 39 78
REMARK SMILES IDX 40 79 46 80 48 81 41 82 42 83 43 84 44 85 45 86 71 87 72 88
REMARK SMILES IDX 81 89 73 90 74 91 80 92 82 93 75 94 76 95 77 96 78 97 79 98
REMARK SMILES IDX 55 99 56 100 65 101 57 102 58 103 64 104 66 105 59 106
REMARK SMILES IDX 60 107 61 108 62 109 63 110
REMARK H PARENT 20 4 14 11 1 27 1 28 25 41 87 60 53 71
REMARK Flexibility Score: inf
ROOT
ATOM      1  C   UNL A   1      38.244  28.728  29.383  1.00  0.00     0.220 C 
ATOM      2  O   UNL A   1      38.136  27.965  30.345  1.00  0.00    -0.275 OA
ATOM      3  N   UNL A   1      37.712  29.976  29.490  1.00  0.00    -0.356 N 
ATOM      4  H   UNL A   1      37.428  30.224  30.400  1.00  0.00     0.163 HD
ENDROOT
BRANCH   1   5
ATOM      5  C   UNL A   1      38.948  28.278  28.118  1.00  0.00     0.102 C 
BRANCH   5   6
ATOM      6  C   UNL A   1      39.743  26.982  28.284  1.00  0.00     0.031 C 
BRANCH   6   7
ATOM      7  C   UNL A   1      41.184  27.036  27.786  1.00  0.00     0.116 C 
BRANCH   7   8
ATOM      8  N   UNL A   1      41.338  27.718  26.517  1.00  0.00    -0.351 N 
ATOM      9  C   UNL A   1      42.336  27.627  25.570  1.00  0.00     0.271 C 
ATOM     10  O   UNL A   1      42.246  28.373  24.593  1.00  0.00    -0.267 OA
ATOM     11  H   UNL A   1      40.614  28.348  26.295  1.00  0.00     0.163 HD
BRANCH   9  12
ATOM     12  C   UNL A   1      43.459  26.689  25.750  1.00  0.00     0.151 A 
ATOM     13  N   UNL A   1      44.556  24.850  25.594  1.00  0.00    -0.232 N 
ATOM     14  N   UNL A   1      43.442  25.478  25.158  1.00  0.00    -0.162 NA
ATOM     15  C   UNL A   1      45.426  25.736  26.215  1.00  0.00     0.075 A 
ATOM     16  C   UNL A   1      44.665  26.856  26.473  1.00  0.00     0.065 A 
BRANCH  13  17
ATOM     17  C   UNL A   1      44.747  23.459  25.365  1.00  0.00     0.065 A 
ATOM     18  C   UNL A   1      45.158  20.715  25.102  1.00  0.00     0.082 A 
ATOM     19  C   UNL A   1      43.892  21.190  25.442  1.00  0.00     0.024 A 
ATOM     20  C   UNL A   1      46.207  21.603  24.833  1.00  0.00     0.024 A 
ATOM     21  C   UNL A   1      43.689  22.563  25.578  1.00  0.00     0.030 A 
ATOM     22  C   UNL A   1      45.995  22.983  24.942  1.00  0.00     0.030 A 
BRANCH  18  23
ATOM     23  S   UNL A   1      45.487  18.981  25.035  1.00  0.00     0.238 S 
ATOM     24  O   UNL A   1      45.809  18.637  23.661  1.00  0.00    -0.207 OA
ATOM     25  O   UNL A   1      44.491  18.282  25.799  1.00  0.00    -0.207 OA
BRANCH  23  26
ATOM     26  N   UNL A   1      46.929  18.783  25.880  1.00  0.00    -0.225 NA
ATOM     27  H   UNL A   1      47.223  17.807  25.826  1.00  0.00     0.137 HD
ATOM     28  H   UNL A   1      46.788  19.043  26.856  1.00  0.00     0.137 HD
ENDBRANCH  23  26
ENDBRANCH  18  23
ENDBRANCH  13  17
BRANCH  15  29
ATOM     29  C   UNL A   1      46.866  25.550  26.391  1.00  0.00     0.000 A 
ATOM     30  C   UNL A   1      47.751  25.979  25.389  1.00  0.00     0.010 A 
ATOM     31  C   UNL A   1      47.386  25.008  27.570  1.00  0.00     0.010 A 
ATOM     32  C   UNL A   1      49.130  25.847  25.552  1.00  0.00     0.001 A 
ATOM     33  C   UNL A   1      48.768  24.877  27.733  1.00  0.00     0.001 A 
ATOM     34  C   UNL A   1      49.637  25.293  26.724  1.00  0.00     0.000 A 
ENDBRANCH  15  29
ENDBRANCH   9  12
ENDBRANCH   7   8
ENDBRANCH   6   7
ENDBRANCH   5   6
ENDBRANCH   1   5
BRANCH   3  35
ATOM     35  C   UNL A   1      37.495  31.004  28.487  1.00  0.00     0.116 C 
BRANCH  35  36
ATOM     36  C   UNL A   1      37.359  32.385  29.143  1.00  0.00     0.023 C 
BRANCH  36  37
ATOM     37  C   UNL A   1      35.942  32.968  29.183  1.00  0.00     0.023 C 
BRANCH  37  38
ATOM     38  C   UNL A   1      34.991  32.243  30.126  1.00  0.00     0.116 C 
BRANCH  38  39
ATOM     39  N   UNL A   1      34.176  33.159  30.924  1.00  0.00    -0.352 N 
ATOM     40  C   UNL A   1      34.425  33.605  32.207  1.00  0.00     0.251 C 
ATOM     41  H   UNL A   1      33.354  33.495  30.497  1.00  0.00     0.163 HD
ATOM     42  O   UNL A   1      33.527  34.051  32.911  1.00  0.00    -0.269 OA
BRANCH  40  43
ATOM     43  C   UNL A   1      35.805  33.518  32.706  1.00  0.00     0.039 A 
ATOM     44  C   UNL A   1      36.287  32.350  33.304  1.00  0.00     0.014 A 
ATOM     45  C   UNL A   1      36.646  34.595  32.441  1.00  0.00     0.014 A 
ATOM     46  C   UNL A   1      37.655  32.228  33.541  1.00  0.00     0.010 A 
ATOM     47  C   UNL A   1      38.004  34.419  32.555  1.00  0.00     0.010 A 
ATOM     48  C   UNL A   1      38.519  33.254  33.135  1.00  0.00    -0.014 A 
BRANCH  48  49
ATOM     49  C   UNL A   1      39.974  33.087  33.198  1.00  0.00     0.031 A 
ATOM     50  C   UNL A   1      40.711  33.940  34.183  1.00  0.00     0.074 A 
ATOM     51  C   UNL A   1      40.577  32.020  32.629  1.00  0.00     0.049 A 
ATOM     52  N   UNL A   1      41.713  34.730  33.967  1.00  0.00    -0.248 NA
ATOM     53  C   UNL A   1      40.233  33.969  35.575  1.00  0.00     0.031 C 
ATOM     54  C   UNL A   1      39.948  30.925  31.879  1.00  0.00     0.029 A 
ATOM     55  N   UNL A   1      41.866  31.600  32.747  1.00  0.00    -0.354 N 
ATOM     56  C   UNL A   1      42.122  35.206  35.215  1.00  0.00     0.074 A 
ATOM     57  C   UNL A   1      41.083  34.831  36.139  1.00  0.00     0.031 C 
ATOM     58  C   UNL A   1      40.780  29.866  31.852  1.00  0.00     0.029 A 
ATOM     59  C   UNL A   1      42.053  30.261  32.424  1.00  0.00     0.049 A 
ATOM     60  H   UNL A   1      42.600  32.190  33.034  1.00  0.00     0.167 HD
ATOM     61  C   UNL A   1      43.377  35.698  35.428  1.00  0.00     0.037 A 
ATOM     62  C   UNL A   1      43.158  29.510  32.650  1.00  0.00     0.037 A 
ATOM     63  C   UNL A   1      44.039  35.991  34.181  1.00  0.00     0.049 A 
ATOM     64  C   UNL A   1      44.296  30.452  32.803  1.00  0.00     0.074 A 
ATOM     65  C   UNL A   1      43.762  36.809  33.102  1.00  0.00     0.029 A 
ATOM     66  N   UNL A   1      45.012  35.124  33.746  1.00  0.00    -0.354 N 
ATOM     67  N   UNL A   1      44.742  31.212  31.839  1.00  0.00    -0.248 NA
ATOM     68  C   UNL A   1      44.666  30.876  34.144  1.00  0.00     0.031 C 
ATOM     69  C   UNL A   1      44.198  36.073  31.962  1.00  0.00     0.029 A 
ATOM     70  C   UNL A   1      44.767  34.882  32.418  1.00  0.00     0.049 A 
ATOM     71  H   UNL A   1      45.746  34.748  34.284  1.00  0.00     0.167 HD
ATOM     72  C   UNL A   1      45.059  32.415  32.451  1.00  0.00     0.074 A 
ATOM     73  C   UNL A   1      45.107  32.109  33.880  1.00  0.00     0.031 C 
ATOM     74  C   UNL A   1      44.972  33.601  31.777  1.00  0.00     0.037 A 
BRANCH  61  75
ATOM     75  C   UNL A   1      44.152  35.605  36.730  1.00  0.00     0.058 A 
ATOM     76  C   UNL A   1      44.349  34.340  37.331  1.00  0.00     0.135 A 
ATOM     77  C   UNL A   1      44.445  36.712  37.556  1.00  0.00     0.135 A 
ATOM     78  F   UNL A   1      44.122  33.211  36.640  1.00  0.00    -0.206 F 
ATOM     79  C   UNL A   1      44.694  34.190  38.677  1.00  0.00     0.059 A 
ATOM     80  C   UNL A   1      44.844  36.584  38.883  1.00  0.00     0.059 A 
ATOM     81  F   UNL A   1      44.261  37.974  37.152  1.00  0.00    -0.206 F 
ATOM     82  C   UNL A   1      44.910  35.323  39.452  1.00  0.00     0.060 A 
BRANCH  82  83
ATOM     83  S   UNL A   1      45.188  35.147  41.223  1.00  0.00     0.124 S 
ATOM     84  O   UNL A   1      43.823  35.200  41.734  1.00  0.00    -0.237 OA
ATOM     85  O   UNL A   1      45.853  33.851  41.302  1.00  0.00    -0.237 OA
ATOM     86  O   UNL A   1      46.029  36.298  41.545  1.00  0.00    -0.744 OA
ENDBRANCH  82  83
ENDBRANCH  61  75
BRANCH  62  87
ATOM     87  C   UNL A   1      43.217  28.066  32.996  1.00  0.00     0.058 A 
ATOM     88  C   UNL A   1      44.024  27.173  32.272  1.00  0.00     0.135 A 
ATOM     89  C   UNL A   1      42.675  27.570  34.203  1.00  0.00     0.135 A 
ATOM     90  F   UNL A   1      44.601  27.564  31.126  1.00  0.00    -0.206 F 
ATOM     91  C   UNL A   1      44.314  25.884  32.735  1.00  0.00     0.059 A 
ATOM     92  C   UNL A   1      42.932  26.284  34.673  1.00  0.00     0.059 A 
ATOM     93  F   UNL A   1      41.948  28.353  35.015  1.00  0.00    -0.206 F 
ATOM     94  C   UNL A   1      43.776  25.455  33.949  1.00  0.00     0.060 A 
BRANCH  94  95
ATOM     95  S   UNL A   1      44.294  23.870  34.647  1.00  0.00     0.124 S 
ATOM     96  O   UNL A   1      43.031  23.326  35.134  1.00  0.00    -0.237 OA
ATOM     97  O   UNL A   1      44.874  23.198  33.488  1.00  0.00    -0.237 OA
ATOM     98  O   UNL A   1      45.250  24.252  35.683  1.00  0.00    -0.744 OA
ENDBRANCH  94  95
ENDBRANCH  62  87
BRANCH  74  99
ATOM     99  C   UNL A   1      44.802  33.566  30.278  1.00  0.00     0.058 A 
ATOM    100  C   UNL A   1      43.557  33.621  29.625  1.00  0.00     0.135 A 
ATOM    101  C   UNL A   1      45.945  33.659  29.470  1.00  0.00     0.135 A 
ATOM    102  F   UNL A   1      42.415  33.657  30.319  1.00  0.00    -0.206 F 
ATOM    103  C   UNL A   1      43.450  33.715  28.238  1.00  0.00     0.059 A 
ATOM    104  C   UNL A   1      45.863  33.787  28.084  1.00  0.00     0.059 A 
ATOM    105  F   UNL A   1      47.165  33.685  30.032  1.00  0.00    -0.206 F 
ATOM    106  C   UNL A   1      44.611  33.800  27.474  1.00  0.00     0.060 A 
BRANCH 106 107
ATOM    107  S   UNL A   1      44.466  34.016  25.687  1.00  0.00     0.124 S 
ATOM    108  O   UNL A   1      43.160  34.655  25.561  1.00  0.00    -0.237 OA
ATOM    109  O   UNL A   1      45.617  34.858  25.372  1.00  0.00    -0.237 OA
ATOM    110  O   UNL A   1      44.547  32.651  25.172  1.00  0.00    -0.744 OA
ENDBRANCH 106 107
ENDBRANCH  74  99
ENDBRANCH  48  49
ENDBRANCH  40  43
ENDBRANCH  38  39
ENDBRANCH  37  38
ENDBRANCH  36  37
ENDBRANCH  35  36
ENDBRANCH   3  35
TORSDOF 22
ENDMDL
MODEL 3
REMARK VINA RESULT:      -9.6      7.447     13.061
REMARK SMILES NS(=O)(=O)c1ccc(-n2nc(C(=O)NCCCC(=O)NCCCCNC(=O)c3ccc(-c4c5nc(c(-c6c(F)cc(S(=O)(=O)[O-])cc6F)c6ccc([nH]6)c(-c6c(F)cc(S(=O)(=O)[O-])cc6F)c6nc(c(-c7c(F)cc(S(=O)(=O)[O-])cc7F)c7ccc4[nH]7)C=C6)C=C5)cc3)cc2-c2ccccc2)cc1
REMARK SMILES IDX 18 1 19 2 20 3 17 5 16 6 15 7 14 8 12 9 13 10 11 12 9 13
REMARK SMILES IDX 10 14 95 15 94 16 8 17 5 18 6 19 103 20 7 21 102 22 2 23
REMARK SMILES IDX 3 24 4 25 1 26 96 29 97 30 101 31 98 32 100 33 99 34 21 35
REMARK SMILES IDX 22 36 23 37 24 38 25 39 26 40 27 42 28 43 29 44 93 45 30 46
REMARK SMILES IDX 92 47 31 48 32 49 33 50 86 51 34 52 91 53 85 54 87 55 35 56
REMARK SMILES IDX 90 57 84 58 83 59 36 61 70 62 49 63 69 64 50 65 53 66 68 67
REMARK SMILES IDX 88 68 51 69 52 70 67 72 89 73 54 74 37 75 38 76 47 77 39 78
REMARK SMILES IDX 40 79 46 80 48 81 41 82 42 83 43 84 44 85 45 86 71 87 72 88
REMARK SMILES IDX 81 89 73 90 74 91 80 92 82 93 75 94 76 95 77 96 78 97 79 98
REMARK SMILES IDX 55 99 56 100 65 101 57 102 58 103 64 104 66 105 59 106
REMARK SMILES IDX 60 107 61 108 62 109 63 110
REMARK H PARENT 20 4 14 11 1 27 1 28 25 41 87 60 53 71
REMARK Flexibility Score: inf
ROOT
ATOM      1  C   UNL A   1      41.636  39.421  27.059  1.00  0.00     0.220 C 
ATOM      2  O   UNL A   1      41.927  38.301  26.637  1.00  0.00    -0.275 OA
ATOM      3  N   UNL A   1      41.691  39.636  28.402  1.00  0.00    -0.356 N 
ATOM      4  H   UNL A   1      42.125  38.916  28.915  1.00  0.00     0.163 HD
ENDROOT
BRANCH   1   5
ATOM      5  C   UNL A   1      41.224  40.523  26.103  1.00  0.00     0.102 C 
BRANCH   5   6
ATOM      6  C   UNL A   1      42.403  41.308  25.524  1.00  0.00     0.031 C 
BRANCH   6   7
ATOM      7  C   UNL A   1      43.722  41.144  26.271  1.00  0.00     0.116 C 
BRANCH   7   8
ATOM      8  N   UNL A   1      44.150  42.338  26.971  1.00  0.00    -0.351 N 
ATOM      9  C   UNL A   1      44.928  43.393  26.544  1.00  0.00     0.271 C 
ATOM     10  O   UNL A   1      45.189  44.265  27.375  1.00  0.00    -0.267 OA
ATOM     11  H   UNL A   1      43.835  42.407  27.902  1.00  0.00     0.163 HD
BRANCH   9  12
ATOM     12  C   UNL A   1      45.430  43.444  25.159  1.00  0.00     0.151 A 
ATOM     13  N   UNL A   1      45.383  43.787  23.040  1.00  0.00    -0.232 N 
ATOM     14  N   UNL A   1      44.677  43.978  24.176  1.00  0.00    -0.162 NA
ATOM     15  C   UNL A   1      46.690  43.407  23.313  1.00  0.00     0.075 A 
ATOM     16  C   UNL A   1      46.676  43.018  24.636  1.00  0.00     0.065 A 
BRANCH  13  17
ATOM     17  C   UNL A   1      44.790  44.010  21.766  1.00  0.00     0.065 A 
ATOM     18  C   UNL A   1      43.754  44.325  19.198  1.00  0.00     0.082 A 
ATOM     19  C   UNL A   1      43.283  43.291  20.007  1.00  0.00     0.024 A 
ATOM     20  C   UNL A   1      44.696  45.240  19.684  1.00  0.00     0.024 A 
ATOM     21  C   UNL A   1      43.805  43.132  21.289  1.00  0.00     0.030 A 
ATOM     22  C   UNL A   1      45.200  45.097  20.982  1.00  0.00     0.030 A 
BRANCH  18  23
ATOM     23  S   UNL A   1      43.205  44.491  17.528  1.00  0.00     0.238 S 
ATOM     24  O   UNL A   1      44.103  45.406  16.847  1.00  0.00    -0.207 OA
ATOM     25  O   UNL A   1      41.776  44.648  17.515  1.00  0.00    -0.207 OA
BRANCH  23  26
ATOM     26  N   UNL A   1      43.502  42.991  16.826  1.00  0.00    -0.225 NA
ATOM     27  H   UNL A   1      43.792  43.121  15.856  1.00  0.00     0.137 HD
ATOM     28  H   UNL A   1      42.652  42.428  16.854  1.00  0.00     0.137 HD
ENDBRANCH  23  26
ENDBRANCH  18  23
ENDBRANCH  13  17
BRANCH  15  29
ATOM     29  C   UNL A   1      47.837  43.556  22.419  1.00  0.00     0.000 A 
ATOM     30  C   UNL A   1      47.977  42.697  21.317  1.00  0.00     0.010 A 
ATOM     31  C   UNL A   1      48.769  44.582  22.603  1.00  0.00     0.010 A 
ATOM     32  C   UNL A   1      49.042  42.845  20.429  1.00  0.00     0.001 A 
ATOM     33  C   UNL A   1      49.835  44.730  21.712  1.00  0.00     0.001 A 
ATOM     34  C   UNL A   1      49.973  43.861  20.629  1.00  0.00     0.000 A 
ENDBRANCH  15  29
ENDBRANCH   9  12
ENDBRANCH   7   8
ENDBRANCH   6   7
ENDBRANCH   5   6
ENDBRANCH   1   5
BRANCH   3  35
ATOM     35  C   UNL A   1      41.217  40.750  29.206  1.00  0.00     0.116 C 
BRANCH  35  36
ATOM     36  C   UNL A   1      42.311  41.231  30.168  1.00  0.00     0.023 C 
BRANCH  36  37
ATOM     37  C   UNL A   1      41.842  41.602  31.580  1.00  0.00     0.023 C 
BRANCH  37  38
ATOM     38  C   UNL A   1      42.341  40.669  32.673  1.00  0.00     0.116 C 
BRANCH  38  39
ATOM     39  N   UNL A   1      43.796  40.701  32.825  1.00  0.00    -0.352 N 
ATOM     40  C   UNL A   1      44.590  39.799  33.508  1.00  0.00     0.251 C 
ATOM     41  H   UNL A   1      44.263  41.452  32.391  1.00  0.00     0.163 HD
ATOM     42  O   UNL A   1      45.713  40.104  33.889  1.00  0.00    -0.269 OA
BRANCH  40  43
ATOM     43  C   UNL A   1      44.037  38.463  33.771  1.00  0.00     0.039 A 
ATOM     44  C   UNL A   1      43.592  38.101  35.046  1.00  0.00     0.014 A 
ATOM     45  C   UNL A   1      43.855  37.623  32.676  1.00  0.00     0.014 A 
ATOM     46  C   UNL A   1      42.860  36.925  35.197  1.00  0.00     0.010 A 
ATOM     47  C   UNL A   1      43.026  36.536  32.806  1.00  0.00     0.010 A 
ATOM     48  C   UNL A   1      42.550  36.157  34.066  1.00  0.00    -0.014 A 
BRANCH  48  49
ATOM     49  C   UNL A   1      41.632  35.017  34.156  1.00  0.00     0.031 A 
ATOM     50  C   UNL A   1      42.050  33.757  33.465  1.00  0.00     0.074 A 
ATOM     51  C   UNL A   1      40.624  35.003  35.055  1.00  0.00     0.049 A 
ATOM     52  N   UNL A   1      41.392  33.066  32.589  1.00  0.00    -0.248 NA
ATOM     53  C   UNL A   1      43.398  33.229  33.731  1.00  0.00     0.031 C 
ATOM     54  C   UNL A   1      40.267  36.050  36.022  1.00  0.00     0.029 A 
ATOM     55  N   UNL A   1      39.807  33.975  35.412  1.00  0.00    -0.354 N 
ATOM     56  C   UNL A   1      42.147  31.918  32.338  1.00  0.00     0.074 A 
ATOM     57  C   UNL A   1      43.432  32.151  32.944  1.00  0.00     0.031 C 
ATOM     58  C   UNL A   1      39.518  35.514  37.005  1.00  0.00     0.029 A 
ATOM     59  C   UNL A   1      39.200  34.144  36.651  1.00  0.00     0.049 A 
ATOM     60  H   UNL A   1      39.659  33.185  34.846  1.00  0.00     0.167 HD
ATOM     61  C   UNL A   1      41.590  30.783  31.821  1.00  0.00     0.037 A 
ATOM     62  C   UNL A   1      38.520  33.214  37.365  1.00  0.00     0.037 A 
ATOM     63  C   UNL A   1      40.292  31.051  31.256  1.00  0.00     0.049 A 
ATOM     64  C   UNL A   1      38.078  32.172  36.403  1.00  0.00     0.074 A 
ATOM     65  C   UNL A   1      39.817  31.889  30.264  1.00  0.00     0.029 A 
ATOM     66  N   UNL A   1      39.183  30.654  31.963  1.00  0.00    -0.354 N 
ATOM     67  N   UNL A   1      37.214  32.388  35.447  1.00  0.00    -0.248 NA
ATOM     68  C   UNL A   1      38.917  30.998  36.222  1.00  0.00     0.031 C 
ATOM     69  C   UNL A   1      38.553  32.344  30.741  1.00  0.00     0.029 A 
ATOM     70  C   UNL A   1      38.308  31.710  31.961  1.00  0.00     0.049 A 
ATOM     71  H   UNL A   1      39.043  29.779  32.391  1.00  0.00     0.167 HD
ATOM     72  C   UNL A   1      37.689  31.659  34.367  1.00  0.00     0.074 A 
ATOM     73  C   UNL A   1      38.665  30.733  34.938  1.00  0.00     0.031 C 
ATOM     74  C   UNL A   1      37.462  32.064  33.080  1.00  0.00     0.037 A 
BRANCH  61  75
ATOM     75  C   UNL A   1      42.045  29.365  32.116  1.00  0.00     0.058 A 
ATOM     76  C   UNL A   1      42.087  28.914  33.456  1.00  0.00     0.135 A 
ATOM     77  C   UNL A   1      42.717  28.542  31.186  1.00  0.00     0.135 A 
ATOM     78  F   UNL A   1      41.468  29.602  34.429  1.00  0.00    -0.206 F 
ATOM     79  C   UNL A   1      42.834  27.803  33.854  1.00  0.00     0.059 A 
ATOM     80  C   UNL A   1      43.421  27.399  31.554  1.00  0.00     0.059 A 
ATOM     81  F   UNL A   1      42.812  28.858  29.890  1.00  0.00    -0.206 F 
ATOM     82  C   UNL A   1      43.523  27.069  32.896  1.00  0.00     0.060 A 
BRANCH  82  83
ATOM     83  S   UNL A   1      44.621  25.739  33.415  1.00  0.00     0.124 S 
ATOM     84  O   UNL A   1      45.004  25.166  32.130  1.00  0.00    -0.237 OA
ATOM     85  O   UNL A   1      45.665  26.465  34.130  1.00  0.00    -0.237 OA
ATOM     86  O   UNL A   1      43.762  24.903  34.250  1.00  0.00    -0.744 OA
ENDBRANCH  82  83
ENDBRANCH  61  75
BRANCH  62  87
ATOM     87  C   UNL A   1      38.473  33.060  38.842  1.00  0.00     0.058 A 
ATOM     88  C   UNL A   1      37.273  32.764  39.508  1.00  0.00     0.135 A 
ATOM     89  C   UNL A   1      39.652  32.955  39.614  1.00  0.00     0.135 A 
ATOM     90  F   UNL A   1      36.106  32.814  38.849  1.00  0.00    -0.206 F 
ATOM     91  C   UNL A   1      37.243  32.345  40.844  1.00  0.00     0.059 A 
ATOM     92  C   UNL A   1      39.645  32.561  40.950  1.00  0.00     0.059 A 
ATOM     93  F   UNL A   1      40.862  33.144  39.069  1.00  0.00    -0.206 F 
ATOM     94  C   UNL A   1      38.440  32.229  41.552  1.00  0.00     0.060 A 
BRANCH  94  95
ATOM     95  S   UNL A   1      38.432  31.510  43.211  1.00  0.00     0.124 S 
ATOM     96  O   UNL A   1      37.064  31.015  43.320  1.00  0.00    -0.237 OA
ATOM     97  O   UNL A   1      39.474  30.493  43.110  1.00  0.00    -0.237 OA
ATOM     98  O   UNL A   1      38.756  32.644  44.073  1.00  0.00    -0.744 OA
ENDBRANCH  94  95
ENDBRANCH  62  87
BRANCH  74  99
ATOM     99  C   UNL A   1      36.449  33.156  32.838  1.00  0.00     0.058 A 
ATOM    100  C   UNL A   1      36.731  34.530  32.944  1.00  0.00     0.135 A 
ATOM    101  C   UNL A   1      35.198  32.806  32.309  1.00  0.00     0.135 A 
ATOM    102  F   UNL A   1      37.938  34.959  33.327  1.00  0.00    -0.206 F 
ATOM    103  C   UNL A   1      35.803  35.507  32.587  1.00  0.00     0.059 A 
ATOM    104  C   UNL A   1      34.266  33.765  31.914  1.00  0.00     0.059 A 
ATOM    105  F   UNL A   1      34.889  31.512  32.113  1.00  0.00    -0.206 F 
ATOM    106  C   UNL A   1      34.571  35.115  32.070  1.00  0.00     0.060 A 
BRANCH 106 107
ATOM    107  S   UNL A   1      33.409  36.385  31.522  1.00  0.00     0.124 S 
ATOM    108  O   UNL A   1      32.138  35.871  32.021  1.00  0.00    -0.237 OA
ATOM    109  O   UNL A   1      33.912  37.585  32.185  1.00  0.00    -0.237 OA
ATOM    110  O   UNL A   1      33.560  36.379  30.069  1.00  0.00    -0.744 OA
ENDBRANCH 106 107
ENDBRANCH  74  99
ENDBRANCH  48  49
ENDBRANCH  40  43
ENDBRANCH  38  39
ENDBRANCH  37  38
ENDBRANCH  36  37
ENDBRANCH  35  36
ENDBRANCH   3  35
TORSDOF 22
ENDMDL
