MODEL 1
REMARK VINA RESULT:     -12.3      0.000      0.000
REMARK SMILES O=C(NCCCCNC(=O)[C@H]1c2[nH]cnc2CC[N@H+]1Cc1ccoc1)c1ccc(-c2c3nc(c(-c4c(F)cc(S(=O)(=O)[O-])cc4F)c4ccc([nH]4)c(-c4c(F)cc(S(=O)(=O)[O-])cc4F)c4nc(c(-c5c(F)cc(S(=O)(=O)[O-])cc5F)c5ccc2[nH]5)C=C4)C=C3)cc1
REMARK SMILES IDX 5 1 4 2 3 3 1 4 2 5 26 7 27 8 91 9 28 10 90 11 29 12 30 13
REMARK SMILES IDX 31 14 84 15 32 16 89 17 83 18 85 19 33 20 88 21 82 22 81 23
REMARK SMILES IDX 34 25 68 26 47 27 67 28 48 29 51 30 66 31 86 32 49 33 50 34
REMARK SMILES IDX 65 36 87 37 52 38 35 39 36 40 45 41 37 42 38 43 44 44 46 45
REMARK SMILES IDX 39 46 40 47 41 48 42 49 43 50 69 51 70 52 79 53 71 54 72 55
REMARK SMILES IDX 78 56 80 57 73 58 74 59 75 60 76 61 77 62 53 63 54 64 63 65
REMARK SMILES IDX 55 66 56 67 62 68 64 69 57 70 58 71 59 72 60 73 61 74 6 75
REMARK SMILES IDX 7 76 8 77 9 78 10 80 11 81 12 82 19 83 13 84 16 85 18 86
REMARK SMILES IDX 14 88 15 90 17 91 20 92 21 93 22 94 25 95 23 96 24 97
REMARK H PARENT 3 6 85 24 51 35 8 79 19 87 13 89
REMARK Flexibility Score: inf
ROOT
ATOM      1  C   UNL A   1      39.699  22.208  26.537  1.00  0.00     0.023 C 
ENDROOT
BRANCH   1   2
ATOM      2  C   UNL A   1      40.897  21.276  26.336  1.00  0.00     0.116 C 
BRANCH   2   3
ATOM      3  N   UNL A   1      41.873  21.682  25.345  1.00  0.00    -0.352 N 
ATOM      4  O   UNL A   1      43.678  22.547  24.416  1.00  0.00    -0.269 OA
ATOM      5  C   UNL A   1      42.804  22.684  25.277  1.00  0.00     0.251 C 
ATOM      6  H   UNL A   1      41.864  21.111  24.542  1.00  0.00     0.163 HD
BRANCH   5   7
ATOM      7  C   UNL A   1      42.785  23.932  26.088  1.00  0.00     0.039 A 
ATOM      8  C   UNL A   1      43.382  24.094  27.335  1.00  0.00     0.014 A 
ATOM      9  C   UNL A   1      42.037  25.004  25.562  1.00  0.00     0.014 A 
ATOM     10  C   UNL A   1      43.121  25.225  28.103  1.00  0.00     0.010 A 
ATOM     11  C   UNL A   1      41.809  26.157  26.304  1.00  0.00     0.010 A 
ATOM     12  C   UNL A   1      42.309  26.244  27.600  1.00  0.00    -0.014 A 
BRANCH  12  13
ATOM     13  C   UNL A   1      42.153  27.450  28.411  1.00  0.00     0.031 A 
ATOM     14  C   UNL A   1      43.304  28.399  28.332  1.00  0.00     0.074 A 
ATOM     15  C   UNL A   1      41.020  27.777  29.064  1.00  0.00     0.049 A 
ATOM     16  N   UNL A   1      44.076  28.819  29.282  1.00  0.00    -0.248 NA
ATOM     17  C   UNL A   1      43.720  28.839  26.990  1.00  0.00     0.031 C 
ATOM     18  C   UNL A   1      39.718  27.109  28.992  1.00  0.00     0.029 A 
ATOM     19  N   UNL A   1      40.767  28.859  29.856  1.00  0.00    -0.354 N 
ATOM     20  C   UNL A   1      44.944  29.740  28.692  1.00  0.00     0.074 A 
ATOM     21  C   UNL A   1      44.787  29.585  27.271  1.00  0.00     0.031 C 
ATOM     22  C   UNL A   1      38.773  27.923  29.516  1.00  0.00     0.029 A 
ATOM     23  C   UNL A   1      39.416  29.102  30.073  1.00  0.00     0.049 A 
ATOM     24  H   UNL A   1      41.480  29.418  30.240  1.00  0.00     0.167 HD
ATOM     25  C   UNL A   1      45.563  30.714  29.417  1.00  0.00     0.037 A 
ATOM     26  C   UNL A   1      38.864  30.226  30.599  1.00  0.00     0.037 A 
ATOM     27  C   UNL A   1      45.598  30.378  30.818  1.00  0.00     0.049 A 
ATOM     28  C   UNL A   1      39.929  30.938  31.350  1.00  0.00     0.074 A 
ATOM     29  C   UNL A   1      46.119  29.335  31.559  1.00  0.00     0.029 A 
ATOM     30  N   UNL A   1      44.732  31.031  31.662  1.00  0.00    -0.354 N 
ATOM     31  N   UNL A   1      40.487  30.484  32.440  1.00  0.00    -0.248 NA
ATOM     32  C   UNL A   1      40.680  31.968  30.649  1.00  0.00     0.031 C 
ATOM     33  C   UNL A   1      45.182  29.125  32.613  1.00  0.00     0.029 A 
ATOM     34  C   UNL A   1      44.177  30.083  32.479  1.00  0.00     0.049 A 
ATOM     35  H   UNL A   1      44.547  31.998  31.677  1.00  0.00     0.167 HD
ATOM     36  C   UNL A   1      41.821  30.849  32.334  1.00  0.00     0.074 A 
ATOM     37  C   UNL A   1      41.860  31.840  31.263  1.00  0.00     0.031 C 
ATOM     38  C   UNL A   1      42.806  30.119  32.937  1.00  0.00     0.037 A 
BRANCH  25  39
ATOM     39  C   UNL A   1      45.791  32.131  28.922  1.00  0.00     0.058 A 
ATOM     40  C   UNL A   1      44.718  32.829  28.323  1.00  0.00     0.135 A 
ATOM     41  C   UNL A   1      47.067  32.707  28.723  1.00  0.00     0.135 A 
ATOM     42  F   UNL A   1      43.455  32.396  28.465  1.00  0.00    -0.206 F 
ATOM     43  C   UNL A   1      44.912  33.930  27.486  1.00  0.00     0.059 A 
ATOM     44  C   UNL A   1      47.276  33.833  27.934  1.00  0.00     0.059 A 
ATOM     45  F   UNL A   1      48.190  32.158  29.197  1.00  0.00    -0.206 F 
ATOM     46  C   UNL A   1      46.201  34.403  27.274  1.00  0.00     0.060 A 
BRANCH  46  47
ATOM     47  S   UNL A   1      46.478  35.712  26.071  1.00  0.00     0.124 S 
ATOM     48  O   UNL A   1      46.188  35.019  24.821  1.00  0.00    -0.237 OA
ATOM     49  O   UNL A   1      45.505  36.717  26.487  1.00  0.00    -0.237 OA
ATOM     50  O   UNL A   1      47.877  36.074  26.285  1.00  0.00    -0.744 OA
ENDBRANCH  46  47
ENDBRANCH  25  39
BRANCH  26  51
ATOM     51  C   UNL A   1      37.588  30.885  30.209  1.00  0.00     0.058 A 
ATOM     52  C   UNL A   1      36.721  31.439  31.170  1.00  0.00     0.135 A 
ATOM     53  C   UNL A   1      37.324  31.234  28.868  1.00  0.00     0.135 A 
ATOM     54  F   UNL A   1      36.911  31.185  32.474  1.00  0.00    -0.206 F 
ATOM     55  C   UNL A   1      35.686  32.317  30.826  1.00  0.00     0.059 A 
ATOM     56  C   UNL A   1      36.292  32.094  28.500  1.00  0.00     0.059 A 
ATOM     57  F   UNL A   1      38.126  30.819  27.875  1.00  0.00    -0.206 F 
ATOM     58  C   UNL A   1      35.490  32.652  29.487  1.00  0.00     0.060 A 
BRANCH  58  59
ATOM     59  S   UNL A   1      34.264  33.908  29.048  1.00  0.00     0.124 S 
ATOM     60  O   UNL A   1      33.630  34.173  30.335  1.00  0.00    -0.237 OA
ATOM     61  O   UNL A   1      35.095  34.981  28.513  1.00  0.00    -0.237 OA
ATOM     62  O   UNL A   1      33.421  33.229  28.067  1.00  0.00    -0.744 OA
ENDBRANCH  58  59
ENDBRANCH  26  51
BRANCH  38  63
ATOM     63  C   UNL A   1      42.414  29.103  33.975  1.00  0.00     0.058 A 
ATOM     64  C   UNL A   1      41.953  27.806  33.683  1.00  0.00     0.135 A 
ATOM     65  C   UNL A   1      42.674  29.402  35.322  1.00  0.00     0.135 A 
ATOM     66  F   UNL A   1      41.780  27.404  32.416  1.00  0.00    -0.206 F 
ATOM     67  C   UNL A   1      41.728  26.865  34.688  1.00  0.00     0.059 A 
ATOM     68  C   UNL A   1      42.488  28.467  36.337  1.00  0.00     0.059 A 
ATOM     69  F   UNL A   1      43.175  30.602  35.660  1.00  0.00    -0.206 F 
ATOM     70  C   UNL A   1      42.004  27.202  36.013  1.00  0.00     0.060 A 
BRANCH  70  71
ATOM     71  S   UNL A   1      41.811  25.951  37.301  1.00  0.00     0.124 S 
ATOM     72  O   UNL A   1      40.410  26.121  37.686  1.00  0.00    -0.237 OA
ATOM     73  O   UNL A   1      42.120  24.712  36.586  1.00  0.00    -0.237 OA
ATOM     74  O   UNL A   1      42.786  26.338  38.306  1.00  0.00    -0.744 OA
ENDBRANCH  70  71
ENDBRANCH  38  63
ENDBRANCH  12  13
ENDBRANCH   5   7
ENDBRANCH   2   3
ENDBRANCH   1   2
BRANCH   1  75
ATOM     75  C   UNL A   1      38.411  21.864  25.797  1.00  0.00     0.023 C 
BRANCH  75  76
ATOM     76  C   UNL A   1      37.382  22.967  25.652  1.00  0.00     0.116 C 
BRANCH  76  77
ATOM     77  N   UNL A   1      36.201  22.851  26.473  1.00  0.00    -0.351 N 
ATOM     78  C   UNL A   1      35.165  21.968  26.246  1.00  0.00     0.284 C 
ATOM     79  H   UNL A   1      36.130  23.445  27.255  1.00  0.00     0.163 HD
ATOM     80  O   UNL A   1      34.584  21.543  27.247  1.00  0.00    -0.268 OA
BRANCH  78  81
ATOM     81  C   UNL A   1      34.814  21.567  24.767  1.00  0.00     0.324 C 
ATOM     82  C   UNL A   1      34.037  20.293  24.814  1.00  0.00     0.106 A 
ATOM     83  N   UNL A   1      33.959  22.551  24.048  1.00  0.00    -0.315 N 
ATOM     84  N   UNL A   1      34.476  19.001  24.779  1.00  0.00    -0.343 N 
ATOM     85  C   UNL A   1      32.668  20.198  24.851  1.00  0.00     0.074 A 
ATOM     86  C   UNL A   1      32.587  22.694  24.580  1.00  0.00     0.270 C 
ATOM     87  H   UNL A   1      33.815  22.083  23.152  1.00  0.00     0.349 HD
ATOM     88  C   UNL A   1      33.385  18.204  25.002  1.00  0.00     0.197 A 
ATOM     89  H   UNL A   1      35.400  18.699  24.623  1.00  0.00     0.167 HD
ATOM     90  N   UNL A   1      32.267  18.899  25.002  1.00  0.00    -0.241 NA
ATOM     91  C   UNL A   1      31.776  21.365  24.670  1.00  0.00     0.120 C 
BRANCH  83  92
ATOM     92  C   UNL A   1      34.600  23.782  23.594  1.00  0.00     0.303 C 
BRANCH  92  93
ATOM     93  C   UNL A   1      34.035  25.040  24.156  1.00  0.00     0.044 A 
ATOM     94  C   UNL A   1      34.206  25.561  25.472  1.00  0.00     0.051 A 
ATOM     95  C   UNL A   1      33.273  25.987  23.495  1.00  0.00     0.204 A 
ATOM     96  C   UNL A   1      33.481  26.727  25.533  1.00  0.00     0.195 A 
ATOM     97  O   UNL A   1      32.932  27.006  24.324  1.00  0.00    -0.472 OA
ENDBRANCH  92  93
ENDBRANCH  83  92
ENDBRANCH  78  81
ENDBRANCH  76  77
ENDBRANCH  75  76
ENDBRANCH   1  75
TORSDOF 16
ENDMDL
MODEL 2
REMARK VINA RESULT:     -12.2      1.063      1.920
REMARK SMILES O=C(NCCCCNC(=O)[C@H]1c2[nH]cnc2CC[N@H+]1Cc1ccoc1)c1ccc(-c2c3nc(c(-c4c(F)cc(S(=O)(=O)[O-])cc4F)c4ccc([nH]4)c(-c4c(F)cc(S(=O)(=O)[O-])cc4F)c4nc(c(-c5c(F)cc(S(=O)(=O)[O-])cc5F)c5ccc2[nH]5)C=C4)C=C3)cc1
REMARK SMILES IDX 5 1 4 2 3 3 1 4 2 5 26 7 27 8 91 9 28 10 90 11 29 12 30 13
REMARK SMILES IDX 31 14 84 15 32 16 89 17 83 18 85 19 33 20 88 21 82 22 81 23
REMARK SMILES IDX 34 25 68 26 47 27 67 28 48 29 51 30 66 31 86 32 49 33 50 34
REMARK SMILES IDX 65 36 87 37 52 38 35 39 36 40 45 41 37 42 38 43 44 44 46 45
REMARK SMILES IDX 39 46 40 47 41 48 42 49 43 50 69 51 70 52 79 53 71 54 72 55
REMARK SMILES IDX 78 56 80 57 73 58 74 59 75 60 76 61 77 62 53 63 54 64 63 65
REMARK SMILES IDX 55 66 56 67 62 68 64 69 57 70 58 71 59 72 60 73 61 74 6 75
REMARK SMILES IDX 7 76 8 77 9 78 10 80 11 81 12 82 19 83 13 84 16 85 18 86
REMARK SMILES IDX 14 88 15 90 17 91 20 92 21 93 22 94 25 95 23 96 24 97
REMARK H PARENT 3 6 85 24 51 35 8 79 19 87 13 89
REMARK Flexibility Score: inf
ROOT
ATOM      1  C   UNL A   1      39.878  20.227  26.143  1.00  0.00     0.023 C 
ENDROOT
BRANCH   1   2
ATOM      2  C   UNL A   1      41.306  20.157  26.689  1.00  0.00     0.116 C 
BRANCH   2   3
ATOM      3  N   UNL A   1      42.374  20.396  25.738  1.00  0.00    -0.352 N 
ATOM      4  O   UNL A   1      44.283  21.068  24.859  1.00  0.00    -0.269 OA
ATOM      5  C   UNL A   1      43.353  21.347  25.621  1.00  0.00     0.251 C 
ATOM      6  H   UNL A   1      42.400  19.726  25.016  1.00  0.00     0.163 HD
BRANCH   5   7
ATOM      7  C   UNL A   1      43.328  22.690  26.262  1.00  0.00     0.039 A 
ATOM      8  C   UNL A   1      43.969  23.028  27.452  1.00  0.00     0.014 A 
ATOM      9  C   UNL A   1      42.530  23.665  25.634  1.00  0.00     0.014 A 
ATOM     10  C   UNL A   1      43.705  24.243  28.076  1.00  0.00     0.010 A 
ATOM     11  C   UNL A   1      42.298  24.900  26.229  1.00  0.00     0.010 A 
ATOM     12  C   UNL A   1      42.845  25.168  27.480  1.00  0.00    -0.014 A 
BRANCH  12  13
ATOM     13  C   UNL A   1      42.686  26.466  28.133  1.00  0.00     0.031 A 
ATOM     14  C   UNL A   1      43.786  27.437  27.851  1.00  0.00     0.074 A 
ATOM     15  C   UNL A   1      41.582  26.836  28.813  1.00  0.00     0.049 A 
ATOM     16  N   UNL A   1      44.595  28.009  28.682  1.00  0.00    -0.248 NA
ATOM     17  C   UNL A   1      44.096  27.706  26.438  1.00  0.00     0.031 C 
ATOM     18  C   UNL A   1      40.310  26.118  28.919  1.00  0.00     0.029 A 
ATOM     19  N   UNL A   1      41.330  28.005  29.471  1.00  0.00    -0.354 N 
ATOM     20  C   UNL A   1      45.382  28.873  27.918  1.00  0.00     0.074 A 
ATOM     21  C   UNL A   1      45.144  28.522  26.544  1.00  0.00     0.031 C 
ATOM     22  C   UNL A   1      39.364  26.959  29.394  1.00  0.00     0.029 A 
ATOM     23  C   UNL A   1      39.986  28.225  29.745  1.00  0.00     0.049 A 
ATOM     24  H   UNL A   1      42.040  28.637  29.728  1.00  0.00     0.167 HD
ATOM     25  C   UNL A   1      46.001  29.958  28.464  1.00  0.00     0.037 A 
ATOM     26  C   UNL A   1      39.418  29.389  30.154  1.00  0.00     0.037 A 
ATOM     27  C   UNL A   1      46.138  29.816  29.892  1.00  0.00     0.049 A 
ATOM     28  C   UNL A   1      40.495  30.235  30.730  1.00  0.00     0.074 A 
ATOM     29  C   UNL A   1      46.751  28.902  30.727  1.00  0.00     0.029 A 
ATOM     30  N   UNL A   1      45.298  30.544  30.699  1.00  0.00    -0.354 N 
ATOM     31  N   UNL A   1      41.139  29.953  31.830  1.00  0.00    -0.248 NA
ATOM     32  C   UNL A   1      41.153  31.187  29.850  1.00  0.00     0.031 C 
ATOM     33  C   UNL A   1      45.893  28.801  31.860  1.00  0.00     0.029 A 
ATOM     34  C   UNL A   1      44.839  29.695  31.670  1.00  0.00     0.049 A 
ATOM     35  H   UNL A   1      45.071  31.497  30.599  1.00  0.00     0.167 HD
ATOM     36  C   UNL A   1      42.446  30.349  31.586  1.00  0.00     0.074 A 
ATOM     37  C   UNL A   1      42.373  31.187  30.393  1.00  0.00     0.031 C 
ATOM     38  C   UNL A   1      43.499  29.743  32.211  1.00  0.00     0.037 A 
BRANCH  25  39
ATOM     39  C   UNL A   1      46.133  31.302  27.772  1.00  0.00     0.058 A 
ATOM     40  C   UNL A   1      47.385  31.958  27.781  1.00  0.00     0.135 A 
ATOM     41  C   UNL A   1      45.038  32.107  27.384  1.00  0.00     0.135 A 
ATOM     42  F   UNL A   1      48.505  31.293  28.105  1.00  0.00    -0.206 F 
ATOM     43  C   UNL A   1      47.516  33.330  27.554  1.00  0.00     0.059 A 
ATOM     44  C   UNL A   1      45.154  33.464  27.104  1.00  0.00     0.059 A 
ATOM     45  F   UNL A   1      43.782  31.650  27.350  1.00  0.00    -0.206 F 
ATOM     46  C   UNL A   1      46.386  34.078  27.247  1.00  0.00     0.060 A 
BRANCH  46  47
ATOM     47  S   UNL A   1      46.518  35.869  27.117  1.00  0.00     0.124 S 
ATOM     48  O   UNL A   1      47.497  36.160  28.157  1.00  0.00    -0.237 OA
ATOM     49  O   UNL A   1      46.972  36.040  25.742  1.00  0.00    -0.237 OA
ATOM     50  O   UNL A   1      45.156  36.325  27.384  1.00  0.00    -0.744 OA
ENDBRANCH  46  47
ENDBRANCH  25  39
BRANCH  26  51
ATOM     51  C   UNL A   1      38.091  29.943  29.768  1.00  0.00     0.058 A 
ATOM     52  C   UNL A   1      37.234  30.531  30.717  1.00  0.00     0.135 A 
ATOM     53  C   UNL A   1      37.754  30.160  28.416  1.00  0.00     0.135 A 
ATOM     54  F   UNL A   1      37.491  30.401  32.029  1.00  0.00    -0.206 F 
ATOM     55  C   UNL A   1      36.137  31.319  30.348  1.00  0.00     0.059 A 
ATOM     56  C   UNL A   1      36.660  30.928  28.024  1.00  0.00     0.059 A 
ATOM     57  F   UNL A   1      38.537  29.704  27.426  1.00  0.00    -0.206 F 
ATOM     58  C   UNL A   1      35.868  31.526  28.996  1.00  0.00     0.060 A 
BRANCH  58  59
ATOM     59  S   UNL A   1      34.555  32.671  28.508  1.00  0.00     0.124 S 
ATOM     60  O   UNL A   1      33.641  31.792  27.786  1.00  0.00    -0.237 OA
ATOM     61  O   UNL A   1      34.080  33.165  29.796  1.00  0.00    -0.237 OA
ATOM     62  O   UNL A   1      35.253  33.655  27.685  1.00  0.00    -0.744 OA
ENDBRANCH  58  59
ENDBRANCH  26  51
BRANCH  38  63
ATOM     63  C   UNL A   1      43.219  28.862  33.399  1.00  0.00     0.058 A 
ATOM     64  C   UNL A   1      43.105  29.325  34.722  1.00  0.00     0.135 A 
ATOM     65  C   UNL A   1      42.890  27.518  33.160  1.00  0.00     0.135 A 
ATOM     66  F   UNL A   1      43.299  30.617  35.021  1.00  0.00    -0.206 F 
ATOM     67  C   UNL A   1      42.717  28.481  35.763  1.00  0.00     0.059 A 
ATOM     68  C   UNL A   1      42.469  26.667  34.178  1.00  0.00     0.059 A 
ATOM     69  F   UNL A   1      42.918  27.031  31.908  1.00  0.00    -0.206 F 
ATOM     70  C   UNL A   1      42.395  27.154  35.481  1.00  0.00     0.060 A 
BRANCH  70  71
ATOM     71  S   UNL A   1      41.793  26.089  36.811  1.00  0.00     0.124 S 
ATOM     72  O   UNL A   1      42.973  25.975  37.668  1.00  0.00    -0.237 OA
ATOM     73  O   UNL A   1      40.687  26.871  37.365  1.00  0.00    -0.237 OA
ATOM     74  O   UNL A   1      41.399  24.871  36.124  1.00  0.00    -0.744 OA
ENDBRANCH  70  71
ENDBRANCH  38  63
ENDBRANCH  12  13
ENDBRANCH   5   7
ENDBRANCH   2   3
ENDBRANCH   1   2
BRANCH   1  75
ATOM     75  C   UNL A   1      39.248  21.609  26.003  1.00  0.00     0.023 C 
BRANCH  75  76
ATOM     76  C   UNL A   1      37.869  21.679  25.379  1.00  0.00     0.116 C 
BRANCH  76  77
ATOM     77  N   UNL A   1      36.792  22.076  26.254  1.00  0.00    -0.351 N 
ATOM     78  C   UNL A   1      35.483  21.654  26.137  1.00  0.00     0.284 C 
ATOM     79  H   UNL A   1      37.007  22.693  26.990  1.00  0.00     0.163 HD
ATOM     80  O   UNL A   1      34.852  21.544  27.190  1.00  0.00    -0.268 OA
BRANCH  78  81
ATOM     81  C   UNL A   1      34.907  21.341  24.709  1.00  0.00     0.324 C 
ATOM     82  C   UNL A   1      34.042  20.129  24.824  1.00  0.00     0.106 A 
ATOM     83  N   UNL A   1      34.046  22.415  24.142  1.00  0.00    -0.315 N 
ATOM     84  N   UNL A   1      34.367  18.809  24.692  1.00  0.00    -0.343 N 
ATOM     85  C   UNL A   1      32.687  20.136  25.044  1.00  0.00     0.074 A 
ATOM     86  C   UNL A   1      32.773  22.640  24.860  1.00  0.00     0.270 C 
ATOM     87  H   UNL A   1      33.746  21.995  23.261  1.00  0.00     0.349 HD
ATOM     88  C   UNL A   1      33.254  18.089  25.037  1.00  0.00     0.197 A 
ATOM     89  H   UNL A   1      35.235  18.444  24.403  1.00  0.00     0.167 HD
ATOM     90  N   UNL A   1      32.207  18.867  25.210  1.00  0.00    -0.241 NA
ATOM     91  C   UNL A   1      31.877  21.374  25.021  1.00  0.00     0.120 C 
BRANCH  83  92
ATOM     92  C   UNL A   1      34.718  23.610  23.641  1.00  0.00     0.303 C 
BRANCH  92  93
ATOM     93  C   UNL A   1      33.827  24.630  23.021  1.00  0.00     0.044 A 
ATOM     94  C   UNL A   1      33.008  24.483  21.863  1.00  0.00     0.051 A 
ATOM     95  C   UNL A   1      33.574  25.912  23.476  1.00  0.00     0.204 A 
ATOM     96  C   UNL A   1      32.389  25.694  21.661  1.00  0.00     0.195 A 
ATOM     97  O   UNL A   1      32.709  26.560  22.654  1.00  0.00    -0.472 OA
ENDBRANCH  92  93
ENDBRANCH  83  92
ENDBRANCH  78  81
ENDBRANCH  76  77
ENDBRANCH  75  76
ENDBRANCH   1  75
TORSDOF 16
ENDMDL
MODEL 3
REMARK VINA RESULT:     -12.0      2.645      9.157
REMARK SMILES O=C(NCCCCNC(=O)[C@H]1c2[nH]cnc2CC[N@H+]1Cc1ccoc1)c1ccc(-c2c3nc(c(-c4c(F)cc(S(=O)(=O)[O-])cc4F)c4ccc([nH]4)c(-c4c(F)cc(S(=O)(=O)[O-])cc4F)c4nc(c(-c5c(F)cc(S(=O)(=O)[O-])cc5F)c5ccc2[nH]5)C=C4)C=C3)cc1
REMARK SMILES IDX 5 1 4 2 3 3 1 4 2 5 26 7 27 8 91 9 28 10 90 11 29 12 30 13
REMARK SMILES IDX 31 14 84 15 32 16 89 17 83 18 85 19 33 20 88 21 82 22 81 23
REMARK SMILES IDX 34 25 68 26 47 27 67 28 48 29 51 30 66 31 86 32 49 33 50 34
REMARK SMILES IDX 65 36 87 37 52 38 35 39 36 40 45 41 37 42 38 43 44 44 46 45
REMARK SMILES IDX 39 46 40 47 41 48 42 49 43 50 69 51 70 52 79 53 71 54 72 55
REMARK SMILES IDX 78 56 80 57 73 58 74 59 75 60 76 61 77 62 53 63 54 64 63 65
REMARK SMILES IDX 55 66 56 67 62 68 64 69 57 70 58 71 59 72 60 73 61 74 6 75
REMARK SMILES IDX 7 76 8 77 9 78 10 80 11 81 12 82 19 83 13 84 16 85 18 86
REMARK SMILES IDX 14 88 15 90 17 91 20 92 21 93 22 94 25 95 23 96 24 97
REMARK H PARENT 3 6 85 24 51 35 8 79 19 87 13 89
REMARK Flexibility Score: inf
ROOT
ATOM      1  C   UNL A   1      32.214  28.901  26.941  1.00  0.00     0.023 C 
ENDROOT
BRANCH   1   2
ATOM      2  C   UNL A   1      33.220  30.029  26.700  1.00  0.00     0.116 C 
BRANCH   2   3
ATOM      3  N   UNL A   1      33.335  31.027  27.745  1.00  0.00    -0.352 N 
ATOM      4  O   UNL A   1      34.130  32.648  29.014  1.00  0.00    -0.269 OA
ATOM      5  C   UNL A   1      34.389  31.612  28.395  1.00  0.00     0.251 C 
ATOM      6  H   UNL A   1      32.460  31.357  28.056  1.00  0.00     0.163 HD
BRANCH   5   7
ATOM      7  C   UNL A   1      35.766  31.053  28.476  1.00  0.00     0.039 A 
ATOM      8  C   UNL A   1      36.107  29.716  28.286  1.00  0.00     0.014 A 
ATOM      9  C   UNL A   1      36.783  31.955  28.845  1.00  0.00     0.014 A 
ATOM     10  C   UNL A   1      37.384  29.261  28.598  1.00  0.00     0.010 A 
ATOM     11  C   UNL A   1      38.074  31.515  29.115  1.00  0.00     0.010 A 
ATOM     12  C   UNL A   1      38.361  30.155  29.042  1.00  0.00    -0.014 A 
BRANCH  12  13
ATOM     13  C   UNL A   1      39.709  29.635  29.258  1.00  0.00     0.031 A 
ATOM     14  C   UNL A   1      40.067  29.429  30.694  1.00  0.00     0.074 A 
ATOM     15  C   UNL A   1      40.527  29.227  28.268  1.00  0.00     0.049 A 
ATOM     16  N   UNL A   1      41.023  29.969  31.378  1.00  0.00    -0.248 NA
ATOM     17  C   UNL A   1      39.156  28.599  31.499  1.00  0.00     0.031 C 
ATOM     18  C   UNL A   1      40.211  29.083  26.845  1.00  0.00     0.029 A 
ATOM     19  N   UNL A   1      41.800  28.743  28.349  1.00  0.00    -0.354 N 
ATOM     20  C   UNL A   1      40.964  29.389  32.646  1.00  0.00     0.074 A 
ATOM     21  C   UNL A   1      39.709  28.688  32.708  1.00  0.00     0.031 C 
ATOM     22  C   UNL A   1      41.171  28.341  26.249  1.00  0.00     0.029 A 
ATOM     23  C   UNL A   1      42.227  28.069  27.211  1.00  0.00     0.049 A 
ATOM     24  H   UNL A   1      42.367  28.861  29.146  1.00  0.00     0.167 HD
ATOM     25  C   UNL A   1      42.049  29.342  33.470  1.00  0.00     0.037 A 
ATOM     26  C   UNL A   1      43.327  27.280  27.095  1.00  0.00     0.037 A 
ATOM     27  C   UNL A   1      43.029  30.331  33.097  1.00  0.00     0.049 A 
ATOM     28  C   UNL A   1      44.253  27.639  28.200  1.00  0.00     0.074 A 
ATOM     29  C   UNL A   1      43.030  31.708  32.982  1.00  0.00     0.029 A 
ATOM     30  N   UNL A   1      44.161  29.907  32.444  1.00  0.00    -0.354 N 
ATOM     31  N   UNL A   1      44.865  28.788  28.300  1.00  0.00    -0.248 NA
ATOM     32  C   UNL A   1      44.170  26.868  29.431  1.00  0.00     0.031 C 
ATOM     33  C   UNL A   1      43.871  31.986  31.865  1.00  0.00     0.029 A 
ATOM     34  C   UNL A   1      44.369  30.768  31.400  1.00  0.00     0.049 A 
ATOM     35  H   UNL A   1      44.719  29.132  32.684  1.00  0.00     0.167 HD
ATOM     36  C   UNL A   1      44.865  29.072  29.657  1.00  0.00     0.074 A 
ATOM     37  C   UNL A   1      44.512  27.814  30.309  1.00  0.00     0.031 C 
ATOM     38  C   UNL A   1      44.884  30.360  30.112  1.00  0.00     0.037 A 
BRANCH  25  39
ATOM     39  C   UNL A   1      42.394  28.162  34.361  1.00  0.00     0.058 A 
ATOM     40  C   UNL A   1      42.435  28.350  35.761  1.00  0.00     0.135 A 
ATOM     41  C   UNL A   1      42.983  26.963  33.898  1.00  0.00     0.135 A 
ATOM     42  F   UNL A   1      41.883  29.436  36.324  1.00  0.00    -0.206 F 
ATOM     43  C   UNL A   1      43.122  27.484  36.614  1.00  0.00     0.059 A 
ATOM     44  C   UNL A   1      43.628  26.062  34.738  1.00  0.00     0.059 A 
ATOM     45  F   UNL A   1      43.054  26.646  32.602  1.00  0.00    -0.206 F 
ATOM     46  C   UNL A   1      43.743  26.359  36.085  1.00  0.00     0.060 A 
BRANCH  46  47
ATOM     47  S   UNL A   1      44.768  25.329  37.147  1.00  0.00     0.124 S 
ATOM     48  O   UNL A   1      44.493  24.001  36.611  1.00  0.00    -0.237 OA
ATOM     49  O   UNL A   1      46.101  25.861  36.888  1.00  0.00    -0.237 OA
ATOM     50  O   UNL A   1      44.240  25.595  38.482  1.00  0.00    -0.744 OA
ENDBRANCH  46  47
ENDBRANCH  25  39
BRANCH  26  51
ATOM     51  C   UNL A   1      43.470  26.022  26.313  1.00  0.00     0.058 A 
ATOM     52  C   UNL A   1      44.542  25.827  25.422  1.00  0.00     0.135 A 
ATOM     53  C   UNL A   1      42.715  24.874  26.628  1.00  0.00     0.135 A 
ATOM     54  F   UNL A   1      45.334  26.857  25.085  1.00  0.00    -0.206 F 
ATOM     55  C   UNL A   1      44.870  24.565  24.911  1.00  0.00     0.059 A 
ATOM     56  C   UNL A   1      43.013  23.611  26.121  1.00  0.00     0.059 A 
ATOM     57  F   UNL A   1      41.712  24.928  27.518  1.00  0.00    -0.206 F 
ATOM     58  C   UNL A   1      44.108  23.458  25.281  1.00  0.00     0.060 A 
BRANCH  58  59
ATOM     59  S   UNL A   1      44.619  21.803  24.759  1.00  0.00     0.124 S 
ATOM     60  O   UNL A   1      44.606  21.929  23.305  1.00  0.00    -0.237 OA
ATOM     61  O   UNL A   1      45.934  21.674  25.376  1.00  0.00    -0.237 OA
ATOM     62  O   UNL A   1      43.584  20.937  25.317  1.00  0.00    -0.744 OA
ENDBRANCH  58  59
ENDBRANCH  26  51
BRANCH  38  63
ATOM     63  C   UNL A   1      45.225  31.459  29.143  1.00  0.00     0.058 A 
ATOM     64  C   UNL A   1      46.534  31.839  28.800  1.00  0.00     0.135 A 
ATOM     65  C   UNL A   1      44.177  32.038  28.408  1.00  0.00     0.135 A 
ATOM     66  F   UNL A   1      47.595  31.258  29.378  1.00  0.00    -0.206 F 
ATOM     67  C   UNL A   1      46.788  32.777  27.798  1.00  0.00     0.059 A 
ATOM     68  C   UNL A   1      44.408  32.951  27.383  1.00  0.00     0.059 A 
ATOM     69  F   UNL A   1      42.906  31.670  28.645  1.00  0.00    -0.206 F 
ATOM     70  C   UNL A   1      45.718  33.324  27.090  1.00  0.00     0.060 A 
BRANCH  70  71
ATOM     71  S   UNL A   1      46.051  34.460  25.726  1.00  0.00     0.124 S 
ATOM     72  O   UNL A   1      47.481  34.253  25.497  1.00  0.00    -0.237 OA
ATOM     73  O   UNL A   1      45.167  33.956  24.673  1.00  0.00    -0.237 OA
ATOM     74  O   UNL A   1      45.685  35.760  26.262  1.00  0.00    -0.744 OA
ENDBRANCH  70  71
ENDBRANCH  38  63
ENDBRANCH  12  13
ENDBRANCH   5   7
ENDBRANCH   2   3
ENDBRANCH   1   2
BRANCH   1  75
ATOM     75  C   UNL A   1      31.833  28.035  25.745  1.00  0.00     0.023 C 
BRANCH  75  76
ATOM     76  C   UNL A   1      32.961  27.551  24.856  1.00  0.00     0.116 C 
BRANCH  76  77
ATOM     77  N   UNL A   1      32.590  26.661  23.782  1.00  0.00    -0.351 N 
ATOM     78  C   UNL A   1      32.228  25.339  23.941  1.00  0.00     0.284 C 
ATOM     79  H   UNL A   1      32.594  27.024  22.867  1.00  0.00     0.163 HD
ATOM     80  O   UNL A   1      31.401  24.901  23.139  1.00  0.00    -0.268 OA
BRANCH  78  81
ATOM     81  C   UNL A   1      32.870  24.507  25.110  1.00  0.00     0.324 C 
ATOM     82  C   UNL A   1      31.778  23.731  25.769  1.00  0.00     0.106 A 
ATOM     83  N   UNL A   1      33.885  23.509  24.672  1.00  0.00    -0.315 N 
ATOM     84  N   UNL A   1      30.970  24.076  26.814  1.00  0.00    -0.343 N 
ATOM     85  C   UNL A   1      31.413  22.446  25.452  1.00  0.00     0.074 A 
ATOM     86  C   UNL A   1      33.354  22.394  23.859  1.00  0.00     0.270 C 
ATOM     87  H   UNL A   1      34.127  23.060  25.557  1.00  0.00     0.349 HD
ATOM     88  C   UNL A   1      30.036  23.082  26.939  1.00  0.00     0.197 A 
ATOM     89  H   UNL A   1      31.044  24.884  27.371  1.00  0.00     0.167 HD
ATOM     90  N   UNL A   1      30.308  22.058  26.158  1.00  0.00    -0.241 NA
ATOM     91  C   UNL A   1      32.188  21.598  24.519  1.00  0.00     0.120 C 
BRANCH  83  92
ATOM     92  C   UNL A   1      35.194  24.022  24.277  1.00  0.00     0.303 C 
BRANCH  92  93
ATOM     93  C   UNL A   1      36.362  23.266  24.808  1.00  0.00     0.044 A 
ATOM     94  C   UNL A   1      36.803  21.964  24.428  1.00  0.00     0.051 A 
ATOM     95  C   UNL A   1      37.289  23.698  25.739  1.00  0.00     0.204 A 
ATOM     96  C   UNL A   1      37.902  21.678  25.203  1.00  0.00     0.195 A 
ATOM     97  O   UNL A   1      38.219  22.740  25.985  1.00  0.00    -0.472 OA
ENDBRANCH  92  93
ENDBRANCH  83  92
ENDBRANCH  78  81
ENDBRANCH  76  77
ENDBRANCH  75  76
ENDBRANCH   1  75
TORSDOF 16
ENDMDL
