MODEL 1
REMARK VINA RESULT:     -11.7      0.000      0.000
REMARK SMILES COc1cccc(CC(=O)N[C@@](C)(C(=O)NCCCCNC(=O)c2ccc(-c3c4nc(c(-c5c(F)cc(S(=O)(=O)[O-])cc5F)c5ccc([nH]5)c(-c5c(F)cc(S(=O)(=O)[O-])cc5F)c5nc(c(-c6c(F)cc(S(=O)(=O)[O-])cc6F)c6ccc3[nH]6)C=C5)C=C4)cc2)C(F)(F)F)c1
REMARK SMILES IDX 18 1 17 2 16 3 14 4 15 5 12 7 13 8 11 9 9 10 10 11 8 13 7 14
REMARK SMILES IDX 3 15 4 16 94 17 5 18 6 19 2 20 1 21 90 22 91 23 92 24 93 25
REMARK SMILES IDX 19 26 20 27 21 28 22 29 23 31 24 32 25 33 89 34 26 35 88 36
REMARK SMILES IDX 27 37 28 38 29 39 82 40 30 41 87 42 81 43 83 44 31 45 86 46
REMARK SMILES IDX 80 47 79 48 32 50 66 51 45 52 65 53 46 54 49 55 64 56 84 57
REMARK SMILES IDX 47 58 48 59 63 61 85 62 50 63 33 64 34 65 43 66 35 67 36 68
REMARK SMILES IDX 42 69 44 70 37 71 38 72 39 73 40 74 41 75 67 76 68 77 77 78
REMARK SMILES IDX 69 79 70 80 76 81 78 82 71 83 72 84 73 85 74 86 75 87 51 88
REMARK SMILES IDX 52 89 61 90 53 91 54 92 60 93 62 94 55 95 56 96 57 97 58 98
REMARK SMILES IDX 59 99
REMARK H PARENT 16 6 11 12 21 30 83 49 49 60
REMARK Flexibility Score: inf
ROOT
ATOM      1  C   UNL A   1      34.892  29.800  27.237  1.00  0.00     0.023 C 
ENDROOT
BRANCH   1   2
ATOM      2  C   UNL A   1      33.567  29.216  26.757  1.00  0.00     0.116 C 
BRANCH   2   3
ATOM      3  N   UNL A   1      33.351  29.501  25.351  1.00  0.00    -0.354 N 
ATOM      4  C   UNL A   1      33.048  28.731  24.272  1.00  0.00     0.254 C 
ATOM      5  O   UNL A   1      33.191  29.297  23.184  1.00  0.00    -0.272 OA
ATOM      6  H   UNL A   1      33.443  30.457  25.130  1.00  0.00     0.163 HD
BRANCH   4   7
ATOM      7  C   UNL A   1      32.680  27.237  24.381  1.00  0.00     0.212 C 
ATOM      8  C   UNL A   1      33.528  26.495  25.433  1.00  0.00     0.056 C 
BRANCH   7   9
ATOM      9  N   UNL A   1      32.963  26.702  23.004  1.00  0.00    -0.334 N 
ATOM     10  C   UNL A   1      33.060  25.509  22.376  1.00  0.00     0.225 C 
ATOM     11  O   UNL A   1      33.523  25.550  21.228  1.00  0.00    -0.275 OA
ATOM     12  H   UNL A   1      33.126  27.440  22.372  1.00  0.00     0.164 HD
BRANCH  10  13
ATOM     13  C   UNL A   1      32.594  24.191  22.949  1.00  0.00     0.135 C 
BRANCH  13  14
ATOM     14  C   UNL A   1      33.694  23.293  23.444  1.00  0.00    -0.035 A 
ATOM     15  C   UNL A   1      34.323  21.242  24.581  1.00  0.00     0.119 A 
ATOM     16  C   UNL A   1      35.645  21.685  24.626  1.00  0.00     0.046 A 
ATOM     17  C   UNL A   1      33.369  22.011  23.919  1.00  0.00     0.050 A 
ATOM     18  C   UNL A   1      36.003  22.903  24.046  1.00  0.00     0.004 A 
ATOM     19  C   UNL A   1      35.030  23.709  23.462  1.00  0.00     0.004 A 
BRANCH  15  20
ATOM     20  O   UNL A   1      34.066  20.074  25.249  1.00  0.00    -0.497 OA
ATOM     21  C   UNL A   1      33.652  18.970  24.448  1.00  0.00     0.278 C 
ENDBRANCH  15  20
ENDBRANCH  13  14
ENDBRANCH  10  13
ENDBRANCH   7   9
BRANCH   7  22
ATOM     22  C   UNL A   1      31.238  27.262  24.938  1.00  0.00     0.420 C 
ATOM     23  F   UNL A   1      31.152  27.714  26.205  1.00  0.00    -0.168 F 
ATOM     24  F   UNL A   1      30.456  28.054  24.172  1.00  0.00    -0.168 F 
ATOM     25  F   UNL A   1      30.630  26.051  24.880  1.00  0.00    -0.168 F 
ENDBRANCH   7  22
ENDBRANCH   4   7
ENDBRANCH   2   3
ENDBRANCH   1   2
BRANCH   1  26
ATOM     26  C   UNL A   1      34.814  31.241  27.745  1.00  0.00     0.023 C 
BRANCH  26  27
ATOM     27  C   UNL A   1      35.930  31.653  28.697  1.00  0.00     0.116 C 
BRANCH  27  28
ATOM     28  N   UNL A   1      35.740  31.135  30.041  1.00  0.00    -0.352 N 
ATOM     29  C   UNL A   1      36.604  30.392  30.811  1.00  0.00     0.251 C 
ATOM     30  H   UNL A   1      34.872  31.344  30.458  1.00  0.00     0.163 HD
ATOM     31  O   UNL A   1      36.224  29.911  31.869  1.00  0.00    -0.269 OA
BRANCH  29  32
ATOM     32  C   UNL A   1      37.980  30.157  30.325  1.00  0.00     0.039 A 
ATOM     33  C   UNL A   1      39.008  30.016  31.260  1.00  0.00     0.014 A 
ATOM     34  C   UNL A   1      38.242  30.040  28.958  1.00  0.00     0.014 A 
ATOM     35  C   UNL A   1      40.293  29.691  30.821  1.00  0.00     0.010 A 
ATOM     36  C   UNL A   1      39.504  29.643  28.531  1.00  0.00     0.010 A 
ATOM     37  C   UNL A   1      40.544  29.466  29.457  1.00  0.00    -0.014 A 
BRANCH  37  38
ATOM     38  C   UNL A   1      41.885  29.039  28.982  1.00  0.00     0.031 A 
ATOM     39  C   UNL A   1      43.002  30.040  28.882  1.00  0.00     0.074 A 
ATOM     40  C   UNL A   1      42.073  27.770  28.573  1.00  0.00     0.049 A 
ATOM     41  N   UNL A   1      44.220  29.875  28.434  1.00  0.00    -0.248 NA
ATOM     42  C   UNL A   1      42.703  31.414  29.316  1.00  0.00     0.031 C 
ATOM     43  C   UNL A   1      41.048  26.723  28.563  1.00  0.00     0.029 A 
ATOM     44  N   UNL A   1      43.188  27.146  28.072  1.00  0.00    -0.354 N 
ATOM     45  C   UNL A   1      44.824  31.124  28.512  1.00  0.00     0.074 A 
ATOM     46  C   UNL A   1      43.824  32.047  29.001  1.00  0.00     0.031 C 
ATOM     47  C   UNL A   1      41.588  25.584  28.099  1.00  0.00     0.029 A 
ATOM     48  C   UNL A   1      42.983  25.826  27.747  1.00  0.00     0.049 A 
ATOM     49  H   UNL A   1      44.054  27.601  27.957  1.00  0.00     0.167 HD
ATOM     50  C   UNL A   1      46.102  31.467  28.223  1.00  0.00     0.037 A 
ATOM     51  C   UNL A   1      43.823  24.914  27.220  1.00  0.00     0.037 A 
ATOM     52  C   UNL A   1      47.100  30.536  27.764  1.00  0.00     0.049 A 
ATOM     53  C   UNL A   1      45.244  25.309  26.930  1.00  0.00     0.074 A 
ATOM     54  C   UNL A   1      48.441  30.765  27.515  1.00  0.00     0.029 A 
ATOM     55  N   UNL A   1      46.864  29.198  27.480  1.00  0.00    -0.354 N 
ATOM     56  N   UNL A   1      45.822  26.477  27.083  1.00  0.00    -0.248 NA
ATOM     57  C   UNL A   1      46.132  24.262  26.403  1.00  0.00     0.031 C 
ATOM     58  C   UNL A   1      49.008  29.577  27.039  1.00  0.00     0.029 A 
ATOM     59  C   UNL A   1      48.030  28.594  27.037  1.00  0.00     0.049 A 
ATOM     60  H   UNL A   1      45.996  28.745  27.577  1.00  0.00     0.167 HD
ATOM     61  C   UNL A   1      47.145  26.301  26.693  1.00  0.00     0.074 A 
ATOM     62  C   UNL A   1      47.285  24.911  26.310  1.00  0.00     0.031 C 
ATOM     63  C   UNL A   1      48.153  27.208  26.658  1.00  0.00     0.037 A 
BRANCH  50  64
ATOM     64  C   UNL A   1      46.489  32.910  28.396  1.00  0.00     0.058 A 
ATOM     65  C   UNL A   1      46.975  33.403  29.618  1.00  0.00     0.135 A 
ATOM     66  C   UNL A   1      46.384  33.811  27.324  1.00  0.00     0.135 A 
ATOM     67  F   UNL A   1      47.083  32.589  30.680  1.00  0.00    -0.206 F 
ATOM     68  C   UNL A   1      47.304  34.744  29.783  1.00  0.00     0.059 A 
ATOM     69  C   UNL A   1      46.735  35.151  27.458  1.00  0.00     0.059 A 
ATOM     70  F   UNL A   1      45.927  33.394  26.132  1.00  0.00    -0.206 F 
ATOM     71  C   UNL A   1      47.175  35.612  28.697  1.00  0.00     0.060 A 
BRANCH  71  72
ATOM     72  S   UNL A   1      47.589  37.354  28.932  1.00  0.00     0.124 S 
ATOM     73  O   UNL A   1      47.822  37.405  30.373  1.00  0.00    -0.237 OA
ATOM     74  O   UNL A   1      48.773  37.510  28.094  1.00  0.00    -0.237 OA
ATOM     75  O   UNL A   1      46.396  38.053  28.464  1.00  0.00    -0.744 OA
ENDBRANCH  71  72
ENDBRANCH  50  64
BRANCH  51  76
ATOM     76  C   UNL A   1      43.341  23.530  26.965  1.00  0.00     0.058 A 
ATOM     77  C   UNL A   1      43.038  23.101  25.665  1.00  0.00     0.135 A 
ATOM     78  C   UNL A   1      43.214  22.600  28.008  1.00  0.00     0.135 A 
ATOM     79  F   UNL A   1      43.139  23.955  24.636  1.00  0.00    -0.206 F 
ATOM     80  C   UNL A   1      42.619  21.800  25.407  1.00  0.00     0.059 A 
ATOM     81  C   UNL A   1      42.819  21.286  27.772  1.00  0.00     0.059 A 
ATOM     82  F   UNL A   1      43.510  22.958  29.268  1.00  0.00    -0.206 F 
ATOM     83  C   UNL A   1      42.519  20.897  26.467  1.00  0.00     0.060 A 
BRANCH  83  84
ATOM     84  S   UNL A   1      42.046  19.191  26.110  1.00  0.00     0.124 S 
ATOM     85  O   UNL A   1      42.873  18.895  24.946  1.00  0.00    -0.237 OA
ATOM     86  O   UNL A   1      42.411  18.506  27.346  1.00  0.00    -0.237 OA
ATOM     87  O   UNL A   1      40.611  19.288  25.858  1.00  0.00    -0.744 OA
ENDBRANCH  83  84
ENDBRANCH  51  76
BRANCH  63  88
ATOM     88  C   UNL A   1      49.504  26.723  26.214  1.00  0.00     0.058 A 
ATOM     89  C   UNL A   1      49.974  26.940  24.909  1.00  0.00     0.135 A 
ATOM     90  C   UNL A   1      50.363  26.080  27.121  1.00  0.00     0.135 A 
ATOM     91  F   UNL A   1      49.190  27.545  24.001  1.00  0.00    -0.206 F 
ATOM     92  C   UNL A   1      51.237  26.517  24.512  1.00  0.00     0.059 A 
ATOM     93  C   UNL A   1      51.640  25.672  26.754  1.00  0.00     0.059 A 
ATOM     94  F   UNL A   1      49.966  25.857  28.384  1.00  0.00    -0.206 F 
ATOM     95  C   UNL A   1      52.065  25.884  25.443  1.00  0.00     0.060 A 
BRANCH  95  96
ATOM     96  S   UNL A   1      53.716  25.369  24.926  1.00  0.00     0.124 S 
ATOM     97  O   UNL A   1      54.536  25.860  26.028  1.00  0.00    -0.237 OA
ATOM     98  O   UNL A   1      53.578  23.919  24.836  1.00  0.00    -0.237 OA
ATOM     99  O   UNL A   1      53.901  26.055  23.650  1.00  0.00    -0.744 OA
ENDBRANCH  95  96
ENDBRANCH  63  88
ENDBRANCH  37  38
ENDBRANCH  29  32
ENDBRANCH  27  28
ENDBRANCH  26  27
ENDBRANCH   1  26
TORSDOF 19
ENDMDL
MODEL 2
REMARK VINA RESULT:     -11.6      2.574      8.671
REMARK SMILES COc1cccc(CC(=O)N[C@@](C)(C(=O)NCCCCNC(=O)c2ccc(-c3c4nc(c(-c5c(F)cc(S(=O)(=O)[O-])cc5F)c5ccc([nH]5)c(-c5c(F)cc(S(=O)(=O)[O-])cc5F)c5nc(c(-c6c(F)cc(S(=O)(=O)[O-])cc6F)c6ccc3[nH]6)C=C5)C=C4)cc2)C(F)(F)F)c1
REMARK SMILES IDX 18 1 17 2 16 3 14 4 15 5 12 7 13 8 11 9 9 10 10 11 8 13 7 14
REMARK SMILES IDX 3 15 4 16 94 17 5 18 6 19 2 20 1 21 90 22 91 23 92 24 93 25
REMARK SMILES IDX 19 26 20 27 21 28 22 29 23 31 24 32 25 33 89 34 26 35 88 36
REMARK SMILES IDX 27 37 28 38 29 39 82 40 30 41 87 42 81 43 83 44 31 45 86 46
REMARK SMILES IDX 80 47 79 48 32 50 66 51 45 52 65 53 46 54 49 55 64 56 84 57
REMARK SMILES IDX 47 58 48 59 63 61 85 62 50 63 33 64 34 65 43 66 35 67 36 68
REMARK SMILES IDX 42 69 44 70 37 71 38 72 39 73 40 74 41 75 67 76 68 77 77 78
REMARK SMILES IDX 69 79 70 80 76 81 78 82 71 83 72 84 73 85 74 86 75 87 51 88
REMARK SMILES IDX 52 89 61 90 53 91 54 92 60 93 62 94 55 95 56 96 57 97 58 98
REMARK SMILES IDX 59 99
REMARK H PARENT 16 6 11 12 21 30 83 49 49 60
REMARK Flexibility Score: inf
ROOT
ATOM      1  C   UNL A   1      37.339  21.166  24.677  1.00  0.00     0.023 C 
ENDROOT
BRANCH   1   2
ATOM      2  C   UNL A   1      36.312  21.507  25.751  1.00  0.00     0.116 C 
BRANCH   2   3
ATOM      3  N   UNL A   1      35.199  20.575  25.723  1.00  0.00    -0.354 N 
ATOM      4  C   UNL A   1      33.849  20.727  25.657  1.00  0.00     0.254 C 
ATOM      5  O   UNL A   1      33.208  19.702  25.908  1.00  0.00    -0.272 OA
ATOM      6  H   UNL A   1      35.482  19.633  25.759  1.00  0.00     0.163 HD
BRANCH   4   7
ATOM      7  C   UNL A   1      33.167  22.088  25.415  1.00  0.00     0.212 C 
ATOM      8  C   UNL A   1      31.646  21.957  25.201  1.00  0.00     0.056 C 
BRANCH   7   9
ATOM      9  N   UNL A   1      33.831  22.599  24.166  1.00  0.00    -0.334 N 
ATOM     10  C   UNL A   1      34.138  23.782  23.587  1.00  0.00     0.225 C 
ATOM     11  O   UNL A   1      34.530  23.714  22.415  1.00  0.00    -0.275 OA
ATOM     12  H   UNL A   1      34.132  21.850  23.602  1.00  0.00     0.164 HD
BRANCH  10  13
ATOM     13  C   UNL A   1      34.093  25.122  24.285  1.00  0.00     0.135 C 
BRANCH  13  14
ATOM     14  C   UNL A   1      32.711  25.642  24.567  1.00  0.00    -0.035 A 
ATOM     15  C   UNL A   1      31.203  26.748  26.116  1.00  0.00     0.119 A 
ATOM     16  C   UNL A   1      30.128  26.409  25.294  1.00  0.00     0.046 A 
ATOM     17  C   UNL A   1      32.498  26.433  25.709  1.00  0.00     0.050 A 
ATOM     18  C   UNL A   1      30.341  25.730  24.093  1.00  0.00     0.004 A 
ATOM     19  C   UNL A   1      31.629  25.341  23.732  1.00  0.00     0.004 A 
BRANCH  15  20
ATOM     20  O   UNL A   1      30.876  27.340  27.306  1.00  0.00    -0.497 OA
ATOM     21  C   UNL A   1      31.606  28.517  27.644  1.00  0.00     0.278 C 
ENDBRANCH  15  20
ENDBRANCH  13  14
ENDBRANCH  10  13
ENDBRANCH   7   9
BRANCH   7  22
ATOM     22  C   UNL A   1      33.345  22.823  26.763  1.00  0.00     0.420 C 
ATOM     23  F   UNL A   1      32.299  23.605  27.099  1.00  0.00    -0.168 F 
ATOM     24  F   UNL A   1      33.520  21.931  27.761  1.00  0.00    -0.168 F 
ATOM     25  F   UNL A   1      34.469  23.581  26.804  1.00  0.00    -0.168 F 
ENDBRANCH   7  22
ENDBRANCH   4   7
ENDBRANCH   2   3
ENDBRANCH   1   2
BRANCH   1  26
ATOM     26  C   UNL A   1      38.254  19.986  25.011  1.00  0.00     0.023 C 
BRANCH  26  27
ATOM     27  C   UNL A   1      39.501  20.340  25.812  1.00  0.00     0.116 C 
BRANCH  27  28
ATOM     28  N   UNL A   1      40.412  19.217  25.955  1.00  0.00    -0.352 N 
ATOM     29  C   UNL A   1      41.768  19.229  26.182  1.00  0.00     0.251 C 
ATOM     30  H   UNL A   1      40.002  18.325  25.877  1.00  0.00     0.163 HD
ATOM     31  O   UNL A   1      42.409  18.189  26.129  1.00  0.00    -0.269 OA
BRANCH  29  32
ATOM     32  C   UNL A   1      42.441  20.516  26.458  1.00  0.00     0.039 A 
ATOM     33  C   UNL A   1      43.115  21.159  25.418  1.00  0.00     0.014 A 
ATOM     34  C   UNL A   1      42.372  21.098  27.727  1.00  0.00     0.014 A 
ATOM     35  C   UNL A   1      43.666  22.424  25.637  1.00  0.00     0.010 A 
ATOM     36  C   UNL A   1      42.855  22.387  27.920  1.00  0.00     0.010 A 
ATOM     37  C   UNL A   1      43.509  23.063  26.877  1.00  0.00    -0.014 A 
BRANCH  37  38
ATOM     38  C   UNL A   1      44.017  24.441  27.102  1.00  0.00     0.031 A 
ATOM     39  C   UNL A   1      43.070  25.536  27.506  1.00  0.00     0.074 A 
ATOM     40  C   UNL A   1      45.315  24.717  26.872  1.00  0.00     0.049 A 
ATOM     41  N   UNL A   1      43.310  26.809  27.688  1.00  0.00    -0.248 NA
ATOM     42  C   UNL A   1      41.661  25.156  27.702  1.00  0.00     0.031 C 
ATOM     43  C   UNL A   1      46.318  23.752  26.416  1.00  0.00     0.029 A 
ATOM     44  N   UNL A   1      46.012  25.895  26.975  1.00  0.00    -0.354 N 
ATOM     45  C   UNL A   1      42.084  27.384  27.999  1.00  0.00     0.074 A 
ATOM     46  C   UNL A   1      41.094  26.332  27.930  1.00  0.00     0.031 C 
ATOM     47  C   UNL A   1      47.503  24.372  26.299  1.00  0.00     0.029 A 
ATOM     48  C   UNL A   1      47.340  25.782  26.636  1.00  0.00     0.049 A 
ATOM     49  H   UNL A   1      45.600  26.741  27.265  1.00  0.00     0.167 HD
ATOM     50  C   UNL A   1      41.811  28.669  28.333  1.00  0.00     0.037 A 
ATOM     51  C   UNL A   1      48.314  26.711  26.596  1.00  0.00     0.037 A 
ATOM     52  C   UNL A   1      42.807  29.704  28.428  1.00  0.00     0.049 A 
ATOM     53  C   UNL A   1      47.995  28.125  26.995  1.00  0.00     0.074 A 
ATOM     54  C   UNL A   1      42.648  31.017  28.831  1.00  0.00     0.029 A 
ATOM     55  N   UNL A   1      44.148  29.543  28.111  1.00  0.00    -0.354 N 
ATOM     56  N   UNL A   1      46.844  28.638  27.362  1.00  0.00    -0.248 NA
ATOM     57  C   UNL A   1      49.106  29.088  26.982  1.00  0.00     0.031 C 
ATOM     58  C   UNL A   1      43.883  31.664  28.717  1.00  0.00     0.029 A 
ATOM     59  C   UNL A   1      44.824  30.740  28.288  1.00  0.00     0.049 A 
ATOM     60  H   UNL A   1      44.560  28.704  27.804  1.00  0.00     0.167 HD
ATOM     61  C   UNL A   1      47.096  29.975  27.646  1.00  0.00     0.074 A 
ATOM     62  C   UNL A   1      48.512  30.189  27.420  1.00  0.00     0.031 C 
ATOM     63  C   UNL A   1      46.235  30.937  28.059  1.00  0.00     0.037 A 
BRANCH  50  64
ATOM     64  C   UNL A   1      40.377  29.021  28.620  1.00  0.00     0.058 A 
ATOM     65  C   UNL A   1      39.871  29.050  29.929  1.00  0.00     0.135 A 
ATOM     66  C   UNL A   1      39.498  29.344  27.573  1.00  0.00     0.135 A 
ATOM     67  F   UNL A   1      40.663  28.737  30.967  1.00  0.00    -0.206 F 
ATOM     68  C   UNL A   1      38.537  29.347  30.188  1.00  0.00     0.059 A 
ATOM     69  C   UNL A   1      38.167  29.673  27.811  1.00  0.00     0.059 A 
ATOM     70  F   UNL A   1      39.929  29.333  26.301  1.00  0.00    -0.206 F 
ATOM     71  C   UNL A   1      37.691  29.652  29.121  1.00  0.00     0.060 A 
BRANCH  71  72
ATOM     72  S   UNL A   1      35.958  30.018  29.471  1.00  0.00     0.124 S 
ATOM     73  O   UNL A   1      35.804  29.441  30.804  1.00  0.00    -0.237 OA
ATOM     74  O   UNL A   1      35.926  31.475  29.405  1.00  0.00    -0.237 OA
ATOM     75  O   UNL A   1      35.242  29.328  28.403  1.00  0.00    -0.744 OA
ENDBRANCH  71  72
ENDBRANCH  50  64
BRANCH  51  76
ATOM     76  C   UNL A   1      49.691  26.318  26.191  1.00  0.00     0.058 A 
ATOM     77  C   UNL A   1      50.171  26.602  24.905  1.00  0.00     0.135 A 
ATOM     78  C   UNL A   1      50.563  25.689  27.093  1.00  0.00     0.135 A 
ATOM     79  F   UNL A   1      49.373  27.197  24.007  1.00  0.00    -0.206 F 
ATOM     80  C   UNL A   1      51.467  26.270  24.523  1.00  0.00     0.059 A 
ATOM     81  C   UNL A   1      51.870  25.368  26.741  1.00  0.00     0.059 A 
ATOM     82  F   UNL A   1      50.154  25.412  28.341  1.00  0.00    -0.206 F 
ATOM     83  C   UNL A   1      52.312  25.659  25.451  1.00  0.00     0.060 A 
BRANCH  83  84
ATOM     84  S   UNL A   1      54.015  25.301  24.967  1.00  0.00     0.124 S 
ATOM     85  O   UNL A   1      54.015  23.843  24.949  1.00  0.00    -0.237 OA
ATOM     86  O   UNL A   1      54.108  25.957  23.667  1.00  0.00    -0.237 OA
ATOM     87  O   UNL A   1      54.802  25.920  26.030  1.00  0.00    -0.744 OA
ENDBRANCH  83  84
ENDBRANCH  51  76
BRANCH  63  88
ATOM     88  C   UNL A   1      46.799  32.306  28.318  1.00  0.00     0.058 A 
ATOM     89  C   UNL A   1      46.763  33.316  27.343  1.00  0.00     0.135 A 
ATOM     90  C   UNL A   1      47.335  32.628  29.576  1.00  0.00     0.135 A 
ATOM     91  F   UNL A   1      46.266  33.059  26.123  1.00  0.00    -0.206 F 
ATOM     92  C   UNL A   1      47.259  34.590  27.599  1.00  0.00     0.059 A 
ATOM     93  C   UNL A   1      47.812  33.902  29.863  1.00  0.00     0.059 A 
ATOM     94  F   UNL A   1      47.383  31.701  30.546  1.00  0.00    -0.206 F 
ATOM     95  C   UNL A   1      47.780  34.874  28.863  1.00  0.00     0.060 A 
BRANCH  95  96
ATOM     96  S   UNL A   1      48.391  36.540  29.194  1.00  0.00     0.124 S 
ATOM     97  O   UNL A   1      49.306  36.303  30.305  1.00  0.00    -0.237 OA
ATOM     98  O   UNL A   1      49.015  36.903  27.926  1.00  0.00    -0.237 OA
ATOM     99  O   UNL A   1      47.179  37.286  29.526  1.00  0.00    -0.744 OA
ENDBRANCH  95  96
ENDBRANCH  63  88
ENDBRANCH  37  38
ENDBRANCH  29  32
ENDBRANCH  27  28
ENDBRANCH  26  27
ENDBRANCH   1  26
TORSDOF 19
ENDMDL
MODEL 3
REMARK VINA RESULT:     -11.5      4.661     10.386
REMARK SMILES COc1cccc(CC(=O)N[C@@](C)(C(=O)NCCCCNC(=O)c2ccc(-c3c4nc(c(-c5c(F)cc(S(=O)(=O)[O-])cc5F)c5ccc([nH]5)c(-c5c(F)cc(S(=O)(=O)[O-])cc5F)c5nc(c(-c6c(F)cc(S(=O)(=O)[O-])cc6F)c6ccc3[nH]6)C=C5)C=C4)cc2)C(F)(F)F)c1
REMARK SMILES IDX 18 1 17 2 16 3 14 4 15 5 12 7 13 8 11 9 9 10 10 11 8 13 7 14
REMARK SMILES IDX 3 15 4 16 94 17 5 18 6 19 2 20 1 21 90 22 91 23 92 24 93 25
REMARK SMILES IDX 19 26 20 27 21 28 22 29 23 31 24 32 25 33 89 34 26 35 88 36
REMARK SMILES IDX 27 37 28 38 29 39 82 40 30 41 87 42 81 43 83 44 31 45 86 46
REMARK SMILES IDX 80 47 79 48 32 50 66 51 45 52 65 53 46 54 49 55 64 56 84 57
REMARK SMILES IDX 47 58 48 59 63 61 85 62 50 63 33 64 34 65 43 66 35 67 36 68
REMARK SMILES IDX 42 69 44 70 37 71 38 72 39 73 40 74 41 75 67 76 68 77 77 78
REMARK SMILES IDX 69 79 70 80 76 81 78 82 71 83 72 84 73 85 74 86 75 87 51 88
REMARK SMILES IDX 52 89 61 90 53 91 54 92 60 93 62 94 55 95 56 96 57 97 58 98
REMARK SMILES IDX 59 99
REMARK H PARENT 16 6 11 12 21 30 83 49 49 60
REMARK Flexibility Score: inf
ROOT
ATOM      1  C   UNL A   1      35.117  22.324  24.126  1.00  0.00     0.023 C 
ENDROOT
BRANCH   1   2
ATOM      2  C   UNL A   1      33.813  22.638  23.399  1.00  0.00     0.116 C 
BRANCH   2   3
ATOM      3  N   UNL A   1      32.678  22.539  24.299  1.00  0.00    -0.354 N 
ATOM      4  C   UNL A   1      31.953  23.452  24.999  1.00  0.00     0.254 C 
ATOM      5  O   UNL A   1      31.214  22.965  25.861  1.00  0.00    -0.272 OA
ATOM      6  H   UNL A   1      32.367  21.614  24.430  1.00  0.00     0.163 HD
BRANCH   4   7
ATOM      7  C   UNL A   1      32.126  24.974  24.827  1.00  0.00     0.212 C 
ATOM      8  C   UNL A   1      30.938  25.773  25.398  1.00  0.00     0.056 C 
BRANCH   7   9
ATOM      9  N   UNL A   1      32.212  25.153  23.336  1.00  0.00    -0.334 N 
ATOM     10  C   UNL A   1      32.548  26.112  22.443  1.00  0.00     0.225 C 
ATOM     11  O   UNL A   1      32.268  25.860  21.264  1.00  0.00    -0.275 OA
ATOM     12  H   UNL A   1      31.945  24.327  22.871  1.00  0.00     0.164 HD
BRANCH  10  13
ATOM     13  C   UNL A   1      33.275  27.392  22.784  1.00  0.00     0.135 C 
BRANCH  13  14
ATOM     14  C   UNL A   1      32.494  28.355  23.635  1.00  0.00    -0.035 A 
ATOM     15  C   UNL A   1      30.499  29.711  23.909  1.00  0.00     0.119 A 
ATOM     16  C   UNL A   1      31.087  30.334  25.010  1.00  0.00     0.046 A 
ATOM     17  C   UNL A   1      31.172  28.669  23.276  1.00  0.00     0.050 A 
ATOM     18  C   UNL A   1      32.352  29.943  25.453  1.00  0.00     0.004 A 
ATOM     19  C   UNL A   1      33.058  28.960  24.764  1.00  0.00     0.004 A 
BRANCH  15  20
ATOM     20  O   UNL A   1      29.294  30.224  23.511  1.00  0.00    -0.497 OA
ATOM     21  C   UNL A   1      28.964  30.058  22.134  1.00  0.00     0.278 C 
ENDBRANCH  15  20
ENDBRANCH  13  14
ENDBRANCH  10  13
ENDBRANCH   7   9
BRANCH   7  22
ATOM     22  C   UNL A   1      33.334  25.303  25.733  1.00  0.00     0.420 C 
ATOM     23  F   UNL A   1      33.724  24.277  26.515  1.00  0.00    -0.168 F 
ATOM     24  F   UNL A   1      34.396  25.665  24.981  1.00  0.00    -0.168 F 
ATOM     25  F   UNL A   1      33.118  26.381  26.528  1.00  0.00    -0.168 F 
ENDBRANCH   7  22
ENDBRANCH   4   7
ENDBRANCH   2   3
ENDBRANCH   1   2
BRANCH   1  26
ATOM     26  C   UNL A   1      36.251  23.320  23.873  1.00  0.00     0.023 C 
BRANCH  26  27
ATOM     27  C   UNL A   1      37.079  23.683  25.099  1.00  0.00     0.116 C 
BRANCH  27  28
ATOM     28  N   UNL A   1      38.118  22.707  25.382  1.00  0.00    -0.352 N 
ATOM     29  C   UNL A   1      39.290  22.871  26.082  1.00  0.00     0.251 C 
ATOM     30  H   UNL A   1      37.960  21.803  25.022  1.00  0.00     0.163 HD
ATOM     31  O   UNL A   1      40.125  21.978  26.099  1.00  0.00    -0.269 OA
BRANCH  29  32
ATOM     32  C   UNL A   1      39.538  24.150  26.780  1.00  0.00     0.039 A 
ATOM     33  C   UNL A   1      39.028  24.322  28.069  1.00  0.00     0.014 A 
ATOM     34  C   UNL A   1      40.299  25.154  26.177  1.00  0.00     0.014 A 
ATOM     35  C   UNL A   1      39.342  25.482  28.781  1.00  0.00     0.010 A 
ATOM     36  C   UNL A   1      40.671  26.273  26.915  1.00  0.00     0.010 A 
ATOM     37  C   UNL A   1      40.194  26.450  28.224  1.00  0.00    -0.014 A 
BRANCH  37  38
ATOM     38  C   UNL A   1      40.604  27.650  28.997  1.00  0.00     0.031 A 
ATOM     39  C   UNL A   1      41.919  27.664  29.725  1.00  0.00     0.074 A 
ATOM     40  C   UNL A   1      39.760  28.694  29.102  1.00  0.00     0.049 A 
ATOM     41  N   UNL A   1      42.424  28.590  30.500  1.00  0.00    -0.248 NA
ATOM     42  C   UNL A   1      42.767  26.469  29.587  1.00  0.00     0.031 C 
ATOM     43  C   UNL A   1      38.430  28.772  28.493  1.00  0.00     0.029 A 
ATOM     44  N   UNL A   1      39.887  29.886  29.770  1.00  0.00    -0.354 N 
ATOM     45  C   UNL A   1      43.633  28.082  30.957  1.00  0.00     0.074 A 
ATOM     46  C   UNL A   1      43.763  26.748  30.416  1.00  0.00     0.031 C 
ATOM     47  C   UNL A   1      37.874  29.955  28.799  1.00  0.00     0.029 A 
ATOM     48  C   UNL A   1      38.789  30.706  29.652  1.00  0.00     0.049 A 
ATOM     49  H   UNL A   1      40.690  30.131  30.285  1.00  0.00     0.167 HD
ATOM     50  C   UNL A   1      44.562  28.682  31.740  1.00  0.00     0.037 A 
ATOM     51  C   UNL A   1      38.546  31.923  30.176  1.00  0.00     0.037 A 
ATOM     52  C   UNL A   1      44.439  30.023  32.252  1.00  0.00     0.049 A 
ATOM     53  C   UNL A   1      39.600  32.580  31.022  1.00  0.00     0.074 A 
ATOM     54  C   UNL A   1      45.355  30.750  32.989  1.00  0.00     0.029 A 
ATOM     55  N   UNL A   1      43.327  30.835  32.082  1.00  0.00    -0.354 N 
ATOM     56  N   UNL A   1      40.774  32.118  31.382  1.00  0.00    -0.248 NA
ATOM     57  C   UNL A   1      39.304  33.928  31.527  1.00  0.00     0.031 C 
ATOM     58  C   UNL A   1      44.781  31.987  33.303  1.00  0.00     0.029 A 
ATOM     59  C   UNL A   1      43.525  32.050  32.720  1.00  0.00     0.049 A 
ATOM     60  H   UNL A   1      42.516  30.587  31.582  1.00  0.00     0.167 HD
ATOM     61  C   UNL A   1      41.365  33.125  32.136  1.00  0.00     0.074 A 
ATOM     62  C   UNL A   1      40.424  34.226  32.170  1.00  0.00     0.031 C 
ATOM     63  C   UNL A   1      42.577  33.137  32.744  1.00  0.00     0.037 A 
BRANCH  50  64
ATOM     64  C   UNL A   1      45.792  27.889  32.089  1.00  0.00     0.058 A 
ATOM     65  C   UNL A   1      46.925  27.881  31.260  1.00  0.00     0.135 A 
ATOM     66  C   UNL A   1      45.843  27.135  33.273  1.00  0.00     0.135 A 
ATOM     67  F   UNL A   1      46.927  28.573  30.109  1.00  0.00    -0.206 F 
ATOM     68  C   UNL A   1      48.049  27.123  31.570  1.00  0.00     0.059 A 
ATOM     69  C   UNL A   1      46.968  26.393  33.618  1.00  0.00     0.059 A 
ATOM     70  F   UNL A   1      44.789  27.108  34.103  1.00  0.00    -0.206 F 
ATOM     71  C   UNL A   1      48.059  26.377  32.750  1.00  0.00     0.060 A 
BRANCH  71  72
ATOM     72  S   UNL A   1      49.518  25.385  33.131  1.00  0.00     0.124 S 
ATOM     73  O   UNL A   1      50.030  25.097  31.794  1.00  0.00    -0.237 OA
ATOM     74  O   UNL A   1      50.321  26.302  33.932  1.00  0.00    -0.237 OA
ATOM     75  O   UNL A   1      48.971  24.239  33.852  1.00  0.00    -0.744 OA
ENDBRANCH  71  72
ENDBRANCH  50  64
BRANCH  51  76
ATOM     76  C   UNL A   1      37.256  32.605  29.885  1.00  0.00     0.058 A 
ATOM     77  C   UNL A   1      36.101  32.307  30.622  1.00  0.00     0.135 A 
ATOM     78  C   UNL A   1      37.164  33.595  28.895  1.00  0.00     0.135 A 
ATOM     79  F   UNL A   1      36.139  31.364  31.575  1.00  0.00    -0.206 F 
ATOM     80  C   UNL A   1      34.897  32.961  30.384  1.00  0.00     0.059 A 
ATOM     81  C   UNL A   1      35.977  34.279  28.653  1.00  0.00     0.059 A 
ATOM     82  F   UNL A   1      38.247  33.928  28.174  1.00  0.00    -0.206 F 
ATOM     83  C   UNL A   1      34.846  33.951  29.401  1.00  0.00     0.060 A 
BRANCH  83  84
ATOM     84  S   UNL A   1      33.297  34.845  29.151  1.00  0.00     0.124 S 
ATOM     85  O   UNL A   1      32.765  34.893  30.508  1.00  0.00    -0.237 OA
ATOM     86  O   UNL A   1      33.760  36.113  28.600  1.00  0.00    -0.237 OA
ATOM     87  O   UNL A   1      32.567  33.994  28.216  1.00  0.00    -0.744 OA
ENDBRANCH  83  84
ENDBRANCH  51  76
BRANCH  63  88
ATOM     88  C   UNL A   1      42.971  34.389  33.477  1.00  0.00     0.058 A 
ATOM     89  C   UNL A   1      42.785  34.522  34.862  1.00  0.00     0.135 A 
ATOM     90  C   UNL A   1      43.591  35.448  32.794  1.00  0.00     0.135 A 
ATOM     91  F   UNL A   1      42.191  33.541  35.561  1.00  0.00    -0.206 F 
ATOM     92  C   UNL A   1      43.179  35.670  35.541  1.00  0.00     0.059 A 
ATOM     93  C   UNL A   1      44.018  36.594  33.456  1.00  0.00     0.059 A 
ATOM     94  F   UNL A   1      43.803  35.366  31.471  1.00  0.00    -0.206 F 
ATOM     95  C   UNL A   1      43.797  36.701  34.829  1.00  0.00     0.060 A 
BRANCH  95  96
ATOM     96  S   UNL A   1      44.334  38.172  35.726  1.00  0.00     0.124 S 
ATOM     97  O   UNL A   1      45.781  37.986  35.757  1.00  0.00    -0.237 OA
ATOM     98  O   UNL A   1      43.852  39.253  34.872  1.00  0.00    -0.237 OA
ATOM     99  O   UNL A   1      43.657  38.051  37.014  1.00  0.00    -0.744 OA
ENDBRANCH  95  96
ENDBRANCH  63  88
ENDBRANCH  37  38
ENDBRANCH  29  32
ENDBRANCH  27  28
ENDBRANCH  26  27
ENDBRANCH   1  26
TORSDOF 19
ENDMDL
