MODEL 1
REMARK VINA RESULT:     -13.4      0.000      0.000
REMARK SMILES O=C(NCCCCNC(=O)c1[nH]ncc1C[NH+]1CCC([N@H+]2CCC[C@@H](C(=O)N3CCCC3)C2)CC1)c1ccc(-c2c3nc(c(-c4c(F)cc(S(=O)(=O)[O-])cc4F)c4ccc([nH]4)c(-c4c(F)cc(S(=O)(=O)[O-])cc4F)c4nc(c(-c5c(F)cc(S(=O)(=O)[O-])cc5F)c5ccc2[nH]5)C=C4)C=C3)cc1
REMARK SMILES IDX 6 1 5 2 4 3 3 4 1 5 2 6 36 8 37 9 101 10 38 11 100 12 39 13
REMARK SMILES IDX 40 14 41 15 94 16 42 17 99 18 93 19 95 20 43 21 98 22 92 23
REMARK SMILES IDX 91 24 44 26 78 27 57 28 77 29 58 30 61 31 76 32 96 33 59 34
REMARK SMILES IDX 60 35 75 37 97 38 62 39 45 40 46 41 55 42 47 43 48 44 54 45
REMARK SMILES IDX 56 46 49 47 50 48 51 49 52 50 53 51 79 52 80 53 89 54 81 55
REMARK SMILES IDX 82 56 88 57 90 58 83 59 84 60 85 61 86 62 87 63 63 64 64 65
REMARK SMILES IDX 73 66 65 67 66 68 72 69 74 70 67 71 68 72 69 73 70 74 71 75
REMARK SMILES IDX 7 76 8 77 9 78 10 80 11 81 12 82 15 83 13 84 14 86 16 87
REMARK SMILES IDX 17 88 18 89 35 90 19 92 34 93 20 94 21 95 22 96 33 97 23 99
REMARK SMILES IDX 25 100 24 101 26 102 27 103 28 104 29 105 32 106 30 107
REMARK SMILES IDX 31 108
REMARK H PARENT 3 7 95 25 61 36 8 79 12 85 17 91 21 98
REMARK Flexibility Score: inf
ROOT
ATOM      1  C   UNL A   1      37.531  22.344  24.976  1.00  0.00     0.023 C 
ENDROOT
BRANCH   1   2
ATOM      2  C   UNL A   1      37.332  23.746  25.545  1.00  0.00     0.023 C 
BRANCH   2   3
ATOM      3  C   UNL A   1      38.330  24.156  26.620  1.00  0.00     0.116 C 
BRANCH   3   4
ATOM      4  N   UNL A   1      39.708  24.158  26.149  1.00  0.00    -0.352 N 
ATOM      5  O   UNL A   1      41.806  24.945  25.879  1.00  0.00    -0.269 OA
ATOM      6  C   UNL A   1      40.739  25.005  26.483  1.00  0.00     0.251 C 
ATOM      7  H   UNL A   1      39.933  23.453  25.500  1.00  0.00     0.163 HD
BRANCH   6   8
ATOM      8  C   UNL A   1      40.538  26.006  27.551  1.00  0.00     0.039 A 
ATOM      9  C   UNL A   1      41.246  27.209  27.529  1.00  0.00     0.014 A 
ATOM     10  C   UNL A   1      39.660  25.723  28.601  1.00  0.00     0.014 A 
ATOM     11  C   UNL A   1      41.211  28.046  28.636  1.00  0.00     0.010 A 
ATOM     12  C   UNL A   1      39.549  26.619  29.669  1.00  0.00     0.010 A 
ATOM     13  C   UNL A   1      40.352  27.769  29.714  1.00  0.00    -0.014 A 
BRANCH  13  14
ATOM     14  C   UNL A   1      40.265  28.736  30.837  1.00  0.00     0.031 A 
ATOM     15  C   UNL A   1      39.245  29.841  30.843  1.00  0.00     0.074 A 
ATOM     16  C   UNL A   1      41.109  28.585  31.878  1.00  0.00     0.049 A 
ATOM     17  N   UNL A   1      39.038  30.763  31.748  1.00  0.00    -0.248 NA
ATOM     18  C   UNL A   1      38.344  29.932  29.683  1.00  0.00     0.031 C 
ATOM     19  C   UNL A   1      42.147  27.553  31.974  1.00  0.00     0.029 A 
ATOM     20  N   UNL A   1      41.223  29.278  33.053  1.00  0.00    -0.354 N 
ATOM     21  C   UNL A   1      38.003  31.554  31.265  1.00  0.00     0.074 A 
ATOM     22  C   UNL A   1      37.636  31.016  29.972  1.00  0.00     0.031 C 
ATOM     23  C   UNL A   1      42.760  27.653  33.161  1.00  0.00     0.029 A 
ATOM     24  C   UNL A   1      42.210  28.795  33.880  1.00  0.00     0.049 A 
ATOM     25  H   UNL A   1      40.654  30.047  33.285  1.00  0.00     0.167 HD
ATOM     26  C   UNL A   1      37.412  32.624  31.850  1.00  0.00     0.037 A 
ATOM     27  C   UNL A   1      42.645  29.236  35.075  1.00  0.00     0.037 A 
ATOM     28  C   UNL A   1      37.777  33.140  33.146  1.00  0.00     0.049 A 
ATOM     29  C   UNL A   1      41.986  30.435  35.691  1.00  0.00     0.074 A 
ATOM     30  C   UNL A   1      37.217  34.199  33.841  1.00  0.00     0.029 A 
ATOM     31  N   UNL A   1      38.796  32.637  33.944  1.00  0.00    -0.354 N 
ATOM     32  N   UNL A   1      40.990  31.153  35.228  1.00  0.00    -0.248 NA
ATOM     33  C   UNL A   1      42.508  30.886  36.986  1.00  0.00     0.031 C 
ATOM     34  C   UNL A   1      37.926  34.365  35.036  1.00  0.00     0.029 A 
ATOM     35  C   UNL A   1      38.895  33.378  35.111  1.00  0.00     0.049 A 
ATOM     36  H   UNL A   1      39.366  31.868  33.714  1.00  0.00     0.167 HD
ATOM     37  C   UNL A   1      40.755  32.133  36.184  1.00  0.00     0.074 A 
ATOM     38  C   UNL A   1      41.701  31.902  37.258  1.00  0.00     0.031 C 
ATOM     39  C   UNL A   1      39.841  33.133  36.172  1.00  0.00     0.037 A 
BRANCH  26  40
ATOM     40  C   UNL A   1      36.317  33.328  31.094  1.00  0.00     0.058 A 
ATOM     41  C   UNL A   1      34.980  33.289  31.519  1.00  0.00     0.135 A 
ATOM     42  C   UNL A   1      36.618  34.103  29.961  1.00  0.00     0.135 A 
ATOM     43  F   UNL A   1      34.631  32.555  32.587  1.00  0.00    -0.206 F 
ATOM     44  C   UNL A   1      33.979  33.975  30.838  1.00  0.00     0.059 A 
ATOM     45  C   UNL A   1      35.638  34.817  29.278  1.00  0.00     0.059 A 
ATOM     46  F   UNL A   1      37.881  34.178  29.511  1.00  0.00    -0.206 F 
ATOM     47  C   UNL A   1      34.317  34.738  29.718  1.00  0.00     0.060 A 
BRANCH  47  48
ATOM     48  S   UNL A   1      33.008  35.629  28.851  1.00  0.00     0.124 S 
ATOM     49  O   UNL A   1      33.777  36.617  28.101  1.00  0.00    -0.237 OA
ATOM     50  O   UNL A   1      32.386  34.575  28.054  1.00  0.00    -0.237 OA
ATOM     51  O   UNL A   1      32.185  36.163  29.930  1.00  0.00    -0.744 OA
ENDBRANCH  47  48
ENDBRANCH  26  40
BRANCH  27  52
ATOM     52  C   UNL A   1      43.769  28.539  35.751  1.00  0.00     0.058 A 
ATOM     53  C   UNL A   1      43.537  27.505  36.668  1.00  0.00     0.135 A 
ATOM     54  C   UNL A   1      45.103  28.874  35.465  1.00  0.00     0.135 A 
ATOM     55  F   UNL A   1      42.279  27.150  36.974  1.00  0.00    -0.206 F 
ATOM     56  C   UNL A   1      44.585  26.837  37.291  1.00  0.00     0.059 A 
ATOM     57  C   UNL A   1      46.168  28.202  36.054  1.00  0.00     0.059 A 
ATOM     58  F   UNL A   1      45.378  29.843  34.579  1.00  0.00    -0.206 F 
ATOM     59  C   UNL A   1      45.898  27.191  36.975  1.00  0.00     0.060 A 
BRANCH  59  60
ATOM     60  S   UNL A   1      47.253  26.287  37.754  1.00  0.00     0.124 S 
ATOM     61  O   UNL A   1      46.717  26.052  39.089  1.00  0.00    -0.237 OA
ATOM     62  O   UNL A   1      47.371  25.112  36.896  1.00  0.00    -0.237 OA
ATOM     63  O   UNL A   1      48.369  27.225  37.676  1.00  0.00    -0.744 OA
ENDBRANCH  59  60
ENDBRANCH  27  52
BRANCH  39  64
ATOM     64  C   UNL A   1      39.799  34.037  37.373  1.00  0.00     0.058 A 
ATOM     65  C   UNL A   1      40.519  35.240  37.416  1.00  0.00     0.135 A 
ATOM     66  C   UNL A   1      38.998  33.709  38.478  1.00  0.00     0.135 A 
ATOM     67  F   UNL A   1      41.308  35.592  36.387  1.00  0.00    -0.206 F 
ATOM     68  C   UNL A   1      40.466  36.077  38.525  1.00  0.00     0.059 A 
ATOM     69  C   UNL A   1      38.909  34.546  39.587  1.00  0.00     0.059 A 
ATOM     70  F   UNL A   1      38.283  32.573  38.484  1.00  0.00    -0.206 F 
ATOM     71  C   UNL A   1      39.656  35.722  39.605  1.00  0.00     0.060 A 
BRANCH  71  72
ATOM     72  S   UNL A   1      39.570  36.833  41.025  1.00  0.00     0.124 S 
ATOM     73  O   UNL A   1      40.984  37.057  41.309  1.00  0.00    -0.237 OA
ATOM     74  O   UNL A   1      38.843  37.977  40.485  1.00  0.00    -0.237 OA
ATOM     75  O   UNL A   1      38.846  36.052  42.024  1.00  0.00    -0.744 OA
ENDBRANCH  71  72
ENDBRANCH  39  64
ENDBRANCH  13  14
ENDBRANCH   6   8
ENDBRANCH   3   4
ENDBRANCH   2   3
ENDBRANCH   1   2
BRANCH   1  76
ATOM     76  C   UNL A   1      36.538  21.301  25.470  1.00  0.00     0.116 C 
BRANCH  76  77
ATOM     77  N   UNL A   1      35.742  21.754  26.600  1.00  0.00    -0.351 N 
ATOM     78  C   UNL A   1      34.403  21.584  26.826  1.00  0.00     0.269 C 
ATOM     79  H   UNL A   1      36.232  22.250  27.294  1.00  0.00     0.163 HD
ATOM     80  O   UNL A   1      33.873  22.209  27.751  1.00  0.00    -0.268 OA
BRANCH  78  81
ATOM     81  C   UNL A   1      33.645  20.750  25.942  1.00  0.00     0.131 A 
ATOM     82  N   UNL A   1      33.233  19.502  26.318  1.00  0.00    -0.272 N 
ATOM     83  C   UNL A   1      33.205  20.910  24.632  1.00  0.00     0.057 A 
ATOM     84  N   UNL A   1      32.399  18.920  25.441  1.00  0.00    -0.183 NA
ATOM     85  H   UNL A   1      33.521  19.070  27.154  1.00  0.00     0.190 HD
ATOM     86  C   UNL A   1      32.381  19.780  24.421  1.00  0.00     0.145 A 
BRANCH  83  87
ATOM     87  C   UNL A   1      33.469  22.046  23.697  1.00  0.00     0.303 C 
BRANCH  87  88
ATOM     88  N   UNL A   1      32.970  23.343  24.150  1.00  0.00    -0.331 N 
ATOM     89  C   UNL A   1      31.790  23.255  25.009  1.00  0.00     0.268 C 
ATOM     90  C   UNL A   1      33.991  24.237  24.686  1.00  0.00     0.268 C 
ATOM     91  H   UNL A   1      32.658  23.789  23.288  1.00  0.00     0.348 HD
ATOM     92  C   UNL A   1      31.154  24.637  25.178  1.00  0.00     0.126 C 
ATOM     93  C   UNL A   1      33.433  25.654  24.807  1.00  0.00     0.126 C 
ATOM     94  C   UNL A   1      32.176  25.670  25.695  1.00  0.00     0.195 C 
BRANCH  94  95
ATOM     95  N   UNL A   1      31.664  27.051  25.897  1.00  0.00    -0.331 N 
ATOM     96  C   UNL A   1      32.530  27.897  26.733  1.00  0.00     0.262 C 
ATOM     97  C   UNL A   1      31.403  27.700  24.600  1.00  0.00     0.275 C 
ATOM     98  H   UNL A   1      30.791  26.952  26.414  1.00  0.00     0.348 HD
ATOM     99  C   UNL A   1      31.908  29.280  26.953  1.00  0.00     0.062 C 
ATOM    100  C   UNL A   1      30.784  29.103  24.731  1.00  0.00     0.134 C 
ATOM    101  C   UNL A   1      31.646  29.988  25.627  1.00  0.00     0.025 C 
BRANCH 100 102
ATOM    102  C   UNL A   1      30.697  29.615  23.299  1.00  0.00     0.231 C 
ATOM    103  O   UNL A   1      31.426  29.163  22.414  1.00  0.00    -0.274 OA
ATOM    104  N   UNL A   1      29.620  30.418  22.999  1.00  0.00    -0.342 N 
ATOM    105  C   UNL A   1      29.004  31.436  23.826  1.00  0.00     0.119 C 
ATOM    106  C   UNL A   1      29.010  30.372  21.683  1.00  0.00     0.119 C 
ATOM    107  C   UNL A   1      27.608  31.563  23.248  1.00  0.00     0.023 C 
ATOM    108  C   UNL A   1      27.821  31.322  21.756  1.00  0.00     0.023 C 
ENDBRANCH 100 102
ENDBRANCH  94  95
ENDBRANCH  87  88
ENDBRANCH  83  87
ENDBRANCH  78  81
ENDBRANCH  76  77
ENDBRANCH   1  76
TORSDOF 18
ENDMDL
MODEL 2
REMARK VINA RESULT:     -13.4      6.535     11.812
REMARK SMILES O=C(NCCCCNC(=O)c1[nH]ncc1C[NH+]1CCC([N@H+]2CCC[C@@H](C(=O)N3CCCC3)C2)CC1)c1ccc(-c2c3nc(c(-c4c(F)cc(S(=O)(=O)[O-])cc4F)c4ccc([nH]4)c(-c4c(F)cc(S(=O)(=O)[O-])cc4F)c4nc(c(-c5c(F)cc(S(=O)(=O)[O-])cc5F)c5ccc2[nH]5)C=C4)C=C3)cc1
REMARK SMILES IDX 6 1 5 2 4 3 3 4 1 5 2 6 36 8 37 9 101 10 38 11 100 12 39 13
REMARK SMILES IDX 40 14 41 15 94 16 42 17 99 18 93 19 95 20 43 21 98 22 92 23
REMARK SMILES IDX 91 24 44 26 78 27 57 28 77 29 58 30 61 31 76 32 96 33 59 34
REMARK SMILES IDX 60 35 75 37 97 38 62 39 45 40 46 41 55 42 47 43 48 44 54 45
REMARK SMILES IDX 56 46 49 47 50 48 51 49 52 50 53 51 79 52 80 53 89 54 81 55
REMARK SMILES IDX 82 56 88 57 90 58 83 59 84 60 85 61 86 62 87 63 63 64 64 65
REMARK SMILES IDX 73 66 65 67 66 68 72 69 74 70 67 71 68 72 69 73 70 74 71 75
REMARK SMILES IDX 7 76 8 77 9 78 10 80 11 81 12 82 15 83 13 84 14 86 16 87
REMARK SMILES IDX 17 88 18 89 35 90 19 92 34 93 20 94 21 95 22 96 33 97 23 99
REMARK SMILES IDX 25 100 24 101 26 102 27 103 28 104 29 105 32 106 30 107
REMARK SMILES IDX 31 108
REMARK H PARENT 3 7 95 25 61 36 8 79 12 85 17 91 21 98
REMARK Flexibility Score: inf
ROOT
ATOM      1  C   UNL A   1      32.750  29.826  26.875  1.00  0.00     0.023 C 
ENDROOT
BRANCH   1   2
ATOM      2  C   UNL A   1      33.834  28.793  27.166  1.00  0.00     0.023 C 
BRANCH   2   3
ATOM      3  C   UNL A   1      35.199  29.369  27.519  1.00  0.00     0.116 C 
BRANCH   3   4
ATOM      4  N   UNL A   1      35.223  30.032  28.814  1.00  0.00    -0.352 N 
ATOM      5  O   UNL A   1      36.066  30.638  30.819  1.00  0.00    -0.269 OA
ATOM      6  C   UNL A   1      36.264  30.166  29.703  1.00  0.00     0.251 C 
ATOM      7  H   UNL A   1      34.372  30.442  29.095  1.00  0.00     0.163 HD
BRANCH   6   8
ATOM      8  C   UNL A   1      37.614  29.708  29.313  1.00  0.00     0.039 A 
ATOM      9  C   UNL A   1      38.500  29.230  30.279  1.00  0.00     0.014 A 
ATOM     10  C   UNL A   1      38.006  29.790  27.974  1.00  0.00     0.014 A 
ATOM     11  C   UNL A   1      39.827  29.002  29.940  1.00  0.00     0.010 A 
ATOM     12  C   UNL A   1      39.317  29.461  27.618  1.00  0.00     0.010 A 
ATOM     13  C   UNL A   1      40.250  29.100  28.604  1.00  0.00    -0.014 A 
BRANCH  13  14
ATOM     14  C   UNL A   1      41.651  28.752  28.261  1.00  0.00     0.031 A 
ATOM     15  C   UNL A   1      42.744  29.786  28.284  1.00  0.00     0.074 A 
ATOM     16  C   UNL A   1      41.935  27.470  27.953  1.00  0.00     0.049 A 
ATOM     17  N   UNL A   1      44.016  29.642  28.014  1.00  0.00    -0.248 NA
ATOM     18  C   UNL A   1      42.363  31.159  28.649  1.00  0.00     0.031 C 
ATOM     19  C   UNL A   1      40.952  26.384  27.890  1.00  0.00     0.029 A 
ATOM     20  N   UNL A   1      43.122  26.857  27.653  1.00  0.00    -0.354 N 
ATOM     21  C   UNL A   1      44.586  30.902  28.156  1.00  0.00     0.074 A 
ATOM     22  C   UNL A   1      43.514  31.806  28.516  1.00  0.00     0.031 C 
ATOM     23  C   UNL A   1      41.581  25.234  27.616  1.00  0.00     0.029 A 
ATOM     24  C   UNL A   1      42.998  25.509  27.415  1.00  0.00     0.049 A 
ATOM     25  H   UNL A   1      43.982  27.335  27.612  1.00  0.00     0.167 HD
ATOM     26  C   UNL A   1      45.883  31.265  28.005  1.00  0.00     0.037 A 
ATOM     27  C   UNL A   1      43.916  24.595  27.050  1.00  0.00     0.037 A 
ATOM     28  C   UNL A   1      46.943  30.350  27.662  1.00  0.00     0.049 A 
ATOM     29  C   UNL A   1      45.341  25.029  26.870  1.00  0.00     0.074 A 
ATOM     30  C   UNL A   1      48.295  30.614  27.518  1.00  0.00     0.029 A 
ATOM     31  N   UNL A   1      46.774  28.996  27.407  1.00  0.00    -0.354 N 
ATOM     32  N   UNL A   1      45.864  26.222  27.034  1.00  0.00    -0.248 NA
ATOM     33  C   UNL A   1      46.301  23.999  26.455  1.00  0.00     0.031 C 
ATOM     34  C   UNL A   1      48.935  29.431  27.132  1.00  0.00     0.029 A 
ATOM     35  C   UNL A   1      47.992  28.418  27.085  1.00  0.00     0.049 A 
ATOM     36  H   UNL A   1      45.915  28.517  27.449  1.00  0.00     0.167 HD
ATOM     37  C   UNL A   1      47.218  26.082  26.758  1.00  0.00     0.074 A 
ATOM     38  C   UNL A   1      47.435  24.686  26.434  1.00  0.00     0.031 C 
ATOM     39  C   UNL A   1      48.191  27.025  26.768  1.00  0.00     0.037 A 
BRANCH  26  40
ATOM     40  C   UNL A   1      46.236  32.717  28.193  1.00  0.00     0.058 A 
ATOM     41  C   UNL A   1      46.678  33.218  29.427  1.00  0.00     0.135 A 
ATOM     42  C   UNL A   1      46.190  33.606  27.106  1.00  0.00     0.135 A 
ATOM     43  F   UNL A   1      46.730  32.418  30.503  1.00  0.00    -0.206 F 
ATOM     44  C   UNL A   1      47.041  34.553  29.582  1.00  0.00     0.059 A 
ATOM     45  C   UNL A   1      46.572  34.939  27.232  1.00  0.00     0.059 A 
ATOM     46  F   UNL A   1      45.778  33.180  25.901  1.00  0.00    -0.206 F 
ATOM     47  C   UNL A   1      46.985  35.407  28.478  1.00  0.00     0.060 A 
BRANCH  47  48
ATOM     48  S   UNL A   1      47.469  37.133  28.695  1.00  0.00     0.124 S 
ATOM     49  O   UNL A   1      48.907  37.064  28.450  1.00  0.00    -0.237 OA
ATOM     50  O   UNL A   1      46.684  37.809  27.666  1.00  0.00    -0.237 OA
ATOM     51  O   UNL A   1      47.081  37.427  30.070  1.00  0.00    -0.744 OA
ENDBRANCH  47  48
ENDBRANCH  26  40
BRANCH  27  52
ATOM     52  C   UNL A   1      43.502  23.187  26.820  1.00  0.00     0.058 A 
ATOM     53  C   UNL A   1      43.450  22.647  25.528  1.00  0.00     0.135 A 
ATOM     54  C   UNL A   1      43.180  22.345  27.897  1.00  0.00     0.135 A 
ATOM     55  F   UNL A   1      43.748  23.414  24.468  1.00  0.00    -0.206 F 
ATOM     56  C   UNL A   1      43.080  21.325  25.307  1.00  0.00     0.059 A 
ATOM     57  C   UNL A   1      42.835  21.012  27.704  1.00  0.00     0.059 A 
ATOM     58  F   UNL A   1      43.235  22.808  29.155  1.00  0.00    -0.206 F 
ATOM     59  C   UNL A   1      42.777  20.515  26.403  1.00  0.00     0.060 A 
BRANCH  59  60
ATOM     60  S   UNL A   1      42.342  18.787  26.111  1.00  0.00     0.124 S 
ATOM     61  O   UNL A   1      42.555  18.205  27.430  1.00  0.00    -0.237 OA
ATOM     62  O   UNL A   1      40.954  18.889  25.673  1.00  0.00    -0.237 OA
ATOM     63  O   UNL A   1      43.288  18.374  25.078  1.00  0.00    -0.744 OA
ENDBRANCH  59  60
ENDBRANCH  27  52
BRANCH  39  64
ATOM     64  C   UNL A   1      49.588  26.570  26.450  1.00  0.00     0.058 A 
ATOM     65  C   UNL A   1      50.404  25.964  27.417  1.00  0.00     0.135 A 
ATOM     66  C   UNL A   1      50.101  26.710  25.151  1.00  0.00     0.135 A 
ATOM     67  F   UNL A   1      49.963  25.817  28.678  1.00  0.00    -0.206 F 
ATOM     68  C   UNL A   1      51.691  25.534  27.113  1.00  0.00     0.059 A 
ATOM     69  C   UNL A   1      51.375  26.262  24.818  1.00  0.00     0.059 A 
ATOM     70  F   UNL A   1      49.357  27.275  24.187  1.00  0.00    -0.206 F 
ATOM     71  C   UNL A   1      52.167  25.686  25.810  1.00  0.00     0.060 A 
BRANCH  71  72
ATOM     72  S   UNL A   1      53.827  25.095  25.420  1.00  0.00     0.124 S 
ATOM     73  O   UNL A   1      53.645  23.649  25.473  1.00  0.00    -0.237 OA
ATOM     74  O   UNL A   1      54.056  25.656  24.092  1.00  0.00    -0.237 OA
ATOM     75  O   UNL A   1      54.649  25.664  26.484  1.00  0.00    -0.744 OA
ENDBRANCH  71  72
ENDBRANCH  39  64
ENDBRANCH  13  14
ENDBRANCH   6   8
ENDBRANCH   3   4
ENDBRANCH   2   3
ENDBRANCH   1   2
BRANCH   1  76
ATOM     76  C   UNL A   1      32.023  29.641  25.550  1.00  0.00     0.116 C 
BRANCH  76  77
ATOM     77  N   UNL A   1      32.707  28.735  24.640  1.00  0.00    -0.351 N 
ATOM     78  C   UNL A   1      32.273  28.237  23.441  1.00  0.00     0.269 C 
ATOM     79  H   UNL A   1      33.601  28.439  24.926  1.00  0.00     0.163 HD
ATOM     80  O   UNL A   1      32.919  27.328  22.907  1.00  0.00    -0.268 OA
BRANCH  78  81
ATOM     81  C   UNL A   1      31.050  28.729  22.882  1.00  0.00     0.131 A 
ATOM     82  N   UNL A   1      31.030  29.823  22.064  1.00  0.00    -0.272 N 
ATOM     83  C   UNL A   1      29.722  28.335  23.011  1.00  0.00     0.057 A 
ATOM     84  N   UNL A   1      29.835  30.054  21.496  1.00  0.00    -0.183 NA
ATOM     85  H   UNL A   1      31.819  30.391  21.905  1.00  0.00     0.190 HD
ATOM     86  C   UNL A   1      29.045  29.145  22.070  1.00  0.00     0.145 A 
BRANCH  83  87
ATOM     87  C   UNL A   1      29.155  27.255  23.875  1.00  0.00     0.303 C 
BRANCH  87  88
ATOM     88  N   UNL A   1      30.088  26.179  24.206  1.00  0.00    -0.331 N 
ATOM     89  C   UNL A   1      30.135  25.855  25.631  1.00  0.00     0.268 C 
ATOM     90  C   UNL A   1      29.978  24.995  23.362  1.00  0.00     0.268 C 
ATOM     91  H   UNL A   1      30.997  26.580  23.978  1.00  0.00     0.348 HD
ATOM     92  C   UNL A   1      31.339  24.960  25.931  1.00  0.00     0.126 C 
ATOM     93  C   UNL A   1      31.196  24.094  23.565  1.00  0.00     0.126 C 
ATOM     94  C   UNL A   1      31.339  23.697  25.045  1.00  0.00     0.195 C 
BRANCH  94  95
ATOM     95  N   UNL A   1      32.468  22.752  25.253  1.00  0.00    -0.331 N 
ATOM     96  C   UNL A   1      32.537  21.669  24.259  1.00  0.00     0.262 C 
ATOM     97  C   UNL A   1      33.747  23.481  25.314  1.00  0.00     0.275 C 
ATOM     98  H   UNL A   1      32.288  22.296  26.147  1.00  0.00     0.348 HD
ATOM     99  C   UNL A   1      33.679  20.699  24.575  1.00  0.00     0.062 C 
ATOM    100  C   UNL A   1      34.953  22.576  25.619  1.00  0.00     0.134 C 
ATOM    101  C   UNL A   1      35.023  21.421  24.623  1.00  0.00     0.025 C 
BRANCH 100 102
ATOM    102  C   UNL A   1      36.157  23.505  25.535  1.00  0.00     0.231 C 
ATOM    103  O   UNL A   1      36.019  24.730  25.521  1.00  0.00    -0.274 OA
ATOM    104  N   UNL A   1      37.393  22.927  25.716  1.00  0.00    -0.342 N 
ATOM    105  C   UNL A   1      37.853  21.633  25.251  1.00  0.00     0.119 C 
ATOM    106  C   UNL A   1      38.462  23.660  26.367  1.00  0.00     0.119 C 
ATOM    107  C   UNL A   1      39.007  21.314  26.181  1.00  0.00     0.023 C 
ATOM    108  C   UNL A   1      39.627  22.681  26.455  1.00  0.00     0.023 C 
ENDBRANCH 100 102
ENDBRANCH  94  95
ENDBRANCH  87  88
ENDBRANCH  83  87
ENDBRANCH  78  81
ENDBRANCH  76  77
ENDBRANCH   1  76
TORSDOF 18
ENDMDL
MODEL 3
REMARK VINA RESULT:     -12.9      6.477     11.827
REMARK SMILES O=C(NCCCCNC(=O)c1[nH]ncc1C[NH+]1CCC([N@H+]2CCC[C@@H](C(=O)N3CCCC3)C2)CC1)c1ccc(-c2c3nc(c(-c4c(F)cc(S(=O)(=O)[O-])cc4F)c4ccc([nH]4)c(-c4c(F)cc(S(=O)(=O)[O-])cc4F)c4nc(c(-c5c(F)cc(S(=O)(=O)[O-])cc5F)c5ccc2[nH]5)C=C4)C=C3)cc1
REMARK SMILES IDX 6 1 5 2 4 3 3 4 1 5 2 6 36 8 37 9 101 10 38 11 100 12 39 13
REMARK SMILES IDX 40 14 41 15 94 16 42 17 99 18 93 19 95 20 43 21 98 22 92 23
REMARK SMILES IDX 91 24 44 26 78 27 57 28 77 29 58 30 61 31 76 32 96 33 59 34
REMARK SMILES IDX 60 35 75 37 97 38 62 39 45 40 46 41 55 42 47 43 48 44 54 45
REMARK SMILES IDX 56 46 49 47 50 48 51 49 52 50 53 51 79 52 80 53 89 54 81 55
REMARK SMILES IDX 82 56 88 57 90 58 83 59 84 60 85 61 86 62 87 63 63 64 64 65
REMARK SMILES IDX 73 66 65 67 66 68 72 69 74 70 67 71 68 72 69 73 70 74 71 75
REMARK SMILES IDX 7 76 8 77 9 78 10 80 11 81 12 82 15 83 13 84 14 86 16 87
REMARK SMILES IDX 17 88 18 89 35 90 19 92 34 93 20 94 21 95 22 96 33 97 23 99
REMARK SMILES IDX 25 100 24 101 26 102 27 103 28 104 29 105 32 106 30 107
REMARK SMILES IDX 31 108
REMARK H PARENT 3 7 95 25 61 36 8 79 12 85 17 91 21 98
REMARK Flexibility Score: inf
ROOT
ATOM      1  C   UNL A   1      33.074  29.515  26.590  1.00  0.00     0.023 C 
ENDROOT
BRANCH   1   2
ATOM      2  C   UNL A   1      34.136  28.422  26.523  1.00  0.00     0.023 C 
BRANCH   2   3
ATOM      3  C   UNL A   1      35.299  28.589  27.492  1.00  0.00     0.116 C 
BRANCH   3   4
ATOM      4  N   UNL A   1      35.108  29.685  28.431  1.00  0.00    -0.352 N 
ATOM      5  O   UNL A   1      35.690  31.185  30.014  1.00  0.00    -0.269 OA
ATOM      6  C   UNL A   1      36.045  30.379  29.159  1.00  0.00     0.251 C 
ATOM      7  H   UNL A   1      34.174  29.969  28.563  1.00  0.00     0.163 HD
BRANCH   6   8
ATOM      8  C   UNL A   1      37.482  30.121  28.925  1.00  0.00     0.039 A 
ATOM      9  C   UNL A   1      37.985  30.078  27.623  1.00  0.00     0.014 A 
ATOM     10  C   UNL A   1      38.323  29.884  30.015  1.00  0.00     0.014 A 
ATOM     11  C   UNL A   1      39.280  29.630  27.403  1.00  0.00     0.010 A 
ATOM     12  C   UNL A   1      39.658  29.532  29.792  1.00  0.00     0.010 A 
ATOM     13  C   UNL A   1      40.138  29.365  28.483  1.00  0.00    -0.014 A 
BRANCH  13  14
ATOM     14  C   UNL A   1      41.547  28.984  28.213  1.00  0.00     0.031 A 
ATOM     15  C   UNL A   1      42.660  29.992  28.288  1.00  0.00     0.074 A 
ATOM     16  C   UNL A   1      41.816  27.694  27.925  1.00  0.00     0.049 A 
ATOM     17  N   UNL A   1      43.941  29.818  28.083  1.00  0.00    -0.248 NA
ATOM     18  C   UNL A   1      42.294  31.376  28.628  1.00  0.00     0.031 C 
ATOM     19  C   UNL A   1      40.812  26.631  27.815  1.00  0.00     0.029 A 
ATOM     20  N   UNL A   1      43.002  27.053  27.687  1.00  0.00    -0.354 N 
ATOM     21  C   UNL A   1      44.531  31.065  28.248  1.00  0.00     0.074 A 
ATOM     22  C   UNL A   1      43.464  31.996  28.550  1.00  0.00     0.031 C 
ATOM     23  C   UNL A   1      41.428  25.465  27.578  1.00  0.00     0.029 A 
ATOM     24  C   UNL A   1      42.859  25.707  27.448  1.00  0.00     0.049 A 
ATOM     25  H   UNL A   1      43.874  27.511  27.688  1.00  0.00     0.167 HD
ATOM     26  C   UNL A   1      45.842  31.398  28.162  1.00  0.00     0.037 A 
ATOM     27  C   UNL A   1      43.773  24.771  27.133  1.00  0.00     0.037 A 
ATOM     28  C   UNL A   1      46.897  30.458  27.876  1.00  0.00     0.049 A 
ATOM     29  C   UNL A   1      45.215  25.171  27.024  1.00  0.00     0.074 A 
ATOM     30  C   UNL A   1      48.261  30.690  27.799  1.00  0.00     0.029 A 
ATOM     31  N   UNL A   1      46.711  29.106  27.618  1.00  0.00    -0.354 N 
ATOM     32  N   UNL A   1      45.756  26.352  27.209  1.00  0.00    -0.248 NA
ATOM     33  C   UNL A   1      46.170  24.117  26.661  1.00  0.00     0.031 C 
ATOM     34  C   UNL A   1      48.892  29.490  27.451  1.00  0.00     0.029 A 
ATOM     35  C   UNL A   1      47.929  28.499  27.360  1.00  0.00     0.049 A 
ATOM     36  H   UNL A   1      45.839  28.647  27.618  1.00  0.00     0.167 HD
ATOM     37  C   UNL A   1      47.119  26.180  27.002  1.00  0.00     0.074 A 
ATOM     38  C   UNL A   1      47.320  24.778  26.695  1.00  0.00     0.031 C 
ATOM     39  C   UNL A   1      48.112  27.100  27.058  1.00  0.00     0.037 A 
BRANCH  26  40
ATOM     40  C   UNL A   1      46.220  32.842  28.362  1.00  0.00     0.058 A 
ATOM     41  C   UNL A   1      46.247  33.755  27.296  1.00  0.00     0.135 A 
ATOM     42  C   UNL A   1      46.500  33.333  29.648  1.00  0.00     0.135 A 
ATOM     43  F   UNL A   1      46.000  33.341  26.044  1.00  0.00    -0.206 F 
ATOM     44  C   UNL A   1      46.557  35.097  27.496  1.00  0.00     0.059 A 
ATOM     45  C   UNL A   1      46.789  34.675  29.875  1.00  0.00     0.059 A 
ATOM     46  F   UNL A   1      46.486  32.504  30.705  1.00  0.00    -0.206 F 
ATOM     47  C   UNL A   1      46.827  35.549  28.789  1.00  0.00     0.060 A 
BRANCH  47  48
ATOM     48  S   UNL A   1      47.219  37.294  29.032  1.00  0.00     0.124 S 
ATOM     49  O   UNL A   1      48.056  37.241  30.226  1.00  0.00    -0.237 OA
ATOM     50  O   UNL A   1      47.909  37.635  27.791  1.00  0.00    -0.237 OA
ATOM     51  O   UNL A   1      45.912  37.917  29.211  1.00  0.00    -0.744 OA
ENDBRANCH  47  48
ENDBRANCH  26  40
BRANCH  27  52
ATOM     52  C   UNL A   1      43.339  23.371  26.888  1.00  0.00     0.058 A 
ATOM     53  C   UNL A   1      43.235  22.861  25.587  1.00  0.00     0.135 A 
ATOM     54  C   UNL A   1      43.049  22.508  27.957  1.00  0.00     0.135 A 
ATOM     55  F   UNL A   1      43.501  23.649  24.534  1.00  0.00    -0.206 F 
ATOM     56  C   UNL A   1      42.846  21.547  25.351  1.00  0.00     0.059 A 
ATOM     57  C   UNL A   1      42.685  21.182  27.748  1.00  0.00     0.059 A 
ATOM     58  F   UNL A   1      43.153  22.943  29.221  1.00  0.00    -0.206 F 
ATOM     59  C   UNL A   1      42.576  20.714  26.439  1.00  0.00     0.060 A 
BRANCH  59  60
ATOM     60  S   UNL A   1      42.115  18.997  26.125  1.00  0.00     0.124 S 
ATOM     61  O   UNL A   1      42.384  18.381  27.419  1.00  0.00    -0.237 OA
ATOM     62  O   UNL A   1      40.710  19.118  25.753  1.00  0.00    -0.237 OA
ATOM     63  O   UNL A   1      43.011  18.604  25.040  1.00  0.00    -0.744 OA
ENDBRANCH  59  60
ENDBRANCH  27  52
BRANCH  39  64
ATOM     64  C   UNL A   1      49.512  26.612  26.813  1.00  0.00     0.058 A 
ATOM     65  C   UNL A   1      50.017  26.442  25.514  1.00  0.00     0.135 A 
ATOM     66  C   UNL A   1      50.370  26.347  27.891  1.00  0.00     0.135 A 
ATOM     67  F   UNL A   1      49.231  26.673  24.449  1.00  0.00    -0.206 F 
ATOM     68  C   UNL A   1      51.317  26.002  25.294  1.00  0.00     0.059 A 
ATOM     69  C   UNL A   1      51.684  25.933  27.694  1.00  0.00     0.059 A 
ATOM     70  F   UNL A   1      49.939  26.502  29.153  1.00  0.00    -0.206 F 
ATOM     71  C   UNL A   1      52.144  25.752  26.390  1.00  0.00     0.060 A 
BRANCH  71  72
ATOM     72  S   UNL A   1      53.840  25.212  26.091  1.00  0.00     0.124 S 
ATOM     73  O   UNL A   1      54.327  26.256  25.196  1.00  0.00    -0.237 OA
ATOM     74  O   UNL A   1      54.410  25.211  27.434  1.00  0.00    -0.237 OA
ATOM     75  O   UNL A   1      53.674  23.893  25.486  1.00  0.00    -0.744 OA
ENDBRANCH  71  72
ENDBRANCH  39  64
ENDBRANCH  13  14
ENDBRANCH   6   8
ENDBRANCH   3   4
ENDBRANCH   2   3
ENDBRANCH   1   2
BRANCH   1  76
ATOM     76  C   UNL A   1      32.527  29.966  25.242  1.00  0.00     0.116 C 
BRANCH  76  77
ATOM     77  N   UNL A   1      33.191  29.334  24.112  1.00  0.00    -0.351 N 
ATOM     78  C   UNL A   1      32.641  28.871  22.947  1.00  0.00     0.269 C 
ATOM     79  H   UNL A   1      34.165  29.226  24.197  1.00  0.00     0.163 HD
ATOM     80  O   UNL A   1      33.343  28.191  22.189  1.00  0.00    -0.268 OA
BRANCH  78  81
ATOM     81  C   UNL A   1      31.258  29.121  22.679  1.00  0.00     0.131 A 
ATOM     82  N   UNL A   1      30.866  30.078  21.785  1.00  0.00    -0.272 N 
ATOM     83  C   UNL A   1      30.080  28.586  23.191  1.00  0.00     0.057 A 
ATOM     84  N   UNL A   1      29.548  30.075  21.528  1.00  0.00    -0.183 NA
ATOM     85  H   UNL A   1      31.493  30.713  21.367  1.00  0.00     0.190 HD
ATOM     86  C   UNL A   1      29.075  29.164  22.380  1.00  0.00     0.145 A 
BRANCH  83  87
ATOM     87  C   UNL A   1      29.918  27.575  24.281  1.00  0.00     0.303 C 
BRANCH  87  88
ATOM     88  N   UNL A   1      30.844  26.446  24.215  1.00  0.00    -0.331 N 
ATOM     89  C   UNL A   1      31.526  26.167  25.477  1.00  0.00     0.268 C 
ATOM     90  C   UNL A   1      30.299  25.245  23.592  1.00  0.00     0.268 C 
ATOM     91  H   UNL A   1      31.564  26.771  23.571  1.00  0.00     0.348 HD
ATOM     92  C   UNL A   1      32.688  25.197  25.248  1.00  0.00     0.126 C 
ATOM     93  C   UNL A   1      31.428  24.266  23.270  1.00  0.00     0.126 C 
ATOM     94  C   UNL A   1      32.217  23.909  24.543  1.00  0.00     0.195 C 
BRANCH  94  95
ATOM     95  N   UNL A   1      33.266  22.892  24.270  1.00  0.00    -0.331 N 
ATOM     96  C   UNL A   1      34.633  23.339  24.579  1.00  0.00     0.262 C 
ATOM     97  C   UNL A   1      32.961  21.634  24.974  1.00  0.00     0.275 C 
ATOM     98  H   UNL A   1      33.247  22.736  23.262  1.00  0.00     0.348 HD
ATOM     99  C   UNL A   1      35.664  22.268  24.210  1.00  0.00     0.062 C 
ATOM    100  C   UNL A   1      33.958  20.503  24.666  1.00  0.00     0.134 C 
ATOM    101  C   UNL A   1      35.388  20.957  24.943  1.00  0.00     0.025 C 
BRANCH 100 102
ATOM    102  C   UNL A   1      33.517  19.353  25.563  1.00  0.00     0.231 C 
ATOM    103  O   UNL A   1      32.894  19.559  26.606  1.00  0.00    -0.274 OA
ATOM    104  N   UNL A   1      33.635  18.086  25.039  1.00  0.00    -0.342 N 
ATOM    105  C   UNL A   1      34.694  17.557  24.202  1.00  0.00     0.119 C 
ATOM    106  C   UNL A   1      32.671  17.055  25.377  1.00  0.00     0.119 C 
ATOM    107  C   UNL A   1      34.040  16.381  23.504  1.00  0.00     0.023 C 
ATOM    108  C   UNL A   1      33.078  15.836  24.557  1.00  0.00     0.023 C 
ENDBRANCH 100 102
ENDBRANCH  94  95
ENDBRANCH  87  88
ENDBRANCH  83  87
ENDBRANCH  78  81
ENDBRANCH  76  77
ENDBRANCH   1  76
TORSDOF 18
ENDMDL
