MODEL 1
REMARK VINA RESULT:     -13.0      0.000      0.000
REMARK SMILES O=C(NCCCCNC(=O)[C@@]12CN(CC3CC3)C(=O)[C@@H]1CN(c1nc3ccccc3o1)C2)c1ccc(-c2c3nc(c(-c4c(F)cc(S(=O)(=O)[O-])cc4F)c4ccc([nH]4)c(-c4c(F)cc(S(=O)(=O)[O-])cc4F)c4nc(c(-c5c(F)cc(S(=O)(=O)[O-])cc5F)c5ccc2[nH]5)C=C4)C=C3)cc1
REMARK SMILES IDX 5 1 4 2 3 3 1 4 2 5 33 7 34 8 98 9 35 10 97 11 36 12 37 13
REMARK SMILES IDX 38 14 91 15 39 16 96 17 90 18 92 19 40 20 95 21 89 22 88 23
REMARK SMILES IDX 41 25 75 26 54 27 74 28 55 29 58 30 73 31 93 32 56 33 57 34
REMARK SMILES IDX 72 36 94 37 59 38 42 39 43 40 52 41 44 42 45 43 51 44 53 45
REMARK SMILES IDX 46 46 47 47 48 48 49 49 50 50 76 51 77 52 86 53 78 54 79 55
REMARK SMILES IDX 85 56 87 57 80 58 81 59 82 60 83 61 84 62 60 63 61 64 70 65
REMARK SMILES IDX 62 66 63 67 69 68 71 69 64 70 65 71 66 72 67 73 68 74 6 75
REMARK SMILES IDX 7 76 8 77 9 78 10 80 11 81 12 82 20 83 32 84 13 85 18 86
REMARK SMILES IDX 21 87 22 88 19 89 14 90 15 91 16 92 17 93 23 94 24 95 31 96
REMARK SMILES IDX 25 97 30 98 26 99 29 100 27 101 28 102
REMARK H PARENT 3 6 92 24 58 35 8 79
REMARK Flexibility Score: inf
ROOT
ATOM      1  C   UNL A   1      33.700  29.676  26.858  1.00  0.00     0.023 C 
ENDROOT
BRANCH   1   2
ATOM      2  C   UNL A   1      34.976  29.367  27.631  1.00  0.00     0.116 C 
BRANCH   2   3
ATOM      3  N   UNL A   1      35.160  30.199  28.811  1.00  0.00    -0.352 N 
ATOM      4  O   UNL A   1      36.228  31.074  30.598  1.00  0.00    -0.269 OA
ATOM      5  C   UNL A   1      36.291  30.408  29.568  1.00  0.00     0.251 C 
ATOM      6  H   UNL A   1      34.357  30.682  29.114  1.00  0.00     0.163 HD
BRANCH   5   7
ATOM      7  C   UNL A   1      37.567  29.785  29.157  1.00  0.00     0.039 A 
ATOM      8  C   UNL A   1      38.426  29.240  30.111  1.00  0.00     0.014 A 
ATOM      9  C   UNL A   1      37.937  29.812  27.810  1.00  0.00     0.014 A 
ATOM     10  C   UNL A   1      39.731  28.925  29.753  1.00  0.00     0.010 A 
ATOM     11  C   UNL A   1      39.217  29.391  27.436  1.00  0.00     0.010 A 
ATOM     12  C   UNL A   1      40.147  29.003  28.413  1.00  0.00    -0.014 A 
BRANCH  12  13
ATOM     13  C   UNL A   1      41.558  28.673  28.073  1.00  0.00     0.031 A 
ATOM     14  C   UNL A   1      42.649  29.709  28.180  1.00  0.00     0.074 A 
ATOM     15  C   UNL A   1      41.862  27.407  27.726  1.00  0.00     0.049 A 
ATOM     16  N   UNL A   1      43.935  29.573  27.971  1.00  0.00    -0.248 NA
ATOM     17  C   UNL A   1      42.250  31.073  28.561  1.00  0.00     0.031 C 
ATOM     18  C   UNL A   1      40.892  26.319  27.576  1.00  0.00     0.029 A 
ATOM     19  N   UNL A   1      43.070  26.812  27.468  1.00  0.00    -0.354 N 
ATOM     20  C   UNL A   1      44.491  30.834  28.157  1.00  0.00     0.074 A 
ATOM     21  C   UNL A   1      43.401  31.728  28.483  1.00  0.00     0.031 C 
ATOM     22  C   UNL A   1      41.546  25.177  27.321  1.00  0.00     0.029 A 
ATOM     23  C   UNL A   1      42.974  25.461  27.227  1.00  0.00     0.049 A 
ATOM     24  H   UNL A   1      43.923  27.302  27.457  1.00  0.00     0.167 HD
ATOM     25  C   UNL A   1      45.790  31.210  28.070  1.00  0.00     0.037 A 
ATOM     26  C   UNL A   1      43.926  24.550  26.954  1.00  0.00     0.037 A 
ATOM     27  C   UNL A   1      46.878  30.308  27.785  1.00  0.00     0.049 A 
ATOM     28  C   UNL A   1      45.359  24.987  26.891  1.00  0.00     0.074 A 
ATOM     29  C   UNL A   1      48.233  30.587  27.712  1.00  0.00     0.029 A 
ATOM     30  N   UNL A   1      46.738  28.951  27.531  1.00  0.00    -0.354 N 
ATOM     31  N   UNL A   1      45.864  26.182  27.085  1.00  0.00    -0.248 NA
ATOM     32  C   UNL A   1      46.353  23.955  26.568  1.00  0.00     0.031 C 
ATOM     33  C   UNL A   1      48.907  29.405  27.384  1.00  0.00     0.029 A 
ATOM     34  C   UNL A   1      47.978  28.382  27.290  1.00  0.00     0.049 A 
ATOM     35  H   UNL A   1      45.882  28.464  27.523  1.00  0.00     0.167 HD
ATOM     36  C   UNL A   1      47.237  26.043  26.924  1.00  0.00     0.074 A 
ATOM     37  C   UNL A   1      47.484  24.644  26.633  1.00  0.00     0.031 C 
ATOM     38  C   UNL A   1      48.206  26.988  27.007  1.00  0.00     0.037 A 
BRANCH  25  39
ATOM     39  C   UNL A   1      46.113  32.667  28.266  1.00  0.00     0.058 A 
ATOM     40  C   UNL A   1      46.001  33.599  27.223  1.00  0.00     0.135 A 
ATOM     41  C   UNL A   1      46.505  33.143  29.528  1.00  0.00     0.135 A 
ATOM     42  F   UNL A   1      45.645  33.197  25.992  1.00  0.00    -0.206 F 
ATOM     43  C   UNL A   1      46.290  34.947  27.417  1.00  0.00     0.059 A 
ATOM     44  C   UNL A   1      46.778  34.490  29.751  1.00  0.00     0.059 A 
ATOM     45  F   UNL A   1      46.626  32.296  30.562  1.00  0.00    -0.206 F 
ATOM     46  C   UNL A   1      46.682  35.383  28.684  1.00  0.00     0.060 A 
BRANCH  46  47
ATOM     47  S   UNL A   1      47.060  37.132  28.921  1.00  0.00     0.124 S 
ATOM     48  O   UNL A   1      46.505  37.716  27.703  1.00  0.00    -0.237 OA
ATOM     49  O   UNL A   1      46.347  37.445  30.154  1.00  0.00    -0.237 OA
ATOM     50  O   UNL A   1      48.517  37.154  29.019  1.00  0.00    -0.744 OA
ENDBRANCH  46  47
ENDBRANCH  25  39
BRANCH  26  51
ATOM     51  C   UNL A   1      43.543  23.131  26.737  1.00  0.00     0.058 A 
ATOM     52  C   UNL A   1      43.568  22.567  25.454  1.00  0.00     0.135 A 
ATOM     53  C   UNL A   1      43.183  22.304  27.812  1.00  0.00     0.135 A 
ATOM     54  F   UNL A   1      43.903  23.320  24.396  1.00  0.00    -0.206 F 
ATOM     55  C   UNL A   1      43.240  21.232  25.241  1.00  0.00     0.059 A 
ATOM     56  C   UNL A   1      42.876  20.961  27.628  1.00  0.00     0.059 A 
ATOM     57  F   UNL A   1      43.165  22.794  29.061  1.00  0.00    -0.206 F 
ATOM     58  C   UNL A   1      42.898  20.436  26.336  1.00  0.00     0.060 A 
BRANCH  58  59
ATOM     59  S   UNL A   1      42.537  18.688  26.063  1.00  0.00     0.124 S 
ATOM     60  O   UNL A   1      43.460  18.365  24.982  1.00  0.00    -0.237 OA
ATOM     61  O   UNL A   1      42.845  18.101  27.363  1.00  0.00    -0.237 OA
ATOM     62  O   UNL A   1      41.121  18.693  25.707  1.00  0.00    -0.744 OA
ENDBRANCH  58  59
ENDBRANCH  26  51
BRANCH  38  63
ATOM     63  C   UNL A   1      49.622  26.528  26.813  1.00  0.00     0.058 A 
ATOM     64  C   UNL A   1      50.440  26.185  27.901  1.00  0.00     0.135 A 
ATOM     65  C   UNL A   1      50.160  26.413  25.522  1.00  0.00     0.135 A 
ATOM     66  F   UNL A   1      49.973  26.285  29.156  1.00  0.00    -0.206 F 
ATOM     67  C   UNL A   1      51.756  25.774  27.717  1.00  0.00     0.059 A 
ATOM     68  C   UNL A   1      51.465  25.983  25.313  1.00  0.00     0.059 A 
ATOM     69  F   UNL A   1      49.415  26.720  24.449  1.00  0.00    -0.206 F 
ATOM     70  C   UNL A   1      52.261  25.681  26.418  1.00  0.00     0.060 A 
BRANCH  70  71
ATOM     71  S   UNL A   1      53.967  25.139  26.186  1.00  0.00     0.124 S 
ATOM     72  O   UNL A   1      53.777  23.798  25.642  1.00  0.00    -0.237 OA
ATOM     73  O   UNL A   1      54.491  26.133  25.253  1.00  0.00    -0.237 OA
ATOM     74  O   UNL A   1      54.527  25.198  27.533  1.00  0.00    -0.744 OA
ENDBRANCH  70  71
ENDBRANCH  38  63
ENDBRANCH  12  13
ENDBRANCH   5   7
ENDBRANCH   2   3
ENDBRANCH   1   2
BRANCH   1  75
ATOM     75  C   UNL A   1      33.354  28.705  25.734  1.00  0.00     0.023 C 
BRANCH  75  76
ATOM     76  C   UNL A   1      33.630  27.240  26.029  1.00  0.00     0.116 C 
BRANCH  76  77
ATOM     77  N   UNL A   1      32.500  26.528  26.599  1.00  0.00    -0.355 N 
ATOM     78  C   UNL A   1      31.717  25.615  25.937  1.00  0.00     0.230 C 
ATOM     79  H   UNL A   1      32.276  26.718  27.539  1.00  0.00     0.163 HD
ATOM     80  O   UNL A   1      31.008  24.843  26.583  1.00  0.00    -0.274 OA
BRANCH  78  81
ATOM     81  C   UNL A   1      31.829  25.640  24.410  1.00  0.00     0.097 C 
ATOM     82  C   UNL A   1      32.065  24.065  24.529  1.00  0.00     0.139 C 
ATOM     83  C   UNL A   1      31.503  25.395  22.890  1.00  0.00     0.117 C 
ATOM     84  C   UNL A   1      30.632  26.698  24.456  1.00  0.00     0.141 C 
ATOM     85  N   UNL A   1      33.019  23.802  23.463  1.00  0.00    -0.341 N 
ATOM     86  C   UNL A   1      32.712  24.652  22.411  1.00  0.00     0.228 C 
ATOM     87  C   UNL A   1      31.324  26.727  22.191  1.00  0.00     0.136 C 
ATOM     88  N   UNL A   1      30.853  27.523  23.280  1.00  0.00    -0.324 N 
ATOM     89  O   UNL A   1      33.314  24.819  21.367  1.00  0.00    -0.274 OA
BRANCH  85  90
ATOM     90  C   UNL A   1      34.378  23.349  23.717  1.00  0.00     0.123 C 
BRANCH  90  91
ATOM     91  C   UNL A   1      35.135  24.138  24.737  1.00  0.00     0.008 C 
ATOM     92  C   UNL A   1      35.414  23.683  26.148  1.00  0.00     0.006 C 
ATOM     93  C   UNL A   1      36.525  23.703  25.137  1.00  0.00     0.006 C 
ENDBRANCH  90  91
ENDBRANCH  85  90
BRANCH  88  94
ATOM     94  C   UNL A   1      30.243  28.703  23.122  1.00  0.00     0.298 A 
ATOM     95  N   UNL A   1      30.085  29.687  23.979  1.00  0.00    -0.193 NA
ATOM     96  O   UNL A   1      29.670  28.905  21.896  1.00  0.00    -0.423 OA
ATOM     97  C   UNL A   1      29.403  30.634  23.255  1.00  0.00     0.111 A 
ATOM     98  C   UNL A   1      29.105  30.140  21.996  1.00  0.00     0.156 A 
ATOM     99  C   UNL A   1      28.996  31.934  23.582  1.00  0.00     0.032 A 
ATOM    100  C   UNL A   1      28.371  30.815  21.029  1.00  0.00     0.049 A 
ATOM    101  C   UNL A   1      28.273  32.662  22.622  1.00  0.00     0.003 A 
ATOM    102  C   UNL A   1      27.955  32.105  21.377  1.00  0.00     0.004 A 
ENDBRANCH  88  94
ENDBRANCH  78  81
ENDBRANCH  76  77
ENDBRANCH  75  76
ENDBRANCH   1  75
TORSDOF 17
ENDMDL
MODEL 2
REMARK VINA RESULT:     -12.9      6.738     12.334
REMARK SMILES O=C(NCCCCNC(=O)[C@@]12CN(CC3CC3)C(=O)[C@@H]1CN(c1nc3ccccc3o1)C2)c1ccc(-c2c3nc(c(-c4c(F)cc(S(=O)(=O)[O-])cc4F)c4ccc([nH]4)c(-c4c(F)cc(S(=O)(=O)[O-])cc4F)c4nc(c(-c5c(F)cc(S(=O)(=O)[O-])cc5F)c5ccc2[nH]5)C=C4)C=C3)cc1
REMARK SMILES IDX 5 1 4 2 3 3 1 4 2 5 33 7 34 8 98 9 35 10 97 11 36 12 37 13
REMARK SMILES IDX 38 14 91 15 39 16 96 17 90 18 92 19 40 20 95 21 89 22 88 23
REMARK SMILES IDX 41 25 75 26 54 27 74 28 55 29 58 30 73 31 93 32 56 33 57 34
REMARK SMILES IDX 72 36 94 37 59 38 42 39 43 40 52 41 44 42 45 43 51 44 53 45
REMARK SMILES IDX 46 46 47 47 48 48 49 49 50 50 76 51 77 52 86 53 78 54 79 55
REMARK SMILES IDX 85 56 87 57 80 58 81 59 82 60 83 61 84 62 60 63 61 64 70 65
REMARK SMILES IDX 62 66 63 67 69 68 71 69 64 70 65 71 66 72 67 73 68 74 6 75
REMARK SMILES IDX 7 76 8 77 9 78 10 80 11 81 12 82 20 83 32 84 13 85 18 86
REMARK SMILES IDX 21 87 22 88 19 89 14 90 15 91 16 92 17 93 23 94 24 95 31 96
REMARK SMILES IDX 25 97 30 98 26 99 29 100 27 101 28 102
REMARK H PARENT 3 6 92 24 58 35 8 79
REMARK Flexibility Score: inf
ROOT
ATOM      1  C   UNL A   1      37.816  24.080  26.683  1.00  0.00     0.023 C 
ENDROOT
BRANCH   1   2
ATOM      2  C   UNL A   1      39.283  23.701  26.842  1.00  0.00     0.116 C 
BRANCH   2   3
ATOM      3  N   UNL A   1      40.160  24.346  25.876  1.00  0.00    -0.352 N 
ATOM      4  O   UNL A   1      41.525  25.938  25.040  1.00  0.00    -0.269 OA
ATOM      5  C   UNL A   1      40.918  25.489  26.007  1.00  0.00     0.251 C 
ATOM      6  H   UNL A   1      40.222  23.900  25.000  1.00  0.00     0.163 HD
BRANCH   5   7
ATOM      7  C   UNL A   1      40.953  26.194  27.306  1.00  0.00     0.039 A 
ATOM      8  C   UNL A   1      40.044  25.865  28.312  1.00  0.00     0.014 A 
ATOM      9  C   UNL A   1      41.859  27.241  27.491  1.00  0.00     0.014 A 
ATOM     10  C   UNL A   1      39.896  26.715  29.401  1.00  0.00     0.010 A 
ATOM     11  C   UNL A   1      41.779  28.029  28.642  1.00  0.00     0.010 A 
ATOM     12  C   UNL A   1      40.755  27.813  29.578  1.00  0.00    -0.014 A 
BRANCH  12  13
ATOM     13  C   UNL A   1      40.554  28.709  30.749  1.00  0.00     0.031 A 
ATOM     14  C   UNL A   1      41.461  28.638  31.951  1.00  0.00     0.074 A 
ATOM     15  C   UNL A   1      39.579  29.638  30.694  1.00  0.00     0.049 A 
ATOM     16  N   UNL A   1      41.454  29.379  33.031  1.00  0.00    -0.248 NA
ATOM     17  C   UNL A   1      42.502  27.599  31.950  1.00  0.00     0.031 C 
ATOM     18  C   UNL A   1      38.629  29.797  29.589  1.00  0.00     0.029 A 
ATOM     19  N   UNL A   1      39.244  30.641  31.565  1.00  0.00    -0.354 N 
ATOM     20  C   UNL A   1      42.459  28.876  33.850  1.00  0.00     0.074 A 
ATOM     21  C   UNL A   1      43.048  27.756  33.149  1.00  0.00     0.031 C 
ATOM     22  C   UNL A   1      37.865  30.876  29.816  1.00  0.00     0.029 A 
ATOM     23  C   UNL A   1      38.227  31.446  31.109  1.00  0.00     0.049 A 
ATOM     24  H   UNL A   1      39.688  30.773  32.434  1.00  0.00     0.167 HD
ATOM     25  C   UNL A   1      42.858  29.312  35.070  1.00  0.00     0.037 A 
ATOM     26  C   UNL A   1      37.643  32.523  31.668  1.00  0.00     0.037 A 
ATOM     27  C   UNL A   1      42.294  30.453  35.747  1.00  0.00     0.049 A 
ATOM     28  C   UNL A   1      38.122  33.001  33.007  1.00  0.00     0.074 A 
ATOM     29  C   UNL A   1      42.656  30.996  36.969  1.00  0.00     0.029 A 
ATOM     30  N   UNL A   1      41.256  31.232  35.258  1.00  0.00    -0.354 N 
ATOM     31  N   UNL A   1      39.084  32.519  33.757  1.00  0.00    -0.248 NA
ATOM     32  C   UNL A   1      37.434  34.166  33.578  1.00  0.00     0.031 C 
ATOM     33  C   UNL A   1      41.815  32.083  37.232  1.00  0.00     0.029 A 
ATOM     34  C   UNL A   1      40.956  32.243  36.158  1.00  0.00     0.049 A 
ATOM     35  H   UNL A   1      40.799  31.088  34.398  1.00  0.00     0.167 HD
ATOM     36  C   UNL A   1      39.128  33.332  34.882  1.00  0.00     0.074 A 
ATOM     37  C   UNL A   1      38.107  34.346  34.706  1.00  0.00     0.031 C 
ATOM     38  C   UNL A   1      39.940  33.246  35.965  1.00  0.00     0.037 A 
BRANCH  25  39
ATOM     39  C   UNL A   1      43.945  28.541  35.769  1.00  0.00     0.058 A 
ATOM     40  C   UNL A   1      43.660  27.478  36.639  1.00  0.00     0.135 A 
ATOM     41  C   UNL A   1      45.296  28.848  35.534  1.00  0.00     0.135 A 
ATOM     42  F   UNL A   1      42.386  27.150  36.912  1.00  0.00    -0.206 F 
ATOM     43  C   UNL A   1      44.673  26.763  37.272  1.00  0.00     0.059 A 
ATOM     44  C   UNL A   1      46.326  28.133  36.138  1.00  0.00     0.059 A 
ATOM     45  F   UNL A   1      45.626  29.854  34.709  1.00  0.00    -0.206 F 
ATOM     46  C   UNL A   1      46.004  27.100  37.019  1.00  0.00     0.060 A 
BRANCH  46  47
ATOM     47  S   UNL A   1      47.308  26.169  37.850  1.00  0.00     0.124 S 
ATOM     48  O   UNL A   1      47.956  27.216  38.634  1.00  0.00    -0.237 OA
ATOM     49  O   UNL A   1      46.553  25.181  38.613  1.00  0.00    -0.237 OA
ATOM     50  O   UNL A   1      48.099  25.633  36.746  1.00  0.00    -0.744 OA
ENDBRANCH  46  47
ENDBRANCH  25  39
BRANCH  26  51
ATOM     51  C   UNL A   1      36.550  33.223  30.945  1.00  0.00     0.058 A 
ATOM     52  C   UNL A   1      35.208  33.018  31.294  1.00  0.00     0.135 A 
ATOM     53  C   UNL A   1      36.830  34.139  29.918  1.00  0.00     0.135 A 
ATOM     54  F   UNL A   1      34.893  32.151  32.268  1.00  0.00    -0.206 F 
ATOM     55  C   UNL A   1      34.178  33.690  30.645  1.00  0.00     0.059 A 
ATOM     56  C   UNL A   1      35.820  34.841  29.272  1.00  0.00     0.059 A 
ATOM     57  F   UNL A   1      38.101  34.383  29.564  1.00  0.00    -0.206 F 
ATOM     58  C   UNL A   1      34.495  34.603  29.637  1.00  0.00     0.060 A 
BRANCH  58  59
ATOM     59  S   UNL A   1      33.158  35.520  28.842  1.00  0.00     0.124 S 
ATOM     60  O   UNL A   1      33.903  36.468  28.021  1.00  0.00    -0.237 OA
ATOM     61  O   UNL A   1      32.449  34.469  28.119  1.00  0.00    -0.237 OA
ATOM     62  O   UNL A   1      32.431  36.093  29.970  1.00  0.00    -0.744 OA
ENDBRANCH  58  59
ENDBRANCH  26  51
BRANCH  38  63
ATOM     63  C   UNL A   1      39.775  34.298  37.024  1.00  0.00     0.058 A 
ATOM     64  C   UNL A   1      38.969  34.085  38.153  1.00  0.00     0.135 A 
ATOM     65  C   UNL A   1      40.445  35.526  36.914  1.00  0.00     0.135 A 
ATOM     66  F   UNL A   1      38.303  32.928  38.299  1.00  0.00    -0.206 F 
ATOM     67  C   UNL A   1      38.808  35.067  39.124  1.00  0.00     0.059 A 
ATOM     68  C   UNL A   1      40.316  36.514  37.884  1.00  0.00     0.059 A 
ATOM     69  F   UNL A   1      41.234  35.774  35.857  1.00  0.00    -0.206 F 
ATOM     70  C   UNL A   1      39.481  36.282  38.977  1.00  0.00     0.060 A 
BRANCH  70  71
ATOM     71  S   UNL A   1      39.274  37.550  40.245  1.00  0.00     0.124 S 
ATOM     72  O   UNL A   1      38.209  38.366  39.671  1.00  0.00    -0.237 OA
ATOM     73  O   UNL A   1      38.908  36.765  41.421  1.00  0.00    -0.237 OA
ATOM     74  O   UNL A   1      40.588  38.182  40.307  1.00  0.00    -0.744 OA
ENDBRANCH  70  71
ENDBRANCH  38  63
ENDBRANCH  12  13
ENDBRANCH   5   7
ENDBRANCH   2   3
ENDBRANCH   1   2
BRANCH   1  75
ATOM     75  C   UNL A   1      37.130  23.564  25.422  1.00  0.00     0.023 C 
BRANCH  75  76
ATOM     76  C   UNL A   1      35.692  24.016  25.229  1.00  0.00     0.116 C 
BRANCH  76  77
ATOM     77  N   UNL A   1      35.259  24.036  23.844  1.00  0.00    -0.355 N 
ATOM     78  C   UNL A   1      33.955  24.016  23.415  1.00  0.00     0.230 C 
ATOM     79  H   UNL A   1      35.961  24.066  23.153  1.00  0.00     0.163 HD
ATOM     80  O   UNL A   1      33.691  24.360  22.263  1.00  0.00    -0.274 OA
BRANCH  78  81
ATOM     81  C   UNL A   1      32.928  23.573  24.461  1.00  0.00     0.097 C 
ATOM     82  C   UNL A   1      32.188  24.949  24.131  1.00  0.00     0.139 C 
ATOM     83  C   UNL A   1      31.577  23.095  25.109  1.00  0.00     0.117 C 
ATOM     84  C   UNL A   1      33.106  22.109  23.845  1.00  0.00     0.141 C 
ATOM     85  N   UNL A   1      31.652  25.344  25.425  1.00  0.00    -0.341 N 
ATOM     86  C   UNL A   1      31.279  24.186  26.091  1.00  0.00     0.228 C 
ATOM     87  C   UNL A   1      31.785  21.751  25.778  1.00  0.00     0.136 C 
ATOM     88  N   UNL A   1      32.837  21.225  24.968  1.00  0.00    -0.324 N 
ATOM     89  O   UNL A   1      30.871  24.061  27.230  1.00  0.00    -0.274 OA
BRANCH  85  90
ATOM     90  C   UNL A   1      32.105  26.531  26.136  1.00  0.00     0.123 C 
BRANCH  90  91
ATOM     91  C   UNL A   1      33.430  27.070  25.701  1.00  0.00     0.008 C 
ATOM     92  C   UNL A   1      33.640  28.409  25.038  1.00  0.00     0.006 C 
ATOM     93  C   UNL A   1      34.061  28.209  26.467  1.00  0.00     0.006 C 
ENDBRANCH  90  91
ENDBRANCH  85  90
BRANCH  88  94
ATOM     94  C   UNL A   1      33.171  19.931  24.941  1.00  0.00     0.298 A 
ATOM     95  N   UNL A   1      34.288  19.360  24.546  1.00  0.00    -0.193 NA
ATOM     96  O   UNL A   1      32.196  19.066  25.359  1.00  0.00    -0.423 OA
ATOM     97  C   UNL A   1      34.059  18.024  24.765  1.00  0.00     0.111 A 
ATOM     98  C   UNL A   1      32.764  17.837  25.216  1.00  0.00     0.156 A 
ATOM     99  C   UNL A   1      34.887  16.905  24.609  1.00  0.00     0.032 A 
ATOM    100  C   UNL A   1      32.183  16.603  25.479  1.00  0.00     0.049 A 
ATOM    101  C   UNL A   1      34.347  15.639  24.890  1.00  0.00     0.003 A 
ATOM    102  C   UNL A   1      33.016  15.492  25.301  1.00  0.00     0.004 A 
ENDBRANCH  88  94
ENDBRANCH  78  81
ENDBRANCH  76  77
ENDBRANCH  75  76
ENDBRANCH   1  75
TORSDOF 17
ENDMDL
MODEL 3
REMARK VINA RESULT:     -12.9      6.567     11.720
REMARK SMILES O=C(NCCCCNC(=O)[C@@]12CN(CC3CC3)C(=O)[C@@H]1CN(c1nc3ccccc3o1)C2)c1ccc(-c2c3nc(c(-c4c(F)cc(S(=O)(=O)[O-])cc4F)c4ccc([nH]4)c(-c4c(F)cc(S(=O)(=O)[O-])cc4F)c4nc(c(-c5c(F)cc(S(=O)(=O)[O-])cc5F)c5ccc2[nH]5)C=C4)C=C3)cc1
REMARK SMILES IDX 5 1 4 2 3 3 1 4 2 5 33 7 34 8 98 9 35 10 97 11 36 12 37 13
REMARK SMILES IDX 38 14 91 15 39 16 96 17 90 18 92 19 40 20 95 21 89 22 88 23
REMARK SMILES IDX 41 25 75 26 54 27 74 28 55 29 58 30 73 31 93 32 56 33 57 34
REMARK SMILES IDX 72 36 94 37 59 38 42 39 43 40 52 41 44 42 45 43 51 44 53 45
REMARK SMILES IDX 46 46 47 47 48 48 49 49 50 50 76 51 77 52 86 53 78 54 79 55
REMARK SMILES IDX 85 56 87 57 80 58 81 59 82 60 83 61 84 62 60 63 61 64 70 65
REMARK SMILES IDX 62 66 63 67 69 68 71 69 64 70 65 71 66 72 67 73 68 74 6 75
REMARK SMILES IDX 7 76 8 77 9 78 10 80 11 81 12 82 20 83 32 84 13 85 18 86
REMARK SMILES IDX 21 87 22 88 19 89 14 90 15 91 16 92 17 93 23 94 24 95 31 96
REMARK SMILES IDX 25 97 30 98 26 99 29 100 27 101 28 102
REMARK H PARENT 3 6 92 24 58 35 8 79
REMARK Flexibility Score: inf
ROOT
ATOM      1  C   UNL A   1      37.769  23.659  25.405  1.00  0.00     0.023 C 
ENDROOT
BRANCH   1   2
ATOM      2  C   UNL A   1      38.765  23.729  26.556  1.00  0.00     0.116 C 
BRANCH   2   3
ATOM      3  N   UNL A   1      40.146  23.891  26.124  1.00  0.00    -0.352 N 
ATOM      4  O   UNL A   1      42.157  24.895  25.908  1.00  0.00    -0.269 OA
ATOM      5  C   UNL A   1      41.058  24.869  26.455  1.00  0.00     0.251 C 
ATOM      6  H   UNL A   1      40.476  23.202  25.504  1.00  0.00     0.163 HD
BRANCH   5   7
ATOM      7  C   UNL A   1      40.685  25.911  27.434  1.00  0.00     0.039 A 
ATOM      8  C   UNL A   1      41.358  27.132  27.457  1.00  0.00     0.014 A 
ATOM      9  C   UNL A   1      39.699  25.633  28.384  1.00  0.00     0.014 A 
ATOM     10  C   UNL A   1      41.202  27.977  28.549  1.00  0.00     0.010 A 
ATOM     11  C   UNL A   1      39.466  26.538  29.424  1.00  0.00     0.010 A 
ATOM     12  C   UNL A   1      40.260  27.688  29.552  1.00  0.00    -0.014 A 
BRANCH  12  13
ATOM     13  C   UNL A   1      40.135  28.610  30.713  1.00  0.00     0.031 A 
ATOM     14  C   UNL A   1      41.076  28.516  31.888  1.00  0.00     0.074 A 
ATOM     15  C   UNL A   1      39.201  29.581  30.674  1.00  0.00     0.049 A 
ATOM     16  N   UNL A   1      41.136  29.273  32.956  1.00  0.00    -0.248 NA
ATOM     17  C   UNL A   1      42.070  27.432  31.872  1.00  0.00     0.031 C 
ATOM     18  C   UNL A   1      38.225  29.766  29.597  1.00  0.00     0.029 A 
ATOM     19  N   UNL A   1      38.938  30.610  31.539  1.00  0.00    -0.354 N 
ATOM     20  C   UNL A   1      42.143  28.738  33.752  1.00  0.00     0.074 A 
ATOM     21  C   UNL A   1      42.660  27.582  33.051  1.00  0.00     0.031 C 
ATOM     22  C   UNL A   1      37.517  30.880  29.830  1.00  0.00     0.029 A 
ATOM     23  C   UNL A   1      37.944  31.453  31.101  1.00  0.00     0.049 A 
ATOM     24  H   UNL A   1      39.415  30.735  32.391  1.00  0.00     0.167 HD
ATOM     25  C   UNL A   1      42.599  29.173  34.952  1.00  0.00     0.037 A 
ATOM     26  C   UNL A   1      37.426  32.563  31.660  1.00  0.00     0.037 A 
ATOM     27  C   UNL A   1      42.108  30.348  35.627  1.00  0.00     0.049 A 
ATOM     28  C   UNL A   1      37.967  33.039  32.975  1.00  0.00     0.074 A 
ATOM     29  C   UNL A   1      42.532  30.892  36.828  1.00  0.00     0.029 A 
ATOM     30  N   UNL A   1      41.090  31.166  35.158  1.00  0.00    -0.354 N 
ATOM     31  N   UNL A   1      38.931  32.526  33.703  1.00  0.00    -0.248 NA
ATOM     32  C   UNL A   1      37.350  34.242  33.549  1.00  0.00     0.031 C 
ATOM     33  C   UNL A   1      41.748  32.020  37.100  1.00  0.00     0.029 A 
ATOM     34  C   UNL A   1      40.863  32.202  36.050  1.00  0.00     0.049 A 
ATOM     35  H   UNL A   1      40.600  31.030  34.315  1.00  0.00     0.167 HD
ATOM     36  C   UNL A   1      39.046  33.353  34.813  1.00  0.00     0.074 A 
ATOM     37  C   UNL A   1      38.066  34.409  34.652  1.00  0.00     0.031 C 
ATOM     38  C   UNL A   1      39.887  33.246  35.872  1.00  0.00     0.037 A 
BRANCH  25  39
ATOM     39  C   UNL A   1      43.672  28.365  35.629  1.00  0.00     0.058 A 
ATOM     40  C   UNL A   1      45.037  28.604  35.399  1.00  0.00     0.135 A 
ATOM     41  C   UNL A   1      43.331  27.363  36.552  1.00  0.00     0.135 A 
ATOM     42  F   UNL A   1      45.421  29.540  34.517  1.00  0.00    -0.206 F 
ATOM     43  C   UNL A   1      46.024  27.860  36.040  1.00  0.00     0.059 A 
ATOM     44  C   UNL A   1      44.301  26.621  37.221  1.00  0.00     0.059 A 
ATOM     45  F   UNL A   1      42.042  27.095  36.811  1.00  0.00    -0.206 F 
ATOM     46  C   UNL A   1      45.646  26.867  36.947  1.00  0.00     0.060 A 
BRANCH  46  47
ATOM     47  S   UNL A   1      46.935  25.905  37.767  1.00  0.00     0.124 S 
ATOM     48  O   UNL A   1      46.389  25.779  39.115  1.00  0.00    -0.237 OA
ATOM     49  O   UNL A   1      46.964  24.678  36.978  1.00  0.00    -0.237 OA
ATOM     50  O   UNL A   1      48.118  26.752  37.646  1.00  0.00    -0.744 OA
ENDBRANCH  46  47
ENDBRANCH  25  39
BRANCH  26  51
ATOM     51  C   UNL A   1      36.343  33.301  30.960  1.00  0.00     0.058 A 
ATOM     52  C   UNL A   1      35.018  33.236  31.413  1.00  0.00     0.135 A 
ATOM     53  C   UNL A   1      36.620  34.114  29.850  1.00  0.00     0.135 A 
ATOM     54  F   UNL A   1      34.706  32.470  32.469  1.00  0.00    -0.206 F 
ATOM     55  C   UNL A   1      34.000  33.946  30.784  1.00  0.00     0.059 A 
ATOM     56  C   UNL A   1      35.625  34.852  29.220  1.00  0.00     0.059 A 
ATOM     57  F   UNL A   1      37.877  34.223  29.393  1.00  0.00    -0.206 F 
ATOM     58  C   UNL A   1      34.315  34.754  29.689  1.00  0.00     0.060 A 
BRANCH  58  59
ATOM     59  S   UNL A   1      33.002  35.723  28.917  1.00  0.00     0.124 S 
ATOM     60  O   UNL A   1      33.769  36.745  28.215  1.00  0.00    -0.237 OA
ATOM     61  O   UNL A   1      32.339  34.731  28.075  1.00  0.00    -0.237 OA
ATOM     62  O   UNL A   1      32.218  36.189  30.056  1.00  0.00    -0.744 OA
ENDBRANCH  58  59
ENDBRANCH  26  51
BRANCH  38  63
ATOM     63  C   UNL A   1      39.802  34.320  36.918  1.00  0.00     0.058 A 
ATOM     64  C   UNL A   1      40.390  35.581  36.729  1.00  0.00     0.135 A 
ATOM     65  C   UNL A   1      39.109  34.090  38.116  1.00  0.00     0.135 A 
ATOM     66  F   UNL A   1      41.069  35.847  35.601  1.00  0.00    -0.206 F 
ATOM     67  C   UNL A   1      40.320  36.567  37.707  1.00  0.00     0.059 A 
ATOM     68  C   UNL A   1      39.007  35.068  39.098  1.00  0.00     0.059 A 
ATOM     69  F   UNL A   1      38.522  32.904  38.341  1.00  0.00    -0.206 F 
ATOM     70  C   UNL A   1      39.631  36.299  38.891  1.00  0.00     0.060 A 
BRANCH  70  71
ATOM     71  S   UNL A   1      39.537  37.586  40.153  1.00  0.00     0.124 S 
ATOM     72  O   UNL A   1      40.902  38.102  40.147  1.00  0.00    -0.237 OA
ATOM     73  O   UNL A   1      38.518  38.483  39.616  1.00  0.00    -0.237 OA
ATOM     74  O   UNL A   1      39.146  36.854  41.354  1.00  0.00    -0.744 OA
ENDBRANCH  70  71
ENDBRANCH  38  63
ENDBRANCH  12  13
ENDBRANCH   5   7
ENDBRANCH   2   3
ENDBRANCH   1   2
BRANCH   1  75
ATOM     75  C   UNL A   1      36.299  23.779  25.792  1.00  0.00     0.023 C 
BRANCH  75  76
ATOM     76  C   UNL A   1      35.594  22.467  26.097  1.00  0.00     0.116 C 
BRANCH  76  77
ATOM     77  N   UNL A   1      34.773  22.502  27.294  1.00  0.00    -0.355 N 
ATOM     78  C   UNL A   1      33.407  22.634  27.320  1.00  0.00     0.230 C 
ATOM     79  H   UNL A   1      35.236  22.425  28.160  1.00  0.00     0.163 HD
ATOM     80  O   UNL A   1      32.788  22.329  28.340  1.00  0.00    -0.274 OA
BRANCH  78  81
ATOM     81  C   UNL A   1      32.773  23.143  26.023  1.00  0.00     0.097 C 
ATOM     82  C   UNL A   1      32.182  21.667  25.882  1.00  0.00     0.139 C 
ATOM     83  C   UNL A   1      31.691  23.591  24.972  1.00  0.00     0.117 C 
ATOM     84  C   UNL A   1      32.492  24.495  26.829  1.00  0.00     0.141 C 
ATOM     85  N   UNL A   1      32.216  21.443  24.444  1.00  0.00    -0.341 N 
ATOM     86  C   UNL A   1      31.937  22.654  23.829  1.00  0.00     0.228 C 
ATOM     87  C   UNL A   1      31.920  25.040  24.596  1.00  0.00     0.136 C 
ATOM     88  N   UNL A   1      32.516  25.523  25.801  1.00  0.00    -0.324 N 
ATOM     89  O   UNL A   1      31.955  22.927  22.643  1.00  0.00    -0.274 OA
BRANCH  85  90
ATOM     90  C   UNL A   1      33.069  20.441  23.824  1.00  0.00     0.123 C 
BRANCH  90  91
ATOM     91  C   UNL A   1      33.390  19.256  24.679  1.00  0.00     0.008 C 
ATOM     92  C   UNL A   1      32.483  18.067  24.880  1.00  0.00     0.006 C 
ATOM     93  C   UNL A   1      33.713  17.931  24.028  1.00  0.00     0.006 C 
ENDBRANCH  90  91
ENDBRANCH  85  90
BRANCH  88  94
ATOM     94  C   UNL A   1      32.617  26.821  26.106  1.00  0.00     0.298 A 
ATOM     95  N   UNL A   1      31.732  27.784  25.978  1.00  0.00    -0.193 NA
ATOM     96  O   UNL A   1      33.833  27.214  26.597  1.00  0.00    -0.423 OA
ATOM     97  C   UNL A   1      32.387  28.887  26.468  1.00  0.00     0.111 A 
ATOM     98  C   UNL A   1      33.688  28.552  26.802  1.00  0.00     0.156 A 
ATOM     99  C   UNL A   1      31.960  30.207  26.664  1.00  0.00     0.032 A 
ATOM    100  C   UNL A   1      34.644  29.443  27.271  1.00  0.00     0.049 A 
ATOM    101  C   UNL A   1      32.888  31.136  27.163  1.00  0.00     0.003 A 
ATOM    102  C   UNL A   1      34.209  30.762  27.444  1.00  0.00     0.004 A 
ENDBRANCH  88  94
ENDBRANCH  78  81
ENDBRANCH  76  77
ENDBRANCH  75  76
ENDBRANCH   1  75
TORSDOF 17
ENDMDL
