MODEL 1
REMARK VINA RESULT:     -11.4      0.000      0.000
REMARK SMILES CC[C@@H](Nc1ccc([N+](=O)[O-])c(N)n1)C(=O)NCCCCNC(=O)c1ccc(-c2c3nc(c(-c4c(F)cc(S(=O)(=O)[O-])cc4F)c4ccc([nH]4)c(-c4c(F)cc(S(=O)(=O)[O-])cc4F)c4nc(c(-c5c(F)cc(S(=O)(=O)[O-])cc5F)c5ccc2[nH]5)C=C4)C=C3)cc1
REMARK SMILES IDX 19 1 18 2 17 3 15 4 16 5 3 7 2 8 1 9 4 10 5 12 6 13 14 14
REMARK SMILES IDX 7 15 12 16 8 17 13 18 9 21 10 22 11 23 20 24 21 25 22 26
REMARK SMILES IDX 23 27 24 29 25 30 26 31 90 32 27 33 89 34 28 35 29 36 30 37
REMARK SMILES IDX 83 38 31 39 88 40 82 41 84 42 32 43 87 44 81 45 80 46 33 48
REMARK SMILES IDX 67 49 46 50 66 51 47 52 50 53 65 54 85 55 48 56 49 57 64 59
REMARK SMILES IDX 86 60 51 61 34 62 35 63 44 64 36 65 37 66 43 67 45 68 38 69
REMARK SMILES IDX 39 70 40 71 41 72 42 73 68 74 69 75 78 76 70 77 71 78 77 79
REMARK SMILES IDX 79 80 72 81 73 82 74 83 75 84 76 85 52 86 53 87 62 88 54 89
REMARK SMILES IDX 55 90 61 91 63 92 56 93 57 94 58 95 59 96 60 97
REMARK H PARENT 17 6 4 11 13 19 13 20 22 28 84 47 50 58
REMARK Flexibility Score: inf
ROOT
ATOM      1  C   UNL A   1      37.640  23.611  25.760  1.00  0.00     0.023 C 
ENDROOT
BRANCH   1   2
ATOM      2  C   UNL A   1      36.210  23.121  25.542  1.00  0.00     0.116 C 
BRANCH   2   3
ATOM      3  N   UNL A   1      35.768  23.401  24.188  1.00  0.00    -0.354 N 
ATOM      4  C   UNL A   1      34.513  23.367  23.654  1.00  0.00     0.242 C 
ATOM      5  O   UNL A   1      34.392  23.617  22.450  1.00  0.00    -0.273 OA
ATOM      6  H   UNL A   1      36.483  23.653  23.560  1.00  0.00     0.163 HD
BRANCH   4   7
ATOM      7  C   UNL A   1      33.271  23.035  24.512  1.00  0.00     0.169 C 
BRANCH   7   8
ATOM      8  C   UNL A   1      32.409  24.303  24.643  1.00  0.00     0.031 C 
ATOM      9  C   UNL A   1      30.983  24.047  25.104  1.00  0.00     0.006 C 
ENDBRANCH   7   8
BRANCH   7  10
ATOM     10  N   UNL A   1      32.501  21.900  24.003  1.00  0.00    -0.358 N 
ATOM     11  H   UNL A   1      31.639  22.120  23.580  1.00  0.00     0.162 HD
BRANCH  10  12
ATOM     12  C   UNL A   1      32.827  20.574  24.039  1.00  0.00     0.129 A 
ATOM     13  C   UNL A   1      33.764  20.010  24.893  1.00  0.00     0.054 A 
ATOM     14  N   UNL A   1      32.184  19.828  23.114  1.00  0.00    -0.208 NA
ATOM     15  C   UNL A   1      34.107  18.668  24.744  1.00  0.00     0.093 A 
ATOM     16  C   UNL A   1      32.480  18.514  22.980  1.00  0.00     0.204 A 
ATOM     17  C   UNL A   1      33.461  17.916  23.762  1.00  0.00     0.311 A 
BRANCH  16  18
ATOM     18  N   UNL A   1      31.801  17.887  21.956  1.00  0.00    -0.378 N 
ATOM     19  H   UNL A   1      31.028  18.329  21.535  1.00  0.00     0.158 HD
ATOM     20  H   UNL A   1      32.088  16.998  21.646  1.00  0.00     0.158 HD
ENDBRANCH  16  18
BRANCH  17  21
ATOM     21  N   UNL A   1      33.814  16.517  23.596  1.00  0.00     0.066 N 
ATOM     22  O   UNL A   1      34.445  16.189  22.579  1.00  0.00    -0.258 OA
ATOM     23  O   UNL A   1      33.423  15.725  24.465  1.00  0.00    -0.258 OA
ENDBRANCH  17  21
ENDBRANCH  10  12
ENDBRANCH   7  10
ENDBRANCH   4   7
ENDBRANCH   2   3
ENDBRANCH   1   2
BRANCH   1  24
ATOM     24  C   UNL A   1      38.645  22.496  26.056  1.00  0.00     0.023 C 
BRANCH  24  25
ATOM     25  C   UNL A   1      39.844  22.926  26.895  1.00  0.00     0.116 C 
BRANCH  25  26
ATOM     26  N   UNL A   1      41.043  23.141  26.097  1.00  0.00    -0.352 N 
ATOM     27  C   UNL A   1      41.847  24.257  26.068  1.00  0.00     0.251 C 
ATOM     28  H   UNL A   1      41.310  22.399  25.508  1.00  0.00     0.163 HD
ATOM     29  O   UNL A   1      42.753  24.355  25.247  1.00  0.00    -0.269 OA
BRANCH  27  30
ATOM     30  C   UNL A   1      41.573  25.347  27.024  1.00  0.00     0.039 A 
ATOM     31  C   UNL A   1      40.610  25.156  28.018  1.00  0.00     0.014 A 
ATOM     32  C   UNL A   1      42.326  26.522  26.974  1.00  0.00     0.014 A 
ATOM     33  C   UNL A   1      40.448  26.125  29.011  1.00  0.00     0.010 A 
ATOM     34  C   UNL A   1      42.205  27.455  27.997  1.00  0.00     0.010 A 
ATOM     35  C   UNL A   1      41.269  27.263  29.027  1.00  0.00    -0.014 A 
BRANCH  35  36
ATOM     36  C   UNL A   1      41.178  28.284  30.099  1.00  0.00     0.031 A 
ATOM     37  C   UNL A   1      42.069  28.172  31.303  1.00  0.00     0.074 A 
ATOM     38  C   UNL A   1      40.220  29.229  30.048  1.00  0.00     0.049 A 
ATOM     39  N   UNL A   1      42.028  28.834  32.428  1.00  0.00    -0.248 NA
ATOM     40  C   UNL A   1      43.124  27.148  31.242  1.00  0.00     0.031 C 
ATOM     41  C   UNL A   1      39.268  29.414  28.951  1.00  0.00     0.029 A 
ATOM     42  N   UNL A   1      39.870  30.196  30.958  1.00  0.00    -0.354 N 
ATOM     43  C   UNL A   1      43.022  28.281  33.225  1.00  0.00     0.074 A 
ATOM     44  C   UNL A   1      43.627  27.208  32.466  1.00  0.00     0.031 C 
ATOM     45  C   UNL A   1      38.442  30.429  29.253  1.00  0.00     0.029 A 
ATOM     46  C   UNL A   1      38.779  30.940  30.579  1.00  0.00     0.049 A 
ATOM     47  H   UNL A   1      40.355  30.342  31.802  1.00  0.00     0.167 HD
ATOM     48  C   UNL A   1      43.403  28.644  34.474  1.00  0.00     0.037 A 
ATOM     49  C   UNL A   1      38.112  31.912  31.233  1.00  0.00     0.037 A 
ATOM     50  C   UNL A   1      42.821  29.736  35.207  1.00  0.00     0.049 A 
ATOM     51  C   UNL A   1      38.573  32.326  32.603  1.00  0.00     0.074 A 
ATOM     52  C   UNL A   1      43.176  30.226  36.450  1.00  0.00     0.029 A 
ATOM     53  N   UNL A   1      41.761  30.511  34.758  1.00  0.00    -0.354 N 
ATOM     54  N   UNL A   1      39.546  31.826  33.327  1.00  0.00    -0.248 NA
ATOM     55  C   UNL A   1      37.855  33.436  33.242  1.00  0.00     0.031 C 
ATOM     56  C   UNL A   1      42.312  31.281  36.766  1.00  0.00     0.029 A 
ATOM     57  C   UNL A   1      41.444  31.472  35.702  1.00  0.00     0.049 A 
ATOM     58  H   UNL A   1      41.302  30.396  33.894  1.00  0.00     0.167 HD
ATOM     59  C   UNL A   1      39.575  32.576  34.496  1.00  0.00     0.074 A 
ATOM     60  C   UNL A   1      38.521  33.565  34.382  1.00  0.00     0.031 C 
ATOM     61  C   UNL A   1      40.402  32.460  35.564  1.00  0.00     0.037 A 
BRANCH  48  62
ATOM     62  C   UNL A   1      44.495  27.836  35.118  1.00  0.00     0.058 A 
ATOM     63  C   UNL A   1      45.850  28.165  34.957  1.00  0.00     0.135 A 
ATOM     64  C   UNL A   1      44.183  26.707  35.892  1.00  0.00     0.135 A 
ATOM     65  F   UNL A   1      46.204  29.227  34.214  1.00  0.00    -0.206 F 
ATOM     66  C   UNL A   1      46.859  27.376  35.496  1.00  0.00     0.059 A 
ATOM     67  C   UNL A   1      45.175  25.918  36.465  1.00  0.00     0.059 A 
ATOM     68  F   UNL A   1      42.903  26.349  36.082  1.00  0.00    -0.206 F 
ATOM     69  C   UNL A   1      46.512  26.247  36.240  1.00  0.00     0.060 A 
BRANCH  69  70
ATOM     70  S   UNL A   1      47.830  25.207  36.904  1.00  0.00     0.124 S 
ATOM     71  O   UNL A   1      47.647  23.982  36.130  1.00  0.00    -0.237 OA
ATOM     72  O   UNL A   1      49.029  25.979  36.593  1.00  0.00    -0.237 OA
ATOM     73  O   UNL A   1      47.501  25.110  38.322  1.00  0.00    -0.744 OA
ENDBRANCH  69  70
ENDBRANCH  48  62
BRANCH  49  74
ATOM     74  C   UNL A   1      36.952  32.569  30.577  1.00  0.00     0.058 A 
ATOM     75  C   UNL A   1      35.640  32.224  30.929  1.00  0.00     0.135 A 
ATOM     76  C   UNL A   1      37.132  33.594  29.636  1.00  0.00     0.135 A 
ATOM     77  F   UNL A   1      35.420  31.244  31.819  1.00  0.00    -0.206 F 
ATOM     78  C   UNL A   1      34.543  32.876  30.375  1.00  0.00     0.059 A 
ATOM     79  C   UNL A   1      36.051  34.274  29.083  1.00  0.00     0.059 A 
ATOM     80  F   UNL A   1      38.370  33.971  29.279  1.00  0.00    -0.206 F 
ATOM     81  C   UNL A   1      34.759  33.907  29.459  1.00  0.00     0.060 A 
BRANCH  81  82
ATOM     82  S   UNL A   1      33.332  34.811  28.819  1.00  0.00     0.124 S 
ATOM     83  O   UNL A   1      33.966  35.991  28.243  1.00  0.00    -0.237 OA
ATOM     84  O   UNL A   1      32.768  33.859  27.866  1.00  0.00    -0.237 OA
ATOM     85  O   UNL A   1      32.521  35.044  30.011  1.00  0.00    -0.744 OA
ENDBRANCH  81  82
ENDBRANCH  49  74
BRANCH  61  86
ATOM     86  C   UNL A   1      40.240  33.449  36.682  1.00  0.00     0.058 A 
ATOM     87  C   UNL A   1      40.976  34.642  36.723  1.00  0.00     0.135 A 
ATOM     88  C   UNL A   1      39.271  33.238  37.676  1.00  0.00     0.135 A 
ATOM     89  F   UNL A   1      41.920  34.886  35.800  1.00  0.00    -0.206 F 
ATOM     90  C   UNL A   1      40.759  35.593  37.714  1.00  0.00     0.059 A 
ATOM     91  C   UNL A   1      39.023  34.184  38.665  1.00  0.00     0.059 A 
ATOM     92  F   UNL A   1      38.535  32.115  37.675  1.00  0.00    -0.206 F 
ATOM     93  C   UNL A   1      39.775  35.358  38.678  1.00  0.00     0.060 A 
BRANCH  93  94
ATOM     94  S   UNL A   1      39.454  36.628  39.921  1.00  0.00     0.124 S 
ATOM     95  O   UNL A   1      40.782  36.821  40.495  1.00  0.00    -0.237 OA
ATOM     96  O   UNL A   1      38.945  37.734  39.115  1.00  0.00    -0.237 OA
ATOM     97  O   UNL A   1      38.473  36.001  40.802  1.00  0.00    -0.744 OA
ENDBRANCH  93  94
ENDBRANCH  61  86
ENDBRANCH  35  36
ENDBRANCH  27  30
ENDBRANCH  25  26
ENDBRANCH  24  25
ENDBRANCH   1  24
TORSDOF 19
ENDMDL
MODEL 2
REMARK VINA RESULT:     -11.3      3.733      9.679
REMARK SMILES CC[C@@H](Nc1ccc([N+](=O)[O-])c(N)n1)C(=O)NCCCCNC(=O)c1ccc(-c2c3nc(c(-c4c(F)cc(S(=O)(=O)[O-])cc4F)c4ccc([nH]4)c(-c4c(F)cc(S(=O)(=O)[O-])cc4F)c4nc(c(-c5c(F)cc(S(=O)(=O)[O-])cc5F)c5ccc2[nH]5)C=C4)C=C3)cc1
REMARK SMILES IDX 19 1 18 2 17 3 15 4 16 5 3 7 2 8 1 9 4 10 5 12 6 13 14 14
REMARK SMILES IDX 7 15 12 16 8 17 13 18 9 21 10 22 11 23 20 24 21 25 22 26
REMARK SMILES IDX 23 27 24 29 25 30 26 31 90 32 27 33 89 34 28 35 29 36 30 37
REMARK SMILES IDX 83 38 31 39 88 40 82 41 84 42 32 43 87 44 81 45 80 46 33 48
REMARK SMILES IDX 67 49 46 50 66 51 47 52 50 53 65 54 85 55 48 56 49 57 64 59
REMARK SMILES IDX 86 60 51 61 34 62 35 63 44 64 36 65 37 66 43 67 45 68 38 69
REMARK SMILES IDX 39 70 40 71 41 72 42 73 68 74 69 75 78 76 70 77 71 78 77 79
REMARK SMILES IDX 79 80 72 81 73 82 74 83 75 84 76 85 52 86 53 87 62 88 54 89
REMARK SMILES IDX 55 90 61 91 63 92 56 93 57 94 58 95 59 96 60 97
REMARK H PARENT 17 6 4 11 13 19 13 20 22 28 84 47 50 58
REMARK Flexibility Score: inf
ROOT
ATOM      1  C   UNL A   1      44.039  23.304  29.070  1.00  0.00     0.023 C 
ENDROOT
BRANCH   1   2
ATOM      2  C   UNL A   1      42.536  23.355  28.809  1.00  0.00     0.116 C 
BRANCH   2   3
ATOM      3  N   UNL A   1      41.980  22.017  28.722  1.00  0.00    -0.354 N 
ATOM      4  C   UNL A   1      41.140  21.479  27.792  1.00  0.00     0.242 C 
ATOM      5  O   UNL A   1      40.775  20.310  27.953  1.00  0.00    -0.273 OA
ATOM      6  H   UNL A   1      42.251  21.405  29.444  1.00  0.00     0.163 HD
BRANCH   4   7
ATOM      7  C   UNL A   1      40.654  22.289  26.568  1.00  0.00     0.169 C 
BRANCH   7   8
ATOM      8  C   UNL A   1      39.808  23.475  27.066  1.00  0.00     0.031 C 
ATOM      9  C   UNL A   1      38.464  23.621  26.371  1.00  0.00     0.006 C 
ENDBRANCH   7   8
BRANCH   7  10
ATOM     10  N   UNL A   1      41.741  22.722  25.690  1.00  0.00    -0.358 N 
ATOM     11  H   UNL A   1      41.640  23.615  25.289  1.00  0.00     0.162 HD
BRANCH  10  12
ATOM     12  C   UNL A   1      42.879  22.043  25.357  1.00  0.00     0.129 A 
ATOM     13  C   UNL A   1      43.936  22.572  24.630  1.00  0.00     0.054 A 
ATOM     14  N   UNL A   1      42.882  20.753  25.758  1.00  0.00    -0.208 NA
ATOM     15  C   UNL A   1      44.982  21.740  24.238  1.00  0.00     0.093 A 
ATOM     16  C   UNL A   1      43.908  19.940  25.416  1.00  0.00     0.204 A 
ATOM     17  C   UNL A   1      44.956  20.401  24.629  1.00  0.00     0.311 A 
BRANCH  16  18
ATOM     18  N   UNL A   1      43.754  18.633  25.832  1.00  0.00    -0.378 N 
ATOM     19  H   UNL A   1      42.906  18.160  25.663  1.00  0.00     0.158 HD
ATOM     20  H   UNL A   1      44.489  18.174  26.297  1.00  0.00     0.158 HD
ENDBRANCH  16  18
BRANCH  17  21
ATOM     21  N   UNL A   1      46.041  19.525  24.222  1.00  0.00     0.066 N 
ATOM     22  O   UNL A   1      45.821  18.700  23.322  1.00  0.00    -0.258 OA
ATOM     23  O   UNL A   1      47.114  19.627  24.834  1.00  0.00    -0.258 OA
ENDBRANCH  17  21
ENDBRANCH  10  12
ENDBRANCH   7  10
ENDBRANCH   4   7
ENDBRANCH   2   3
ENDBRANCH   1   2
BRANCH   1  24
ATOM     24  C   UNL A   1      44.895  23.803  27.904  1.00  0.00     0.023 C 
BRANCH  24  25
ATOM     25  C   UNL A   1      44.657  25.259  27.517  1.00  0.00     0.116 C 
BRANCH  25  26
ATOM     26  N   UNL A   1      43.860  25.398  26.307  1.00  0.00    -0.352 N 
ATOM     27  C   UNL A   1      42.673  26.075  26.153  1.00  0.00     0.251 C 
ATOM     28  H   UNL A   1      44.212  24.953  25.502  1.00  0.00     0.163 HD
ATOM     29  O   UNL A   1      42.038  25.999  25.106  1.00  0.00    -0.269 OA
BRANCH  27  30
ATOM     30  C   UNL A   1      42.164  26.870  27.288  1.00  0.00     0.039 A 
ATOM     31  C   UNL A   1      41.192  26.317  28.125  1.00  0.00     0.014 A 
ATOM     32  C   UNL A   1      42.708  28.128  27.556  1.00  0.00     0.014 A 
ATOM     33  C   UNL A   1      40.812  27.004  29.281  1.00  0.00     0.010 A 
ATOM     34  C   UNL A   1      42.373  28.779  28.736  1.00  0.00     0.010 A 
ATOM     35  C   UNL A   1      41.426  28.222  29.612  1.00  0.00    -0.014 A 
BRANCH  35  36
ATOM     36  C   UNL A   1      41.102  28.952  30.861  1.00  0.00     0.031 A 
ATOM     37  C   UNL A   1      39.958  29.925  30.873  1.00  0.00     0.074 A 
ATOM     38  C   UNL A   1      41.902  28.831  31.938  1.00  0.00     0.049 A 
ATOM     39  N   UNL A   1      39.622  30.797  31.785  1.00  0.00    -0.248 NA
ATOM     40  C   UNL A   1      39.104  29.944  29.675  1.00  0.00     0.031 C 
ATOM     41  C   UNL A   1      43.067  27.950  32.034  1.00  0.00     0.029 A 
ATOM     42  N   UNL A   1      41.874  29.478  33.149  1.00  0.00    -0.354 N 
ATOM     43  C   UNL A   1      38.543  31.496  31.258  1.00  0.00     0.074 A 
ATOM     44  C   UNL A   1      38.304  30.968  29.932  1.00  0.00     0.031 C 
ATOM     45  C   UNL A   1      43.642  28.112  33.237  1.00  0.00     0.029 A 
ATOM     46  C   UNL A   1      42.913  29.136  33.980  1.00  0.00     0.049 A 
ATOM     47  H   UNL A   1      41.176  30.126  33.397  1.00  0.00     0.167 HD
ATOM     48  C   UNL A   1      37.812  32.481  31.832  1.00  0.00     0.037 A 
ATOM     49  C   UNL A   1      43.252  29.608  35.196  1.00  0.00     0.037 A 
ATOM     50  C   UNL A   1      38.034  32.975  33.165  1.00  0.00     0.049 A 
ATOM     51  C   UNL A   1      42.407  30.675  35.833  1.00  0.00     0.074 A 
ATOM     52  C   UNL A   1      37.311  33.924  33.864  1.00  0.00     0.029 A 
ATOM     53  N   UNL A   1      39.056  32.552  34.003  1.00  0.00    -0.354 N 
ATOM     54  N   UNL A   1      41.361  31.295  35.342  1.00  0.00    -0.248 NA
ATOM     55  C   UNL A   1      42.780  31.103  37.187  1.00  0.00     0.031 C 
ATOM     56  C   UNL A   1      37.914  34.096  35.116  1.00  0.00     0.029 A 
ATOM     57  C   UNL A   1      38.989  33.226  35.209  1.00  0.00     0.049 A 
ATOM     58  H   UNL A   1      39.730  31.872  33.773  1.00  0.00     0.167 HD
ATOM     59  C   UNL A   1      40.933  32.168  36.336  1.00  0.00     0.074 A 
ATOM     60  C   UNL A   1      41.836  31.996  37.457  1.00  0.00     0.031 C 
ATOM     61  C   UNL A   1      39.886  33.029  36.322  1.00  0.00     0.037 A 
BRANCH  48  62
ATOM     62  C   UNL A   1      36.714  33.090  31.006  1.00  0.00     0.058 A 
ATOM     63  C   UNL A   1      36.988  33.980  29.955  1.00  0.00     0.135 A 
ATOM     64  C   UNL A   1      35.369  32.796  31.281  1.00  0.00     0.135 A 
ATOM     65  F   UNL A   1      38.257  34.307  29.660  1.00  0.00    -0.206 F 
ATOM     66  C   UNL A   1      35.968  34.595  29.238  1.00  0.00     0.059 A 
ATOM     67  C   UNL A   1      34.332  33.379  30.559  1.00  0.00     0.059 A 
ATOM     68  F   UNL A   1      35.051  31.949  32.273  1.00  0.00    -0.206 F 
ATOM     69  C   UNL A   1      34.641  34.297  29.555  1.00  0.00     0.060 A 
BRANCH  69  70
ATOM     70  S   UNL A   1      33.324  35.130  28.645  1.00  0.00     0.124 S 
ATOM     71  O   UNL A   1      34.086  36.080  27.840  1.00  0.00    -0.237 OA
ATOM     72  O   UNL A   1      32.704  34.032  27.910  1.00  0.00    -0.237 OA
ATOM     73  O   UNL A   1      32.503  35.715  29.700  1.00  0.00    -0.744 OA
ENDBRANCH  69  70
ENDBRANCH  48  62
BRANCH  49  74
ATOM     74  C   UNL A   1      44.440  29.045  35.891  1.00  0.00     0.058 A 
ATOM     75  C   UNL A   1      45.708  29.618  35.720  1.00  0.00     0.135 A 
ATOM     76  C   UNL A   1      44.320  27.970  36.785  1.00  0.00     0.135 A 
ATOM     77  F   UNL A   1      45.871  30.644  34.871  1.00  0.00    -0.206 F 
ATOM     78  C   UNL A   1      46.817  29.148  36.415  1.00  0.00     0.059 A 
ATOM     79  C   UNL A   1      45.411  27.495  37.505  1.00  0.00     0.059 A 
ATOM     80  F   UNL A   1      43.123  27.399  36.994  1.00  0.00    -0.206 F 
ATOM     81  C   UNL A   1      46.658  28.092  37.313  1.00  0.00     0.060 A 
BRANCH  81  82
ATOM     82  S   UNL A   1      48.085  27.553  38.280  1.00  0.00     0.124 S 
ATOM     83  O   UNL A   1      48.144  28.580  39.313  1.00  0.00    -0.237 OA
ATOM     84  O   UNL A   1      47.671  26.224  38.723  1.00  0.00    -0.237 OA
ATOM     85  O   UNL A   1      49.174  27.568  37.307  1.00  0.00    -0.744 OA
ENDBRANCH  81  82
ENDBRANCH  49  74
BRANCH  61  86
ATOM     86  C   UNL A   1      39.622  33.825  37.567  1.00  0.00     0.058 A 
ATOM     87  C   UNL A   1      38.708  33.393  38.538  1.00  0.00     0.135 A 
ATOM     88  C   UNL A   1      40.362  34.989  37.830  1.00  0.00     0.135 A 
ATOM     89  F   UNL A   1      37.971  32.290  38.329  1.00  0.00    -0.206 F 
ATOM     90  C   UNL A   1      38.532  34.090  39.728  1.00  0.00     0.059 A 
ATOM     91  C   UNL A   1      40.217  35.691  39.022  1.00  0.00     0.059 A 
ATOM     92  F   UNL A   1      41.256  35.439  36.935  1.00  0.00    -0.206 F 
ATOM     93  C   UNL A   1      39.296  35.235  39.964  1.00  0.00     0.060 A 
BRANCH  93  94
ATOM     94  S   UNL A   1      39.109  36.096  41.541  1.00  0.00     0.124 S 
ATOM     95  O   UNL A   1      37.937  35.432  42.102  1.00  0.00    -0.237 OA
ATOM     96  O   UNL A   1      40.378  35.812  42.205  1.00  0.00    -0.237 OA
ATOM     97  O   UNL A   1      38.914  37.488  41.147  1.00  0.00    -0.744 OA
ENDBRANCH  93  94
ENDBRANCH  61  86
ENDBRANCH  35  36
ENDBRANCH  27  30
ENDBRANCH  25  26
ENDBRANCH  24  25
ENDBRANCH   1  24
TORSDOF 19
ENDMDL
MODEL 3
REMARK VINA RESULT:     -11.2      6.749     12.233
REMARK SMILES CC[C@@H](Nc1ccc([N+](=O)[O-])c(N)n1)C(=O)NCCCCNC(=O)c1ccc(-c2c3nc(c(-c4c(F)cc(S(=O)(=O)[O-])cc4F)c4ccc([nH]4)c(-c4c(F)cc(S(=O)(=O)[O-])cc4F)c4nc(c(-c5c(F)cc(S(=O)(=O)[O-])cc5F)c5ccc2[nH]5)C=C4)C=C3)cc1
REMARK SMILES IDX 19 1 18 2 17 3 15 4 16 5 3 7 2 8 1 9 4 10 5 12 6 13 14 14
REMARK SMILES IDX 7 15 12 16 8 17 13 18 9 21 10 22 11 23 20 24 21 25 22 26
REMARK SMILES IDX 23 27 24 29 25 30 26 31 90 32 27 33 89 34 28 35 29 36 30 37
REMARK SMILES IDX 83 38 31 39 88 40 82 41 84 42 32 43 87 44 81 45 80 46 33 48
REMARK SMILES IDX 67 49 46 50 66 51 47 52 50 53 65 54 85 55 48 56 49 57 64 59
REMARK SMILES IDX 86 60 51 61 34 62 35 63 44 64 36 65 37 66 43 67 45 68 38 69
REMARK SMILES IDX 39 70 40 71 41 72 42 73 68 74 69 75 78 76 70 77 71 78 77 79
REMARK SMILES IDX 79 80 72 81 73 82 74 83 75 84 76 85 52 86 53 87 62 88 54 89
REMARK SMILES IDX 55 90 61 91 63 92 56 93 57 94 58 95 59 96 60 97
REMARK H PARENT 17 6 4 11 13 19 13 20 22 28 84 47 50 58
REMARK Flexibility Score: inf
ROOT
ATOM      1  C   UNL A   1      33.391  28.413  27.386  1.00  0.00     0.023 C 
ENDROOT
BRANCH   1   2
ATOM      2  C   UNL A   1      32.963  27.316  26.414  1.00  0.00     0.116 C 
BRANCH   2   3
ATOM      3  N   UNL A   1      31.701  26.727  26.823  1.00  0.00    -0.354 N 
ATOM      4  C   UNL A   1      30.839  25.936  26.122  1.00  0.00     0.242 C 
ATOM      5  O   UNL A   1      29.796  25.581  26.683  1.00  0.00    -0.273 OA
ATOM      6  H   UNL A   1      31.426  26.930  27.747  1.00  0.00     0.163 HD
BRANCH   4   7
ATOM      7  C   UNL A   1      31.140  25.485  24.674  1.00  0.00     0.169 C 
BRANCH   7   8
ATOM      8  C   UNL A   1      31.350  23.960  24.667  1.00  0.00     0.031 C 
ATOM      9  C   UNL A   1      32.589  23.495  25.415  1.00  0.00     0.006 C 
ENDBRANCH   7   8
BRANCH   7  10
ATOM     10  N   UNL A   1      30.119  25.901  23.713  1.00  0.00    -0.358 N 
ATOM     11  H   UNL A   1      29.670  25.176  23.221  1.00  0.00     0.162 HD
BRANCH  10  12
ATOM     12  C   UNL A   1      29.711  27.170  23.411  1.00  0.00     0.129 A 
ATOM     13  C   UNL A   1      30.556  28.258  23.249  1.00  0.00     0.054 A 
ATOM     14  N   UNL A   1      28.370  27.307  23.327  1.00  0.00    -0.208 NA
ATOM     15  C   UNL A   1      30.011  29.529  23.076  1.00  0.00     0.093 A 
ATOM     16  C   UNL A   1      27.825  28.529  23.123  1.00  0.00     0.204 A 
ATOM     17  C   UNL A   1      28.623  29.662  23.025  1.00  0.00     0.311 A 
BRANCH  16  18
ATOM     18  N   UNL A   1      26.445  28.537  23.125  1.00  0.00    -0.378 N 
ATOM     19  H   UNL A   1      25.955  29.024  22.422  1.00  0.00     0.158 HD
ATOM     20  H   UNL A   1      25.950  28.056  23.826  1.00  0.00     0.158 HD
ENDBRANCH  16  18
BRANCH  17  21
ATOM     21  N   UNL A   1      28.045  30.983  22.848  1.00  0.00     0.066 N 
ATOM     22  O   UNL A   1      28.601  31.764  22.060  1.00  0.00    -0.258 OA
ATOM     23  O   UNL A   1      27.052  31.265  23.534  1.00  0.00    -0.258 OA
ENDBRANCH  17  21
ENDBRANCH  10  12
ENDBRANCH   7  10
ENDBRANCH   4   7
ENDBRANCH   2   3
ENDBRANCH   1   2
BRANCH   1  24
ATOM     24  C   UNL A   1      34.434  29.379  26.820  1.00  0.00     0.023 C 
BRANCH  24  25
ATOM     25  C   UNL A   1      35.687  29.537  27.675  1.00  0.00     0.116 C 
BRANCH  25  26
ATOM     26  N   UNL A   1      35.422  30.185  28.951  1.00  0.00    -0.352 N 
ATOM     27  C   UNL A   1      36.318  30.467  29.956  1.00  0.00     0.251 C 
ATOM     28  H   UNL A   1      34.489  30.455  29.115  1.00  0.00     0.163 HD
ATOM     29  O   UNL A   1      35.932  30.898  31.038  1.00  0.00    -0.269 OA
BRANCH  27  30
ATOM     30  C   UNL A   1      37.750  30.207  29.714  1.00  0.00     0.039 A 
ATOM     31  C   UNL A   1      38.566  29.840  30.787  1.00  0.00     0.014 A 
ATOM     32  C   UNL A   1      38.257  30.258  28.414  1.00  0.00     0.014 A 
ATOM     33  C   UNL A   1      39.887  29.454  30.543  1.00  0.00     0.010 A 
ATOM     34  C   UNL A   1      39.551  29.815  28.168  1.00  0.00     0.010 A 
ATOM     35  C   UNL A   1      40.376  29.405  29.228  1.00  0.00    -0.014 A 
BRANCH  35  36
ATOM     36  C   UNL A   1      41.748  28.938  28.917  1.00  0.00     0.031 A 
ATOM     37  C   UNL A   1      42.875  29.930  28.876  1.00  0.00     0.074 A 
ATOM     38  C   UNL A   1      41.957  27.657  28.555  1.00  0.00     0.049 A 
ATOM     39  N   UNL A   1      44.099  29.776  28.447  1.00  0.00    -0.248 NA
ATOM     40  C   UNL A   1      42.565  31.290  29.346  1.00  0.00     0.031 C 
ATOM     41  C   UNL A   1      40.936  26.610  28.515  1.00  0.00     0.029 A 
ATOM     42  N   UNL A   1      43.098  27.027  28.121  1.00  0.00    -0.354 N 
ATOM     43  C   UNL A   1      44.695  31.026  28.557  1.00  0.00     0.074 A 
ATOM     44  C   UNL A   1      43.687  31.934  29.062  1.00  0.00     0.031 C 
ATOM     45  C   UNL A   1      41.494  25.469  28.080  1.00  0.00     0.029 A 
ATOM     46  C   UNL A   1      42.901  25.712  27.772  1.00  0.00     0.049 A 
ATOM     47  H   UNL A   1      43.972  27.474  28.065  1.00  0.00     0.167 HD
ATOM     48  C   UNL A   1      45.971  31.382  28.273  1.00  0.00     0.037 A 
ATOM     49  C   UNL A   1      43.752  24.811  27.244  1.00  0.00     0.037 A 
ATOM     50  C   UNL A   1      46.977  30.465  27.807  1.00  0.00     0.049 A 
ATOM     51  C   UNL A   1      45.174  25.213  26.970  1.00  0.00     0.074 A 
ATOM     52  C   UNL A   1      48.314  30.709  27.551  1.00  0.00     0.029 A 
ATOM     53  N   UNL A   1      46.754  29.123  27.531  1.00  0.00    -0.354 N 
ATOM     54  N   UNL A   1      45.737  26.388  27.123  1.00  0.00    -0.248 NA
ATOM     55  C   UNL A   1      46.076  24.174  26.461  1.00  0.00     0.031 C 
ATOM     56  C   UNL A   1      48.894  29.520  27.093  1.00  0.00     0.029 A 
ATOM     57  C   UNL A   1      47.926  28.528  27.101  1.00  0.00     0.049 A 
ATOM     58  H   UNL A   1      45.889  28.663  27.628  1.00  0.00     0.167 HD
ATOM     59  C   UNL A   1      47.067  26.223  26.754  1.00  0.00     0.074 A 
ATOM     60  C   UNL A   1      47.224  24.835  26.370  1.00  0.00     0.031 C 
ATOM     61  C   UNL A   1      48.068  27.138  26.739  1.00  0.00     0.037 A 
BRANCH  48  62
ATOM     62  C   UNL A   1      46.335  32.829  28.452  1.00  0.00     0.058 A 
ATOM     63  C   UNL A   1      46.231  33.752  27.399  1.00  0.00     0.135 A 
ATOM     64  C   UNL A   1      46.813  33.296  29.687  1.00  0.00     0.135 A 
ATOM     65  F   UNL A   1      45.793  33.355  26.193  1.00  0.00    -0.206 F 
ATOM     66  C   UNL A   1      46.634  35.075  27.548  1.00  0.00     0.059 A 
ATOM     67  C   UNL A   1      47.197  34.621  29.867  1.00  0.00     0.059 A 
ATOM     68  F   UNL A   1      46.930  32.457  30.728  1.00  0.00    -0.206 F 
ATOM     69  C   UNL A   1      47.127  35.497  28.784  1.00  0.00     0.060 A 
BRANCH  69  70
ATOM     70  S   UNL A   1      47.684  37.205  28.957  1.00  0.00     0.124 S 
ATOM     71  O   UNL A   1      46.799  37.893  28.021  1.00  0.00    -0.237 OA
ATOM     72  O   UNL A   1      47.443  37.476  30.370  1.00  0.00    -0.237 OA
ATOM     73  O   UNL A   1      49.089  37.144  28.565  1.00  0.00    -0.744 OA
ENDBRANCH  69  70
ENDBRANCH  48  62
BRANCH  49  74
ATOM     74  C   UNL A   1      43.273  23.431  26.967  1.00  0.00     0.058 A 
ATOM     75  C   UNL A   1      43.023  23.009  25.654  1.00  0.00     0.135 A 
ATOM     76  C   UNL A   1      43.117  22.493  27.999  1.00  0.00     0.135 A 
ATOM     77  F   UNL A   1      43.153  23.874  24.636  1.00  0.00    -0.206 F 
ATOM     78  C   UNL A   1      42.641  21.702  25.370  1.00  0.00     0.059 A 
ATOM     79  C   UNL A   1      42.753  21.175  27.739  1.00  0.00     0.059 A 
ATOM     80  F   UNL A   1      43.359  22.846  29.271  1.00  0.00    -0.206 F 
ATOM     81  C   UNL A   1      42.517  20.790  26.419  1.00  0.00     0.060 A 
BRANCH  81  82
ATOM     82  S   UNL A   1      42.113  19.072  26.030  1.00  0.00     0.124 S 
ATOM     83  O   UNL A   1      42.888  18.856  24.813  1.00  0.00    -0.237 OA
ATOM     84  O   UNL A   1      42.584  18.369  27.220  1.00  0.00    -0.237 OA
ATOM     85  O   UNL A   1      40.663  19.099  25.861  1.00  0.00    -0.744 OA
ENDBRANCH  81  82
ENDBRANCH  49  74
BRANCH  61  86
ATOM     86  C   UNL A   1      49.436  26.668  26.338  1.00  0.00     0.058 A 
ATOM     87  C   UNL A   1      49.931  26.862  25.041  1.00  0.00     0.135 A 
ATOM     88  C   UNL A   1      50.293  26.097  27.292  1.00  0.00     0.135 A 
ATOM     89  F   UNL A   1      49.147  27.397  24.091  1.00  0.00    -0.206 F 
ATOM     90  C   UNL A   1      51.231  26.503  24.700  1.00  0.00     0.059 A 
ATOM     91  C   UNL A   1      51.603  25.749  26.979  1.00  0.00     0.059 A 
ATOM     92  F   UNL A   1      49.868  25.898  28.550  1.00  0.00    -0.206 F 
ATOM     93  C   UNL A   1      52.062  25.952  25.678  1.00  0.00     0.060 A 
BRANCH  93  94
ATOM     94  S   UNL A   1      53.768  25.551  25.244  1.00  0.00     0.124 S 
ATOM     95  O   UNL A   1      53.772  25.795  23.806  1.00  0.00    -0.237 OA
ATOM     96  O   UNL A   1      54.529  26.501  26.051  1.00  0.00    -0.237 OA
ATOM     97  O   UNL A   1      53.900  24.153  25.645  1.00  0.00    -0.744 OA
ENDBRANCH  93  94
ENDBRANCH  61  86
ENDBRANCH  35  36
ENDBRANCH  27  30
ENDBRANCH  25  26
ENDBRANCH  24  25
ENDBRANCH   1  24
TORSDOF 19
ENDMDL
