MODEL 1
REMARK VINA RESULT:     -12.2      0.000      0.000
REMARK SMILES CCCc1nc2cc(C(=O)NCCCCNC(=O)c3ccc(-c4c5nc(c(-c6c(F)cc(S(=O)(=O)[O-])cc6F)c6ccc([nH]6)c(-c6c(F)cc(S(=O)(=O)[O-])cc6F)c6nc(c(-c7c(F)cc(S(=O)(=O)[O-])cc7F)c7ccc4[nH]7)C=C6)C=C5)cc3)ccc2n1[C@H](CO)C(C)C
REMARK SMILES IDX 13 1 12 2 11 3 9 4 10 5 8 7 4 8 5 9 88 10 6 11 87 12 7 13
REMARK SMILES IDX 86 14 85 15 3 16 2 17 1 18 89 19 92 20 93 21 94 22 90 23
REMARK SMILES IDX 91 24 14 26 15 27 16 28 17 29 18 31 19 32 20 33 84 34 21 35
REMARK SMILES IDX 83 36 22 37 23 38 24 39 77 40 25 41 82 42 76 43 78 44 26 45
REMARK SMILES IDX 81 46 75 47 74 48 27 50 61 51 40 52 60 53 41 54 44 55 59 56
REMARK SMILES IDX 79 57 42 58 43 59 58 61 80 62 45 63 28 64 29 65 38 66 30 67
REMARK SMILES IDX 31 68 37 69 39 70 32 71 33 72 34 73 35 74 36 75 62 76 63 77
REMARK SMILES IDX 72 78 64 79 65 80 71 81 73 82 66 83 67 84 68 85 69 86 70 87
REMARK SMILES IDX 46 88 47 89 56 90 48 91 49 92 55 93 57 94 50 95 51 96 52 97
REMARK SMILES IDX 53 98 54 99
REMARK H PARENT 11 6 91 25 16 30 78 49 44 60
REMARK Flexibility Score: inf
ROOT
ATOM      1  C   UNL A   1      35.869  21.819  24.532  1.00  0.00     0.023 C 
ENDROOT
BRANCH   1   2
ATOM      2  C   UNL A   1      35.337  21.292  25.867  1.00  0.00     0.116 C 
BRANCH   2   3
ATOM      3  N   UNL A   1      34.167  20.460  25.671  1.00  0.00    -0.352 N 
ATOM      4  C   UNL A   1      32.883  20.725  25.270  1.00  0.00     0.251 C 
ATOM      5  O   UNL A   1      32.139  19.755  25.116  1.00  0.00    -0.269 OA
ATOM      6  H   UNL A   1      34.327  19.509  25.867  1.00  0.00     0.163 HD
BRANCH   4   7
ATOM      7  C   UNL A   1      32.356  22.092  24.983  1.00  0.00     0.042 A 
ATOM      8  C   UNL A   1      31.410  26.395  26.064  1.00  0.00     0.110 A 
ATOM      9  N   UNL A   1      31.703  25.312  26.764  1.00  0.00    -0.233 NA
ATOM     10  N   UNL A   1      31.133  26.055  24.746  1.00  0.00    -0.322 N 
ATOM     11  C   UNL A   1      31.792  24.280  25.879  1.00  0.00     0.090 A 
ATOM     12  C   UNL A   1      31.449  24.707  24.606  1.00  0.00     0.069 A 
ATOM     13  C   UNL A   1      32.205  22.956  26.086  1.00  0.00     0.044 A 
ATOM     14  C   UNL A   1      31.540  23.859  23.498  1.00  0.00     0.029 A 
ATOM     15  C   UNL A   1      32.075  22.581  23.706  1.00  0.00     0.016 A 
BRANCH   8  16
ATOM     16  C   UNL A   1      31.434  27.776  26.649  1.00  0.00     0.075 C 
BRANCH  16  17
ATOM     17  C   UNL A   1      32.799  28.207  27.199  1.00  0.00     0.005 C 
ATOM     18  C   UNL A   1      33.623  29.060  26.246  1.00  0.00     0.004 C 
ENDBRANCH  16  17
ENDBRANCH   8  16
BRANCH  10  19
ATOM     19  C   UNL A   1      30.697  26.875  23.599  1.00  0.00     0.117 C 
BRANCH  19  20
ATOM     20  C   UNL A   1      29.359  27.669  23.767  1.00  0.00     0.008 C 
ATOM     21  C   UNL A   1      29.139  28.718  22.664  1.00  0.00     0.009 C 
ATOM     22  C   UNL A   1      28.120  26.763  23.790  1.00  0.00     0.009 C 
ENDBRANCH  19  20
BRANCH  19  23
ATOM     23  C   UNL A   1      31.839  27.809  23.118  1.00  0.00     0.181 C 
BRANCH  23  24
ATOM     24  O   UNL A   1      32.533  27.351  21.965  1.00  0.00    -0.394 OA
ATOM     25  H   UNL A   1      32.545  26.381  21.959  1.00  0.00     0.210 HD
ENDBRANCH  23  24
ENDBRANCH  19  23
ENDBRANCH  10  19
ENDBRANCH   4   7
ENDBRANCH   2   3
ENDBRANCH   1   2
BRANCH   1  26
ATOM     26  C   UNL A   1      37.400  21.949  24.478  1.00  0.00     0.023 C 
BRANCH  26  27
ATOM     27  C   UNL A   1      38.060  22.181  25.841  1.00  0.00     0.116 C 
BRANCH  27  28
ATOM     28  N   UNL A   1      39.438  21.730  25.882  1.00  0.00    -0.352 N 
ATOM     29  C   UNL A   1      40.605  22.238  26.379  1.00  0.00     0.251 C 
ATOM     30  H   UNL A   1      39.561  20.852  25.453  1.00  0.00     0.163 HD
ATOM     31  O   UNL A   1      41.584  21.489  26.312  1.00  0.00    -0.269 OA
BRANCH  29  32
ATOM     32  C   UNL A   1      40.780  23.602  26.951  1.00  0.00     0.039 A 
ATOM     33  C   UNL A   1      41.734  23.960  27.902  1.00  0.00     0.014 A 
ATOM     34  C   UNL A   1      39.856  24.579  26.529  1.00  0.00     0.014 A 
ATOM     35  C   UNL A   1      41.741  25.241  28.444  1.00  0.00     0.010 A 
ATOM     36  C   UNL A   1      39.858  25.863  27.070  1.00  0.00     0.010 A 
ATOM     37  C   UNL A   1      40.785  26.183  28.055  1.00  0.00    -0.014 A 
BRANCH  37  38
ATOM     38  C   UNL A   1      40.859  27.497  28.687  1.00  0.00     0.031 A 
ATOM     39  C   UNL A   1      41.939  28.391  28.176  1.00  0.00     0.074 A 
ATOM     40  C   UNL A   1      40.024  27.927  29.654  1.00  0.00     0.049 A 
ATOM     41  N   UNL A   1      43.004  28.784  28.795  1.00  0.00    -0.248 NA
ATOM     42  C   UNL A   1      41.883  28.796  26.765  1.00  0.00     0.031 C 
ATOM     43  C   UNL A   1      38.777  27.323  30.120  1.00  0.00     0.029 A 
ATOM     44  N   UNL A   1      40.106  29.074  30.385  1.00  0.00    -0.354 N 
ATOM     45  C   UNL A   1      43.673  29.636  27.919  1.00  0.00     0.074 A 
ATOM     46  C   UNL A   1      43.008  29.505  26.648  1.00  0.00     0.031 C 
ATOM     47  C   UNL A   1      38.117  28.210  30.899  1.00  0.00     0.029 A 
ATOM     48  C   UNL A   1      38.958  29.379  31.101  1.00  0.00     0.049 A 
ATOM     49  H   UNL A   1      40.913  29.639  30.405  1.00  0.00     0.167 HD
ATOM     50  C   UNL A   1      44.620  30.515  28.349  1.00  0.00     0.037 A 
ATOM     51  C   UNL A   1      38.699  30.531  31.767  1.00  0.00     0.037 A 
ATOM     52  C   UNL A   1      45.100  30.174  29.663  1.00  0.00     0.049 A 
ATOM     53  C   UNL A   1      40.008  31.160  32.088  1.00  0.00     0.074 A 
ATOM     54  C   UNL A   1      45.758  29.087  30.206  1.00  0.00     0.029 A 
ATOM     55  N   UNL A   1      44.628  30.895  30.732  1.00  0.00    -0.354 N 
ATOM     56  N   UNL A   1      40.871  30.659  32.929  1.00  0.00    -0.248 NA
ATOM     57  C   UNL A   1      40.546  32.138  31.154  1.00  0.00     0.031 C 
ATOM     58  C   UNL A   1      45.231  28.956  31.523  1.00  0.00     0.029 A 
ATOM     59  C   UNL A   1      44.318  29.993  31.717  1.00  0.00     0.049 A 
ATOM     60  H   UNL A   1      44.530  31.874  30.781  1.00  0.00     0.167 HD
ATOM     61  C   UNL A   1      42.111  30.929  32.371  1.00  0.00     0.074 A 
ATOM     62  C   UNL A   1      41.852  31.924  31.334  1.00  0.00     0.031 C 
ATOM     63  C   UNL A   1      43.191  30.129  32.615  1.00  0.00     0.037 A 
BRANCH  50  64
ATOM     64  C   UNL A   1      44.889  31.870  27.734  1.00  0.00     0.058 A 
ATOM     65  C   UNL A   1      46.091  32.083  27.023  1.00  0.00     0.135 A 
ATOM     66  C   UNL A   1      44.167  33.035  28.071  1.00  0.00     0.135 A 
ATOM     67  F   UNL A   1      46.854  31.047  26.640  1.00  0.00    -0.206 F 
ATOM     68  C   UNL A   1      46.589  33.360  26.763  1.00  0.00     0.059 A 
ATOM     69  C   UNL A   1      44.620  34.316  27.774  1.00  0.00     0.059 A 
ATOM     70  F   UNL A   1      43.041  32.993  28.792  1.00  0.00    -0.206 F 
ATOM     71  C   UNL A   1      45.857  34.470  27.169  1.00  0.00     0.060 A 
BRANCH  71  72
ATOM     72  S   UNL A   1      46.569  36.115  26.981  1.00  0.00     0.124 S 
ATOM     73  O   UNL A   1      47.511  35.898  25.889  1.00  0.00    -0.237 OA
ATOM     74  O   UNL A   1      45.394  36.919  26.662  1.00  0.00    -0.237 OA
ATOM     75  O   UNL A   1      47.164  36.374  28.288  1.00  0.00    -0.744 OA
ENDBRANCH  71  72
ENDBRANCH  50  64
BRANCH  51  76
ATOM     76  C   UNL A   1      37.407  31.262  31.842  1.00  0.00     0.058 A 
ATOM     77  C   UNL A   1      36.855  31.656  33.074  1.00  0.00     0.135 A 
ATOM     78  C   UNL A   1      36.823  31.833  30.691  1.00  0.00     0.135 A 
ATOM     79  F   UNL A   1      37.365  31.186  34.223  1.00  0.00    -0.206 F 
ATOM     80  C   UNL A   1      35.816  32.591  33.162  1.00  0.00     0.059 A 
ATOM     81  C   UNL A   1      35.781  32.754  30.753  1.00  0.00     0.059 A 
ATOM     82  F   UNL A   1      37.311  31.580  29.468  1.00  0.00    -0.206 F 
ATOM     83  C   UNL A   1      35.298  33.149  31.994  1.00  0.00     0.060 A 
BRANCH  83  84
ATOM     84  S   UNL A   1      34.073  34.475  32.107  1.00  0.00     0.124 S 
ATOM     85  O   UNL A   1      33.101  33.909  33.036  1.00  0.00    -0.237 OA
ATOM     86  O   UNL A   1      34.869  35.587  32.614  1.00  0.00    -0.237 OA
ATOM     87  O   UNL A   1      33.605  34.623  30.730  1.00  0.00    -0.744 OA
ENDBRANCH  83  84
ENDBRANCH  51  76
BRANCH  63  88
ATOM     88  C   UNL A   1      43.109  29.126  33.735  1.00  0.00     0.058 A 
ATOM     89  C   UNL A   1      43.388  29.423  35.080  1.00  0.00     0.135 A 
ATOM     90  C   UNL A   1      42.536  27.874  33.459  1.00  0.00     0.135 A 
ATOM     91  F   UNL A   1      43.844  30.633  35.439  1.00  0.00    -0.206 F 
ATOM     92  C   UNL A   1      43.130  28.508  36.102  1.00  0.00     0.059 A 
ATOM     93  C   UNL A   1      42.242  26.958  34.466  1.00  0.00     0.059 A 
ATOM     94  F   UNL A   1      42.191  27.555  32.200  1.00  0.00    -0.206 F 
ATOM     95  C   UNL A   1      42.546  27.281  35.787  1.00  0.00     0.060 A 
BRANCH  95  96
ATOM     96  S   UNL A   1      42.097  26.150  37.121  1.00  0.00     0.124 S 
ATOM     97  O   UNL A   1      42.251  24.845  36.482  1.00  0.00    -0.237 OA
ATOM     98  O   UNL A   1      43.090  26.467  38.149  1.00  0.00    -0.237 OA
ATOM     99  O   UNL A   1      40.732  26.527  37.450  1.00  0.00    -0.744 OA
ENDBRANCH  95  96
ENDBRANCH  63  88
ENDBRANCH  37  38
ENDBRANCH  29  32
ENDBRANCH  27  28
ENDBRANCH  26  27
ENDBRANCH   1  26
TORSDOF 20
ENDMDL
MODEL 2
REMARK VINA RESULT:     -11.4      2.563      4.377
REMARK SMILES CCCc1nc2cc(C(=O)NCCCCNC(=O)c3ccc(-c4c5nc(c(-c6c(F)cc(S(=O)(=O)[O-])cc6F)c6ccc([nH]6)c(-c6c(F)cc(S(=O)(=O)[O-])cc6F)c6nc(c(-c7c(F)cc(S(=O)(=O)[O-])cc7F)c7ccc4[nH]7)C=C6)C=C5)cc3)ccc2n1[C@H](CO)C(C)C
REMARK SMILES IDX 13 1 12 2 11 3 9 4 10 5 8 7 4 8 5 9 88 10 6 11 87 12 7 13
REMARK SMILES IDX 86 14 85 15 3 16 2 17 1 18 89 19 92 20 93 21 94 22 90 23
REMARK SMILES IDX 91 24 14 26 15 27 16 28 17 29 18 31 19 32 20 33 84 34 21 35
REMARK SMILES IDX 83 36 22 37 23 38 24 39 77 40 25 41 82 42 76 43 78 44 26 45
REMARK SMILES IDX 81 46 75 47 74 48 27 50 61 51 40 52 60 53 41 54 44 55 59 56
REMARK SMILES IDX 79 57 42 58 43 59 58 61 80 62 45 63 28 64 29 65 38 66 30 67
REMARK SMILES IDX 31 68 37 69 39 70 32 71 33 72 34 73 35 74 36 75 62 76 63 77
REMARK SMILES IDX 72 78 64 79 65 80 71 81 73 82 66 83 67 84 68 85 69 86 70 87
REMARK SMILES IDX 46 88 47 89 56 90 48 91 49 92 55 93 57 94 50 95 51 96 52 97
REMARK SMILES IDX 53 98 54 99
REMARK H PARENT 11 6 91 25 16 30 78 49 44 60
REMARK Flexibility Score: inf
ROOT
ATOM      1  C   UNL A   1      40.720  20.596  26.811  1.00  0.00     0.023 C 
ENDROOT
BRANCH   1   2
ATOM      2  C   UNL A   1      39.491  21.132  26.071  1.00  0.00     0.116 C 
BRANCH   2   3
ATOM      3  N   UNL A   1      39.440  22.579  26.121  1.00  0.00    -0.352 N 
ATOM      4  C   UNL A   1      38.430  23.490  25.947  1.00  0.00     0.251 C 
ATOM      5  O   UNL A   1      38.708  24.673  26.152  1.00  0.00    -0.269 OA
ATOM      6  H   UNL A   1      40.310  22.994  26.322  1.00  0.00     0.163 HD
BRANCH   4   7
ATOM      7  C   UNL A   1      37.032  23.134  25.562  1.00  0.00     0.042 A 
ATOM      8  C   UNL A   1      33.672  20.210  24.699  1.00  0.00     0.110 A 
ATOM      9  N   UNL A   1      34.986  20.101  24.796  1.00  0.00    -0.233 NA
ATOM     10  N   UNL A   1      33.303  21.549  24.643  1.00  0.00    -0.322 N 
ATOM     11  C   UNL A   1      35.475  21.359  24.980  1.00  0.00     0.090 A 
ATOM     12  C   UNL A   1      34.454  22.291  24.897  1.00  0.00     0.069 A 
ATOM     13  C   UNL A   1      36.783  21.778  25.269  1.00  0.00     0.044 A 
ATOM     14  C   UNL A   1      34.678  23.650  25.133  1.00  0.00     0.029 A 
ATOM     15  C   UNL A   1      35.962  24.030  25.545  1.00  0.00     0.016 A 
BRANCH   8  16
ATOM     16  C   UNL A   1      32.752  19.026  24.701  1.00  0.00     0.075 C 
BRANCH  16  17
ATOM     17  C   UNL A   1      33.466  17.669  24.763  1.00  0.00     0.005 C 
ATOM     18  C   UNL A   1      33.534  16.930  23.435  1.00  0.00     0.004 C 
ENDBRANCH  16  17
ENDBRANCH   8  16
BRANCH  10  19
ATOM     19  C   UNL A   1      31.986  22.190  24.469  1.00  0.00     0.117 C 
BRANCH  19  20
ATOM     20  C   UNL A   1      31.637  23.362  25.444  1.00  0.00     0.008 C 
ATOM     21  C   UNL A   1      30.638  24.368  24.845  1.00  0.00     0.009 C 
ATOM     22  C   UNL A   1      31.055  22.881  26.781  1.00  0.00     0.009 C 
ENDBRANCH  19  20
BRANCH  19  23
ATOM     23  C   UNL A   1      31.765  22.613  22.993  1.00  0.00     0.181 C 
BRANCH  23  24
ATOM     24  O   UNL A   1      32.916  22.504  22.166  1.00  0.00    -0.394 OA
ATOM     25  H   UNL A   1      32.677  22.065  21.335  1.00  0.00     0.210 HD
ENDBRANCH  23  24
ENDBRANCH  19  23
ENDBRANCH  10  19
ENDBRANCH   4   7
ENDBRANCH   2   3
ENDBRANCH   1   2
BRANCH   1  26
ATOM     26  C   UNL A   1      41.390  19.397  26.120  1.00  0.00     0.023 C 
BRANCH  26  27
ATOM     27  C   UNL A   1      42.817  19.113  26.599  1.00  0.00     0.116 C 
BRANCH  27  28
ATOM     28  N   UNL A   1      43.814  19.365  25.577  1.00  0.00    -0.352 N 
ATOM     29  C   UNL A   1      44.538  20.456  25.184  1.00  0.00     0.251 C 
ATOM     30  H   UNL A   1      44.018  18.564  25.042  1.00  0.00     0.163 HD
ATOM     31  O   UNL A   1      45.391  20.244  24.316  1.00  0.00    -0.269 OA
BRANCH  29  32
ATOM     32  C   UNL A   1      44.356  21.844  25.692  1.00  0.00     0.039 A 
ATOM     33  C   UNL A   1      45.066  22.416  26.745  1.00  0.00     0.014 A 
ATOM     34  C   UNL A   1      43.336  22.602  25.082  1.00  0.00     0.014 A 
ATOM     35  C   UNL A   1      44.742  23.687  27.205  1.00  0.00     0.010 A 
ATOM     36  C   UNL A   1      43.007  23.877  25.539  1.00  0.00     0.010 A 
ATOM     37  C   UNL A   1      43.692  24.406  26.625  1.00  0.00    -0.014 A 
BRANCH  37  38
ATOM     38  C   UNL A   1      43.413  25.727  27.181  1.00  0.00     0.031 A 
ATOM     39  C   UNL A   1      44.440  26.770  26.893  1.00  0.00     0.074 A 
ATOM     40  C   UNL A   1      42.312  26.039  27.893  1.00  0.00     0.049 A 
ATOM     41  N   UNL A   1      45.250  27.339  27.726  1.00  0.00    -0.248 NA
ATOM     42  C   UNL A   1      44.673  27.135  25.490  1.00  0.00     0.031 C 
ATOM     43  C   UNL A   1      41.092  25.254  28.080  1.00  0.00     0.029 A 
ATOM     44  N   UNL A   1      42.040  27.198  28.556  1.00  0.00    -0.354 N 
ATOM     45  C   UNL A   1      45.979  28.269  26.988  1.00  0.00     0.074 A 
ATOM     46  C   UNL A   1      45.674  28.010  25.604  1.00  0.00     0.031 C 
ATOM     47  C   UNL A   1      40.137  26.041  28.627  1.00  0.00     0.029 A 
ATOM     48  C   UNL A   1      40.719  27.331  28.958  1.00  0.00     0.049 A 
ATOM     49  H   UNL A   1      42.724  27.884  28.736  1.00  0.00     0.167 HD
ATOM     50  C   UNL A   1      46.651  29.295  27.583  1.00  0.00     0.037 A 
ATOM     51  C   UNL A   1      40.137  28.441  29.475  1.00  0.00     0.037 A 
ATOM     52  C   UNL A   1      46.838  29.058  28.991  1.00  0.00     0.049 A 
ATOM     53  C   UNL A   1      41.218  29.274  30.064  1.00  0.00     0.074 A 
ATOM     54  C   UNL A   1      47.496  28.100  29.736  1.00  0.00     0.029 A 
ATOM     55  N   UNL A   1      46.016  29.716  29.872  1.00  0.00    -0.354 N 
ATOM     56  N   UNL A   1      41.913  28.932  31.114  1.00  0.00    -0.248 NA
ATOM     57  C   UNL A   1      41.818  30.307  29.231  1.00  0.00     0.031 C 
ATOM     58  C   UNL A   1      46.687  27.913  30.894  1.00  0.00     0.029 A 
ATOM     59  C   UNL A   1      45.611  28.796  30.804  1.00  0.00     0.049 A 
ATOM     60  H   UNL A   1      45.765  30.668  29.840  1.00  0.00     0.167 HD
ATOM     61  C   UNL A   1      43.198  29.384  30.855  1.00  0.00     0.074 A 
ATOM     62  C   UNL A   1      43.056  30.305  29.732  1.00  0.00     0.031 C 
ATOM     63  C   UNL A   1      44.291  28.770  31.396  1.00  0.00     0.037 A 
BRANCH  50  64
ATOM     64  C   UNL A   1      46.858  30.663  26.973  1.00  0.00     0.058 A 
ATOM     65  C   UNL A   1      48.146  31.242  26.990  1.00  0.00     0.135 A 
ATOM     66  C   UNL A   1      45.801  31.541  26.655  1.00  0.00     0.135 A 
ATOM     67  F   UNL A   1      49.229  30.498  27.269  1.00  0.00    -0.206 F 
ATOM     68  C   UNL A   1      48.354  32.610  26.810  1.00  0.00     0.059 A 
ATOM     69  C   UNL A   1      45.992  32.899  26.420  1.00  0.00     0.059 A 
ATOM     70  F   UNL A   1      44.522  31.148  26.656  1.00  0.00    -0.206 F 
ATOM     71  C   UNL A   1      47.263  33.433  26.553  1.00  0.00     0.060 A 
BRANCH  71  72
ATOM     72  S   UNL A   1      47.501  35.218  26.481  1.00  0.00     0.124 S 
ATOM     73  O   UNL A   1      46.138  35.682  26.248  1.00  0.00    -0.237 OA
ATOM     74  O   UNL A   1      48.058  35.503  27.798  1.00  0.00    -0.237 OA
ATOM     75  O   UNL A   1      48.426  35.388  25.365  1.00  0.00    -0.744 OA
ENDBRANCH  71  72
ENDBRANCH  50  64
BRANCH  51  76
ATOM     76  C   UNL A   1      38.772  28.960  29.196  1.00  0.00     0.058 A 
ATOM     77  C   UNL A   1      37.868  29.248  30.235  1.00  0.00     0.135 A 
ATOM     78  C   UNL A   1      38.422  29.445  27.918  1.00  0.00     0.135 A 
ATOM     79  F   UNL A   1      38.132  28.850  31.489  1.00  0.00    -0.206 F 
ATOM     80  C   UNL A   1      36.711  30.007  30.027  1.00  0.00     0.059 A 
ATOM     81  C   UNL A   1      37.270  30.192  27.685  1.00  0.00     0.059 A 
ATOM     82  F   UNL A   1      39.241  29.286  26.868  1.00  0.00    -0.206 F 
ATOM     83  C   UNL A   1      36.430  30.492  28.749  1.00  0.00     0.060 A 
BRANCH  83  84
ATOM     84  S   UNL A   1      35.028  31.608  28.507  1.00  0.00     0.124 S 
ATOM     85  O   UNL A   1      34.041  30.725  27.894  1.00  0.00    -0.237 OA
ATOM     86  O   UNL A   1      34.739  32.039  29.870  1.00  0.00    -0.237 OA
ATOM     87  O   UNL A   1      35.566  32.644  27.629  1.00  0.00    -0.744 OA
ENDBRANCH  83  84
ENDBRANCH  51  76
BRANCH  63  88
ATOM     88  C   UNL A   1      44.086  27.788  32.519  1.00  0.00     0.058 A 
ATOM     89  C   UNL A   1      43.933  26.402  32.336  1.00  0.00     0.135 A 
ATOM     90  C   UNL A   1      44.249  28.247  33.836  1.00  0.00     0.135 A 
ATOM     91  F   UNL A   1      43.870  25.872  31.106  1.00  0.00    -0.206 F 
ATOM     92  C   UNL A   1      43.922  25.517  33.415  1.00  0.00     0.059 A 
ATOM     93  C   UNL A   1      44.272  27.379  34.924  1.00  0.00     0.059 A 
ATOM     94  F   UNL A   1      44.460  29.553  34.071  1.00  0.00    -0.206 F 
ATOM     95  C   UNL A   1      44.103  26.013  34.706  1.00  0.00     0.060 A 
BRANCH  95  96
ATOM     96  S   UNL A   1      44.214  24.855  36.088  1.00  0.00     0.124 S 
ATOM     97  O   UNL A   1      45.463  25.261  36.729  1.00  0.00    -0.237 OA
ATOM     98  O   UNL A   1      42.995  25.150  36.843  1.00  0.00    -0.237 OA
ATOM     99  O   UNL A   1      44.237  23.551  35.445  1.00  0.00    -0.744 OA
ENDBRANCH  95  96
ENDBRANCH  63  88
ENDBRANCH  37  38
ENDBRANCH  29  32
ENDBRANCH  27  28
ENDBRANCH  26  27
ENDBRANCH   1  26
TORSDOF 20
ENDMDL
MODEL 3
REMARK VINA RESULT:     -11.3      4.809     11.890
REMARK SMILES CCCc1nc2cc(C(=O)NCCCCNC(=O)c3ccc(-c4c5nc(c(-c6c(F)cc(S(=O)(=O)[O-])cc6F)c6ccc([nH]6)c(-c6c(F)cc(S(=O)(=O)[O-])cc6F)c6nc(c(-c7c(F)cc(S(=O)(=O)[O-])cc7F)c7ccc4[nH]7)C=C6)C=C5)cc3)ccc2n1[C@H](CO)C(C)C
REMARK SMILES IDX 13 1 12 2 11 3 9 4 10 5 8 7 4 8 5 9 88 10 6 11 87 12 7 13
REMARK SMILES IDX 86 14 85 15 3 16 2 17 1 18 89 19 92 20 93 21 94 22 90 23
REMARK SMILES IDX 91 24 14 26 15 27 16 28 17 29 18 31 19 32 20 33 84 34 21 35
REMARK SMILES IDX 83 36 22 37 23 38 24 39 77 40 25 41 82 42 76 43 78 44 26 45
REMARK SMILES IDX 81 46 75 47 74 48 27 50 61 51 40 52 60 53 41 54 44 55 59 56
REMARK SMILES IDX 79 57 42 58 43 59 58 61 80 62 45 63 28 64 29 65 38 66 30 67
REMARK SMILES IDX 31 68 37 69 39 70 32 71 33 72 34 73 35 74 36 75 62 76 63 77
REMARK SMILES IDX 72 78 64 79 65 80 71 81 73 82 66 83 67 84 68 85 69 86 70 87
REMARK SMILES IDX 46 88 47 89 56 90 48 91 49 92 55 93 57 94 50 95 51 96 52 97
REMARK SMILES IDX 53 98 54 99
REMARK H PARENT 11 6 91 25 16 30 78 49 44 60
REMARK Flexibility Score: inf
ROOT
ATOM      1  C   UNL A   1      35.276  34.170  31.773  1.00  0.00     0.023 C 
ENDROOT
BRANCH   1   2
ATOM      2  C   UNL A   1      34.921  33.002  32.696  1.00  0.00     0.116 C 
BRANCH   2   3
ATOM      3  N   UNL A   1      35.355  31.740  32.133  1.00  0.00    -0.352 N 
ATOM      4  C   UNL A   1      36.478  30.972  32.304  1.00  0.00     0.251 C 
ATOM      5  O   UNL A   1      36.498  29.882  31.730  1.00  0.00    -0.269 OA
ATOM      6  H   UNL A   1      34.712  31.354  31.496  1.00  0.00     0.163 HD
BRANCH   4   7
ATOM      7  C   UNL A   1      37.642  31.360  33.156  1.00  0.00     0.042 A 
ATOM      8  C   UNL A   1      41.273  33.881  34.175  1.00  0.00     0.110 A 
ATOM      9  N   UNL A   1      40.564  33.689  33.076  1.00  0.00    -0.233 NA
ATOM     10  N   UNL A   1      40.937  32.935  35.136  1.00  0.00    -0.322 N 
ATOM     11  C   UNL A   1      39.638  32.732  33.364  1.00  0.00     0.090 A 
ATOM     12  C   UNL A   1      39.835  32.241  34.644  1.00  0.00     0.069 A 
ATOM     13  C   UNL A   1      38.566  32.262  32.591  1.00  0.00     0.044 A 
ATOM     14  C   UNL A   1      38.965  31.307  35.215  1.00  0.00     0.029 A 
ATOM     15  C   UNL A   1      37.831  30.947  34.476  1.00  0.00     0.016 A 
BRANCH   8  16
ATOM     16  C   UNL A   1      42.254  35.005  34.328  1.00  0.00     0.075 C 
BRANCH  16  17
ATOM     17  C   UNL A   1      42.755  35.593  33.003  1.00  0.00     0.005 C 
ATOM     18  C   UNL A   1      43.513  36.905  33.139  1.00  0.00     0.004 C 
ENDBRANCH  16  17
ENDBRANCH   8  16
BRANCH  10  19
ATOM     19  C   UNL A   1      41.479  32.681  36.485  1.00  0.00     0.117 C 
BRANCH  19  20
ATOM     20  C   UNL A   1      43.022  32.854  36.670  1.00  0.00     0.008 C 
ATOM     21  C   UNL A   1      43.462  32.803  38.144  1.00  0.00     0.009 C 
ATOM     22  C   UNL A   1      43.842  31.800  35.912  1.00  0.00     0.009 C 
ENDBRANCH  19  20
BRANCH  19  23
ATOM     23  C   UNL A   1      40.698  33.486  37.557  1.00  0.00     0.181 C 
BRANCH  23  24
ATOM     24  O   UNL A   1      39.900  34.543  37.041  1.00  0.00    -0.394 OA
ATOM     25  H   UNL A   1      38.993  34.455  37.373  1.00  0.00     0.210 HD
ENDBRANCH  23  24
ENDBRANCH  19  23
ENDBRANCH  10  19
ENDBRANCH   4   7
ENDBRANCH   2   3
ENDBRANCH   1   2
BRANCH   1  26
ATOM     26  C   UNL A   1      34.372  34.282  30.533  1.00  0.00     0.023 C 
BRANCH  26  27
ATOM     27  C   UNL A   1      35.116  34.157  29.200  1.00  0.00     0.116 C 
BRANCH  27  28
ATOM     28  N   UNL A   1      34.544  33.147  28.330  1.00  0.00    -0.352 N 
ATOM     29  C   UNL A   1      34.884  31.872  27.977  1.00  0.00     0.251 C 
ATOM     30  H   UNL A   1      33.716  33.452  27.892  1.00  0.00     0.163 HD
ATOM     31  O   UNL A   1      34.064  31.278  27.269  1.00  0.00    -0.269 OA
BRANCH  29  32
ATOM     32  C   UNL A   1      36.149  31.180  28.349  1.00  0.00     0.039 A 
ATOM     33  C   UNL A   1      37.301  31.806  28.820  1.00  0.00     0.014 A 
ATOM     34  C   UNL A   1      36.181  29.786  28.144  1.00  0.00     0.014 A 
ATOM     35  C   UNL A   1      38.462  31.072  29.038  1.00  0.00     0.010 A 
ATOM     36  C   UNL A   1      37.342  29.046  28.361  1.00  0.00     0.010 A 
ATOM     37  C   UNL A   1      38.494  29.699  28.779  1.00  0.00    -0.014 A 
BRANCH  37  38
ATOM     38  C   UNL A   1      39.759  29.011  29.025  1.00  0.00     0.031 A 
ATOM     39  C   UNL A   1      40.157  28.899  30.458  1.00  0.00     0.074 A 
ATOM     40  C   UNL A   1      40.539  28.481  28.061  1.00  0.00     0.049 A 
ATOM     41  N   UNL A   1      41.141  29.488  31.057  1.00  0.00    -0.248 NA
ATOM     42  C   UNL A   1      39.281  28.135  31.355  1.00  0.00     0.031 C 
ATOM     43  C   UNL A   1      40.228  28.267  26.648  1.00  0.00     0.029 A 
ATOM     44  N   UNL A   1      41.787  27.948  28.189  1.00  0.00    -0.354 N 
ATOM     45  C   UNL A   1      41.124  29.031  32.373  1.00  0.00     0.074 A 
ATOM     46  C   UNL A   1      39.889  28.306  32.530  1.00  0.00     0.031 C 
ATOM     47  C   UNL A   1      41.171  27.465  26.102  1.00  0.00     0.029 A 
ATOM     48  C   UNL A   1      42.218  27.231  27.083  1.00  0.00     0.049 A 
ATOM     49  H   UNL A   1      42.336  28.063  28.998  1.00  0.00     0.167 HD
ATOM     50  C   UNL A   1      42.210  29.141  33.189  1.00  0.00     0.037 A 
ATOM     51  C   UNL A   1      43.329  26.458  27.001  1.00  0.00     0.037 A 
ATOM     52  C   UNL A   1      43.159  30.097  32.680  1.00  0.00     0.049 A 
ATOM     53  C   UNL A   1      44.280  26.939  28.037  1.00  0.00     0.074 A 
ATOM     54  C   UNL A   1      43.127  31.453  32.419  1.00  0.00     0.029 A 
ATOM     55  N   UNL A   1      44.280  29.622  32.045  1.00  0.00    -0.354 N 
ATOM     56  N   UNL A   1      44.870  28.103  28.002  1.00  0.00    -0.248 NA
ATOM     57  C   UNL A   1      44.257  26.294  29.342  1.00  0.00     0.031 C 
ATOM     58  C   UNL A   1      43.937  31.625  31.259  1.00  0.00     0.029 A 
ATOM     59  C   UNL A   1      44.445  30.373  30.910  1.00  0.00     0.049 A 
ATOM     60  H   UNL A   1      44.854  28.881  32.346  1.00  0.00     0.167 HD
ATOM     61  C   UNL A   1      44.915  28.520  29.324  1.00  0.00     0.074 A 
ATOM     62  C   UNL A   1      44.614  27.327  30.109  1.00  0.00     0.031 C 
ATOM     63  C   UNL A   1      44.926  29.845  29.651  1.00  0.00     0.037 A 
BRANCH  50  64
ATOM     64  C   UNL A   1      42.581  28.157  34.276  1.00  0.00     0.058 A 
ATOM     65  C   UNL A   1      42.297  28.472  35.623  1.00  0.00     0.135 A 
ATOM     66  C   UNL A   1      43.465  27.075  34.078  1.00  0.00     0.135 A 
ATOM     67  F   UNL A   1      41.459  29.476  35.931  1.00  0.00    -0.206 F 
ATOM     68  C   UNL A   1      42.926  27.831  36.690  1.00  0.00     0.059 A 
ATOM     69  C   UNL A   1      44.063  26.388  35.128  1.00  0.00     0.059 A 
ATOM     70  F   UNL A   1      43.871  26.699  32.860  1.00  0.00    -0.206 F 
ATOM     71  C   UNL A   1      43.831  26.807  36.428  1.00  0.00     0.060 A 
BRANCH  71  72
ATOM     72  S   UNL A   1      44.767  26.086  37.788  1.00  0.00     0.124 S 
ATOM     73  O   UNL A   1      46.123  26.115  37.252  1.00  0.00    -0.237 OA
ATOM     74  O   UNL A   1      44.488  27.017  38.875  1.00  0.00    -0.237 OA
ATOM     75  O   UNL A   1      44.174  24.760  37.938  1.00  0.00    -0.744 OA
ENDBRANCH  71  72
ENDBRANCH  50  64
BRANCH  51  76
ATOM     76  C   UNL A   1      43.470  25.147  26.315  1.00  0.00     0.058 A 
ATOM     77  C   UNL A   1      44.444  24.938  25.322  1.00  0.00     0.135 A 
ATOM     78  C   UNL A   1      42.836  23.990  26.814  1.00  0.00     0.135 A 
ATOM     79  F   UNL A   1      45.119  25.977  24.809  1.00  0.00    -0.206 F 
ATOM     80  C   UNL A   1      44.796  23.656  24.881  1.00  0.00     0.059 A 
ATOM     81  C   UNL A   1      43.161  22.706  26.382  1.00  0.00     0.059 A 
ATOM     82  F   UNL A   1      41.939  24.065  27.808  1.00  0.00    -0.206 F 
ATOM     83  C   UNL A   1      44.161  22.544  25.433  1.00  0.00     0.060 A 
BRANCH  83  84
ATOM     84  S   UNL A   1      44.725  20.884  24.990  1.00  0.00     0.124 S 
ATOM     85  O   UNL A   1      46.076  20.866  25.541  1.00  0.00    -0.237 OA
ATOM     86  O   UNL A   1      43.749  20.036  25.665  1.00  0.00    -0.237 OA
ATOM     87  O   UNL A   1      44.649  20.877  23.531  1.00  0.00    -0.744 OA
ENDBRANCH  83  84
ENDBRANCH  51  76
BRANCH  63  88
ATOM     88  C   UNL A   1      45.198  30.856  28.568  1.00  0.00     0.058 A 
ATOM     89  C   UNL A   1      44.230  31.314  27.657  1.00  0.00     0.135 A 
ATOM     90  C   UNL A   1      46.432  31.526  28.584  1.00  0.00     0.135 A 
ATOM     91  F   UNL A   1      42.994  30.794  27.646  1.00  0.00    -0.206 F 
ATOM     92  C   UNL A   1      44.486  32.375  26.788  1.00  0.00     0.059 A 
ATOM     93  C   UNL A   1      46.697  32.606  27.747  1.00  0.00     0.059 A 
ATOM     94  F   UNL A   1      47.376  31.174  29.473  1.00  0.00    -0.206 F 
ATOM     95  C   UNL A   1      45.719  33.024  26.848  1.00  0.00     0.060 A 
BRANCH  95  96
ATOM     96  S   UNL A   1      46.002  34.475  25.811  1.00  0.00     0.124 S 
ATOM     97  O   UNL A   1      45.630  35.569  26.707  1.00  0.00    -0.237 OA
ATOM     98  O   UNL A   1      47.430  34.370  25.507  1.00  0.00    -0.237 OA
ATOM     99  O   UNL A   1      45.117  34.268  24.677  1.00  0.00    -0.744 OA
ENDBRANCH  95  96
ENDBRANCH  63  88
ENDBRANCH  37  38
ENDBRANCH  29  32
ENDBRANCH  27  28
ENDBRANCH  26  27
ENDBRANCH   1  26
TORSDOF 20
ENDMDL
