MODEL 1
REMARK VINA RESULT:     -11.7      0.000      0.000
REMARK SMILES COc1ccc(NC(=O)[C@H](CC(=O)NCCCCNC(=O)c2ccc(-c3c4nc(c(-c5c(F)cc(S(=O)(=O)[O-])cc5F)c5ccc([nH]5)c(-c5c(F)cc(S(=O)(=O)[O-])cc5F)c5nc(c(-c6c(F)cc(S(=O)(=O)[O-])cc6F)c6ccc3[nH]6)C=C5)C=C4)cc2)Cc2ccccc2)cc1
REMARK SMILES IDX 16 1 15 2 14 3 12 4 13 5 11 7 10 8 8 9 7 10 9 12 6 13 3 14
REMARK SMILES IDX 4 15 96 16 5 17 95 18 2 19 1 20 88 21 89 22 90 23 94 24
REMARK SMILES IDX 91 25 93 26 92 27 17 28 18 29 19 30 20 31 21 33 22 34 23 35
REMARK SMILES IDX 87 36 24 37 86 38 25 39 26 40 27 41 80 42 28 43 85 44 79 45
REMARK SMILES IDX 81 46 29 47 84 48 78 49 77 50 30 52 64 53 43 54 63 55 44 56
REMARK SMILES IDX 47 57 62 58 82 59 45 60 46 61 61 63 83 64 48 65 31 66 32 67
REMARK SMILES IDX 41 68 33 69 34 70 40 71 42 72 35 73 36 74 37 75 38 76 39 77
REMARK SMILES IDX 65 78 66 79 75 80 67 81 68 82 74 83 76 84 69 85 70 86 71 87
REMARK SMILES IDX 72 88 73 89 49 90 50 91 59 92 51 93 52 94 58 95 60 96 53 97
REMARK SMILES IDX 54 98 55 99 56 100 57 101
REMARK H PARENT 14 6 7 11 19 32 81 51 47 62
REMARK Flexibility Score: inf
ROOT
ATOM      1  C   UNL A   1      38.043  21.840  25.494  1.00  0.00     0.023 C 
ENDROOT
BRANCH   1   2
ATOM      2  C   UNL A   1      37.038  20.872  24.872  1.00  0.00     0.116 C 
BRANCH   2   3
ATOM      3  N   UNL A   1      35.857  20.783  25.700  1.00  0.00    -0.356 N 
ATOM      4  C   UNL A   1      34.591  21.199  25.460  1.00  0.00     0.220 C 
ATOM      5  O   UNL A   1      33.765  21.095  26.366  1.00  0.00    -0.275 OA
ATOM      6  H   UNL A   1      35.995  20.354  26.575  1.00  0.00     0.163 HD
BRANCH   4   7
ATOM      7  C   UNL A   1      34.180  21.611  24.066  1.00  0.00     0.113 C 
BRANCH   7   8
ATOM      8  C   UNL A   1      33.268  22.835  23.887  1.00  0.00     0.092 C 
BRANCH   8   9
ATOM      9  C   UNL A   1      33.622  23.722  22.686  1.00  0.00     0.228 C 
ATOM     10  N   UNL A   1      33.783  25.077  22.719  1.00  0.00    -0.326 N 
ATOM     11  H   UNL A   1      33.978  25.472  21.839  1.00  0.00     0.169 HD
ATOM     12  O   UNL A   1      33.746  23.187  21.575  1.00  0.00    -0.274 OA
BRANCH  10  13
ATOM     13  C   UNL A   1      33.727  26.019  23.757  1.00  0.00     0.041 A 
ATOM     14  C   UNL A   1      33.096  27.839  25.795  1.00  0.00     0.119 A 
ATOM     15  C   UNL A   1      33.746  26.644  26.092  1.00  0.00     0.048 A 
ATOM     16  C   UNL A   1      32.893  28.186  24.461  1.00  0.00     0.048 A 
ATOM     17  C   UNL A   1      34.087  25.751  25.073  1.00  0.00     0.030 A 
ATOM     18  C   UNL A   1      33.221  27.284  23.444  1.00  0.00     0.030 A 
BRANCH  14  19
ATOM     19  O   UNL A   1      32.720  28.586  26.876  1.00  0.00    -0.497 OA
ATOM     20  C   UNL A   1      32.668  29.995  26.663  1.00  0.00     0.278 C 
ENDBRANCH  14  19
ENDBRANCH  10  13
ENDBRANCH   8   9
BRANCH   8  21
ATOM     21  C   UNL A   1      31.748  22.593  23.874  1.00  0.00     0.049 C 
BRANCH  21  22
ATOM     22  C   UNL A   1      30.953  23.806  24.274  1.00  0.00    -0.047 A 
ATOM     23  C   UNL A   1      30.352  24.620  23.303  1.00  0.00     0.004 A 
ATOM     24  C   UNL A   1      30.887  24.185  25.620  1.00  0.00     0.004 A 
ATOM     25  C   UNL A   1      29.733  25.813  23.674  1.00  0.00     0.000 A 
ATOM     26  C   UNL A   1      30.275  25.381  25.987  1.00  0.00     0.000 A 
ATOM     27  C   UNL A   1      29.705  26.198  25.014  1.00  0.00     0.000 A 
ENDBRANCH  21  22
ENDBRANCH   8  21
ENDBRANCH   7   8
ENDBRANCH   4   7
ENDBRANCH   2   3
ENDBRANCH   1   2
BRANCH   1  28
ATOM     28  C   UNL A   1      37.512  23.267  25.664  1.00  0.00     0.023 C 
BRANCH  28  29
ATOM     29  C   UNL A   1      38.422  24.198  26.455  1.00  0.00     0.116 C 
BRANCH  29  30
ATOM     30  N   UNL A   1      39.829  23.977  26.162  1.00  0.00    -0.352 N 
ATOM     31  C   UNL A   1      40.911  24.706  26.589  1.00  0.00     0.251 C 
ATOM     32  H   UNL A   1      40.032  23.206  25.585  1.00  0.00     0.163 HD
ATOM     33  O   UNL A   1      42.029  24.479  26.138  1.00  0.00    -0.269 OA
BRANCH  31  34
ATOM     34  C   UNL A   1      40.701  25.788  27.570  1.00  0.00     0.039 A 
ATOM     35  C   UNL A   1      39.718  25.628  28.548  1.00  0.00     0.014 A 
ATOM     36  C   UNL A   1      41.506  26.931  27.549  1.00  0.00     0.014 A 
ATOM     37  C   UNL A   1      39.580  26.593  29.546  1.00  0.00     0.010 A 
ATOM     38  C   UNL A   1      41.412  27.857  28.582  1.00  0.00     0.010 A 
ATOM     39  C   UNL A   1      40.447  27.699  29.589  1.00  0.00    -0.014 A 
BRANCH  39  40
ATOM     40  C   UNL A   1      40.361  28.694  30.687  1.00  0.00     0.031 A 
ATOM     41  C   UNL A   1      41.244  28.559  31.896  1.00  0.00     0.074 A 
ATOM     42  C   UNL A   1      39.445  29.681  30.618  1.00  0.00     0.049 A 
ATOM     43  N   UNL A   1      41.279  29.294  32.977  1.00  0.00    -0.248 NA
ATOM     44  C   UNL A   1      42.193  27.434  31.905  1.00  0.00     0.031 C 
ATOM     45  C   UNL A   1      38.497  29.880  29.520  1.00  0.00     0.029 A 
ATOM     46  N   UNL A   1      39.157  30.697  31.494  1.00  0.00    -0.354 N 
ATOM     47  C   UNL A   1      42.243  28.718  33.796  1.00  0.00     0.074 A 
ATOM     48  C   UNL A   1      42.729  27.540  33.112  1.00  0.00     0.031 C 
ATOM     49  C   UNL A   1      37.747  30.965  29.777  1.00  0.00     0.029 A 
ATOM     50  C   UNL A   1      38.137  31.517  31.070  1.00  0.00     0.049 A 
ATOM     51  H   UNL A   1      39.635  30.828  32.344  1.00  0.00     0.167 HD
ATOM     52  C   UNL A   1      42.697  29.146  34.998  1.00  0.00     0.037 A 
ATOM     53  C   UNL A   1      37.576  32.590  31.661  1.00  0.00     0.037 A 
ATOM     54  C   UNL A   1      42.225  30.334  35.661  1.00  0.00     0.049 A 
ATOM     55  C   UNL A   1      38.103  33.050  32.994  1.00  0.00     0.074 A 
ATOM     56  C   UNL A   1      42.664  30.888  36.850  1.00  0.00     0.029 A 
ATOM     57  N   UNL A   1      41.207  31.151  35.190  1.00  0.00    -0.354 N 
ATOM     58  N   UNL A   1      39.063  32.531  33.723  1.00  0.00    -0.248 NA
ATOM     59  C   UNL A   1      37.477  34.241  33.582  1.00  0.00     0.031 C 
ATOM     60  C   UNL A   1      41.883  32.016  37.122  1.00  0.00     0.029 A 
ATOM     61  C   UNL A   1      40.990  32.193  36.077  1.00  0.00     0.049 A 
ATOM     62  H   UNL A   1      40.713  31.011  34.351  1.00  0.00     0.167 HD
ATOM     63  C   UNL A   1      39.173  33.349  34.842  1.00  0.00     0.074 A 
ATOM     64  C   UNL A   1      38.191  34.403  34.687  1.00  0.00     0.031 C 
ATOM     65  C   UNL A   1      40.011  33.238  35.903  1.00  0.00     0.037 A 
BRANCH  52  66
ATOM     66  C   UNL A   1      43.765  28.328  35.671  1.00  0.00     0.058 A 
ATOM     67  C   UNL A   1      43.446  27.313  36.588  1.00  0.00     0.135 A 
ATOM     68  C   UNL A   1      45.121  28.534  35.372  1.00  0.00     0.135 A 
ATOM     69  F   UNL A   1      42.167  27.082  36.924  1.00  0.00    -0.206 F 
ATOM     70  C   UNL A   1      44.434  26.552  37.205  1.00  0.00     0.059 A 
ATOM     71  C   UNL A   1      46.125  27.766  35.955  1.00  0.00     0.059 A 
ATOM     72  F   UNL A   1      45.483  29.492  34.503  1.00  0.00    -0.206 F 
ATOM     73  C   UNL A   1      45.771  26.786  36.881  1.00  0.00     0.060 A 
BRANCH  73  74
ATOM     74  S   UNL A   1      47.040  25.784  37.684  1.00  0.00     0.124 S 
ATOM     75  O   UNL A   1      48.113  25.827  36.696  1.00  0.00    -0.237 OA
ATOM     76  O   UNL A   1      47.286  26.521  38.919  1.00  0.00    -0.237 OA
ATOM     77  O   UNL A   1      46.393  24.486  37.851  1.00  0.00    -0.744 OA
ENDBRANCH  73  74
ENDBRANCH  52  66
BRANCH  53  78
ATOM     78  C   UNL A   1      36.468  33.317  30.985  1.00  0.00     0.058 A 
ATOM     79  C   UNL A   1      36.711  34.115  29.858  1.00  0.00     0.135 A 
ATOM     80  C   UNL A   1      35.145  33.221  31.445  1.00  0.00     0.135 A 
ATOM     81  F   UNL A   1      37.959  34.244  29.383  1.00  0.00    -0.206 F 
ATOM     82  C   UNL A   1      35.687  34.807  29.220  1.00  0.00     0.059 A 
ATOM     83  C   UNL A   1      34.100  33.882  30.808  1.00  0.00     0.059 A 
ATOM     84  F   UNL A   1      34.858  32.455  32.510  1.00  0.00    -0.206 F 
ATOM     85  C   UNL A   1      34.382  34.682  29.702  1.00  0.00     0.060 A 
BRANCH  85  86
ATOM     86  S   UNL A   1      33.054  35.549  28.839  1.00  0.00     0.124 S 
ATOM     87  O   UNL A   1      33.797  36.550  28.084  1.00  0.00    -0.237 OA
ATOM     88  O   UNL A   1      32.447  34.478  28.056  1.00  0.00    -0.237 OA
ATOM     89  O   UNL A   1      32.228  36.063  29.928  1.00  0.00    -0.744 OA
ENDBRANCH  85  86
ENDBRANCH  53  78
BRANCH  65  90
ATOM     90  C   UNL A   1      39.926  34.299  36.965  1.00  0.00     0.058 A 
ATOM     91  C   UNL A   1      40.628  35.509  36.858  1.00  0.00     0.135 A 
ATOM     92  C   UNL A   1      39.093  34.120  38.081  1.00  0.00     0.135 A 
ATOM     93  F   UNL A   1      41.444  35.726  35.814  1.00  0.00    -0.206 F 
ATOM     94  C   UNL A   1      40.525  36.496  37.832  1.00  0.00     0.059 A 
ATOM     95  C   UNL A   1      38.953  35.105  39.053  1.00  0.00     0.059 A 
ATOM     96  F   UNL A   1      38.391  32.985  38.226  1.00  0.00    -0.206 F 
ATOM     97  C   UNL A   1      39.683  36.286  38.926  1.00  0.00     0.060 A 
BRANCH  97  98
ATOM     98  S   UNL A   1      39.534  37.588  40.166  1.00  0.00     0.124 S 
ATOM     99  O   UNL A   1      40.881  38.150  40.166  1.00  0.00    -0.237 OA
ATOM    100  O   UNL A   1      38.492  38.440  39.602  1.00  0.00    -0.237 OA
ATOM    101  O   UNL A   1      39.156  36.864  41.376  1.00  0.00    -0.744 OA
ENDBRANCH  97  98
ENDBRANCH  65  90
ENDBRANCH  39  40
ENDBRANCH  31  34
ENDBRANCH  29  30
ENDBRANCH  28  29
ENDBRANCH   1  28
TORSDOF 20
ENDMDL
MODEL 2
REMARK VINA RESULT:     -11.6      1.263      2.413
REMARK SMILES COc1ccc(NC(=O)[C@H](CC(=O)NCCCCNC(=O)c2ccc(-c3c4nc(c(-c5c(F)cc(S(=O)(=O)[O-])cc5F)c5ccc([nH]5)c(-c5c(F)cc(S(=O)(=O)[O-])cc5F)c5nc(c(-c6c(F)cc(S(=O)(=O)[O-])cc6F)c6ccc3[nH]6)C=C5)C=C4)cc2)Cc2ccccc2)cc1
REMARK SMILES IDX 16 1 15 2 14 3 12 4 13 5 11 7 10 8 8 9 7 10 9 12 6 13 3 14
REMARK SMILES IDX 4 15 96 16 5 17 95 18 2 19 1 20 88 21 89 22 90 23 94 24
REMARK SMILES IDX 91 25 93 26 92 27 17 28 18 29 19 30 20 31 21 33 22 34 23 35
REMARK SMILES IDX 87 36 24 37 86 38 25 39 26 40 27 41 80 42 28 43 85 44 79 45
REMARK SMILES IDX 81 46 29 47 84 48 78 49 77 50 30 52 64 53 43 54 63 55 44 56
REMARK SMILES IDX 47 57 62 58 82 59 45 60 46 61 61 63 83 64 48 65 31 66 32 67
REMARK SMILES IDX 41 68 33 69 34 70 40 71 42 72 35 73 36 74 37 75 38 76 39 77
REMARK SMILES IDX 65 78 66 79 75 80 67 81 68 82 74 83 76 84 69 85 70 86 71 87
REMARK SMILES IDX 72 88 73 89 49 90 50 91 59 92 51 93 52 94 58 95 60 96 53 97
REMARK SMILES IDX 54 98 55 99 56 100 57 101
REMARK H PARENT 14 6 7 11 19 32 81 51 47 62
REMARK Flexibility Score: inf
ROOT
ATOM      1  C   UNL A   1      38.208  23.719  26.477  1.00  0.00     0.023 C 
ENDROOT
BRANCH   1   2
ATOM      2  C   UNL A   1      37.346  23.590  25.222  1.00  0.00     0.116 C 
BRANCH   2   3
ATOM      3  N   UNL A   1      37.257  22.205  24.822  1.00  0.00    -0.356 N 
ATOM      4  C   UNL A   1      36.488  21.203  25.312  1.00  0.00     0.220 C 
ATOM      5  O   UNL A   1      36.657  20.070  24.863  1.00  0.00    -0.275 OA
ATOM      6  H   UNL A   1      37.849  21.948  24.078  1.00  0.00     0.163 HD
BRANCH   4   7
ATOM      7  C   UNL A   1      35.345  21.514  26.249  1.00  0.00     0.113 C 
BRANCH   7   8
ATOM      8  C   UNL A   1      34.085  22.196  25.691  1.00  0.00     0.092 C 
BRANCH   8   9
ATOM      9  C   UNL A   1      33.154  21.265  24.904  1.00  0.00     0.228 C 
ATOM     10  N   UNL A   1      32.352  21.637  23.864  1.00  0.00    -0.326 N 
ATOM     11  H   UNL A   1      31.803  20.902  23.508  1.00  0.00     0.169 HD
ATOM     12  O   UNL A   1      33.084  20.076  25.247  1.00  0.00    -0.274 OA
BRANCH  10  13
ATOM     13  C   UNL A   1      32.157  22.857  23.200  1.00  0.00     0.041 A 
ATOM     14  C   UNL A   1      31.787  25.505  22.355  1.00  0.00     0.119 A 
ATOM     15  C   UNL A   1      32.953  24.817  22.031  1.00  0.00     0.048 A 
ATOM     16  C   UNL A   1      30.746  24.819  22.977  1.00  0.00     0.048 A 
ATOM     17  C   UNL A   1      33.124  23.488  22.428  1.00  0.00     0.030 A 
ATOM     18  C   UNL A   1      30.926  23.493  23.386  1.00  0.00     0.030 A 
BRANCH  14  19
ATOM     19  O   UNL A   1      31.769  26.827  22.008  1.00  0.00    -0.497 OA
ATOM     20  C   UNL A   1      30.731  27.605  22.596  1.00  0.00     0.278 C 
ENDBRANCH  14  19
ENDBRANCH  10  13
ENDBRANCH   8   9
BRANCH   8  21
ATOM     21  C   UNL A   1      33.228  23.017  26.672  1.00  0.00     0.049 C 
BRANCH  21  22
ATOM     22  C   UNL A   1      33.036  24.444  26.237  1.00  0.00    -0.047 A 
ATOM     23  C   UNL A   1      34.084  25.157  25.637  1.00  0.00     0.004 A 
ATOM     24  C   UNL A   1      31.833  25.104  26.517  1.00  0.00     0.004 A 
ATOM     25  C   UNL A   1      33.939  26.516  25.361  1.00  0.00     0.000 A 
ATOM     26  C   UNL A   1      31.694  26.464  26.248  1.00  0.00     0.000 A 
ATOM     27  C   UNL A   1      32.749  27.171  25.678  1.00  0.00     0.000 A 
ENDBRANCH  21  22
ENDBRANCH   8  21
ENDBRANCH   7   8
ENDBRANCH   4   7
ENDBRANCH   2   3
ENDBRANCH   1   2
BRANCH   1  28
ATOM     28  C   UNL A   1      39.318  22.668  26.583  1.00  0.00     0.023 C 
BRANCH  28  29
ATOM     29  C   UNL A   1      40.663  23.203  27.057  1.00  0.00     0.116 C 
BRANCH  29  30
ATOM     30  N   UNL A   1      41.387  23.894  26.003  1.00  0.00    -0.352 N 
ATOM     31  C   UNL A   1      41.841  25.190  25.991  1.00  0.00     0.251 C 
ATOM     32  H   UNL A   1      41.576  23.366  25.193  1.00  0.00     0.163 HD
ATOM     33  O   UNL A   1      42.311  25.673  24.965  1.00  0.00    -0.269 OA
BRANCH  31  34
ATOM     34  C   UNL A   1      41.722  25.999  27.219  1.00  0.00     0.039 A 
ATOM     35  C   UNL A   1      42.710  26.944  27.500  1.00  0.00     0.014 A 
ATOM     36  C   UNL A   1      40.614  25.854  28.059  1.00  0.00     0.014 A 
ATOM     37  C   UNL A   1      42.556  27.789  28.600  1.00  0.00     0.010 A 
ATOM     38  C   UNL A   1      40.431  26.741  29.114  1.00  0.00     0.010 A 
ATOM     39  C   UNL A   1      41.400  27.715  29.396  1.00  0.00    -0.014 A 
BRANCH  39  40
ATOM     40  C   UNL A   1      41.189  28.658  30.523  1.00  0.00     0.031 A 
ATOM     41  C   UNL A   1      42.044  28.561  31.756  1.00  0.00     0.074 A 
ATOM     42  C   UNL A   1      40.188  29.558  30.458  1.00  0.00     0.049 A 
ATOM     43  N   UNL A   1      41.980  29.257  32.861  1.00  0.00    -0.248 NA
ATOM     44  C   UNL A   1      43.093  27.528  31.758  1.00  0.00     0.031 C 
ATOM     45  C   UNL A   1      39.258  29.709  29.336  1.00  0.00     0.029 A 
ATOM     46  N   UNL A   1      39.781  30.512  31.356  1.00  0.00    -0.354 N 
ATOM     47  C   UNL A   1      42.968  28.742  33.692  1.00  0.00     0.074 A 
ATOM     48  C   UNL A   1      43.582  27.639  32.985  1.00  0.00     0.031 C 
ATOM     49  C   UNL A   1      38.403  30.710  29.605  1.00  0.00     0.029 A 
ATOM     50  C   UNL A   1      38.702  31.249  30.928  1.00  0.00     0.049 A 
ATOM     51  H   UNL A   1      40.220  30.654  32.226  1.00  0.00     0.167 HD
ATOM     52  C   UNL A   1      43.345  29.167  34.921  1.00  0.00     0.037 A 
ATOM     53  C   UNL A   1      38.026  32.244  31.535  1.00  0.00     0.037 A 
ATOM     54  C   UNL A   1      42.746  30.282  35.607  1.00  0.00     0.049 A 
ATOM     55  C   UNL A   1      38.469  32.702  32.899  1.00  0.00     0.074 A 
ATOM     56  C   UNL A   1      43.096  30.830  36.828  1.00  0.00     0.029 A 
ATOM     57  N   UNL A   1      41.670  31.018  35.131  1.00  0.00    -0.354 N 
ATOM     58  N   UNL A   1      39.451  32.248  33.641  1.00  0.00    -0.248 NA
ATOM     59  C   UNL A   1      37.718  33.808  33.505  1.00  0.00     0.031 C 
ATOM     60  C   UNL A   1      42.206  31.871  37.111  1.00  0.00     0.029 A 
ATOM     61  C   UNL A   1      41.331  32.003  36.044  1.00  0.00     0.049 A 
ATOM     62  H   UNL A   1      41.216  30.864  34.272  1.00  0.00     0.167 HD
ATOM     63  C   UNL A   1      39.452  33.031  34.790  1.00  0.00     0.074 A 
ATOM     64  C   UNL A   1      38.382  33.995  34.638  1.00  0.00     0.031 C 
ATOM     65  C   UNL A   1      40.265  32.959  35.873  1.00  0.00     0.037 A 
BRANCH  52  66
ATOM     66  C   UNL A   1      44.465  28.426  35.601  1.00  0.00     0.058 A 
ATOM     67  C   UNL A   1      45.809  28.781  35.403  1.00  0.00     0.135 A 
ATOM     68  C   UNL A   1      44.191  27.374  36.489  1.00  0.00     0.135 A 
ATOM     69  F   UNL A   1      46.130  29.769  34.552  1.00  0.00    -0.206 F 
ATOM     70  C   UNL A   1      46.843  28.100  36.037  1.00  0.00     0.059 A 
ATOM     71  C   UNL A   1      45.208  26.697  37.158  1.00  0.00     0.059 A 
ATOM     72  F   UNL A   1      42.924  26.992  36.716  1.00  0.00    -0.206 F 
ATOM     73  C   UNL A   1      46.532  27.060  36.914  1.00  0.00     0.060 A 
BRANCH  73  74
ATOM     74  S   UNL A   1      47.885  26.193  37.735  1.00  0.00     0.124 S 
ATOM     75  O   UNL A   1      49.029  27.024  37.368  1.00  0.00    -0.237 OA
ATOM     76  O   UNL A   1      47.487  26.249  39.138  1.00  0.00    -0.237 OA
ATOM     77  O   UNL A   1      47.857  24.865  37.131  1.00  0.00    -0.744 OA
ENDBRANCH  73  74
ENDBRANCH  52  66
BRANCH  53  78
ATOM     78  C   UNL A   1      36.876  32.890  30.848  1.00  0.00     0.058 A 
ATOM     79  C   UNL A   1      35.556  32.572  31.201  1.00  0.00     0.135 A 
ATOM     80  C   UNL A   1      37.071  33.843  29.837  1.00  0.00     0.135 A 
ATOM     81  F   UNL A   1      35.317  31.664  32.158  1.00  0.00    -0.206 F 
ATOM     82  C   UNL A   1      34.469  33.162  30.563  1.00  0.00     0.059 A 
ATOM     83  C   UNL A   1      36.001  34.466  29.202  1.00  0.00     0.059 A 
ATOM     84  F   UNL A   1      38.315  34.194  29.475  1.00  0.00    -0.206 F 
ATOM     85  C   UNL A   1      34.702  34.110  29.565  1.00  0.00     0.060 A 
BRANCH  85  86
ATOM     86  S   UNL A   1      33.285  34.903  28.775  1.00  0.00     0.124 S 
ATOM     87  O   UNL A   1      33.894  36.104  28.217  1.00  0.00    -0.237 OA
ATOM     88  O   UNL A   1      32.866  33.891  27.810  1.00  0.00    -0.237 OA
ATOM     89  O   UNL A   1      32.361  35.119  29.885  1.00  0.00    -0.744 OA
ENDBRANCH  85  86
ENDBRANCH  53  78
BRANCH  65  90
ATOM     90  C   UNL A   1      40.051  33.968  36.967  1.00  0.00     0.058 A 
ATOM     91  C   UNL A   1      40.697  35.214  36.959  1.00  0.00     0.135 A 
ATOM     92  C   UNL A   1      39.150  33.703  38.010  1.00  0.00     0.135 A 
ATOM     93  F   UNL A   1      41.573  35.514  35.987  1.00  0.00    -0.206 F 
ATOM     94  C   UNL A   1      40.475  36.153  37.960  1.00  0.00     0.059 A 
ATOM     95  C   UNL A   1      38.891  34.639  39.007  1.00  0.00     0.059 A 
ATOM     96  F   UNL A   1      38.498  32.531  38.059  1.00  0.00    -0.206 F 
ATOM     97  C   UNL A   1      39.568  35.857  38.980  1.00  0.00     0.060 A 
BRANCH  97  98
ATOM     98  S   UNL A   1      39.265  37.097  40.256  1.00  0.00     0.124 S 
ATOM     99  O   UNL A   1      38.519  36.325  41.244  1.00  0.00    -0.237 OA
ATOM    100  O   UNL A   1      40.616  37.486  40.643  1.00  0.00    -0.237 OA
ATOM    101  O   UNL A   1      38.500  38.124  39.555  1.00  0.00    -0.744 OA
ENDBRANCH  97  98
ENDBRANCH  65  90
ENDBRANCH  39  40
ENDBRANCH  31  34
ENDBRANCH  29  30
ENDBRANCH  28  29
ENDBRANCH   1  28
TORSDOF 20
ENDMDL
MODEL 3
REMARK VINA RESULT:     -11.5      6.522     11.825
REMARK SMILES COc1ccc(NC(=O)[C@H](CC(=O)NCCCCNC(=O)c2ccc(-c3c4nc(c(-c5c(F)cc(S(=O)(=O)[O-])cc5F)c5ccc([nH]5)c(-c5c(F)cc(S(=O)(=O)[O-])cc5F)c5nc(c(-c6c(F)cc(S(=O)(=O)[O-])cc6F)c6ccc3[nH]6)C=C5)C=C4)cc2)Cc2ccccc2)cc1
REMARK SMILES IDX 16 1 15 2 14 3 12 4 13 5 11 7 10 8 8 9 7 10 9 12 6 13 3 14
REMARK SMILES IDX 4 15 96 16 5 17 95 18 2 19 1 20 88 21 89 22 90 23 94 24
REMARK SMILES IDX 91 25 93 26 92 27 17 28 18 29 19 30 20 31 21 33 22 34 23 35
REMARK SMILES IDX 87 36 24 37 86 38 25 39 26 40 27 41 80 42 28 43 85 44 79 45
REMARK SMILES IDX 81 46 29 47 84 48 78 49 77 50 30 52 64 53 43 54 63 55 44 56
REMARK SMILES IDX 47 57 62 58 82 59 45 60 46 61 61 63 83 64 48 65 31 66 32 67
REMARK SMILES IDX 41 68 33 69 34 70 40 71 42 72 35 73 36 74 37 75 38 76 39 77
REMARK SMILES IDX 65 78 66 79 75 80 67 81 68 82 74 83 76 84 69 85 70 86 71 87
REMARK SMILES IDX 72 88 73 89 49 90 50 91 59 92 51 93 52 94 58 95 60 96 53 97
REMARK SMILES IDX 54 98 55 99 56 100 57 101
REMARK H PARENT 14 6 7 11 19 32 81 51 47 62
REMARK Flexibility Score: inf
ROOT
ATOM      1  C   UNL A   1      34.514  31.105  27.634  1.00  0.00     0.023 C 
ENDROOT
BRANCH   1   2
ATOM      2  C   UNL A   1      33.124  30.872  27.042  1.00  0.00     0.116 C 
BRANCH   2   3
ATOM      3  N   UNL A   1      32.533  29.687  27.620  1.00  0.00    -0.356 N 
ATOM      4  C   UNL A   1      31.760  28.732  27.048  1.00  0.00     0.220 C 
ATOM      5  O   UNL A   1      31.292  27.855  27.773  1.00  0.00    -0.275 OA
ATOM      6  H   UNL A   1      32.719  29.553  28.577  1.00  0.00     0.163 HD
BRANCH   4   7
ATOM      7  C   UNL A   1      31.631  28.660  25.545  1.00  0.00     0.113 C 
BRANCH   7   8
ATOM      8  C   UNL A   1      32.214  27.446  24.803  1.00  0.00     0.092 C 
BRANCH   8   9
ATOM      9  C   UNL A   1      32.186  27.562  23.274  1.00  0.00     0.228 C 
ATOM     10  N   UNL A   1      32.092  26.519  22.399  1.00  0.00    -0.326 N 
ATOM     11  H   UNL A   1      32.122  26.793  21.454  1.00  0.00     0.169 HD
ATOM     12  O   UNL A   1      32.289  28.689  22.767  1.00  0.00    -0.274 OA
BRANCH  10  13
ATOM     13  C   UNL A   1      31.961  25.134  22.578  1.00  0.00     0.041 A 
ATOM     14  C   UNL A   1      32.040  22.433  23.329  1.00  0.00     0.119 A 
ATOM     15  C   UNL A   1      30.882  23.183  23.512  1.00  0.00     0.048 A 
ATOM     16  C   UNL A   1      33.111  22.997  22.638  1.00  0.00     0.048 A 
ATOM     17  C   UNL A   1      30.833  24.520  23.111  1.00  0.00     0.030 A 
ATOM     18  C   UNL A   1      33.064  24.341  22.251  1.00  0.00     0.030 A 
BRANCH  14  19
ATOM     19  O   UNL A   1      32.010  21.170  23.850  1.00  0.00    -0.497 OA
ATOM     20  C   UNL A   1      33.276  20.529  23.985  1.00  0.00     0.278 C 
ENDBRANCH  14  19
ENDBRANCH  10  13
ENDBRANCH   8   9
BRANCH   8  21
ATOM     21  C   UNL A   1      33.613  26.961  25.223  1.00  0.00     0.049 C 
BRANCH  21  22
ATOM     22  C   UNL A   1      33.610  25.571  25.796  1.00  0.00    -0.047 A 
ATOM     23  C   UNL A   1      34.728  24.736  25.656  1.00  0.00     0.004 A 
ATOM     24  C   UNL A   1      32.448  25.064  26.392  1.00  0.00     0.004 A 
ATOM     25  C   UNL A   1      34.666  23.406  26.071  1.00  0.00     0.000 A 
ATOM     26  C   UNL A   1      32.387  23.733  26.798  1.00  0.00     0.000 A 
ATOM     27  C   UNL A   1      33.492  22.903  26.630  1.00  0.00     0.000 A 
ENDBRANCH  21  22
ENDBRANCH   8  21
ENDBRANCH   7   8
ENDBRANCH   4   7
ENDBRANCH   2   3
ENDBRANCH   1   2
BRANCH   1  28
ATOM     28  C   UNL A   1      35.419  29.868  27.609  1.00  0.00     0.023 C 
BRANCH  28  29
ATOM     29  C   UNL A   1      35.823  29.344  28.981  1.00  0.00     0.116 C 
BRANCH  29  30
ATOM     30  N   UNL A   1      35.759  30.372  30.007  1.00  0.00    -0.352 N 
ATOM     31  C   UNL A   1      36.796  30.964  30.684  1.00  0.00     0.251 C 
ATOM     32  H   UNL A   1      34.856  30.683  30.247  1.00  0.00     0.163 HD
ATOM     33  O   UNL A   1      36.571  31.715  31.628  1.00  0.00    -0.269 OA
BRANCH  31  34
ATOM     34  C   UNL A   1      38.180  30.655  30.280  1.00  0.00     0.039 A 
ATOM     35  C   UNL A   1      39.057  30.128  31.230  1.00  0.00     0.014 A 
ATOM     36  C   UNL A   1      38.591  30.841  28.957  1.00  0.00     0.014 A 
ATOM     37  C   UNL A   1      40.336  29.732  30.836  1.00  0.00     0.010 A 
ATOM     38  C   UNL A   1      39.841  30.384  28.554  1.00  0.00     0.010 A 
ATOM     39  C   UNL A   1      40.726  29.827  29.489  1.00  0.00    -0.014 A 
BRANCH  39  40
ATOM     40  C   UNL A   1      42.055  29.340  29.044  1.00  0.00     0.031 A 
ATOM     41  C   UNL A   1      43.218  30.290  28.965  1.00  0.00     0.074 A 
ATOM     42  C   UNL A   1      42.196  28.057  28.655  1.00  0.00     0.049 A 
ATOM     43  N   UNL A   1      44.439  30.067  28.553  1.00  0.00    -0.248 NA
ATOM     44  C   UNL A   1      42.969  31.681  29.377  1.00  0.00     0.031 C 
ATOM     45  C   UNL A   1      41.127  27.056  28.636  1.00  0.00     0.029 A 
ATOM     46  N   UNL A   1      43.295  27.376  28.194  1.00  0.00    -0.354 N 
ATOM     47  C   UNL A   1      45.100  31.286  28.647  1.00  0.00     0.074 A 
ATOM     48  C   UNL A   1      44.129  32.258  29.101  1.00  0.00     0.031 C 
ATOM     49  C   UNL A   1      41.627  25.885  28.208  1.00  0.00     0.029 A 
ATOM     50  C   UNL A   1      43.041  26.059  27.890  1.00  0.00     0.049 A 
ATOM     51  H   UNL A   1      44.182  27.792  28.091  1.00  0.00     0.167 HD
ATOM     52  C   UNL A   1      46.401  31.563  28.399  1.00  0.00     0.037 A 
ATOM     53  C   UNL A   1      43.855  25.101  27.405  1.00  0.00     0.037 A 
ATOM     54  C   UNL A   1      47.366  30.584  27.970  1.00  0.00     0.049 A 
ATOM     55  C   UNL A   1      45.300  25.434  27.144  1.00  0.00     0.074 A 
ATOM     56  C   UNL A   1      48.722  30.751  27.752  1.00  0.00     0.029 A 
ATOM     57  N   UNL A   1      47.076  29.255  27.694  1.00  0.00    -0.354 N 
ATOM     58  N   UNL A   1      45.924  26.577  27.303  1.00  0.00    -0.248 NA
ATOM     59  C   UNL A   1      46.152  24.347  26.643  1.00  0.00     0.031 C 
ATOM     60  C   UNL A   1      49.245  29.533  27.303  1.00  0.00     0.029 A 
ATOM     61  C   UNL A   1      48.224  28.596  27.288  1.00  0.00     0.049 A 
ATOM     62  H   UNL A   1      46.186  28.843  27.776  1.00  0.00     0.167 HD
ATOM     63  C   UNL A   1      47.247  26.340  26.948  1.00  0.00     0.074 A 
ATOM     64  C   UNL A   1      47.335  24.942  26.578  1.00  0.00     0.031 C 
ATOM     65  C   UNL A   1      48.295  27.201  26.929  1.00  0.00     0.037 A 
BRANCH  52  66
ATOM     66  C   UNL A   1      46.861  32.983  28.592  1.00  0.00     0.058 A 
ATOM     67  C   UNL A   1      46.831  33.916  27.543  1.00  0.00     0.135 A 
ATOM     68  C   UNL A   1      47.302  33.428  29.849  1.00  0.00     0.135 A 
ATOM     69  F   UNL A   1      46.433  33.541  26.316  1.00  0.00    -0.206 F 
ATOM     70  C   UNL A   1      47.249  35.230  27.724  1.00  0.00     0.059 A 
ATOM     71  C   UNL A   1      47.698  34.746  30.061  1.00  0.00     0.059 A 
ATOM     72  F   UNL A   1      47.351  32.578  30.888  1.00  0.00    -0.206 F 
ATOM     73  C   UNL A   1      47.681  35.636  28.988  1.00  0.00     0.060 A 
BRANCH  73  74
ATOM     74  S   UNL A   1      48.212  37.346  29.208  1.00  0.00     0.124 S 
ATOM     75  O   UNL A   1      47.394  38.035  28.214  1.00  0.00    -0.237 OA
ATOM     76  O   UNL A   1      47.865  37.605  30.602  1.00  0.00    -0.237 OA
ATOM     77  O   UNL A   1      49.642  37.300  28.919  1.00  0.00    -0.744 OA
ENDBRANCH  73  74
ENDBRANCH  52  66
BRANCH  53  78
ATOM     78  C   UNL A   1      43.329  23.732  27.158  1.00  0.00     0.058 A 
ATOM     79  C   UNL A   1      43.030  23.299  25.858  1.00  0.00     0.135 A 
ATOM     80  C   UNL A   1      43.125  22.828  28.211  1.00  0.00     0.135 A 
ATOM     81  F   UNL A   1      43.203  24.129  24.818  1.00  0.00    -0.206 F 
ATOM     82  C   UNL A   1      42.530  22.025  25.611  1.00  0.00     0.059 A 
ATOM     83  C   UNL A   1      42.651  21.539  27.987  1.00  0.00     0.059 A 
ATOM     84  F   UNL A   1      43.413  23.188  29.472  1.00  0.00    -0.206 F 
ATOM     85  C   UNL A   1      42.346  21.150  26.683  1.00  0.00     0.060 A 
BRANCH  85  86
ATOM     86  S   UNL A   1      41.739  19.483  26.346  1.00  0.00     0.124 S 
ATOM     87  O   UNL A   1      42.433  19.163  25.105  1.00  0.00    -0.237 OA
ATOM     88  O   UNL A   1      42.176  18.752  27.531  1.00  0.00    -0.237 OA
ATOM     89  O   UNL A   1      40.295  19.670  26.233  1.00  0.00    -0.744 OA
ENDBRANCH  85  86
ENDBRANCH  53  78
BRANCH  65  90
ATOM     90  C   UNL A   1      49.634  26.651  26.524  1.00  0.00     0.058 A 
ATOM     91  C   UNL A   1      50.112  26.765  25.209  1.00  0.00     0.135 A 
ATOM     92  C   UNL A   1      50.470  26.046  27.476  1.00  0.00     0.135 A 
ATOM     93  F   UNL A   1      49.348  27.329  24.260  1.00  0.00    -0.206 F 
ATOM     94  C   UNL A   1      51.363  26.277  24.846  1.00  0.00     0.059 A 
ATOM     95  C   UNL A   1      51.737  25.576  27.141  1.00  0.00     0.059 A 
ATOM     96  F   UNL A   1      50.066  25.922  28.750  1.00  0.00    -0.206 F 
ATOM     97  C   UNL A   1      52.169  25.685  25.821  1.00  0.00     0.060 A 
BRANCH  97  98
ATOM     98  S   UNL A   1      53.803  25.085  25.344  1.00  0.00     0.124 S 
ATOM     99  O   UNL A   1      53.583  23.644  25.293  1.00  0.00    -0.237 OA
ATOM    100  O   UNL A   1      54.014  25.740  24.058  1.00  0.00    -0.237 OA
ATOM    101  O   UNL A   1      54.665  25.551  26.427  1.00  0.00    -0.744 OA
ENDBRANCH  97  98
ENDBRANCH  65  90
ENDBRANCH  39  40
ENDBRANCH  31  34
ENDBRANCH  29  30
ENDBRANCH  28  29
ENDBRANCH   1  28
TORSDOF 20
ENDMDL
