MODEL 1
REMARK VINA RESULT:     -12.5      0.000      0.000
REMARK SMILES O=C(NCCCCNC(=O)c1ccc(Cn2ccc3ccc(Br)cc32)nc1)c1ccc(-c2c3nc(c(-c4c(F)cc(S(=O)(=O)[O-])cc4F)c4ccc([nH]4)c(-c4c(F)cc(S(=O)(=O)[O-])cc4F)c4nc(c(-c5c(F)cc(S(=O)(=O)[O-])cc5F)c5ccc2[nH]5)C=C4)C=C3)cc1
REMARK SMILES IDX 5 1 4 2 3 3 1 4 2 5 28 7 29 8 93 9 30 10 92 11 31 12 32 13
REMARK SMILES IDX 33 14 86 15 34 16 91 17 85 18 87 19 35 20 90 21 84 22 83 23
REMARK SMILES IDX 36 25 70 26 49 27 69 28 50 29 53 30 68 31 88 32 51 33 52 34
REMARK SMILES IDX 67 36 89 37 54 38 37 39 38 40 47 41 39 42 40 43 46 44 48 45
REMARK SMILES IDX 41 46 42 47 43 48 44 49 45 50 71 51 72 52 81 53 73 54 74 55
REMARK SMILES IDX 80 56 82 57 75 58 76 59 77 60 78 61 79 62 55 63 56 64 65 65
REMARK SMILES IDX 57 66 58 67 64 68 66 69 59 70 60 71 61 72 62 73 63 74 6 75
REMARK SMILES IDX 7 76 8 77 9 78 10 80 11 81 12 82 27 83 13 84 26 85 14 86
REMARK SMILES IDX 15 87 16 88 17 89 25 90 18 91 19 92 24 93 20 94 22 95 21 96
REMARK SMILES IDX 23 97
REMARK H PARENT 3 6 87 24 53 35 8 79
REMARK Flexibility Score: inf
ROOT
ATOM      1  C   UNL A   1      37.183  22.914  24.938  1.00  0.00     0.023 C 
ENDROOT
BRANCH   1   2
ATOM      2  C   UNL A   1      37.992  23.340  26.151  1.00  0.00     0.116 C 
BRANCH   2   3
ATOM      3  N   UNL A   1      39.177  22.512  26.404  1.00  0.00    -0.352 N 
ATOM      4  O   UNL A   1      41.430  22.183  26.328  1.00  0.00    -0.269 OA
ATOM      5  C   UNL A   1      40.498  22.940  26.527  1.00  0.00     0.251 C 
ATOM      6  H   UNL A   1      39.021  21.544  26.499  1.00  0.00     0.163 HD
BRANCH   5   7
ATOM      7  C   UNL A   1      40.725  24.343  26.928  1.00  0.00     0.039 A 
ATOM      8  C   UNL A   1      40.418  25.440  26.124  1.00  0.00     0.014 A 
ATOM      9  C   UNL A   1      41.194  24.528  28.220  1.00  0.00     0.014 A 
ATOM     10  C   UNL A   1      40.526  26.713  26.687  1.00  0.00     0.010 A 
ATOM     11  C   UNL A   1      40.985  25.721  28.842  1.00  0.00     0.010 A 
ATOM     12  C   UNL A   1      40.790  26.842  28.066  1.00  0.00    -0.014 A 
BRANCH  12  13
ATOM     13  C   UNL A   1      40.792  28.128  28.756  1.00  0.00     0.031 A 
ATOM     14  C   UNL A   1      41.917  28.996  28.348  1.00  0.00     0.074 A 
ATOM     15  C   UNL A   1      39.800  28.557  29.573  1.00  0.00     0.049 A 
ATOM     16  N   UNL A   1      43.030  29.146  28.982  1.00  0.00    -0.248 NA
ATOM     17  C   UNL A   1      41.923  29.568  26.992  1.00  0.00     0.031 C 
ATOM     18  C   UNL A   1      38.497  27.934  29.861  1.00  0.00     0.029 A 
ATOM     19  N   UNL A   1      39.724  29.708  30.297  1.00  0.00    -0.354 N 
ATOM     20  C   UNL A   1      43.748  30.079  28.250  1.00  0.00     0.074 A 
ATOM     21  C   UNL A   1      43.147  30.101  26.941  1.00  0.00     0.031 C 
ATOM     22  C   UNL A   1      37.691  28.811  30.500  1.00  0.00     0.029 A 
ATOM     23  C   UNL A   1      38.470  29.981  30.845  1.00  0.00     0.049 A 
ATOM     24  H   UNL A   1      40.497  30.305  30.423  1.00  0.00     0.167 HD
ATOM     25  C   UNL A   1      44.558  30.964  28.890  1.00  0.00     0.037 A 
ATOM     26  C   UNL A   1      38.108  31.074  31.570  1.00  0.00     0.037 A 
ATOM     27  C   UNL A   1      44.806  30.541  30.250  1.00  0.00     0.049 A 
ATOM     28  C   UNL A   1      39.364  31.632  32.128  1.00  0.00     0.074 A 
ATOM     29  C   UNL A   1      45.344  29.411  30.837  1.00  0.00     0.029 A 
ATOM     30  N   UNL A   1      44.085  31.171  31.236  1.00  0.00    -0.354 N 
ATOM     31  N   UNL A   1      40.102  31.014  33.011  1.00  0.00    -0.248 NA
ATOM     32  C   UNL A   1      40.043  32.657  31.354  1.00  0.00     0.031 C 
ATOM     33  C   UNL A   1      44.551  29.182  32.001  1.00  0.00     0.029 A 
ATOM     34  C   UNL A   1      43.629  30.224  32.116  1.00  0.00     0.049 A 
ATOM     35  H   UNL A   1      43.923  32.140  31.301  1.00  0.00     0.167 HD
ATOM     36  C   UNL A   1      41.407  31.247  32.604  1.00  0.00     0.074 A 
ATOM     37  C   UNL A   1      41.309  32.337  31.633  1.00  0.00     0.031 C 
ATOM     38  C   UNL A   1      42.398  30.346  32.873  1.00  0.00     0.037 A 
BRANCH  25  39
ATOM     39  C   UNL A   1      44.749  32.398  28.452  1.00  0.00     0.058 A 
ATOM     40  C   UNL A   1      46.050  32.848  28.150  1.00  0.00     0.135 A 
ATOM     41  C   UNL A   1      43.772  33.409  28.595  1.00  0.00     0.135 A 
ATOM     42  F   UNL A   1      47.059  31.974  28.008  1.00  0.00    -0.206 F 
ATOM     43  C   UNL A   1      46.369  34.202  28.067  1.00  0.00     0.059 A 
ATOM     44  C   UNL A   1      44.058  34.762  28.462  1.00  0.00     0.059 A 
ATOM     45  F   UNL A   1      42.514  33.151  28.967  1.00  0.00    -0.206 F 
ATOM     46  C   UNL A   1      45.366  35.152  28.234  1.00  0.00     0.060 A 
BRANCH  46  47
ATOM     47  S   UNL A   1      45.788  36.899  28.203  1.00  0.00     0.124 S 
ATOM     48  O   UNL A   1      45.764  37.179  26.773  1.00  0.00    -0.237 OA
ATOM     49  O   UNL A   1      44.705  37.481  28.990  1.00  0.00    -0.237 OA
ATOM     50  O   UNL A   1      47.104  36.937  28.835  1.00  0.00    -0.744 OA
ENDBRANCH  46  47
ENDBRANCH  25  39
BRANCH  26  51
ATOM     51  C   UNL A   1      36.845  31.865  31.514  1.00  0.00     0.058 A 
ATOM     52  C   UNL A   1      36.157  32.213  32.695  1.00  0.00     0.135 A 
ATOM     53  C   UNL A   1      36.460  32.561  30.352  1.00  0.00     0.135 A 
ATOM     54  F   UNL A   1      36.456  31.606  33.854  1.00  0.00    -0.206 F 
ATOM     55  C   UNL A   1      35.206  33.241  32.736  1.00  0.00     0.059 A 
ATOM     56  C   UNL A   1      35.511  33.587  30.368  1.00  0.00     0.059 A 
ATOM     57  F   UNL A   1      37.067  32.328  29.178  1.00  0.00    -0.206 F 
ATOM     58  C   UNL A   1      34.912  33.945  31.570  1.00  0.00     0.060 A 
BRANCH  58  59
ATOM     59  S   UNL A   1      33.831  35.395  31.658  1.00  0.00     0.124 S 
ATOM     60  O   UNL A   1      32.649  34.853  32.320  1.00  0.00    -0.237 OA
ATOM     61  O   UNL A   1      34.630  36.328  32.446  1.00  0.00    -0.237 OA
ATOM     62  O   UNL A   1      33.645  35.766  30.258  1.00  0.00    -0.744 OA
ENDBRANCH  58  59
ENDBRANCH  26  51
BRANCH  38  63
ATOM     63  C   UNL A   1      42.139  29.283  33.914  1.00  0.00     0.058 A 
ATOM     64  C   UNL A   1      41.489  28.058  33.680  1.00  0.00     0.135 A 
ATOM     65  C   UNL A   1      42.721  29.466  35.178  1.00  0.00     0.135 A 
ATOM     66  F   UNL A   1      40.977  27.765  32.477  1.00  0.00    -0.206 F 
ATOM     67  C   UNL A   1      41.404  27.070  34.668  1.00  0.00     0.059 A 
ATOM     68  C   UNL A   1      42.675  28.486  36.165  1.00  0.00     0.059 A 
ATOM     69  F   UNL A   1      43.397  30.594  35.449  1.00  0.00    -0.206 F 
ATOM     70  C   UNL A   1      42.008  27.292  35.907  1.00  0.00     0.060 A 
BRANCH  70  71
ATOM     71  S   UNL A   1      41.968  25.989  37.159  1.00  0.00     0.124 S 
ATOM     72  O   UNL A   1      42.922  26.482  38.147  1.00  0.00    -0.237 OA
ATOM     73  O   UNL A   1      40.568  25.992  37.573  1.00  0.00    -0.237 OA
ATOM     74  O   UNL A   1      42.390  24.796  36.427  1.00  0.00    -0.744 OA
ENDBRANCH  70  71
ENDBRANCH  38  63
ENDBRANCH  12  13
ENDBRANCH   5   7
ENDBRANCH   2   3
ENDBRANCH   1   2
BRANCH   1  75
ATOM     75  C   UNL A   1      36.501  21.544  25.060  1.00  0.00     0.023 C 
BRANCH  75  76
ATOM     76  C   UNL A   1      35.197  21.489  25.865  1.00  0.00     0.116 C 
BRANCH  76  77
ATOM     77  N   UNL A   1      34.099  20.879  25.135  1.00  0.00    -0.352 N 
ATOM     78  C   UNL A   1      33.140  21.483  24.360  1.00  0.00     0.252 C 
ATOM     79  H   UNL A   1      34.034  19.899  25.206  1.00  0.00     0.163 HD
ATOM     80  O   UNL A   1      32.165  20.857  23.963  1.00  0.00    -0.269 OA
BRANCH  78  81
ATOM     81  C   UNL A   1      33.255  22.913  24.062  1.00  0.00     0.058 A 
ATOM     82  C   UNL A   1      32.655  23.903  24.838  1.00  0.00     0.017 A 
ATOM     83  C   UNL A   1      33.963  23.288  22.938  1.00  0.00     0.125 A 
ATOM     84  C   UNL A   1      32.751  25.236  24.433  1.00  0.00     0.026 A 
ATOM     85  N   UNL A   1      34.022  24.565  22.501  1.00  0.00    -0.259 NA
ATOM     86  C   UNL A   1      33.440  25.533  23.257  1.00  0.00     0.060 A 
BRANCH  86  87
ATOM     87  C   UNL A   1      33.578  26.953  22.764  1.00  0.00     0.178 C 
BRANCH  87  88
ATOM     88  N   UNL A   1      32.618  27.846  23.406  1.00  0.00    -0.341 N 
ATOM     89  C   UNL A   1      31.344  28.073  22.943  1.00  0.00     0.087 A 
ATOM     90  C   UNL A   1      32.842  28.598  24.548  1.00  0.00     0.049 A 
ATOM     91  C   UNL A   1      30.715  28.920  23.829  1.00  0.00     0.028 A 
ATOM     92  C   UNL A   1      31.640  29.236  24.860  1.00  0.00    -0.000 A 
ATOM     93  C   UNL A   1      33.983  28.737  25.359  1.00  0.00     0.042 A 
ATOM     94  C   UNL A   1      31.560  30.008  26.038  1.00  0.00     0.011 A 
ATOM     95  C   UNL A   1      33.867  29.480  26.536  1.00  0.00     0.020 A 
ATOM     96  C   UNL A   1      32.676  30.108  26.878  1.00  0.00     0.016 A 
ATOM     97  Br  UNL A   1      35.359  29.603  27.696  1.00  0.00    -0.051 Br
ENDBRANCH  87  88
ENDBRANCH  86  87
ENDBRANCH  78  81
ENDBRANCH  76  77
ENDBRANCH  75  76
ENDBRANCH   1  75
TORSDOF 16
ENDMDL
MODEL 2
REMARK VINA RESULT:     -12.5      3.096      9.575
REMARK SMILES O=C(NCCCCNC(=O)c1ccc(Cn2ccc3ccc(Br)cc32)nc1)c1ccc(-c2c3nc(c(-c4c(F)cc(S(=O)(=O)[O-])cc4F)c4ccc([nH]4)c(-c4c(F)cc(S(=O)(=O)[O-])cc4F)c4nc(c(-c5c(F)cc(S(=O)(=O)[O-])cc5F)c5ccc2[nH]5)C=C4)C=C3)cc1
REMARK SMILES IDX 5 1 4 2 3 3 1 4 2 5 28 7 29 8 93 9 30 10 92 11 31 12 32 13
REMARK SMILES IDX 33 14 86 15 34 16 91 17 85 18 87 19 35 20 90 21 84 22 83 23
REMARK SMILES IDX 36 25 70 26 49 27 69 28 50 29 53 30 68 31 88 32 51 33 52 34
REMARK SMILES IDX 67 36 89 37 54 38 37 39 38 40 47 41 39 42 40 43 46 44 48 45
REMARK SMILES IDX 41 46 42 47 43 48 44 49 45 50 71 51 72 52 81 53 73 54 74 55
REMARK SMILES IDX 80 56 82 57 75 58 76 59 77 60 78 61 79 62 55 63 56 64 65 65
REMARK SMILES IDX 57 66 58 67 64 68 66 69 59 70 60 71 61 72 62 73 63 74 6 75
REMARK SMILES IDX 7 76 8 77 9 78 10 80 11 81 12 82 27 83 13 84 26 85 14 86
REMARK SMILES IDX 15 87 16 88 17 89 25 90 18 91 19 92 24 93 20 94 22 95 21 96
REMARK SMILES IDX 23 97
REMARK H PARENT 3 6 87 24 53 35 8 79
REMARK Flexibility Score: inf
ROOT
ATOM      1  C   UNL A   1      32.757  30.092  27.159  1.00  0.00     0.023 C 
ENDROOT
BRANCH   1   2
ATOM      2  C   UNL A   1      34.002  30.940  27.353  1.00  0.00     0.116 C 
BRANCH   2   3
ATOM      3  N   UNL A   1      33.919  31.882  28.476  1.00  0.00    -0.352 N 
ATOM      4  O   UNL A   1      34.419  32.476  30.618  1.00  0.00    -0.269 OA
ATOM      5  C   UNL A   1      34.779  31.972  29.569  1.00  0.00     0.251 C 
ATOM      6  H   UNL A   1      33.172  32.522  28.454  1.00  0.00     0.163 HD
BRANCH   5   7
ATOM      7  C   UNL A   1      36.151  31.452  29.403  1.00  0.00     0.039 A 
ATOM      8  C   UNL A   1      37.297  32.240  29.497  1.00  0.00     0.014 A 
ATOM      9  C   UNL A   1      36.254  30.080  29.229  1.00  0.00     0.014 A 
ATOM     10  C   UNL A   1      38.536  31.597  29.487  1.00  0.00     0.010 A 
ATOM     11  C   UNL A   1      37.422  29.453  29.542  1.00  0.00     0.010 A 
ATOM     12  C   UNL A   1      38.587  30.189  29.532  1.00  0.00    -0.014 A 
BRANCH  12  13
ATOM     13  C   UNL A   1      39.836  29.444  29.654  1.00  0.00     0.031 A 
ATOM     14  C   UNL A   1      40.188  29.141  31.058  1.00  0.00     0.074 A 
ATOM     15  C   UNL A   1      40.534  28.947  28.604  1.00  0.00     0.049 A 
ATOM     16  N   UNL A   1      41.017  29.801  31.793  1.00  0.00    -0.248 NA
ATOM     17  C   UNL A   1      39.374  28.168  31.804  1.00  0.00     0.031 C 
ATOM     18  C   UNL A   1      40.176  28.926  27.176  1.00  0.00     0.029 A 
ATOM     19  N   UNL A   1      41.723  28.285  28.604  1.00  0.00    -0.354 N 
ATOM     20  C   UNL A   1      41.053  29.127  33.003  1.00  0.00     0.074 A 
ATOM     21  C   UNL A   1      39.864  28.314  33.038  1.00  0.00     0.031 C 
ATOM     22  C   UNL A   1      41.002  28.097  26.500  1.00  0.00     0.029 A 
ATOM     23  C   UNL A   1      42.064  27.681  27.391  1.00  0.00     0.049 A 
ATOM     24  H   UNL A   1      42.301  28.234  29.399  1.00  0.00     0.167 HD
ATOM     25  C   UNL A   1      42.214  29.065  33.710  1.00  0.00     0.037 A 
ATOM     26  C   UNL A   1      43.165  26.928  27.127  1.00  0.00     0.037 A 
ATOM     27  C   UNL A   1      43.161  30.044  33.225  1.00  0.00     0.049 A 
ATOM     28  C   UNL A   1      44.176  27.306  28.145  1.00  0.00     0.074 A 
ATOM     29  C   UNL A   1      43.157  31.419  33.085  1.00  0.00     0.029 A 
ATOM     30  N   UNL A   1      44.160  29.584  32.400  1.00  0.00    -0.354 N 
ATOM     31  N   UNL A   1      44.727  28.488  28.215  1.00  0.00    -0.248 NA
ATOM     32  C   UNL A   1      44.219  26.524  29.369  1.00  0.00     0.031 C 
ATOM     33  C   UNL A   1      43.833  31.671  31.854  1.00  0.00     0.029 A 
ATOM     34  C   UNL A   1      44.290  30.453  31.347  1.00  0.00     0.049 A 
ATOM     35  H   UNL A   1      44.692  28.769  32.541  1.00  0.00     0.167 HD
ATOM     36  C   UNL A   1      44.780  28.772  29.571  1.00  0.00     0.074 A 
ATOM     37  C   UNL A   1      44.537  27.490  30.233  1.00  0.00     0.031 C 
ATOM     38  C   UNL A   1      44.729  30.060  30.022  1.00  0.00     0.037 A 
BRANCH  25  39
ATOM     39  C   UNL A   1      42.650  27.857  34.506  1.00  0.00     0.058 A 
ATOM     40  C   UNL A   1      42.873  28.002  35.890  1.00  0.00     0.135 A 
ATOM     41  C   UNL A   1      43.133  26.659  33.932  1.00  0.00     0.135 A 
ATOM     42  F   UNL A   1      42.469  29.108  36.536  1.00  0.00    -0.206 F 
ATOM     43  C   UNL A   1      43.583  27.060  36.633  1.00  0.00     0.059 A 
ATOM     44  C   UNL A   1      43.795  25.683  34.665  1.00  0.00     0.059 A 
ATOM     45  F   UNL A   1      43.079  26.414  32.619  1.00  0.00    -0.206 F 
ATOM     46  C   UNL A   1      44.049  25.907  36.007  1.00  0.00     0.060 A 
BRANCH  46  47
ATOM     47  S   UNL A   1      45.030  24.728  36.944  1.00  0.00     0.124 S 
ATOM     48  O   UNL A   1      46.366  25.298  36.821  1.00  0.00    -0.237 OA
ATOM     49  O   UNL A   1      44.415  24.813  38.265  1.00  0.00    -0.237 OA
ATOM     50  O   UNL A   1      44.808  23.469  36.237  1.00  0.00    -0.744 OA
ENDBRANCH  46  47
ENDBRANCH  25  39
BRANCH  26  51
ATOM     51  C   UNL A   1      43.280  25.678  26.321  1.00  0.00     0.058 A 
ATOM     52  C   UNL A   1      44.303  25.528  25.362  1.00  0.00     0.135 A 
ATOM     53  C   UNL A   1      42.604  24.498  26.688  1.00  0.00     0.135 A 
ATOM     54  F   UNL A   1      45.006  26.595  24.952  1.00  0.00    -0.206 F 
ATOM     55  C   UNL A   1      44.685  24.277  24.860  1.00  0.00     0.059 A 
ATOM     56  C   UNL A   1      42.965  23.240  26.197  1.00  0.00     0.059 A 
ATOM     57  F   UNL A   1      41.631  24.522  27.611  1.00  0.00    -0.206 F 
ATOM     58  C   UNL A   1      44.028  23.133  25.308  1.00  0.00     0.060 A 
BRANCH  58  59
ATOM     59  S   UNL A   1      44.643  21.504  24.810  1.00  0.00     0.124 S 
ATOM     60  O   UNL A   1      44.653  21.615  23.354  1.00  0.00    -0.237 OA
ATOM     61  O   UNL A   1      45.952  21.459  25.453  1.00  0.00    -0.237 OA
ATOM     62  O   UNL A   1      43.651  20.583  25.357  1.00  0.00    -0.744 OA
ENDBRANCH  58  59
ENDBRANCH  26  51
BRANCH  38  63
ATOM     63  C   UNL A   1      44.971  31.177  29.034  1.00  0.00     0.058 A 
ATOM     64  C   UNL A   1      46.231  31.592  28.568  1.00  0.00     0.135 A 
ATOM     65  C   UNL A   1      43.845  31.747  28.420  1.00  0.00     0.135 A 
ATOM     66  F   UNL A   1      47.358  31.040  29.039  1.00  0.00    -0.206 F 
ATOM     67  C   UNL A   1      46.363  32.546  27.553  1.00  0.00     0.059 A 
ATOM     68  C   UNL A   1      43.951  32.675  27.389  1.00  0.00     0.059 A 
ATOM     69  F   UNL A   1      42.612  31.358  28.785  1.00  0.00    -0.206 F 
ATOM     70  C   UNL A   1      45.214  33.077  26.965  1.00  0.00     0.060 A 
BRANCH  70  71
ATOM     71  S   UNL A   1      45.378  34.252  25.600  1.00  0.00     0.124 S 
ATOM     72  O   UNL A   1      46.826  34.356  25.455  1.00  0.00    -0.237 OA
ATOM     73  O   UNL A   1      44.679  33.572  24.513  1.00  0.00    -0.237 OA
ATOM     74  O   UNL A   1      44.714  35.454  26.101  1.00  0.00    -0.744 OA
ENDBRANCH  70  71
ENDBRANCH  38  63
ENDBRANCH  12  13
ENDBRANCH   5   7
ENDBRANCH   2   3
ENDBRANCH   1   2
BRANCH   1  75
ATOM     75  C   UNL A   1      31.920  30.440  25.921  1.00  0.00     0.023 C 
BRANCH  75  76
ATOM     76  C   UNL A   1      31.999  29.472  24.736  1.00  0.00     0.116 C 
BRANCH  76  77
ATOM     77  N   UNL A   1      31.139  29.851  23.628  1.00  0.00    -0.352 N 
ATOM     78  C   UNL A   1      30.467  29.041  22.744  1.00  0.00     0.252 C 
ATOM     79  H   UNL A   1      31.021  30.818  23.492  1.00  0.00     0.163 HD
ATOM     80  O   UNL A   1      29.935  29.506  21.744  1.00  0.00    -0.269 OA
BRANCH  78  81
ATOM     81  C   UNL A   1      30.449  27.593  22.970  1.00  0.00     0.058 A 
ATOM     82  C   UNL A   1      29.549  26.969  23.831  1.00  0.00     0.017 A 
ATOM     83  C   UNL A   1      31.393  26.823  22.323  1.00  0.00     0.125 A 
ATOM     84  C   UNL A   1      29.657  25.594  24.047  1.00  0.00     0.026 A 
ATOM     85  N   UNL A   1      31.549  25.502  22.559  1.00  0.00    -0.259 NA
ATOM     86  C   UNL A   1      30.671  24.889  23.397  1.00  0.00     0.060 A 
BRANCH  86  87
ATOM     87  C   UNL A   1      30.841  23.402  23.589  1.00  0.00     0.178 C 
BRANCH  87  88
ATOM     88  N   UNL A   1      31.494  23.089  24.857  1.00  0.00    -0.341 N 
ATOM     89  C   UNL A   1      30.829  22.914  26.047  1.00  0.00     0.087 A 
ATOM     90  C   UNL A   1      32.857  22.938  25.056  1.00  0.00     0.049 A 
ATOM     91  C   UNL A   1      31.757  22.577  27.006  1.00  0.00     0.028 A 
ATOM     92  C   UNL A   1      33.036  22.561  26.388  1.00  0.00    -0.000 A 
ATOM     93  C   UNL A   1      33.943  23.055  24.171  1.00  0.00     0.042 A 
ATOM     94  C   UNL A   1      34.335  22.254  26.844  1.00  0.00     0.011 A 
ATOM     95  C   UNL A   1      35.214  22.714  24.638  1.00  0.00     0.020 A 
ATOM     96  C   UNL A   1      35.415  22.317  25.954  1.00  0.00     0.016 A 
ATOM     97  Br  UNL A   1      36.680  22.769  23.441  1.00  0.00    -0.051 Br
ENDBRANCH  87  88
ENDBRANCH  86  87
ENDBRANCH  78  81
ENDBRANCH  76  77
ENDBRANCH  75  76
ENDBRANCH   1  75
TORSDOF 16
ENDMDL
MODEL 3
REMARK VINA RESULT:     -12.5      2.982      9.649
REMARK SMILES O=C(NCCCCNC(=O)c1ccc(Cn2ccc3ccc(Br)cc32)nc1)c1ccc(-c2c3nc(c(-c4c(F)cc(S(=O)(=O)[O-])cc4F)c4ccc([nH]4)c(-c4c(F)cc(S(=O)(=O)[O-])cc4F)c4nc(c(-c5c(F)cc(S(=O)(=O)[O-])cc5F)c5ccc2[nH]5)C=C4)C=C3)cc1
REMARK SMILES IDX 5 1 4 2 3 3 1 4 2 5 28 7 29 8 93 9 30 10 92 11 31 12 32 13
REMARK SMILES IDX 33 14 86 15 34 16 91 17 85 18 87 19 35 20 90 21 84 22 83 23
REMARK SMILES IDX 36 25 70 26 49 27 69 28 50 29 53 30 68 31 88 32 51 33 52 34
REMARK SMILES IDX 67 36 89 37 54 38 37 39 38 40 47 41 39 42 40 43 46 44 48 45
REMARK SMILES IDX 41 46 42 47 43 48 44 49 45 50 71 51 72 52 81 53 73 54 74 55
REMARK SMILES IDX 80 56 82 57 75 58 76 59 77 60 78 61 79 62 55 63 56 64 65 65
REMARK SMILES IDX 57 66 58 67 64 68 66 69 59 70 60 71 61 72 62 73 63 74 6 75
REMARK SMILES IDX 7 76 8 77 9 78 10 80 11 81 12 82 27 83 13 84 26 85 14 86
REMARK SMILES IDX 15 87 16 88 17 89 25 90 18 91 19 92 24 93 20 94 22 95 21 96
REMARK SMILES IDX 23 97
REMARK H PARENT 3 6 87 24 53 35 8 79
REMARK Flexibility Score: inf
ROOT
ATOM      1  C   UNL A   1      32.722  30.088  27.219  1.00  0.00     0.023 C 
ENDROOT
BRANCH   1   2
ATOM      2  C   UNL A   1      34.191  30.478  27.212  1.00  0.00     0.116 C 
BRANCH   2   3
ATOM      3  N   UNL A   1      34.454  31.839  27.696  1.00  0.00    -0.352 N 
ATOM      4  O   UNL A   1      35.110  33.278  29.336  1.00  0.00    -0.269 OA
ATOM      5  C   UNL A   1      35.268  32.214  28.763  1.00  0.00     0.251 C 
ATOM      6  H   UNL A   1      34.005  32.569  27.211  1.00  0.00     0.163 HD
BRANCH   5   7
ATOM      7  C   UNL A   1      36.343  31.284  29.162  1.00  0.00     0.039 A 
ATOM      8  C   UNL A   1      36.223  29.896  29.121  1.00  0.00     0.014 A 
ATOM      9  C   UNL A   1      37.548  31.876  29.507  1.00  0.00     0.014 A 
ATOM     10  C   UNL A   1      37.368  29.134  29.363  1.00  0.00     0.010 A 
ATOM     11  C   UNL A   1      38.698  31.151  29.420  1.00  0.00     0.010 A 
ATOM     12  C   UNL A   1      38.616  29.777  29.490  1.00  0.00    -0.014 A 
BRANCH  12  13
ATOM     13  C   UNL A   1      39.875  29.049  29.616  1.00  0.00     0.031 A 
ATOM     14  C   UNL A   1      40.289  28.861  31.023  1.00  0.00     0.074 A 
ATOM     15  C   UNL A   1      40.531  28.474  28.580  1.00  0.00     0.049 A 
ATOM     16  N   UNL A   1      41.144  29.581  31.666  1.00  0.00    -0.248 NA
ATOM     17  C   UNL A   1      39.515  27.947  31.879  1.00  0.00     0.031 C 
ATOM     18  C   UNL A   1      40.112  28.337  27.174  1.00  0.00     0.029 A 
ATOM     19  N   UNL A   1      41.724  27.818  28.580  1.00  0.00    -0.354 N 
ATOM     20  C   UNL A   1      41.236  29.005  32.924  1.00  0.00     0.074 A 
ATOM     21  C   UNL A   1      40.057  28.193  33.075  1.00  0.00     0.031 C 
ATOM     22  C   UNL A   1      40.914  27.460  26.531  1.00  0.00     0.029 A 
ATOM     23  C   UNL A   1      42.017  27.121  27.406  1.00  0.00     0.049 A 
ATOM     24  H   UNL A   1      42.335  27.833  29.351  1.00  0.00     0.167 HD
ATOM     25  C   UNL A   1      42.427  29.004  33.582  1.00  0.00     0.037 A 
ATOM     26  C   UNL A   1      43.111  26.354  27.155  1.00  0.00     0.037 A 
ATOM     27  C   UNL A   1      43.346  29.945  32.981  1.00  0.00     0.049 A 
ATOM     28  C   UNL A   1      44.162  26.816  28.095  1.00  0.00     0.074 A 
ATOM     29  C   UNL A   1      43.325  31.305  32.732  1.00  0.00     0.029 A 
ATOM     30  N   UNL A   1      44.311  29.425  32.152  1.00  0.00    -0.354 N 
ATOM     31  N   UNL A   1      44.707  28.001  28.047  1.00  0.00    -0.248 NA
ATOM     32  C   UNL A   1      44.263  26.133  29.374  1.00  0.00     0.031 C 
ATOM     33  C   UNL A   1      43.946  31.460  31.457  1.00  0.00     0.029 A 
ATOM     34  C   UNL A   1      44.390  30.207  31.030  1.00  0.00     0.049 A 
ATOM     35  H   UNL A   1      44.855  28.625  32.334  1.00  0.00     0.167 HD
ATOM     36  C   UNL A   1      44.816  28.392  29.372  1.00  0.00     0.074 A 
ATOM     37  C   UNL A   1      44.611  27.166  30.144  1.00  0.00     0.031 C 
ATOM     38  C   UNL A   1      44.774  29.713  29.722  1.00  0.00     0.037 A 
BRANCH  25  39
ATOM     39  C   UNL A   1      42.906  27.865  34.452  1.00  0.00     0.058 A 
ATOM     40  C   UNL A   1      43.171  28.116  35.813  1.00  0.00     0.135 A 
ATOM     41  C   UNL A   1      43.387  26.633  33.955  1.00  0.00     0.135 A 
ATOM     42  F   UNL A   1      42.774  29.263  36.387  1.00  0.00    -0.206 F 
ATOM     43  C   UNL A   1      43.919  27.242  36.601  1.00  0.00     0.059 A 
ATOM     44  C   UNL A   1      44.086  25.722  34.736  1.00  0.00     0.059 A 
ATOM     45  F   UNL A   1      43.293  26.288  32.666  1.00  0.00    -0.206 F 
ATOM     46  C   UNL A   1      44.380  26.050  36.048  1.00  0.00     0.060 A 
BRANCH  46  47
ATOM     47  S   UNL A   1      45.408  24.957  37.038  1.00  0.00     0.124 S 
ATOM     48  O   UNL A   1      44.741  25.024  38.333  1.00  0.00    -0.237 OA
ATOM     49  O   UNL A   1      45.281  23.695  36.315  1.00  0.00    -0.237 OA
ATOM     50  O   UNL A   1      46.726  25.582  36.970  1.00  0.00    -0.744 OA
ENDBRANCH  46  47
ENDBRANCH  25  39
BRANCH  26  51
ATOM     51  C   UNL A   1      43.201  25.044  26.446  1.00  0.00     0.058 A 
ATOM     52  C   UNL A   1      44.029  24.889  25.316  1.00  0.00     0.135 A 
ATOM     53  C   UNL A   1      42.738  23.852  27.037  1.00  0.00     0.135 A 
ATOM     54  F   UNL A   1      44.521  25.967  24.687  1.00  0.00    -0.206 F 
ATOM     55  C   UNL A   1      44.438  23.633  24.850  1.00  0.00     0.059 A 
ATOM     56  C   UNL A   1      43.129  22.588  26.587  1.00  0.00     0.059 A 
ATOM     57  F   UNL A   1      41.965  23.882  28.133  1.00  0.00    -0.206 F 
ATOM     58  C   UNL A   1      44.006  22.486  25.512  1.00  0.00     0.060 A 
BRANCH  58  59
ATOM     59  S   UNL A   1      44.683  20.876  25.034  1.00  0.00     0.124 S 
ATOM     60  O   UNL A   1      43.752  19.952  25.676  1.00  0.00    -0.237 OA
ATOM     61  O   UNL A   1      44.617  20.934  23.578  1.00  0.00    -0.237 OA
ATOM     62  O   UNL A   1      46.031  20.893  25.596  1.00  0.00    -0.744 OA
ENDBRANCH  58  59
ENDBRANCH  26  51
BRANCH  38  63
ATOM     63  C   UNL A   1      44.965  30.748  28.639  1.00  0.00     0.058 A 
ATOM     64  C   UNL A   1      43.939  31.303  27.854  1.00  0.00     0.135 A 
ATOM     65  C   UNL A   1      46.245  31.308  28.504  1.00  0.00     0.135 A 
ATOM     66  F   UNL A   1      42.671  30.887  27.978  1.00  0.00    -0.206 F 
ATOM     67  C   UNL A   1      44.181  32.353  26.961  1.00  0.00     0.059 A 
ATOM     68  C   UNL A   1      46.504  32.372  27.646  1.00  0.00     0.059 A 
ATOM     69  F   UNL A   1      47.259  30.855  29.260  1.00  0.00    -0.206 F 
ATOM     70  C   UNL A   1      45.468  32.886  26.870  1.00  0.00     0.060 A 
BRANCH  70  71
ATOM     71  S   UNL A   1      45.771  34.293  25.776  1.00  0.00     0.124 S 
ATOM     72  O   UNL A   1      45.254  35.410  26.560  1.00  0.00    -0.237 OA
ATOM     73  O   UNL A   1      47.220  34.256  25.608  1.00  0.00    -0.237 OA
ATOM     74  O   UNL A   1      45.004  33.966  24.576  1.00  0.00    -0.744 OA
ENDBRANCH  70  71
ENDBRANCH  38  63
ENDBRANCH  12  13
ENDBRANCH   5   7
ENDBRANCH   2   3
ENDBRANCH   1   2
BRANCH   1  75
ATOM     75  C   UNL A   1      31.929  30.526  25.980  1.00  0.00     0.023 C 
BRANCH  75  76
ATOM     76  C   UNL A   1      31.615  29.444  24.940  1.00  0.00     0.116 C 
BRANCH  76  77
ATOM     77  N   UNL A   1      32.540  29.442  23.820  1.00  0.00    -0.352 N 
ATOM     78  C   UNL A   1      33.382  28.441  23.401  1.00  0.00     0.252 C 
ATOM     79  H   UNL A   1      32.567  30.270  23.289  1.00  0.00     0.163 HD
ATOM     80  O   UNL A   1      34.242  28.654  22.556  1.00  0.00    -0.269 OA
BRANCH  78  81
ATOM     81  C   UNL A   1      33.290  27.118  24.026  1.00  0.00     0.058 A 
ATOM     82  C   UNL A   1      32.626  26.043  23.438  1.00  0.00     0.017 A 
ATOM     83  C   UNL A   1      33.858  26.948  25.272  1.00  0.00     0.125 A 
ATOM     84  C   UNL A   1      32.519  24.843  24.144  1.00  0.00     0.026 A 
ATOM     85  N   UNL A   1      33.720  25.813  25.992  1.00  0.00    -0.259 NA
ATOM     86  C   UNL A   1      33.076  24.761  25.420  1.00  0.00     0.060 A 
BRANCH  86  87
ATOM     87  C   UNL A   1      32.993  23.493  26.234  1.00  0.00     0.178 C 
BRANCH  87  88
ATOM     88  N   UNL A   1      33.828  22.433  25.675  1.00  0.00    -0.341 N 
ATOM     89  C   UNL A   1      33.338  21.309  25.054  1.00  0.00     0.087 A 
ATOM     90  C   UNL A   1      35.212  22.391  25.698  1.00  0.00     0.049 A 
ATOM     91  C   UNL A   1      34.411  20.571  24.608  1.00  0.00     0.028 A 
ATOM     92  C   UNL A   1      35.598  21.255  24.983  1.00  0.00    -0.000 A 
ATOM     93  C   UNL A   1      36.160  23.274  26.245  1.00  0.00     0.042 A 
ATOM     94  C   UNL A   1      36.972  21.012  24.774  1.00  0.00     0.011 A 
ATOM     95  C   UNL A   1      37.511  23.028  25.995  1.00  0.00     0.020 A 
ATOM     96  C   UNL A   1      37.919  21.916  25.270  1.00  0.00     0.016 A 
ATOM     97  Br  UNL A   1      38.804  24.255  26.637  1.00  0.00    -0.051 Br
ENDBRANCH  87  88
ENDBRANCH  86  87
ENDBRANCH  78  81
ENDBRANCH  76  77
ENDBRANCH  75  76
ENDBRANCH   1  75
TORSDOF 16
ENDMDL
