MODEL 1
REMARK VINA RESULT:     -11.9      0.000      0.000
REMARK SMILES CCn1ncc(-c2cc(C(F)(F)F)nc(-n3ccc(C(=O)NCCCCNC(=O)c4ccc(-c5c6nc(c(-c7c(F)cc(S(=O)(=O)[O-])cc7F)c7ccc([nH]7)c(-c7c(F)cc(S(=O)(=O)[O-])cc7F)c7nc(c(-c8c(F)cc(S(=O)(=O)[O-])cc8F)c8ccc5[nH]8)C=C7)C=C6)cc4)n3)n2)c1C
REMARK SMILES IDX 24 1 23 2 22 3 20 4 21 5 19 7 16 8 17 9 96 10 18 11 15 12
REMARK SMILES IDX 7 13 8 14 97 15 9 16 14 17 6 18 3 19 4 20 98 21 5 22 99 23
REMARK SMILES IDX 2 24 1 25 10 26 11 27 12 28 13 29 25 30 26 31 27 32 28 33
REMARK SMILES IDX 29 35 30 36 31 37 95 38 32 39 94 40 33 41 34 42 35 43 88 44
REMARK SMILES IDX 36 45 93 46 87 47 89 48 37 49 92 50 86 51 85 52 38 54 72 55
REMARK SMILES IDX 51 56 71 57 52 58 55 59 70 60 90 61 53 62 54 63 69 65 91 66
REMARK SMILES IDX 56 67 39 68 40 69 49 70 41 71 42 72 48 73 50 74 43 75 44 76
REMARK SMILES IDX 45 77 46 78 47 79 73 80 74 81 83 82 75 83 76 84 82 85 84 86
REMARK SMILES IDX 77 87 78 88 79 89 80 90 81 91 57 92 58 93 67 94 59 95 60 96
REMARK SMILES IDX 66 97 68 98 61 99 62 100 63 101 64 102 65 103
REMARK H PARENT 22 6 27 34 89 53 55 64
REMARK Flexibility Score: inf
ROOT
ATOM      1  C   UNL A   1      34.286  35.742  28.864  1.00  0.00     0.023 C 
ENDROOT
BRANCH   1   2
ATOM      2  C   UNL A   1      32.901  36.030  29.457  1.00  0.00     0.116 C 
BRANCH   2   3
ATOM      3  N   UNL A   1      32.904  37.150  30.385  1.00  0.00    -0.351 N 
ATOM      4  C   UNL A   1      33.305  37.243  31.703  1.00  0.00     0.271 C 
ATOM      5  O   UNL A   1      33.088  38.307  32.287  1.00  0.00    -0.267 OA
ATOM      6  H   UNL A   1      32.559  37.991  30.007  1.00  0.00     0.163 HD
BRANCH   4   7
ATOM      7  C   UNL A   1      33.889  36.094  32.419  1.00  0.00     0.150 A 
ATOM      8  N   UNL A   1      35.344  34.778  33.284  1.00  0.00    -0.205 N 
ATOM      9  C   UNL A   1      34.201  34.020  33.166  1.00  0.00     0.119 A 
ATOM     10  N   UNL A   1      35.119  36.075  32.958  1.00  0.00    -0.160 NA
ATOM     11  C   UNL A   1      33.232  34.856  32.667  1.00  0.00     0.056 A 
BRANCH   8  12
ATOM     12  C   UNL A   1      36.658  34.306  33.599  1.00  0.00     0.251 A 
ATOM     13  C   UNL A   1      38.196  33.659  35.169  1.00  0.00     0.080 A 
ATOM     14  C   UNL A   1      39.195  33.590  34.225  1.00  0.00     0.062 A 
ATOM     15  N   UNL A   1      36.954  34.079  34.888  1.00  0.00    -0.211 NA
ATOM     16  C   UNL A   1      38.827  33.870  32.920  1.00  0.00     0.150 A 
ATOM     17  N   UNL A   1      37.542  34.168  32.585  1.00  0.00    -0.207 NA
BRANCH  13  18
ATOM     18  C   UNL A   1      38.406  33.149  36.507  1.00  0.00     0.041 A 
ATOM     19  N   UNL A   1      38.899  33.082  38.649  1.00  0.00    -0.269 N 
ATOM     20  N   UNL A   1      38.324  31.886  38.402  1.00  0.00    -0.181 NA
ATOM     21  C   UNL A   1      38.949  33.896  37.543  1.00  0.00     0.045 A 
ATOM     22  C   UNL A   1      38.059  31.919  37.095  1.00  0.00     0.145 A 
ATOM     23  C   UNL A   1      39.470  35.292  37.554  1.00  0.00     0.067 C 
BRANCH  19  24
ATOM     24  C   UNL A   1      39.373  33.369  39.992  1.00  0.00     0.141 C 
ATOM     25  C   UNL A   1      38.585  32.639  41.068  1.00  0.00     0.029 C 
ENDBRANCH  19  24
ENDBRANCH  13  18
BRANCH  16  26
ATOM     26  C   UNL A   1      39.887  33.885  31.831  1.00  0.00     0.433 C 
ATOM     27  F   UNL A   1      41.113  34.278  32.275  1.00  0.00    -0.165 F 
ATOM     28  F   UNL A   1      40.065  32.661  31.257  1.00  0.00    -0.165 F 
ATOM     29  F   UNL A   1      39.586  34.728  30.798  1.00  0.00    -0.165 F 
ENDBRANCH  16  26
ENDBRANCH   8  12
ENDBRANCH   4   7
ENDBRANCH   2   3
ENDBRANCH   1   2
BRANCH   1  30
ATOM     30  C   UNL A   1      34.995  34.477  29.371  1.00  0.00     0.023 C 
BRANCH  30  31
ATOM     31  C   UNL A   1      35.553  33.568  28.283  1.00  0.00     0.116 C 
BRANCH  31  32
ATOM     32  N   UNL A   1      34.621  32.522  27.868  1.00  0.00    -0.352 N 
ATOM     33  C   UNL A   1      34.905  31.198  27.577  1.00  0.00     0.251 C 
ATOM     34  H   UNL A   1      33.678  32.792  27.784  1.00  0.00     0.163 HD
ATOM     35  O   UNL A   1      34.156  30.544  26.868  1.00  0.00    -0.269 OA
BRANCH  33  36
ATOM     36  C   UNL A   1      36.127  30.592  28.143  1.00  0.00     0.039 A 
ATOM     37  C   UNL A   1      36.311  29.206  28.156  1.00  0.00     0.014 A 
ATOM     38  C   UNL A   1      37.108  31.442  28.648  1.00  0.00     0.014 A 
ATOM     39  C   UNL A   1      37.531  28.693  28.597  1.00  0.00     0.010 A 
ATOM     40  C   UNL A   1      38.353  30.947  28.956  1.00  0.00     0.010 A 
ATOM     41  C   UNL A   1      38.560  29.573  28.970  1.00  0.00    -0.014 A 
BRANCH  41  42
ATOM     42  C   UNL A   1      39.916  29.075  29.210  1.00  0.00     0.031 A 
ATOM     43  C   UNL A   1      40.246  28.945  30.657  1.00  0.00     0.074 A 
ATOM     44  C   UNL A   1      40.698  28.550  28.238  1.00  0.00     0.049 A 
ATOM     45  N   UNL A   1      41.062  29.665  31.351  1.00  0.00    -0.248 NA
ATOM     46  C   UNL A   1      39.432  28.027  31.478  1.00  0.00     0.031 C 
ATOM     47  C   UNL A   1      40.331  28.319  26.834  1.00  0.00     0.029 A 
ATOM     48  N   UNL A   1      41.947  28.001  28.309  1.00  0.00    -0.354 N 
ATOM     49  C   UNL A   1      41.074  29.097  32.625  1.00  0.00     0.074 A 
ATOM     50  C   UNL A   1      39.895  28.283  32.705  1.00  0.00     0.031 C 
ATOM     51  C   UNL A   1      41.219  27.478  26.261  1.00  0.00     0.029 A 
ATOM     52  C   UNL A   1      42.312  27.254  27.188  1.00  0.00     0.049 A 
ATOM     53  H   UNL A   1      42.541  28.123  29.085  1.00  0.00     0.167 HD
ATOM     54  C   UNL A   1      42.217  29.097  33.369  1.00  0.00     0.037 A 
ATOM     55  C   UNL A   1      43.431  26.505  27.020  1.00  0.00     0.037 A 
ATOM     56  C   UNL A   1      43.190  29.981  32.776  1.00  0.00     0.049 A 
ATOM     57  C   UNL A   1      44.436  27.002  27.988  1.00  0.00     0.074 A 
ATOM     58  C   UNL A   1      43.356  31.341  32.645  1.00  0.00     0.029 A 
ATOM     59  N   UNL A   1      43.981  29.374  31.835  1.00  0.00    -0.354 N 
ATOM     60  N   UNL A   1      44.959  28.197  27.928  1.00  0.00    -0.248 NA
ATOM     61  C   UNL A   1      44.598  26.314  29.263  1.00  0.00     0.031 C 
ATOM     62  C   UNL A   1      44.120  31.530  31.456  1.00  0.00     0.029 A 
ATOM     63  C   UNL A   1      44.450  30.282  30.927  1.00  0.00     0.049 A 
ATOM     64  H   UNL A   1      44.185  28.411  31.816  1.00  0.00     0.167 HD
ATOM     65  C   UNL A   1      45.111  28.570  29.250  1.00  0.00     0.074 A 
ATOM     66  C   UNL A   1      45.046  27.327  30.009  1.00  0.00     0.031 C 
ATOM     67  C   UNL A   1      44.942  29.869  29.629  1.00  0.00     0.037 A 
BRANCH  54  68
ATOM     68  C   UNL A   1      42.671  27.982  34.302  1.00  0.00     0.058 A 
ATOM     69  C   UNL A   1      42.765  28.250  35.687  1.00  0.00     0.135 A 
ATOM     70  C   UNL A   1      43.296  26.786  33.882  1.00  0.00     0.135 A 
ATOM     71  F   UNL A   1      42.208  29.354  36.212  1.00  0.00    -0.206 F 
ATOM     72  C   UNL A   1      43.490  27.441  36.566  1.00  0.00     0.059 A 
ATOM     73  C   UNL A   1      43.982  25.942  34.750  1.00  0.00     0.059 A 
ATOM     74  F   UNL A   1      43.356  26.416  32.600  1.00  0.00    -0.206 F 
ATOM     75  C   UNL A   1      44.109  26.294  36.082  1.00  0.00     0.060 A 
BRANCH  75  76
ATOM     76  S   UNL A   1      45.107  25.284  37.190  1.00  0.00     0.124 S 
ATOM     77  O   UNL A   1      44.864  23.945  36.666  1.00  0.00    -0.237 OA
ATOM     78  O   UNL A   1      46.444  25.827  36.970  1.00  0.00    -0.237 OA
ATOM     79  O   UNL A   1      44.534  25.562  38.504  1.00  0.00    -0.744 OA
ENDBRANCH  75  76
ENDBRANCH  54  68
BRANCH  55  80
ATOM     80  C   UNL A   1      43.631  25.261  26.230  1.00  0.00     0.058 A 
ATOM     81  C   UNL A   1      44.700  25.116  25.328  1.00  0.00     0.135 A 
ATOM     82  C   UNL A   1      42.935  24.081  26.560  1.00  0.00     0.135 A 
ATOM     83  F   UNL A   1      45.431  26.183  24.972  1.00  0.00    -0.206 F 
ATOM     84  C   UNL A   1      45.086  23.870  24.818  1.00  0.00     0.059 A 
ATOM     85  C   UNL A   1      43.298  22.828  26.062  1.00  0.00     0.059 A 
ATOM     86  F   UNL A   1      41.932  24.104  27.452  1.00  0.00    -0.206 F 
ATOM     87  C   UNL A   1      44.390  22.727  25.208  1.00  0.00     0.060 A 
BRANCH  87  88
ATOM     88  S   UNL A   1      44.985  21.099  24.681  1.00  0.00     0.124 S 
ATOM     89  O   UNL A   1      46.421  21.209  24.917  1.00  0.00    -0.237 OA
ATOM     90  O   UNL A   1      44.260  20.200  25.574  1.00  0.00    -0.237 OA
ATOM     91  O   UNL A   1      44.588  21.030  23.277  1.00  0.00    -0.744 OA
ENDBRANCH  87  88
ENDBRANCH  55  80
BRANCH  67  92
ATOM     92  C   UNL A   1      45.153  30.934  28.592  1.00  0.00     0.058 A 
ATOM     93  C   UNL A   1      44.183  31.391  27.684  1.00  0.00     0.135 A 
ATOM     94  C   UNL A   1      46.393  31.590  28.597  1.00  0.00     0.135 A 
ATOM     95  F   UNL A   1      42.949  30.871  27.670  1.00  0.00    -0.206 F 
ATOM     96  C   UNL A   1      44.451  32.438  26.798  1.00  0.00     0.059 A 
ATOM     97  C   UNL A   1      46.669  32.655  27.749  1.00  0.00     0.059 A 
ATOM     98  F   UNL A   1      47.343  31.226  29.474  1.00  0.00    -0.206 F 
ATOM     99  C   UNL A   1      45.697  33.065  26.841  1.00  0.00     0.060 A 
BRANCH  99 100
ATOM    100  S   UNL A   1      46.026  34.461  25.744  1.00  0.00     0.124 S 
ATOM    101  O   UNL A   1      45.083  34.225  24.656  1.00  0.00    -0.237 OA
ATOM    102  O   UNL A   1      45.737  35.610  26.598  1.00  0.00    -0.237 OA
ATOM    103  O   UNL A   1      47.435  34.296  25.395  1.00  0.00    -0.744 OA
ENDBRANCH  99 100
ENDBRANCH  67  92
ENDBRANCH  41  42
ENDBRANCH  33  36
ENDBRANCH  31  32
ENDBRANCH  30  31
ENDBRANCH   1  30
TORSDOF 18
ENDMDL
MODEL 2
REMARK VINA RESULT:     -11.4      3.240      9.974
REMARK SMILES CCn1ncc(-c2cc(C(F)(F)F)nc(-n3ccc(C(=O)NCCCCNC(=O)c4ccc(-c5c6nc(c(-c7c(F)cc(S(=O)(=O)[O-])cc7F)c7ccc([nH]7)c(-c7c(F)cc(S(=O)(=O)[O-])cc7F)c7nc(c(-c8c(F)cc(S(=O)(=O)[O-])cc8F)c8ccc5[nH]8)C=C7)C=C6)cc4)n3)n2)c1C
REMARK SMILES IDX 24 1 23 2 22 3 20 4 21 5 19 7 16 8 17 9 96 10 18 11 15 12
REMARK SMILES IDX 7 13 8 14 97 15 9 16 14 17 6 18 3 19 4 20 98 21 5 22 99 23
REMARK SMILES IDX 2 24 1 25 10 26 11 27 12 28 13 29 25 30 26 31 27 32 28 33
REMARK SMILES IDX 29 35 30 36 31 37 95 38 32 39 94 40 33 41 34 42 35 43 88 44
REMARK SMILES IDX 36 45 93 46 87 47 89 48 37 49 92 50 86 51 85 52 38 54 72 55
REMARK SMILES IDX 51 56 71 57 52 58 55 59 70 60 90 61 53 62 54 63 69 65 91 66
REMARK SMILES IDX 56 67 39 68 40 69 49 70 41 71 42 72 48 73 50 74 43 75 44 76
REMARK SMILES IDX 45 77 46 78 47 79 73 80 74 81 83 82 75 83 76 84 82 85 84 86
REMARK SMILES IDX 77 87 78 88 79 89 80 90 81 91 57 92 58 93 67 94 59 95 60 96
REMARK SMILES IDX 66 97 68 98 61 99 62 100 63 101 64 102 65 103
REMARK H PARENT 22 6 27 34 89 53 55 64
REMARK Flexibility Score: inf
ROOT
ATOM      1  C   UNL A   1      34.579  24.341  24.237  1.00  0.00     0.023 C 
ENDROOT
BRANCH   1   2
ATOM      2  C   UNL A   1      33.599  25.371  24.812  1.00  0.00     0.116 C 
BRANCH   2   3
ATOM      3  N   UNL A   1      32.909  26.132  23.782  1.00  0.00    -0.351 N 
ATOM      4  C   UNL A   1      32.356  27.397  23.798  1.00  0.00     0.271 C 
ATOM      5  O   UNL A   1      31.726  27.751  22.799  1.00  0.00    -0.267 OA
ATOM      6  H   UNL A   1      32.820  25.662  22.921  1.00  0.00     0.163 HD
BRANCH   4   7
ATOM      7  C   UNL A   1      32.435  28.263  24.987  1.00  0.00     0.150 A 
ATOM      8  N   UNL A   1      33.251  29.493  26.543  1.00  0.00    -0.205 N 
ATOM      9  C   UNL A   1      32.008  29.117  26.999  1.00  0.00     0.119 A 
ATOM     10  N   UNL A   1      33.459  29.088  25.266  1.00  0.00    -0.160 NA
ATOM     11  C   UNL A   1      31.436  28.375  25.994  1.00  0.00     0.056 A 
BRANCH   8  12
ATOM     12  C   UNL A   1      34.285  30.132  27.299  1.00  0.00     0.251 A 
ATOM     13  C   UNL A   1      34.989  31.905  28.568  1.00  0.00     0.080 A 
ATOM     14  C   UNL A   1      36.285  31.440  28.576  1.00  0.00     0.062 A 
ATOM     15  N   UNL A   1      34.004  31.308  27.882  1.00  0.00    -0.211 NA
ATOM     16  C   UNL A   1      36.510  30.239  27.926  1.00  0.00     0.150 A 
ATOM     17  N   UNL A   1      35.501  29.541  27.336  1.00  0.00    -0.207 NA
BRANCH  13  18
ATOM     18  C   UNL A   1      34.594  33.007  29.418  1.00  0.00     0.041 A 
ATOM     19  N   UNL A   1      33.537  34.795  30.143  1.00  0.00    -0.269 N 
ATOM     20  N   UNL A   1      34.223  34.353  31.219  1.00  0.00    -0.181 NA
ATOM     21  C   UNL A   1      33.704  34.001  29.033  1.00  0.00     0.045 A 
ATOM     22  C   UNL A   1      34.889  33.291  30.764  1.00  0.00     0.145 A 
ATOM     23  C   UNL A   1      33.009  34.220  27.733  1.00  0.00     0.067 C 
BRANCH  19  24
ATOM     24  C   UNL A   1      32.731  35.996  30.268  1.00  0.00     0.141 C 
ATOM     25  C   UNL A   1      32.468  36.387  31.713  1.00  0.00     0.029 C 
ENDBRANCH  19  24
ENDBRANCH  13  18
BRANCH  16  26
ATOM     26  C   UNL A   1      37.926  29.694  27.830  1.00  0.00     0.433 C 
ATOM     27  F   UNL A   1      38.471  29.821  26.588  1.00  0.00    -0.165 F 
ATOM     28  F   UNL A   1      38.785  30.316  28.686  1.00  0.00    -0.165 F 
ATOM     29  F   UNL A   1      38.013  28.364  28.132  1.00  0.00    -0.165 F 
ENDBRANCH  16  26
ENDBRANCH   8  12
ENDBRANCH   4   7
ENDBRANCH   2   3
ENDBRANCH   1   2
BRANCH   1  30
ATOM     30  C   UNL A   1      35.313  23.456  25.255  1.00  0.00     0.023 C 
BRANCH  30  31
ATOM     31  C   UNL A   1      36.662  23.988  25.723  1.00  0.00     0.116 C 
BRANCH  31  32
ATOM     32  N   UNL A   1      37.644  22.935  25.975  1.00  0.00    -0.352 N 
ATOM     33  C   UNL A   1      38.969  23.082  26.352  1.00  0.00     0.251 C 
ATOM     34  H   UNL A   1      37.325  22.010  25.861  1.00  0.00     0.163 HD
ATOM     35  O   UNL A   1      39.777  22.193  26.138  1.00  0.00    -0.269 OA
BRANCH  33  36
ATOM     36  C   UNL A   1      39.383  24.332  27.021  1.00  0.00     0.039 A 
ATOM     37  C   UNL A   1      38.952  24.639  28.316  1.00  0.00     0.014 A 
ATOM     38  C   UNL A   1      40.235  25.194  26.335  1.00  0.00     0.014 A 
ATOM     39  C   UNL A   1      39.463  25.775  28.943  1.00  0.00     0.010 A 
ATOM     40  C   UNL A   1      40.839  26.235  26.998  1.00  0.00     0.010 A 
ATOM     41  C   UNL A   1      40.430  26.555  28.288  1.00  0.00    -0.014 A 
BRANCH  41  42
ATOM     42  C   UNL A   1      41.151  27.607  29.006  1.00  0.00     0.031 A 
ATOM     43  C   UNL A   1      42.228  28.240  28.194  1.00  0.00     0.074 A 
ATOM     44  C   UNL A   1      40.730  28.127  30.183  1.00  0.00     0.049 A 
ATOM     45  N   UNL A   1      43.506  28.127  28.348  1.00  0.00    -0.248 NA
ATOM     46  C   UNL A   1      41.848  28.926  26.945  1.00  0.00     0.031 C 
ATOM     47  C   UNL A   1      39.488  27.807  30.899  1.00  0.00     0.029 A 
ATOM     48  N   UNL A   1      41.255  29.135  30.942  1.00  0.00    -0.354 N 
ATOM     49  C   UNL A   1      44.075  28.967  27.390  1.00  0.00     0.074 A 
ATOM     50  C   UNL A   1      43.044  29.218  26.424  1.00  0.00     0.031 C 
ATOM     51  C   UNL A   1      39.240  28.752  31.831  1.00  0.00     0.029 A 
ATOM     52  C   UNL A   1      40.385  29.639  31.909  1.00  0.00     0.049 A 
ATOM     53  H   UNL A   1      42.170  29.477  30.817  1.00  0.00     0.167 HD
ATOM     54  C   UNL A   1      45.235  29.631  27.657  1.00  0.00     0.037 A 
ATOM     55  C   UNL A   1      40.581  30.706  32.725  1.00  0.00     0.037 A 
ATOM     56  C   UNL A   1      45.843  29.099  28.851  1.00  0.00     0.049 A 
ATOM     57  C   UNL A   1      42.042  30.939  32.791  1.00  0.00     0.074 A 
ATOM     58  C   UNL A   1      46.500  27.944  29.210  1.00  0.00     0.029 A 
ATOM     59  N   UNL A   1      45.409  29.703  30.004  1.00  0.00    -0.354 N 
ATOM     60  N   UNL A   1      42.879  30.094  33.329  1.00  0.00    -0.248 NA
ATOM     61  C   UNL A   1      42.643  31.945  31.923  1.00  0.00     0.031 C 
ATOM     62  C   UNL A   1      46.267  27.775  30.606  1.00  0.00     0.029 A 
ATOM     63  C   UNL A   1      45.524  28.860  31.074  1.00  0.00     0.049 A 
ATOM     64  H   UNL A   1      45.060  30.621  30.053  1.00  0.00     0.167 HD
ATOM     65  C   UNL A   1      44.008  30.180  32.536  1.00  0.00     0.074 A 
ATOM     66  C   UNL A   1      43.875  31.440  31.817  1.00  0.00     0.031 C 
ATOM     67  C   UNL A   1      44.772  29.077  32.292  1.00  0.00     0.037 A 
BRANCH  54  68
ATOM     68  C   UNL A   1      45.583  31.038  27.189  1.00  0.00     0.058 A 
ATOM     69  C   UNL A   1      46.900  31.300  26.744  1.00  0.00     0.135 A 
ATOM     70  C   UNL A   1      44.797  32.185  27.434  1.00  0.00     0.135 A 
ATOM     71  F   UNL A   1      47.746  30.293  26.472  1.00  0.00    -0.206 F 
ATOM     72  C   UNL A   1      47.416  32.595  26.634  1.00  0.00     0.059 A 
ATOM     73  C   UNL A   1      45.277  33.483  27.284  1.00  0.00     0.059 A 
ATOM     74  F   UNL A   1      43.553  32.117  27.918  1.00  0.00    -0.206 F 
ATOM     75  C   UNL A   1      46.598  33.681  26.922  1.00  0.00     0.060 A 
BRANCH  75  76
ATOM     76  S   UNL A   1      47.274  35.349  26.856  1.00  0.00     0.124 S 
ATOM     77  O   UNL A   1      46.100  36.155  27.173  1.00  0.00    -0.237 OA
ATOM     78  O   UNL A   1      48.311  35.295  27.881  1.00  0.00    -0.237 OA
ATOM     79  O   UNL A   1      47.763  35.458  25.484  1.00  0.00    -0.744 OA
ENDBRANCH  75  76
ENDBRANCH  54  68
BRANCH  55  80
ATOM     80  C   UNL A   1      39.594  31.665  33.288  1.00  0.00     0.058 A 
ATOM     81  C   UNL A   1      39.009  32.676  32.505  1.00  0.00     0.135 A 
ATOM     82  C   UNL A   1      38.993  31.426  34.540  1.00  0.00     0.135 A 
ATOM     83  F   UNL A   1      39.502  32.958  31.290  1.00  0.00    -0.206 F 
ATOM     84  C   UNL A   1      37.868  33.377  32.917  1.00  0.00     0.059 A 
ATOM     85  C   UNL A   1      37.858  32.114  34.974  1.00  0.00     0.059 A 
ATOM     86  F   UNL A   1      39.444  30.448  35.341  1.00  0.00    -0.206 F 
ATOM     87  C   UNL A   1      37.286  33.074  34.147  1.00  0.00     0.060 A 
BRANCH  87  88
ATOM     88  S   UNL A   1      35.722  33.860  34.611  1.00  0.00     0.124 S 
ATOM     89  O   UNL A   1      35.798  33.848  36.068  1.00  0.00    -0.237 OA
ATOM     90  O   UNL A   1      35.833  35.169  33.978  1.00  0.00    -0.237 OA
ATOM     91  O   UNL A   1      34.713  32.976  34.033  1.00  0.00    -0.744 OA
ENDBRANCH  87  88
ENDBRANCH  55  80
BRANCH  67  92
ATOM     92  C   UNL A   1      44.725  27.958  33.292  1.00  0.00     0.058 A 
ATOM     93  C   UNL A   1      45.338  27.969  34.556  1.00  0.00     0.135 A 
ATOM     94  C   UNL A   1      43.924  26.852  32.972  1.00  0.00     0.135 A 
ATOM     95  F   UNL A   1      46.054  29.023  34.969  1.00  0.00    -0.206 F 
ATOM     96  C   UNL A   1      45.182  26.907  35.451  1.00  0.00     0.059 A 
ATOM     97  C   UNL A   1      43.728  25.800  33.859  1.00  0.00     0.059 A 
ATOM     98  F   UNL A   1      43.278  26.807  31.796  1.00  0.00    -0.206 F 
ATOM     99  C   UNL A   1      44.372  25.828  35.092  1.00  0.00     0.060 A 
BRANCH  99 100
ATOM    100  S   UNL A   1      44.114  24.483  36.269  1.00  0.00     0.124 S 
ATOM    101  O   UNL A   1      42.767  24.035  35.935  1.00  0.00    -0.237 OA
ATOM    102  O   UNL A   1      45.194  23.558  35.935  1.00  0.00    -0.237 OA
ATOM    103  O   UNL A   1      44.249  25.138  37.568  1.00  0.00    -0.744 OA
ENDBRANCH  99 100
ENDBRANCH  67  92
ENDBRANCH  41  42
ENDBRANCH  33  36
ENDBRANCH  31  32
ENDBRANCH  30  31
ENDBRANCH   1  30
TORSDOF 18
ENDMDL
MODEL 3
REMARK VINA RESULT:     -11.4      4.403     12.720
REMARK SMILES CCn1ncc(-c2cc(C(F)(F)F)nc(-n3ccc(C(=O)NCCCCNC(=O)c4ccc(-c5c6nc(c(-c7c(F)cc(S(=O)(=O)[O-])cc7F)c7ccc([nH]7)c(-c7c(F)cc(S(=O)(=O)[O-])cc7F)c7nc(c(-c8c(F)cc(S(=O)(=O)[O-])cc8F)c8ccc5[nH]8)C=C7)C=C6)cc4)n3)n2)c1C
REMARK SMILES IDX 24 1 23 2 22 3 20 4 21 5 19 7 16 8 17 9 96 10 18 11 15 12
REMARK SMILES IDX 7 13 8 14 97 15 9 16 14 17 6 18 3 19 4 20 98 21 5 22 99 23
REMARK SMILES IDX 2 24 1 25 10 26 11 27 12 28 13 29 25 30 26 31 27 32 28 33
REMARK SMILES IDX 29 35 30 36 31 37 95 38 32 39 94 40 33 41 34 42 35 43 88 44
REMARK SMILES IDX 36 45 93 46 87 47 89 48 37 49 92 50 86 51 85 52 38 54 72 55
REMARK SMILES IDX 51 56 71 57 52 58 55 59 70 60 90 61 53 62 54 63 69 65 91 66
REMARK SMILES IDX 56 67 39 68 40 69 49 70 41 71 42 72 48 73 50 74 43 75 44 76
REMARK SMILES IDX 45 77 46 78 47 79 73 80 74 81 83 82 75 83 76 84 82 85 84 86
REMARK SMILES IDX 77 87 78 88 79 89 80 90 81 91 57 92 58 93 67 94 59 95 60 96
REMARK SMILES IDX 66 97 68 98 61 99 62 100 63 101 64 102 65 103
REMARK H PARENT 22 6 27 34 89 53 55 64
REMARK Flexibility Score: inf
ROOT
ATOM      1  C   UNL A   1      44.731  22.523  24.517  1.00  0.00     0.023 C 
ENDROOT
BRANCH   1   2
ATOM      2  C   UNL A   1      45.066  21.526  25.632  1.00  0.00     0.116 C 
BRANCH   2   3
ATOM      3  N   UNL A   1      44.852  20.142  25.237  1.00  0.00    -0.351 N 
ATOM      4  C   UNL A   1      43.792  19.285  25.454  1.00  0.00     0.271 C 
ATOM      5  O   UNL A   1      43.930  18.113  25.095  1.00  0.00    -0.267 OA
ATOM      6  H   UNL A   1      45.595  19.746  24.726  1.00  0.00     0.163 HD
BRANCH   4   7
ATOM      7  C   UNL A   1      42.575  19.719  26.163  1.00  0.00     0.150 A 
ATOM      8  N   UNL A   1      40.849  20.874  26.696  1.00  0.00    -0.205 N 
ATOM      9  C   UNL A   1      41.127  20.112  27.809  1.00  0.00     0.119 A 
ATOM     10  N   UNL A   1      41.643  20.539  25.649  1.00  0.00    -0.160 NA
ATOM     11  C   UNL A   1      42.196  19.317  27.474  1.00  0.00     0.056 A 
BRANCH   8  12
ATOM     12  C   UNL A   1      39.932  21.970  26.615  1.00  0.00     0.251 A 
ATOM     13  C   UNL A   1      38.157  22.981  25.576  1.00  0.00     0.080 A 
ATOM     14  C   UNL A   1      38.309  24.121  26.332  1.00  0.00     0.062 A 
ATOM     15  N   UNL A   1      38.995  21.937  25.654  1.00  0.00    -0.211 NA
ATOM     16  C   UNL A   1      39.317  24.099  27.280  1.00  0.00     0.150 A 
ATOM     17  N   UNL A   1      40.097  23.000  27.474  1.00  0.00    -0.207 NA
BRANCH  13  18
ATOM     18  C   UNL A   1      36.991  22.798  24.739  1.00  0.00     0.041 A 
ATOM     19  N   UNL A   1      34.920  22.386  24.125  1.00  0.00    -0.269 N 
ATOM     20  N   UNL A   1      35.501  22.895  23.018  1.00  0.00    -0.181 NA
ATOM     21  C   UNL A   1      35.770  22.331  25.204  1.00  0.00     0.045 A 
ATOM     22  C   UNL A   1      36.765  23.110  23.385  1.00  0.00     0.145 A 
ATOM     23  C   UNL A   1      35.368  21.876  26.565  1.00  0.00     0.067 C 
BRANCH  19  24
ATOM     24  C   UNL A   1      33.527  21.978  24.064  1.00  0.00     0.141 C 
ATOM     25  C   UNL A   1      32.796  22.541  22.856  1.00  0.00     0.029 C 
ENDBRANCH  19  24
ENDBRANCH  13  18
BRANCH  16  26
ATOM     26  C   UNL A   1      39.594  25.345  28.106  1.00  0.00     0.433 C 
ATOM     27  F   UNL A   1      40.865  25.397  28.596  1.00  0.00    -0.165 F 
ATOM     28  F   UNL A   1      39.414  26.495  27.396  1.00  0.00    -0.165 F 
ATOM     29  F   UNL A   1      38.778  25.461  29.197  1.00  0.00    -0.165 F 
ENDBRANCH  16  26
ENDBRANCH   8  12
ENDBRANCH   4   7
ENDBRANCH   2   3
ENDBRANCH   1   2
BRANCH   1  30
ATOM     30  C   UNL A   1      43.422  23.311  24.677  1.00  0.00     0.023 C 
BRANCH  30  31
ATOM     31  C   UNL A   1      43.583  24.739  25.183  1.00  0.00     0.116 C 
BRANCH  31  32
ATOM     32  N   UNL A   1      44.864  25.341  24.820  1.00  0.00    -0.352 N 
ATOM     33  C   UNL A   1      45.274  26.649  25.018  1.00  0.00     0.251 C 
ATOM     34  H   UNL A   1      45.513  24.745  24.381  1.00  0.00     0.163 HD
ATOM     35  O   UNL A   1      46.161  27.132  24.333  1.00  0.00    -0.269 OA
BRANCH  33  36
ATOM     36  C   UNL A   1      44.621  27.446  26.076  1.00  0.00     0.039 A 
ATOM     37  C   UNL A   1      45.047  27.376  27.406  1.00  0.00     0.014 A 
ATOM     38  C   UNL A   1      43.575  28.292  25.711  1.00  0.00     0.014 A 
ATOM     39  C   UNL A   1      44.472  28.233  28.343  1.00  0.00     0.010 A 
ATOM     40  C   UNL A   1      43.105  29.225  26.602  1.00  0.00     0.010 A 
ATOM     41  C   UNL A   1      43.519  29.178  27.929  1.00  0.00    -0.014 A 
BRANCH  41  42
ATOM     42  C   UNL A   1      43.076  30.238  28.835  1.00  0.00     0.031 A 
ATOM     43  C   UNL A   1      44.036  31.374  28.924  1.00  0.00     0.074 A 
ATOM     44  C   UNL A   1      41.823  30.307  29.344  1.00  0.00     0.049 A 
ATOM     45  N   UNL A   1      44.789  31.697  29.921  1.00  0.00    -0.248 NA
ATOM     46  C   UNL A   1      44.339  32.129  27.693  1.00  0.00     0.031 C 
ATOM     47  C   UNL A   1      40.694  29.416  29.042  1.00  0.00     0.029 A 
ATOM     48  N   UNL A   1      41.246  31.248  30.149  1.00  0.00    -0.354 N 
ATOM     49  C   UNL A   1      45.440  32.870  29.536  1.00  0.00     0.074 A 
ATOM     50  C   UNL A   1      45.321  32.935  28.107  1.00  0.00     0.031 C 
ATOM     51  C   UNL A   1      39.540  29.985  29.450  1.00  0.00     0.029 A 
ATOM     52  C   UNL A   1      39.853  31.185  30.201  1.00  0.00     0.049 A 
ATOM     53  H   UNL A   1      41.770  31.914  30.652  1.00  0.00     0.167 HD
ATOM     54  C   UNL A   1      45.729  33.832  30.456  1.00  0.00     0.037 A 
ATOM     55  C   UNL A   1      39.007  32.050  30.817  1.00  0.00     0.037 A 
ATOM     56  C   UNL A   1      45.545  33.311  31.788  1.00  0.00     0.049 A 
ATOM     57  C   UNL A   1      39.795  32.772  31.842  1.00  0.00     0.074 A 
ATOM     58  C   UNL A   1      46.195  32.421  32.613  1.00  0.00     0.029 A 
ATOM     59  N   UNL A   1      44.266  33.456  32.262  1.00  0.00    -0.354 N 
ATOM     60  N   UNL A   1      40.315  32.189  32.888  1.00  0.00    -0.248 NA
ATOM     61  C   UNL A   1      40.339  34.087  31.527  1.00  0.00     0.031 C 
ATOM     62  C   UNL A   1      45.196  31.884  33.477  1.00  0.00     0.029 A 
ATOM     63  C   UNL A   1      43.977  32.502  33.198  1.00  0.00     0.049 A 
ATOM     64  H   UNL A   1      43.639  34.155  31.966  1.00  0.00     0.167 HD
ATOM     65  C   UNL A   1      41.517  32.843  33.082  1.00  0.00     0.074 A 
ATOM     66  C   UNL A   1      41.395  34.094  32.345  1.00  0.00     0.031 C 
ATOM     67  C   UNL A   1      42.610  32.167  33.539  1.00  0.00     0.037 A 
BRANCH  54  68
ATOM     68  C   UNL A   1      45.687  35.335  30.216  1.00  0.00     0.058 A 
ATOM     69  C   UNL A   1      46.783  36.123  30.639  1.00  0.00     0.135 A 
ATOM     70  C   UNL A   1      44.526  36.064  29.876  1.00  0.00     0.135 A 
ATOM     71  F   UNL A   1      47.947  35.550  30.986  1.00  0.00    -0.206 F 
ATOM     72  C   UNL A   1      46.702  37.511  30.792  1.00  0.00     0.059 A 
ATOM     73  C   UNL A   1      44.440  37.449  29.975  1.00  0.00     0.059 A 
ATOM     74  F   UNL A   1      43.382  35.471  29.518  1.00  0.00    -0.206 F 
ATOM     75  C   UNL A   1      45.518  38.163  30.470  1.00  0.00     0.060 A 
BRANCH  75  76
ATOM     76  S   UNL A   1      45.378  39.939  30.733  1.00  0.00     0.124 S 
ATOM     77  O   UNL A   1      46.442  40.448  29.874  1.00  0.00    -0.237 OA
ATOM     78  O   UNL A   1      44.013  40.203  30.289  1.00  0.00    -0.237 OA
ATOM     79  O   UNL A   1      45.601  40.084  32.168  1.00  0.00    -0.744 OA
ENDBRANCH  75  76
ENDBRANCH  54  68
BRANCH  55  80
ATOM     80  C   UNL A   1      37.621  32.445  30.451  1.00  0.00     0.058 A 
ATOM     81  C   UNL A   1      36.535  32.240  31.320  1.00  0.00     0.135 A 
ATOM     82  C   UNL A   1      37.383  33.292  29.350  1.00  0.00     0.135 A 
ATOM     83  F   UNL A   1      36.676  31.464  32.405  1.00  0.00    -0.206 F 
ATOM     84  C   UNL A   1      35.299  32.874  31.137  1.00  0.00     0.059 A 
ATOM     85  C   UNL A   1      36.159  33.933  29.144  1.00  0.00     0.059 A 
ATOM     86  F   UNL A   1      38.369  33.592  28.491  1.00  0.00    -0.206 F 
ATOM     87  C   UNL A   1      35.127  33.736  30.055  1.00  0.00     0.060 A 
BRANCH  87  88
ATOM     88  S   UNL A   1      33.589  34.682  29.905  1.00  0.00     0.124 S 
ATOM     89  O   UNL A   1      32.815  33.856  28.984  1.00  0.00    -0.237 OA
ATOM     90  O   UNL A   1      33.112  34.719  31.283  1.00  0.00    -0.237 OA
ATOM     91  O   UNL A   1      34.032  35.966  29.367  1.00  0.00    -0.744 OA
ENDBRANCH  87  88
ENDBRANCH  55  80
BRANCH  67  92
ATOM     92  C   UNL A   1      42.377  30.920  34.341  1.00  0.00     0.058 A 
ATOM     93  C   UNL A   1      41.911  30.878  35.665  1.00  0.00     0.135 A 
ATOM     94  C   UNL A   1      42.548  29.696  33.678  1.00  0.00     0.135 A 
ATOM     95  F   UNL A   1      41.646  32.004  36.342  1.00  0.00    -0.206 F 
ATOM     96  C   UNL A   1      41.656  29.664  36.311  1.00  0.00     0.059 A 
ATOM     97  C   UNL A   1      42.270  28.479  34.288  1.00  0.00     0.059 A 
ATOM     98  F   UNL A   1      42.949  29.676  32.396  1.00  0.00    -0.206 F 
ATOM     99  C   UNL A   1      41.837  28.470  35.610  1.00  0.00     0.060 A 
BRANCH  99 100
ATOM    100  S   UNL A   1      41.448  26.903  36.417  1.00  0.00     0.124 S 
ATOM    101  O   UNL A   1      40.928  26.108  35.309  1.00  0.00    -0.237 OA
ATOM    102  O   UNL A   1      42.745  26.487  36.944  1.00  0.00    -0.237 OA
ATOM    103  O   UNL A   1      40.465  27.276  37.431  1.00  0.00    -0.744 OA
ENDBRANCH  99 100
ENDBRANCH  67  92
ENDBRANCH  41  42
ENDBRANCH  33  36
ENDBRANCH  31  32
ENDBRANCH  30  31
ENDBRANCH   1  30
TORSDOF 18
ENDMDL
