MODEL 1
REMARK VINA RESULT:     -11.6      0.000      0.000
REMARK SMILES O=C(CCN1C(=O)S/C(=C\c2ccccc2F)C1=O)Nc1ccc(C(=O)NCCCCNC(=O)c2ccc(-c3c4nc(c(-c5c(F)cc(S(=O)(=O)[O-])cc5F)c5ccc([nH]5)c(-c5c(F)cc(S(=O)(=O)[O-])cc5F)c5nc(c(-c6c(F)cc(S(=O)(=O)[O-])cc6F)c6ccc3[nH]6)C=C5)C=C4)cc2)c(O)c1
REMARK SMILES IDX 28 1 27 2 25 3 26 4 24 6 21 7 22 8 103 9 23 10 101 11 20 12
REMARK SMILES IDX 1 13 2 14 3 16 4 17 5 18 6 19 18 20 7 21 8 22 9 23 19 24
REMARK SMILES IDX 10 25 11 26 12 27 16 28 13 29 15 30 17 31 14 32 102 33 29 35
REMARK SMILES IDX 30 36 31 37 32 38 33 39 34 41 35 42 36 43 100 44 37 45 99 46
REMARK SMILES IDX 38 47 39 48 40 49 93 50 41 51 98 52 92 53 94 54 42 55 97 56
REMARK SMILES IDX 91 57 90 58 43 60 77 61 56 62 76 63 57 64 60 65 75 66 95 67
REMARK SMILES IDX 58 68 59 69 74 71 96 72 61 73 44 74 45 75 54 76 46 77 47 78
REMARK SMILES IDX 53 79 55 80 48 81 49 82 50 83 51 84 52 85 78 86 79 87 88 88
REMARK SMILES IDX 80 89 81 90 87 91 89 92 82 93 83 94 84 95 85 96 86 97 62 98
REMARK SMILES IDX 63 99 72 100 64 101 65 102 71 103 73 104 66 105 67 106
REMARK SMILES IDX 68 107 69 108 70 109
REMARK H PARENT 27 5 20 15 102 34 32 40 94 59 60 70
REMARK Flexibility Score: inf
ROOT
ATOM      1  C   UNL A   1      42.333  22.542  25.299  1.00  0.00     0.116 C 
ENDROOT
BRANCH   1   2
ATOM      2  N   UNL A   1      42.059  21.297  26.000  1.00  0.00    -0.352 N 
ATOM      3  C   UNL A   1      40.860  20.731  26.370  1.00  0.00     0.255 C 
ATOM      4  O   UNL A   1      40.859  19.647  26.947  1.00  0.00    -0.269 OA
ATOM      5  H   UNL A   1      42.858  20.777  26.250  1.00  0.00     0.163 HD
BRANCH   3   6
ATOM      6  C   UNL A   1      39.570  21.424  26.139  1.00  0.00     0.081 A 
ATOM      7  C   UNL A   1      37.323  23.003  25.536  1.00  0.00     0.044 A 
ATOM      8  C   UNL A   1      38.340  23.518  26.332  1.00  0.00     0.027 A 
ATOM      9  C   UNL A   1      37.383  21.664  25.135  1.00  0.00     0.073 A 
ATOM     10  C   UNL A   1      39.459  22.733  26.632  1.00  0.00     0.020 A 
ATOM     11  C   UNL A   1      38.482  20.870  25.465  1.00  0.00     0.130 A 
BRANCH   7  12
ATOM     12  N   UNL A   1      36.206  23.745  25.113  1.00  0.00    -0.326 N 
ATOM     13  O   UNL A   1      36.129  23.291  22.836  1.00  0.00    -0.275 OA
ATOM     14  C   UNL A   1      35.693  23.852  23.837  1.00  0.00     0.226 C 
ATOM     15  H   UNL A   1      35.732  24.251  25.813  1.00  0.00     0.169 HD
BRANCH  14  16
ATOM     16  C   UNL A   1      34.515  24.808  23.728  1.00  0.00     0.122 C 
BRANCH  16  17
ATOM     17  C   UNL A   1      33.201  24.312  24.342  1.00  0.00     0.140 C 
BRANCH  17  18
ATOM     18  N   UNL A   1      32.980  22.870  24.250  1.00  0.00    -0.268 N 
ATOM     19  C   UNL A   1      32.643  22.280  23.055  1.00  0.00     0.293 C 
ATOM     20  C   UNL A   1      32.957  22.058  25.362  1.00  0.00     0.268 C 
ATOM     21  O   UNL A   1      32.477  22.831  21.982  1.00  0.00    -0.261 OA
ATOM     22  S   UNL A   1      32.485  20.546  23.270  1.00  0.00    -0.022 SA
ATOM     23  C   UNL A   1      32.892  20.635  24.936  1.00  0.00     0.083 C 
ATOM     24  O   UNL A   1      33.039  22.421  26.525  1.00  0.00    -0.268 OA
ATOM     25  C   UNL A   1      33.223  19.641  25.770  1.00  0.00     0.032 C 
BRANCH  25  26
ATOM     26  C   UNL A   1      33.329  18.225  25.403  1.00  0.00     0.012 A 
ATOM     27  C   UNL A   1      32.334  17.329  25.804  1.00  0.00     0.011 A 
ATOM     28  C   UNL A   1      34.422  17.736  24.677  1.00  0.00     0.130 A 
ATOM     29  C   UNL A   1      32.422  15.979  25.451  1.00  0.00     0.001 A 
ATOM     30  C   UNL A   1      34.512  16.395  24.317  1.00  0.00     0.040 A 
ATOM     31  F   UNL A   1      35.416  18.562  24.323  1.00  0.00    -0.206 F 
ATOM     32  C   UNL A   1      33.504  15.513  24.702  1.00  0.00     0.003 A 
ENDBRANCH  25  26
ENDBRANCH  17  18
ENDBRANCH  16  17
ENDBRANCH  14  16
ENDBRANCH   7  12
BRANCH  11  33
ATOM     33  O   UNL A   1      38.395  19.556  25.102  1.00  0.00    -0.507 OA
ATOM     34  H   UNL A   1      38.235  19.327  24.206  1.00  0.00     0.293 HD
ENDBRANCH  11  33
ENDBRANCH   3   6
ENDBRANCH   1   2
BRANCH   1  35
ATOM     35  C   UNL A   1      42.906  23.660  26.164  1.00  0.00     0.023 C 
BRANCH  35  36
ATOM     36  C   UNL A   1      44.421  23.854  26.121  1.00  0.00     0.023 C 
BRANCH  36  37
ATOM     37  C   UNL A   1      44.918  25.287  25.967  1.00  0.00     0.116 C 
BRANCH  37  38
ATOM     38  N   UNL A   1      44.140  26.079  25.027  1.00  0.00    -0.352 N 
ATOM     39  C   UNL A   1      43.232  27.090  25.249  1.00  0.00     0.251 C 
ATOM     40  H   UNL A   1      44.286  25.858  24.079  1.00  0.00     0.163 HD
ATOM     41  O   UNL A   1      42.610  27.559  24.301  1.00  0.00    -0.269 OA
BRANCH  39  42
ATOM     42  C   UNL A   1      42.972  27.587  26.621  1.00  0.00     0.039 A 
ATOM     43  C   UNL A   1      43.583  28.775  27.030  1.00  0.00     0.014 A 
ATOM     44  C   UNL A   1      42.133  26.901  27.501  1.00  0.00     0.014 A 
ATOM     45  C   UNL A   1      43.282  29.316  28.284  1.00  0.00     0.010 A 
ATOM     46  C   UNL A   1      41.758  27.490  28.709  1.00  0.00     0.010 A 
ATOM     47  C   UNL A   1      42.326  28.706  29.115  1.00  0.00    -0.014 A 
BRANCH  47  48
ATOM     48  C   UNL A   1      41.902  29.347  30.390  1.00  0.00     0.031 A 
ATOM     49  C   UNL A   1      42.716  29.181  31.646  1.00  0.00     0.074 A 
ATOM     50  C   UNL A   1      40.755  30.057  30.423  1.00  0.00     0.049 A 
ATOM     51  N   UNL A   1      42.502  29.677  32.838  1.00  0.00    -0.248 NA
ATOM     52  C   UNL A   1      43.913  28.329  31.560  1.00  0.00     0.031 C 
ATOM     53  C   UNL A   1      39.845  30.242  29.290  1.00  0.00     0.029 A 
ATOM     54  N   UNL A   1      40.162  30.764  31.440  1.00  0.00    -0.354 N 
ATOM     55  C   UNL A   1      43.534  29.202  33.639  1.00  0.00     0.074 A 
ATOM     56  C   UNL A   1      44.332  28.320  32.817  1.00  0.00     0.031 C 
ATOM     57  C   UNL A   1      38.842  31.055  29.658  1.00  0.00     0.029 A 
ATOM     58  C   UNL A   1      39.010  31.415  31.062  1.00  0.00     0.049 A 
ATOM     59  H   UNL A   1      40.526  30.801  32.354  1.00  0.00     0.167 HD
ATOM     60  C   UNL A   1      43.813  29.502  34.931  1.00  0.00     0.037 A 
ATOM     61  C   UNL A   1      38.185  32.218  31.761  1.00  0.00     0.037 A 
ATOM     62  C   UNL A   1      43.020  30.391  35.742  1.00  0.00     0.049 A 
ATOM     63  C   UNL A   1      38.505  32.523  33.199  1.00  0.00     0.074 A 
ATOM     64  C   UNL A   1      43.244  30.791  37.048  1.00  0.00     0.029 A 
ATOM     65  N   UNL A   1      41.851  31.014  35.329  1.00  0.00    -0.354 N 
ATOM     66  N   UNL A   1      39.520  32.113  33.922  1.00  0.00    -0.248 NA
ATOM     67  C   UNL A   1      37.572  33.403  33.914  1.00  0.00     0.031 C 
ATOM     68  C   UNL A   1      42.183  31.613  37.442  1.00  0.00     0.029 A 
ATOM     69  C   UNL A   1      41.328  31.774  36.364  1.00  0.00     0.049 A 
ATOM     70  H   UNL A   1      41.452  30.929  34.433  1.00  0.00     0.167 HD
ATOM     71  C   UNL A   1      39.355  32.696  35.174  1.00  0.00     0.074 A 
ATOM     72  C   UNL A   1      38.158  33.509  35.099  1.00  0.00     0.031 C 
ATOM     73  C   UNL A   1      40.124  32.565  36.285  1.00  0.00     0.037 A 
BRANCH  60  74
ATOM     74  C   UNL A   1      45.038  28.875  35.546  1.00  0.00     0.058 A 
ATOM     75  C   UNL A   1      44.951  27.659  36.240  1.00  0.00     0.135 A 
ATOM     76  C   UNL A   1      46.292  29.507  35.492  1.00  0.00     0.135 A 
ATOM     77  F   UNL A   1      43.781  27.006  36.322  1.00  0.00    -0.206 F 
ATOM     78  C   UNL A   1      46.060  27.095  36.866  1.00  0.00     0.059 A 
ATOM     79  C   UNL A   1      47.421  28.947  36.084  1.00  0.00     0.059 A 
ATOM     80  F   UNL A   1      46.438  30.664  34.825  1.00  0.00    -0.206 F 
ATOM     81  C   UNL A   1      47.292  27.747  36.780  1.00  0.00     0.060 A 
BRANCH  81  82
ATOM     82  S   UNL A   1      48.728  26.982  37.563  1.00  0.00     0.124 S 
ATOM     83  O   UNL A   1      48.783  27.682  38.840  1.00  0.00    -0.237 OA
ATOM     84  O   UNL A   1      48.332  25.578  37.620  1.00  0.00    -0.237 OA
ATOM     85  O   UNL A   1      49.816  27.279  36.635  1.00  0.00    -0.744 OA
ENDBRANCH  81  82
ENDBRANCH  60  74
BRANCH  61  86
ATOM     86  C   UNL A   1      37.005  32.827  31.089  1.00  0.00     0.058 A 
ATOM     87  C   UNL A   1      37.127  33.989  30.310  1.00  0.00     0.135 A 
ATOM     88  C   UNL A   1      35.721  32.287  31.256  1.00  0.00     0.135 A 
ATOM     89  F   UNL A   1      38.330  34.553  30.124  1.00  0.00    -0.206 F 
ATOM     90  C   UNL A   1      36.015  34.612  29.753  1.00  0.00     0.059 A 
ATOM     91  C   UNL A   1      34.597  32.875  30.685  1.00  0.00     0.059 A 
ATOM     92  F   UNL A   1      35.556  31.168  31.980  1.00  0.00    -0.206 F 
ATOM     93  C   UNL A   1      34.753  34.051  29.952  1.00  0.00     0.060 A 
BRANCH  93  94
ATOM     94  S   UNL A   1      33.320  34.898  29.251  1.00  0.00     0.124 S 
ATOM     95  O   UNL A   1      33.942  36.073  28.649  1.00  0.00    -0.237 OA
ATOM     96  O   UNL A   1      32.806  33.903  28.317  1.00  0.00    -0.237 OA
ATOM     97  O   UNL A   1      32.479  35.159  30.414  1.00  0.00    -0.744 OA
ENDBRANCH  93  94
ENDBRANCH  61  86
BRANCH  73  98
ATOM     98  C   UNL A   1      39.692  33.318  37.516  1.00  0.00     0.058 A 
ATOM     99  C   UNL A   1      40.347  34.498  37.900  1.00  0.00     0.135 A 
ATOM    100  C   UNL A   1      38.652  32.851  38.337  1.00  0.00     0.135 A 
ATOM    101  F   UNL A   1      41.354  34.987  37.159  1.00  0.00    -0.206 F 
ATOM    102  C   UNL A   1      39.992  35.187  39.056  1.00  0.00     0.059 A 
ATOM    103  C   UNL A   1      38.257  33.542  39.480  1.00  0.00     0.059 A 
ATOM    104  F   UNL A   1      37.987  31.731  38.013  1.00  0.00    -0.206 F 
ATOM    105  C   UNL A   1      38.939  34.704  39.835  1.00  0.00     0.060 A 
BRANCH 105 106
ATOM    106  S   UNL A   1      38.454  35.641  41.299  1.00  0.00     0.124 S 
ATOM    107  O   UNL A   1      37.214  34.976  41.685  1.00  0.00    -0.237 OA
ATOM    108  O   UNL A   1      39.591  35.432  42.190  1.00  0.00    -0.237 OA
ATOM    109  O   UNL A   1      38.304  37.003  40.796  1.00  0.00    -0.744 OA
ENDBRANCH 105 106
ENDBRANCH  73  98
ENDBRANCH  47  48
ENDBRANCH  39  42
ENDBRANCH  37  38
ENDBRANCH  36  37
ENDBRANCH  35  36
ENDBRANCH   1  35
TORSDOF 20
ENDMDL
MODEL 2
REMARK VINA RESULT:     -11.4      4.437      7.409
REMARK SMILES O=C(CCN1C(=O)S/C(=C\c2ccccc2F)C1=O)Nc1ccc(C(=O)NCCCCNC(=O)c2ccc(-c3c4nc(c(-c5c(F)cc(S(=O)(=O)[O-])cc5F)c5ccc([nH]5)c(-c5c(F)cc(S(=O)(=O)[O-])cc5F)c5nc(c(-c6c(F)cc(S(=O)(=O)[O-])cc6F)c6ccc3[nH]6)C=C5)C=C4)cc2)c(O)c1
REMARK SMILES IDX 28 1 27 2 25 3 26 4 24 6 21 7 22 8 103 9 23 10 101 11 20 12
REMARK SMILES IDX 1 13 2 14 3 16 4 17 5 18 6 19 18 20 7 21 8 22 9 23 19 24
REMARK SMILES IDX 10 25 11 26 12 27 16 28 13 29 15 30 17 31 14 32 102 33 29 35
REMARK SMILES IDX 30 36 31 37 32 38 33 39 34 41 35 42 36 43 100 44 37 45 99 46
REMARK SMILES IDX 38 47 39 48 40 49 93 50 41 51 98 52 92 53 94 54 42 55 97 56
REMARK SMILES IDX 91 57 90 58 43 60 77 61 56 62 76 63 57 64 60 65 75 66 95 67
REMARK SMILES IDX 58 68 59 69 74 71 96 72 61 73 44 74 45 75 54 76 46 77 47 78
REMARK SMILES IDX 53 79 55 80 48 81 49 82 50 83 51 84 52 85 78 86 79 87 88 88
REMARK SMILES IDX 80 89 81 90 87 91 89 92 82 93 83 94 84 95 85 96 86 97 62 98
REMARK SMILES IDX 63 99 72 100 64 101 65 102 71 103 73 104 66 105 67 106
REMARK SMILES IDX 68 107 69 108 70 109
REMARK H PARENT 27 5 20 15 102 34 32 40 94 59 60 70
REMARK Flexibility Score: inf
ROOT
ATOM      1  C   UNL A   1      43.000  21.850  25.250  1.00  0.00     0.116 C 
ENDROOT
BRANCH   1   2
ATOM      2  N   UNL A   1      44.321  21.237  25.253  1.00  0.00    -0.352 N 
ATOM      3  C   UNL A   1      45.565  21.810  25.390  1.00  0.00     0.255 C 
ATOM      4  O   UNL A   1      46.562  21.092  25.382  1.00  0.00    -0.269 OA
ATOM      5  H   UNL A   1      44.324  20.259  25.140  1.00  0.00     0.163 HD
BRANCH   3   6
ATOM      6  C   UNL A   1      45.737  23.279  25.490  1.00  0.00     0.081 A 
ATOM      7  C   UNL A   1      46.186  26.003  26.024  1.00  0.00     0.044 A 
ATOM      8  C   UNL A   1      45.296  25.278  26.811  1.00  0.00     0.027 A 
ATOM      9  C   UNL A   1      46.765  25.389  24.908  1.00  0.00     0.073 A 
ATOM     10  C   UNL A   1      45.073  23.922  26.545  1.00  0.00     0.020 A 
ATOM     11  C   UNL A   1      46.513  24.047  24.623  1.00  0.00     0.130 A 
BRANCH   7  12
ATOM     12  N   UNL A   1      46.537  27.342  26.269  1.00  0.00    -0.326 N 
ATOM     13  O   UNL A   1      44.514  28.453  26.006  1.00  0.00    -0.275 OA
ATOM     14  C   UNL A   1      45.718  28.452  26.240  1.00  0.00     0.226 C 
ATOM     15  H   UNL A   1      47.483  27.509  26.486  1.00  0.00     0.169 HD
BRANCH  14  16
ATOM     16  C   UNL A   1      46.454  29.763  26.480  1.00  0.00     0.122 C 
BRANCH  16  17
ATOM     17  C   UNL A   1      47.481  29.747  27.617  1.00  0.00     0.140 C 
BRANCH  17  18
ATOM     18  N   UNL A   1      47.030  29.104  28.849  1.00  0.00    -0.268 N 
ATOM     19  C   UNL A   1      46.102  29.706  29.665  1.00  0.00     0.293 C 
ATOM     20  C   UNL A   1      47.605  27.947  29.327  1.00  0.00     0.268 C 
ATOM     21  O   UNL A   1      45.570  30.789  29.501  1.00  0.00    -0.261 OA
ATOM     22  S   UNL A   1      45.748  28.669  31.034  1.00  0.00    -0.022 SA
ATOM     23  C   UNL A   1      46.822  27.445  30.486  1.00  0.00     0.083 C 
ATOM     24  O   UNL A   1      48.570  27.369  28.852  1.00  0.00    -0.268 OA
ATOM     25  C   UNL A   1      46.928  26.177  30.904  1.00  0.00     0.032 C 
BRANCH  25  26
ATOM     26  C   UNL A   1      46.097  25.553  31.941  1.00  0.00     0.012 A 
ATOM     27  C   UNL A   1      46.466  25.664  33.284  1.00  0.00     0.011 A 
ATOM     28  C   UNL A   1      44.949  24.820  31.616  1.00  0.00     0.130 A 
ATOM     29  C   UNL A   1      45.676  25.080  34.279  1.00  0.00     0.001 A 
ATOM     30  C   UNL A   1      44.156  24.242  32.602  1.00  0.00     0.040 A 
ATOM     31  F   UNL A   1      44.600  24.653  30.333  1.00  0.00    -0.206 F 
ATOM     32  C   UNL A   1      44.518  24.377  33.940  1.00  0.00     0.003 A 
ENDBRANCH  25  26
ENDBRANCH  17  18
ENDBRANCH  16  17
ENDBRANCH  14  16
ENDBRANCH   7  12
BRANCH  11  33
ATOM     33  O   UNL A   1      47.056  23.576  23.460  1.00  0.00    -0.507 OA
ATOM     34  H   UNL A   1      46.577  22.966  22.933  1.00  0.00     0.293 HD
ENDBRANCH  11  33
ENDBRANCH   3   6
ENDBRANCH   1   2
BRANCH   1  35
ATOM     35  C   UNL A   1      41.916  21.053  25.968  1.00  0.00     0.023 C 
BRANCH  35  36
ATOM     36  C   UNL A   1      41.639  21.426  27.423  1.00  0.00     0.023 C 
BRANCH  36  37
ATOM     37  C   UNL A   1      40.985  22.781  27.665  1.00  0.00     0.116 C 
BRANCH  37  38
ATOM     38  N   UNL A   1      41.078  23.688  26.531  1.00  0.00    -0.352 N 
ATOM     39  C   UNL A   1      41.008  25.062  26.478  1.00  0.00     0.251 C 
ATOM     40  H   UNL A   1      41.214  23.248  25.661  1.00  0.00     0.163 HD
ATOM     41  O   UNL A   1      41.013  25.623  25.387  1.00  0.00    -0.269 OA
BRANCH  39  42
ATOM     42  C   UNL A   1      40.889  25.863  27.719  1.00  0.00     0.039 A 
ATOM     43  C   UNL A   1      41.987  26.618  28.138  1.00  0.00     0.014 A 
ATOM     44  C   UNL A   1      39.710  25.881  28.468  1.00  0.00     0.014 A 
ATOM     45  C   UNL A   1      41.871  27.455  29.252  1.00  0.00     0.010 A 
ATOM     46  C   UNL A   1      39.564  26.788  29.517  1.00  0.00     0.010 A 
ATOM     47  C   UNL A   1      40.643  27.589  29.921  1.00  0.00    -0.014 A 
BRANCH  47  48
ATOM     48  C   UNL A   1      40.476  28.576  31.022  1.00  0.00     0.031 A 
ATOM     49  C   UNL A   1      41.349  28.522  32.248  1.00  0.00     0.074 A 
ATOM     50  C   UNL A   1      39.506  29.510  30.931  1.00  0.00     0.049 A 
ATOM     51  N   UNL A   1      41.350  29.307  33.295  1.00  0.00    -0.248 NA
ATOM     52  C   UNL A   1      42.333  27.430  32.321  1.00  0.00     0.031 C 
ATOM     53  C   UNL A   1      38.555  29.632  29.824  1.00  0.00     0.029 A 
ATOM     54  N   UNL A   1      39.165  30.540  31.773  1.00  0.00    -0.354 N 
ATOM     55  C   UNL A   1      42.331  28.810  34.145  1.00  0.00     0.074 A 
ATOM     56  C   UNL A   1      42.854  27.612  33.526  1.00  0.00     0.031 C 
ATOM     57  C   UNL A   1      37.777  30.707  30.027  1.00  0.00     0.029 A 
ATOM     58  C   UNL A   1      38.141  31.327  31.296  1.00  0.00     0.049 A 
ATOM     59  H   UNL A   1      39.611  30.700  32.636  1.00  0.00     0.167 HD
ATOM     60  C   UNL A   1      42.781  29.323  35.315  1.00  0.00     0.037 A 
ATOM     61  C   UNL A   1      37.564  32.428  31.816  1.00  0.00     0.037 A 
ATOM     62  C   UNL A   1      42.264  30.523  35.921  1.00  0.00     0.049 A 
ATOM     63  C   UNL A   1      38.069  32.970  33.125  1.00  0.00     0.074 A 
ATOM     64  C   UNL A   1      42.682  31.148  37.084  1.00  0.00     0.029 A 
ATOM     65  N   UNL A   1      41.214  31.280  35.419  1.00  0.00    -0.354 N 
ATOM     66  N   UNL A   1      39.040  32.520  33.884  1.00  0.00    -0.248 NA
ATOM     67  C   UNL A   1      37.404  34.171  33.645  1.00  0.00     0.031 C 
ATOM     68  C   UNL A   1      41.852  32.249  37.312  1.00  0.00     0.029 A 
ATOM     69  C   UNL A   1      40.954  32.349  36.262  1.00  0.00     0.049 A 
ATOM     70  H   UNL A   1      40.727  31.086  34.586  1.00  0.00     0.167 HD
ATOM     71  C   UNL A   1      39.112  33.391  34.966  1.00  0.00     0.074 A 
ATOM     72  C   UNL A   1      38.104  34.409  34.747  1.00  0.00     0.031 C 
ATOM     73  C   UNL A   1      39.934  33.347  36.045  1.00  0.00     0.037 A 
BRANCH  60  74
ATOM     74  C   UNL A   1      43.903  28.596  36.013  1.00  0.00     0.058 A 
ATOM     75  C   UNL A   1      45.239  28.975  35.812  1.00  0.00     0.135 A 
ATOM     76  C   UNL A   1      43.656  27.490  36.843  1.00  0.00     0.135 A 
ATOM     77  F   UNL A   1      45.537  30.027  35.034  1.00  0.00    -0.206 F 
ATOM     78  C   UNL A   1      46.290  28.279  36.402  1.00  0.00     0.059 A 
ATOM     79  C   UNL A   1      44.690  26.797  37.468  1.00  0.00     0.059 A 
ATOM     80  F   UNL A   1      42.396  27.095  37.086  1.00  0.00    -0.206 F 
ATOM     81  C   UNL A   1      46.005  27.192  37.230  1.00  0.00     0.060 A 
BRANCH  81  82
ATOM     82  S   UNL A   1      47.379  26.325  38.018  1.00  0.00     0.124 S 
ATOM     83  O   UNL A   1      48.172  25.908  36.868  1.00  0.00    -0.237 OA
ATOM     84  O   UNL A   1      47.963  27.372  38.850  1.00  0.00    -0.237 OA
ATOM     85  O   UNL A   1      46.722  25.247  38.752  1.00  0.00    -0.744 OA
ENDBRANCH  81  82
ENDBRANCH  60  74
BRANCH  61  86
ATOM     86  C   UNL A   1      36.479  33.114  31.065  1.00  0.00     0.058 A 
ATOM     87  C   UNL A   1      36.754  33.888  29.925  1.00  0.00     0.135 A 
ATOM     88  C   UNL A   1      35.148  33.054  31.505  1.00  0.00     0.135 A 
ATOM     89  F   UNL A   1      38.010  33.988  29.466  1.00  0.00    -0.206 F 
ATOM     90  C   UNL A   1      35.755  34.603  29.273  1.00  0.00     0.059 A 
ATOM     91  C   UNL A   1      34.127  33.737  30.852  1.00  0.00     0.059 A 
ATOM     92  F   UNL A   1      34.833  32.316  32.582  1.00  0.00    -0.206 F 
ATOM     93  C   UNL A   1      34.446  34.527  29.748  1.00  0.00     0.060 A 
BRANCH  93  94
ATOM     94  S   UNL A   1      33.172  35.494  28.907  1.00  0.00     0.124 S 
ATOM     95  O   UNL A   1      33.980  36.470  28.183  1.00  0.00    -0.237 OA
ATOM     96  O   UNL A   1      32.514  34.483  28.089  1.00  0.00    -0.237 OA
ATOM     97  O   UNL A   1      32.374  36.029  30.004  1.00  0.00    -0.744 OA
ENDBRANCH  93  94
ENDBRANCH  61  86
BRANCH  73  98
ATOM     98  C   UNL A   1      39.779  34.433  37.076  1.00  0.00     0.058 A 
ATOM     99  C   UNL A   1      40.446  35.659  36.931  1.00  0.00     0.135 A 
ATOM    100  C   UNL A   1      38.999  34.246  38.230  1.00  0.00     0.135 A 
ATOM    101  F   UNL A   1      41.213  35.891  35.854  1.00  0.00    -0.206 F 
ATOM    102  C   UNL A   1      40.349  36.661  37.892  1.00  0.00     0.059 A 
ATOM    103  C   UNL A   1      38.860  35.247  39.188  1.00  0.00     0.059 A 
ATOM    104  F   UNL A   1      38.334  33.095  38.416  1.00  0.00    -0.206 F 
ATOM    105  C   UNL A   1      39.547  36.447  39.014  1.00  0.00     0.060 A 
BRANCH 105 106
ATOM    106  S   UNL A   1      39.387  37.779  40.222  1.00  0.00     0.124 S 
ATOM    107  O   UNL A   1      39.028  37.046  41.432  1.00  0.00    -0.237 OA
ATOM    108  O   UNL A   1      40.723  38.368  40.209  1.00  0.00    -0.237 OA
ATOM    109  O   UNL A   1      38.334  38.620  39.662  1.00  0.00    -0.744 OA
ENDBRANCH 105 106
ENDBRANCH  73  98
ENDBRANCH  47  48
ENDBRANCH  39  42
ENDBRANCH  37  38
ENDBRANCH  36  37
ENDBRANCH  35  36
ENDBRANCH   1  35
TORSDOF 20
ENDMDL
MODEL 3
REMARK VINA RESULT:     -11.2      2.322      8.757
REMARK SMILES O=C(CCN1C(=O)S/C(=C\c2ccccc2F)C1=O)Nc1ccc(C(=O)NCCCCNC(=O)c2ccc(-c3c4nc(c(-c5c(F)cc(S(=O)(=O)[O-])cc5F)c5ccc([nH]5)c(-c5c(F)cc(S(=O)(=O)[O-])cc5F)c5nc(c(-c6c(F)cc(S(=O)(=O)[O-])cc6F)c6ccc3[nH]6)C=C5)C=C4)cc2)c(O)c1
REMARK SMILES IDX 28 1 27 2 25 3 26 4 24 6 21 7 22 8 103 9 23 10 101 11 20 12
REMARK SMILES IDX 1 13 2 14 3 16 4 17 5 18 6 19 18 20 7 21 8 22 9 23 19 24
REMARK SMILES IDX 10 25 11 26 12 27 16 28 13 29 15 30 17 31 14 32 102 33 29 35
REMARK SMILES IDX 30 36 31 37 32 38 33 39 34 41 35 42 36 43 100 44 37 45 99 46
REMARK SMILES IDX 38 47 39 48 40 49 93 50 41 51 98 52 92 53 94 54 42 55 97 56
REMARK SMILES IDX 91 57 90 58 43 60 77 61 56 62 76 63 57 64 60 65 75 66 95 67
REMARK SMILES IDX 58 68 59 69 74 71 96 72 61 73 44 74 45 75 54 76 46 77 47 78
REMARK SMILES IDX 53 79 55 80 48 81 49 82 50 83 51 84 52 85 78 86 79 87 88 88
REMARK SMILES IDX 80 89 81 90 87 91 89 92 82 93 83 94 84 95 85 96 86 97 62 98
REMARK SMILES IDX 63 99 72 100 64 101 65 102 71 103 73 104 66 105 67 106
REMARK SMILES IDX 68 107 69 108 70 109
REMARK H PARENT 27 5 20 15 102 34 32 40 94 59 60 70
REMARK Flexibility Score: inf
ROOT
ATOM      1  C   UNL A   1      43.641  22.033  25.576  1.00  0.00     0.116 C 
ENDROOT
BRANCH   1   2
ATOM      2  N   UNL A   1      43.477  20.711  26.162  1.00  0.00    -0.352 N 
ATOM      3  C   UNL A   1      42.338  20.058  26.576  1.00  0.00     0.255 C 
ATOM      4  O   UNL A   1      42.428  18.921  27.032  1.00  0.00    -0.269 OA
ATOM      5  H   UNL A   1      44.313  20.204  26.282  1.00  0.00     0.163 HD
BRANCH   3   6
ATOM      6  C   UNL A   1      41.009  20.714  26.538  1.00  0.00     0.081 A 
ATOM      7  C   UNL A   1      38.657  22.233  26.284  1.00  0.00     0.044 A 
ATOM      8  C   UNL A   1      39.756  22.761  26.953  1.00  0.00     0.027 A 
ATOM      9  C   UNL A   1      38.703  20.907  25.839  1.00  0.00     0.073 A 
ATOM     10  C   UNL A   1      40.927  22.006  27.079  1.00  0.00     0.020 A 
ATOM     11  C   UNL A   1      39.858  20.142  25.998  1.00  0.00     0.130 A 
BRANCH   7  12
ATOM     12  N   UNL A   1      37.473  22.949  26.034  1.00  0.00    -0.326 N 
ATOM     13  O   UNL A   1      37.103  22.544  23.776  1.00  0.00    -0.275 OA
ATOM     14  C   UNL A   1      36.790  23.068  24.841  1.00  0.00     0.226 C 
ATOM     15  H   UNL A   1      37.083  23.423  26.804  1.00  0.00     0.169 HD
BRANCH  14  16
ATOM     16  C   UNL A   1      35.581  23.988  24.916  1.00  0.00     0.122 C 
BRANCH  16  17
ATOM     17  C   UNL A   1      34.577  23.857  23.766  1.00  0.00     0.140 C 
BRANCH  17  18
ATOM     18  N   UNL A   1      33.470  24.811  23.797  1.00  0.00    -0.268 N 
ATOM     19  C   UNL A   1      32.519  24.761  24.788  1.00  0.00     0.293 C 
ATOM     20  C   UNL A   1      33.243  25.706  22.775  1.00  0.00     0.268 C 
ATOM     21  O   UNL A   1      32.455  23.966  25.707  1.00  0.00    -0.261 OA
ATOM     22  S   UNL A   1      31.356  26.054  24.565  1.00  0.00    -0.022 SA
ATOM     23  C   UNL A   1      32.168  26.651  23.173  1.00  0.00     0.083 C 
ATOM     24  O   UNL A   1      33.857  25.772  21.721  1.00  0.00    -0.268 OA
ATOM     25  C   UNL A   1      32.000  27.823  22.546  1.00  0.00     0.032 C 
BRANCH  25  26
ATOM     26  C   UNL A   1      31.068  28.879  22.954  1.00  0.00     0.012 A 
ATOM     27  C   UNL A   1      29.988  29.206  22.130  1.00  0.00     0.011 A 
ATOM     28  C   UNL A   1      31.245  29.592  24.146  1.00  0.00     0.130 A 
ATOM     29  C   UNL A   1      29.088  30.205  22.515  1.00  0.00     0.001 A 
ATOM     30  C   UNL A   1      30.351  30.583  24.538  1.00  0.00     0.040 A 
ATOM     31  F   UNL A   1      32.301  29.335  24.931  1.00  0.00    -0.206 F 
ATOM     32  C   UNL A   1      29.264  30.887  23.721  1.00  0.00     0.003 A 
ENDBRANCH  25  26
ENDBRANCH  17  18
ENDBRANCH  16  17
ENDBRANCH  14  16
ENDBRANCH   7  12
BRANCH  11  33
ATOM     33  O   UNL A   1      39.761  18.835  25.611  1.00  0.00    -0.507 OA
ATOM     34  H   UNL A   1      39.748  18.616  24.700  1.00  0.00     0.293 HD
ENDBRANCH  11  33
ENDBRANCH   3   6
ENDBRANCH   1   2
BRANCH   1  35
ATOM     35  C   UNL A   1      44.296  23.067  26.485  1.00  0.00     0.023 C 
BRANCH  35  36
ATOM     36  C   UNL A   1      45.348  23.974  25.849  1.00  0.00     0.023 C 
BRANCH  36  37
ATOM     37  C   UNL A   1      45.176  25.473  26.069  1.00  0.00     0.116 C 
BRANCH  37  38
ATOM     38  N   UNL A   1      44.245  26.098  25.141  1.00  0.00    -0.352 N 
ATOM     39  C   UNL A   1      43.240  27.012  25.366  1.00  0.00     0.251 C 
ATOM     40  H   UNL A   1      44.350  25.823  24.202  1.00  0.00     0.163 HD
ATOM     41  O   UNL A   1      42.502  27.334  24.440  1.00  0.00    -0.269 OA
BRANCH  39  42
ATOM     42  C   UNL A   1      43.019  27.578  26.717  1.00  0.00     0.039 A 
ATOM     43  C   UNL A   1      43.574  28.825  27.020  1.00  0.00     0.014 A 
ATOM     44  C   UNL A   1      42.271  26.901  27.681  1.00  0.00     0.014 A 
ATOM     45  C   UNL A   1      43.302  29.424  28.254  1.00  0.00     0.010 A 
ATOM     46  C   UNL A   1      41.920  27.541  28.870  1.00  0.00     0.010 A 
ATOM     47  C   UNL A   1      42.430  28.812  29.171  1.00  0.00    -0.014 A 
BRANCH  47  48
ATOM     48  C   UNL A   1      42.031  29.506  30.426  1.00  0.00     0.031 A 
ATOM     49  C   UNL A   1      40.780  30.341  30.484  1.00  0.00     0.074 A 
ATOM     50  C   UNL A   1      42.823  29.408  31.515  1.00  0.00     0.049 A 
ATOM     51  N   UNL A   1      40.276  31.003  31.494  1.00  0.00    -0.248 NA
ATOM     52  C   UNL A   1      40.004  30.471  29.240  1.00  0.00     0.031 C 
ATOM     53  C   UNL A   1      44.093  28.680  31.571  1.00  0.00     0.029 A 
ATOM     54  N   UNL A   1      42.675  29.911  32.784  1.00  0.00    -0.354 N 
ATOM     55  C   UNL A   1      39.128  31.621  31.011  1.00  0.00     0.074 A 
ATOM     56  C   UNL A   1      39.049  31.317  29.600  1.00  0.00     0.031 C 
ATOM     57  C   UNL A   1      44.578  28.737  32.821  1.00  0.00     0.029 A 
ATOM     58  C   UNL A   1      43.682  29.540  33.646  1.00  0.00     0.049 A 
ATOM     59  H   UNL A   1      41.921  30.485  33.051  1.00  0.00     0.167 HD
ATOM     60  C   UNL A   1      38.206  32.346  31.688  1.00  0.00     0.037 A 
ATOM     61  C   UNL A   1      43.861  29.806  34.954  1.00  0.00     0.037 A 
ATOM     62  C   UNL A   1      38.283  32.637  33.098  1.00  0.00     0.049 A 
ATOM     63  C   UNL A   1      42.831  30.627  35.682  1.00  0.00     0.074 A 
ATOM     64  C   UNL A   1      37.377  33.327  33.884  1.00  0.00     0.029 A 
ATOM     65  N   UNL A   1      39.327  32.260  33.931  1.00  0.00    -0.354 N 
ATOM     66  N   UNL A   1      41.721  31.151  35.222  1.00  0.00    -0.248 NA
ATOM     67  C   UNL A   1      43.077  30.887  37.106  1.00  0.00     0.031 C 
ATOM     68  C   UNL A   1      37.897  33.413  35.179  1.00  0.00     0.029 A 
ATOM     69  C   UNL A   1      39.100  32.726  35.217  1.00  0.00     0.049 A 
ATOM     70  H   UNL A   1      40.114  31.738  33.651  1.00  0.00     0.167 HD
ATOM     71  C   UNL A   1      41.127  31.794  36.303  1.00  0.00     0.074 A 
ATOM     72  C   UNL A   1      41.989  31.567  37.445  1.00  0.00     0.031 C 
ATOM     73  C   UNL A   1      39.975  32.511  36.344  1.00  0.00     0.037 A 
BRANCH  60  74
ATOM     74  C   UNL A   1      37.018  32.864  30.917  1.00  0.00     0.058 A 
ATOM     75  C   UNL A   1      37.102  34.059  30.186  1.00  0.00     0.135 A 
ATOM     76  C   UNL A   1      35.780  32.202  30.944  1.00  0.00     0.135 A 
ATOM     77  F   UNL A   1      38.260  34.734  30.119  1.00  0.00    -0.206 F 
ATOM     78  C   UNL A   1      36.000  34.583  29.517  1.00  0.00     0.059 A 
ATOM     79  C   UNL A   1      34.672  32.691  30.257  1.00  0.00     0.059 A 
ATOM     80  F   UNL A   1      35.647  31.044  31.612  1.00  0.00    -0.206 F 
ATOM     81  C   UNL A   1      34.788  33.890  29.557  1.00  0.00     0.060 A 
BRANCH  81  82
ATOM     82  S   UNL A   1      33.380  34.563  28.651  1.00  0.00     0.124 S 
ATOM     83  O   UNL A   1      32.981  33.429  27.827  1.00  0.00    -0.237 OA
ATOM     84  O   UNL A   1      32.465  34.921  29.731  1.00  0.00    -0.237 OA
ATOM     85  O   UNL A   1      33.953  35.695  27.927  1.00  0.00    -0.744 OA
ENDBRANCH  81  82
ENDBRANCH  60  74
BRANCH  61  86
ATOM     86  C   UNL A   1      45.040  29.243  35.665  1.00  0.00     0.058 A 
ATOM     87  C   UNL A   1      44.970  28.013  36.339  1.00  0.00     0.135 A 
ATOM     88  C   UNL A   1      46.249  29.953  35.730  1.00  0.00     0.135 A 
ATOM     89  F   UNL A   1      43.836  27.296  36.317  1.00  0.00    -0.206 F 
ATOM     90  C   UNL A   1      46.042  27.526  37.079  1.00  0.00     0.059 A 
ATOM     91  C   UNL A   1      47.345  29.472  36.440  1.00  0.00     0.059 A 
ATOM     92  F   UNL A   1      46.370  31.127  35.091  1.00  0.00    -0.206 F 
ATOM     93  C   UNL A   1      47.224  28.266  37.129  1.00  0.00     0.060 A 
BRANCH  93  94
ATOM     94  S   UNL A   1      48.590  27.633  38.127  1.00  0.00     0.124 S 
ATOM     95  O   UNL A   1      49.441  28.813  38.235  1.00  0.00    -0.237 OA
ATOM     96  O   UNL A   1      47.909  27.226  39.351  1.00  0.00    -0.237 OA
ATOM     97  O   UNL A   1      49.124  26.545  37.316  1.00  0.00    -0.744 OA
ENDBRANCH  93  94
ENDBRANCH  61  86
BRANCH  73  98
ATOM     98  C   UNL A   1      39.578  33.106  37.669  1.00  0.00     0.058 A 
ATOM     99  C   UNL A   1      38.542  32.539  38.427  1.00  0.00     0.135 A 
ATOM    100  C   UNL A   1      40.199  34.261  38.173  1.00  0.00     0.135 A 
ATOM    101  F   UNL A   1      37.906  31.439  37.991  1.00  0.00    -0.206 F 
ATOM    102  C   UNL A   1      38.132  33.096  39.634  1.00  0.00     0.059 A 
ATOM    103  C   UNL A   1      39.829  34.817  39.394  1.00  0.00     0.059 A 
ATOM    104  F   UNL A   1      41.201  34.840  37.492  1.00  0.00    -0.206 F 
ATOM    105  C   UNL A   1      38.787  34.232  40.113  1.00  0.00     0.060 A 
BRANCH 105 106
ATOM    106  S   UNL A   1      38.281  34.907  41.708  1.00  0.00     0.124 S 
ATOM    107  O   UNL A   1      39.127  34.161  42.633  1.00  0.00    -0.237 OA
ATOM    108  O   UNL A   1      38.600  36.324  41.557  1.00  0.00    -0.237 OA
ATOM    109  O   UNL A   1      36.856  34.597  41.772  1.00  0.00    -0.744 OA
ENDBRANCH 105 106
ENDBRANCH  73  98
ENDBRANCH  47  48
ENDBRANCH  39  42
ENDBRANCH  37  38
ENDBRANCH  36  37
ENDBRANCH  35  36
ENDBRANCH   1  35
TORSDOF 20
ENDMDL
