MODEL 1
REMARK VINA RESULT:      -9.3      0.000      0.000
REMARK SMILES CC(C)(CNC(=O)[C@H]1CCC[C@H](C(=O)NCCCCNC(=O)c2ccc(-c3c4nc(c(-c5c(F)cc(S(=O)(=O)[O-])cc5F)c5ccc([nH]5)c(-c5c(F)cc(S(=O)(=O)[O-])cc5F)c5nc(c(-c6c(F)cc(S(=O)(=O)[O-])cc6F)c6ccc3[nH]6)C=C5)C=C4)cc2)C1)S(C)(=O)=O
REMARK SMILES IDX 17 1 16 2 15 3 13 4 14 5 12 7 8 8 9 9 89 10 10 11 11 12 6 13
REMARK SMILES IDX 5 14 7 16 4 17 2 18 1 19 3 20 90 21 91 22 92 23 93 24 18 25
REMARK SMILES IDX 19 26 20 27 21 28 22 30 23 31 24 32 88 33 25 34 87 35 26 36
REMARK SMILES IDX 27 37 28 38 81 39 29 40 86 41 80 42 82 43 30 44 85 45 79 46
REMARK SMILES IDX 78 47 31 49 65 50 44 51 64 52 45 53 48 54 63 55 83 56 46 57
REMARK SMILES IDX 47 58 62 60 84 61 49 62 32 63 33 64 42 65 34 66 35 67 41 68
REMARK SMILES IDX 43 69 36 70 37 71 38 72 39 73 40 74 66 75 67 76 76 77 68 78
REMARK SMILES IDX 69 79 75 80 77 81 70 82 71 83 72 84 73 85 74 86 50 87 51 88
REMARK SMILES IDX 60 89 52 90 53 91 59 92 61 93 54 94 55 95 56 96 57 97 58 98
REMARK H PARENT 15 6 5 15 20 29 82 48 48 59
REMARK Flexibility Score: inf
ROOT
ATOM      1  C   UNL A   1      36.971  33.789  29.965  1.00  0.00     0.023 C 
ENDROOT
BRANCH   1   2
ATOM      2  C   UNL A   1      37.511  33.270  31.295  1.00  0.00     0.116 C 
BRANCH   2   3
ATOM      3  N   UNL A   1      36.569  33.453  32.386  1.00  0.00    -0.356 N 
ATOM      4  C   UNL A   1      36.439  32.803  33.576  1.00  0.00     0.223 C 
ATOM      5  O   UNL A   1      35.535  33.166  34.333  1.00  0.00    -0.275 OA
ATOM      6  H   UNL A   1      35.912  34.171  32.240  1.00  0.00     0.163 HD
BRANCH   4   7
ATOM      7  C   UNL A   1      37.377  31.667  33.975  1.00  0.00     0.079 C 
ATOM      8  C   UNL A   1      39.879  31.112  34.318  1.00  0.00     0.079 C 
ATOM      9  C   UNL A   1      39.752  30.194  33.097  1.00  0.00     0.013 C 
ATOM     10  C   UNL A   1      38.798  32.200  34.256  1.00  0.00     0.027 C 
ATOM     11  C   UNL A   1      38.404  29.491  33.070  1.00  0.00     0.002 C 
ATOM     12  C   UNL A   1      37.258  30.485  33.003  1.00  0.00     0.013 C 
BRANCH   8  13
ATOM     13  C   UNL A   1      39.819  30.348  35.643  1.00  0.00     0.223 C 
ATOM     14  N   UNL A   1      40.962  29.879  36.218  1.00  0.00    -0.354 N 
ATOM     15  H   UNL A   1      40.842  29.422  37.082  1.00  0.00     0.163 HD
ATOM     16  O   UNL A   1      38.771  30.148  36.257  1.00  0.00    -0.275 OA
BRANCH  14  17
ATOM     17  C   UNL A   1      42.330  29.955  35.742  1.00  0.00     0.138 C 
BRANCH  17  18
ATOM     18  C   UNL A   1      43.054  28.606  35.603  1.00  0.00     0.084 C 
ATOM     19  C   UNL A   1      43.903  28.515  34.328  1.00  0.00     0.030 C 
ATOM     20  C   UNL A   1      43.993  28.466  36.821  1.00  0.00     0.030 C 
BRANCH  18  21
ATOM     21  S   UNL A   1      41.853  27.231  35.689  1.00  0.00     0.154 S 
ATOM     22  C   UNL A   1      42.765  25.711  35.517  1.00  0.00     0.158 C 
ATOM     23  O   UNL A   1      41.289  27.228  37.027  1.00  0.00    -0.229 OA
ATOM     24  O   UNL A   1      40.975  27.333  34.537  1.00  0.00    -0.229 OA
ENDBRANCH  18  21
ENDBRANCH  17  18
ENDBRANCH  14  17
ENDBRANCH   8  13
ENDBRANCH   4   7
ENDBRANCH   2   3
ENDBRANCH   1   2
BRANCH   1  25
ATOM     25  C   UNL A   1      35.576  33.288  29.600  1.00  0.00     0.023 C 
BRANCH  25  26
ATOM     26  C   UNL A   1      35.349  33.033  28.115  1.00  0.00     0.116 C 
BRANCH  26  27
ATOM     27  N   UNL A   1      34.358  31.998  27.859  1.00  0.00    -0.352 N 
ATOM     28  C   UNL A   1      34.544  30.638  27.772  1.00  0.00     0.251 C 
ATOM     29  H   UNL A   1      33.433  32.311  27.731  1.00  0.00     0.163 HD
ATOM     30  O   UNL A   1      33.618  29.908  27.431  1.00  0.00    -0.269 OA
BRANCH  28  31
ATOM     31  C   UNL A   1      35.878  30.075  28.056  1.00  0.00     0.039 A 
ATOM     32  C   UNL A   1      36.846  30.089  27.050  1.00  0.00     0.014 A 
ATOM     33  C   UNL A   1      36.186  29.589  29.330  1.00  0.00     0.014 A 
ATOM     34  C   UNL A   1      38.149  29.683  27.344  1.00  0.00     0.010 A 
ATOM     35  C   UNL A   1      37.501  29.255  29.639  1.00  0.00     0.010 A 
ATOM     36  C   UNL A   1      38.495  29.301  28.651  1.00  0.00    -0.014 A 
BRANCH  36  37
ATOM     37  C   UNL A   1      39.893  28.952  29.008  1.00  0.00     0.031 A 
ATOM     38  C   UNL A   1      40.785  29.982  29.643  1.00  0.00     0.074 A 
ATOM     39  C   UNL A   1      40.378  27.736  28.689  1.00  0.00     0.049 A 
ATOM     40  N   UNL A   1      42.053  29.899  29.951  1.00  0.00    -0.248 NA
ATOM     41  C   UNL A   1      40.180  31.290  29.943  1.00  0.00     0.031 C 
ATOM     42  C   UNL A   1      39.627  26.673  28.016  1.00  0.00     0.029 A 
ATOM     43  N   UNL A   1      41.625  27.192  28.874  1.00  0.00    -0.354 N 
ATOM     44  C   UNL A   1      42.402  31.144  30.459  1.00  0.00     0.074 A 
ATOM     45  C   UNL A   1      41.225  31.980  30.374  1.00  0.00     0.031 C 
ATOM     46  C   UNL A   1      40.423  25.602  27.861  1.00  0.00     0.029 A 
ATOM     47  C   UNL A   1      41.747  25.911  28.391  1.00  0.00     0.049 A 
ATOM     48  H   UNL A   1      42.363  27.676  29.311  1.00  0.00     0.167 HD
ATOM     49  C   UNL A   1      43.590  31.546  30.972  1.00  0.00     0.037 A 
ATOM     50  C   UNL A   1      42.808  25.081  28.373  1.00  0.00     0.037 A 
ATOM     51  C   UNL A   1      44.745  30.696  31.087  1.00  0.00     0.049 A 
ATOM     52  C   UNL A   1      44.108  25.540  28.973  1.00  0.00     0.074 A 
ATOM     53  C   UNL A   1      45.973  30.987  31.656  1.00  0.00     0.029 A 
ATOM     54  N   UNL A   1      44.817  29.390  30.627  1.00  0.00    -0.354 N 
ATOM     55  N   UNL A   1      44.401  26.699  29.515  1.00  0.00    -0.248 NA
ATOM     56  C   UNL A   1      45.220  24.580  28.971  1.00  0.00     0.031 C 
ATOM     57  C   UNL A   1      46.799  29.867  31.510  1.00  0.00     0.029 A 
ATOM     58  C   UNL A   1      46.072  28.865  30.886  1.00  0.00     0.049 A 
ATOM     59  H   UNL A   1      44.084  28.907  30.181  1.00  0.00     0.167 HD
ATOM     60  C   UNL A   1      45.722  26.598  29.938  1.00  0.00     0.074 A 
ATOM     61  C   UNL A   1      46.167  25.263  29.599  1.00  0.00     0.031 C 
ATOM     62  C   UNL A   1      46.495  27.528  30.550  1.00  0.00     0.037 A 
BRANCH  49  63
ATOM     63  C   UNL A   1      43.692  32.965  31.455  1.00  0.00     0.058 A 
ATOM     64  C   UNL A   1      44.130  34.000  30.613  1.00  0.00     0.135 A 
ATOM     65  C   UNL A   1      43.320  33.302  32.767  1.00  0.00     0.135 A 
ATOM     66  F   UNL A   1      44.514  33.729  29.355  1.00  0.00    -0.206 F 
ATOM     67  C   UNL A   1      44.225  35.312  31.061  1.00  0.00     0.059 A 
ATOM     68  C   UNL A   1      43.381  34.613  33.229  1.00  0.00     0.059 A 
ATOM     69  F   UNL A   1      42.894  32.352  33.614  1.00  0.00    -0.206 F 
ATOM     70  C   UNL A   1      43.850  35.609  32.372  1.00  0.00     0.060 A 
BRANCH  70  71
ATOM     71  S   UNL A   1      43.975  37.318  32.939  1.00  0.00     0.124 S 
ATOM     72  O   UNL A   1      43.872  38.050  31.680  1.00  0.00    -0.237 OA
ATOM     73  O   UNL A   1      42.830  37.436  33.836  1.00  0.00    -0.237 OA
ATOM     74  O   UNL A   1      45.282  37.367  33.587  1.00  0.00    -0.744 OA
ENDBRANCH  70  71
ENDBRANCH  49  63
BRANCH  50  75
ATOM     75  C   UNL A   1      42.677  23.720  27.789  1.00  0.00     0.058 A 
ATOM     76  C   UNL A   1      42.879  23.502  26.418  1.00  0.00     0.135 A 
ATOM     77  C   UNL A   1      42.365  22.610  28.589  1.00  0.00     0.135 A 
ATOM     78  F   UNL A   1      43.175  24.533  25.612  1.00  0.00    -0.206 F 
ATOM     79  C   UNL A   1      42.760  22.235  25.856  1.00  0.00     0.059 A 
ATOM     80  C   UNL A   1      42.263  21.329  28.054  1.00  0.00     0.059 A 
ATOM     81  F   UNL A   1      42.180  22.763  29.909  1.00  0.00    -0.206 F 
ATOM     82  C   UNL A   1      42.452  21.154  26.683  1.00  0.00     0.060 A 
BRANCH  82  83
ATOM     83  S   UNL A   1      42.352  19.505  25.954  1.00  0.00     0.124 S 
ATOM     84  O   UNL A   1      42.856  18.672  27.040  1.00  0.00    -0.237 OA
ATOM     85  O   UNL A   1      40.927  19.382  25.664  1.00  0.00    -0.237 OA
ATOM     86  O   UNL A   1      43.215  19.605  24.781  1.00  0.00    -0.744 OA
ENDBRANCH  82  83
ENDBRANCH  50  75
BRANCH  62  87
ATOM     87  C   UNL A   1      47.893  27.126  30.925  1.00  0.00     0.058 A 
ATOM     88  C   UNL A   1      48.972  27.310  30.048  1.00  0.00     0.135 A 
ATOM     89  C   UNL A   1      48.162  26.600  32.198  1.00  0.00     0.135 A 
ATOM     90  F   UNL A   1      48.766  27.804  28.817  1.00  0.00    -0.206 F 
ATOM     91  C   UNL A   1      50.270  26.969  30.415  1.00  0.00     0.059 A 
ATOM     92  C   UNL A   1      49.456  26.274  32.595  1.00  0.00     0.059 A 
ATOM     93  F   UNL A   1      47.165  26.413  33.078  1.00  0.00    -0.206 F 
ATOM     94  C   UNL A   1      50.502  26.452  31.691  1.00  0.00     0.060 A 
BRANCH  94  95
ATOM     95  S   UNL A   1      52.195  26.048  32.169  1.00  0.00     0.124 S 
ATOM     96  O   UNL A   1      52.161  26.298  33.607  1.00  0.00    -0.237 OA
ATOM     97  O   UNL A   1      52.309  24.649  31.772  1.00  0.00    -0.237 OA
ATOM     98  O   UNL A   1      52.999  26.982  31.387  1.00  0.00    -0.744 OA
ENDBRANCH  94  95
ENDBRANCH  62  87
ENDBRANCH  36  37
ENDBRANCH  28  31
ENDBRANCH  26  27
ENDBRANCH  25  26
ENDBRANCH   1  25
TORSDOF 18
ENDMDL
MODEL 2
REMARK VINA RESULT:      -9.1      4.602      8.093
REMARK SMILES CC(C)(CNC(=O)[C@H]1CCC[C@H](C(=O)NCCCCNC(=O)c2ccc(-c3c4nc(c(-c5c(F)cc(S(=O)(=O)[O-])cc5F)c5ccc([nH]5)c(-c5c(F)cc(S(=O)(=O)[O-])cc5F)c5nc(c(-c6c(F)cc(S(=O)(=O)[O-])cc6F)c6ccc3[nH]6)C=C5)C=C4)cc2)C1)S(C)(=O)=O
REMARK SMILES IDX 17 1 16 2 15 3 13 4 14 5 12 7 8 8 9 9 89 10 10 11 11 12 6 13
REMARK SMILES IDX 5 14 7 16 4 17 2 18 1 19 3 20 90 21 91 22 92 23 93 24 18 25
REMARK SMILES IDX 19 26 20 27 21 28 22 30 23 31 24 32 88 33 25 34 87 35 26 36
REMARK SMILES IDX 27 37 28 38 81 39 29 40 86 41 80 42 82 43 30 44 85 45 79 46
REMARK SMILES IDX 78 47 31 49 65 50 44 51 64 52 45 53 48 54 63 55 83 56 46 57
REMARK SMILES IDX 47 58 62 60 84 61 49 62 32 63 33 64 42 65 34 66 35 67 41 68
REMARK SMILES IDX 43 69 36 70 37 71 38 72 39 73 40 74 66 75 67 76 76 77 68 78
REMARK SMILES IDX 69 79 75 80 77 81 70 82 71 83 72 84 73 85 74 86 50 87 51 88
REMARK SMILES IDX 60 89 52 90 53 91 59 92 61 93 54 94 55 95 56 96 57 97 58 98
REMARK H PARENT 15 6 5 15 20 29 82 48 48 59
REMARK Flexibility Score: inf
ROOT
ATOM      1  C   UNL A   1      34.277  30.711  26.873  1.00  0.00     0.023 C 
ENDROOT
BRANCH   1   2
ATOM      2  C   UNL A   1      34.192  29.214  27.158  1.00  0.00     0.116 C 
BRANCH   2   3
ATOM      3  N   UNL A   1      32.921  28.833  27.749  1.00  0.00    -0.356 N 
ATOM      4  C   UNL A   1      31.974  27.942  27.342  1.00  0.00     0.223 C 
ATOM      5  O   UNL A   1      30.970  27.810  28.045  1.00  0.00    -0.275 OA
ATOM      6  H   UNL A   1      32.707  29.300  28.589  1.00  0.00     0.163 HD
BRANCH   4   7
ATOM      7  C   UNL A   1      32.142  27.122  26.066  1.00  0.00     0.079 C 
ATOM      8  C   UNL A   1      30.853  25.556  24.461  1.00  0.00     0.079 C 
ATOM      9  C   UNL A   1      31.769  24.433  24.962  1.00  0.00     0.013 C 
ATOM     10  C   UNL A   1      30.773  26.663  25.522  1.00  0.00     0.027 C 
ATOM     11  C   UNL A   1      33.184  24.937  25.199  1.00  0.00     0.002 C 
ATOM     12  C   UNL A   1      33.217  26.039  26.243  1.00  0.00     0.013 C 
BRANCH   8  13
ATOM     13  C   UNL A   1      31.292  26.119  23.107  1.00  0.00     0.223 C 
ATOM     14  N   UNL A   1      30.644  27.188  22.565  1.00  0.00    -0.354 N 
ATOM     15  H   UNL A   1      31.003  27.508  21.706  1.00  0.00     0.163 HD
ATOM     16  O   UNL A   1      32.244  25.670  22.469  1.00  0.00    -0.275 OA
BRANCH  14  17
ATOM     17  C   UNL A   1      29.500  27.924  23.070  1.00  0.00     0.138 C 
BRANCH  17  18
ATOM     18  C   UNL A   1      29.588  29.453  22.933  1.00  0.00     0.084 C 
ATOM     19  C   UNL A   1      30.113  30.135  24.203  1.00  0.00     0.030 C 
ATOM     20  C   UNL A   1      30.574  29.749  21.781  1.00  0.00     0.030 C 
BRANCH  18  21
ATOM     21  S   UNL A   1      27.966  30.139  22.443  1.00  0.00     0.154 S 
ATOM     22  C   UNL A   1      27.947  31.857  22.912  1.00  0.00     0.158 C 
ATOM     23  O   UNL A   1      27.897  30.102  20.993  1.00  0.00    -0.229 OA
ATOM     24  O   UNL A   1      26.944  29.472  23.230  1.00  0.00    -0.229 OA
ENDBRANCH  18  21
ENDBRANCH  17  18
ENDBRANCH  14  17
ENDBRANCH   8  13
ENDBRANCH   4   7
ENDBRANCH   2   3
ENDBRANCH   1   2
BRANCH   1  25
ATOM     25  C   UNL A   1      34.489  31.588  28.104  1.00  0.00     0.023 C 
BRANCH  25  26
ATOM     26  C   UNL A   1      35.821  31.392  28.815  1.00  0.00     0.116 C 
BRANCH  26  27
ATOM     27  N   UNL A   1      35.673  30.933  30.188  1.00  0.00    -0.352 N 
ATOM     28  C   UNL A   1      36.599  30.304  30.986  1.00  0.00     0.251 C 
ATOM     29  H   UNL A   1      34.793  31.093  30.601  1.00  0.00     0.163 HD
ATOM     30  O   UNL A   1      36.275  29.873  32.089  1.00  0.00    -0.269 OA
BRANCH  28  31
ATOM     31  C   UNL A   1      37.975  30.121  30.483  1.00  0.00     0.039 A 
ATOM     32  C   UNL A   1      39.017  29.976  31.401  1.00  0.00     0.014 A 
ATOM     33  C   UNL A   1      38.222  30.036  29.110  1.00  0.00     0.014 A 
ATOM     34  C   UNL A   1      40.299  29.669  30.942  1.00  0.00     0.010 A 
ATOM     35  C   UNL A   1      39.483  29.658  28.660  1.00  0.00     0.010 A 
ATOM     36  C   UNL A   1      40.532  29.469  29.571  1.00  0.00    -0.014 A 
BRANCH  36  37
ATOM     37  C   UNL A   1      41.867  29.054  29.069  1.00  0.00     0.031 A 
ATOM     38  C   UNL A   1      42.971  30.066  28.944  1.00  0.00     0.074 A 
ATOM     39  C   UNL A   1      42.057  27.786  28.652  1.00  0.00     0.049 A 
ATOM     40  N   UNL A   1      44.173  29.921  28.451  1.00  0.00    -0.248 NA
ATOM     41  C   UNL A   1      42.674  31.432  29.406  1.00  0.00     0.031 C 
ATOM     42  C   UNL A   1      41.043  26.728  28.666  1.00  0.00     0.029 A 
ATOM     43  N   UNL A   1      43.165  27.175  28.121  1.00  0.00    -0.354 N 
ATOM     44  C   UNL A   1      44.766  31.175  28.523  1.00  0.00     0.074 A 
ATOM     45  C   UNL A   1      43.777  32.080  29.063  1.00  0.00     0.031 C 
ATOM     46  C   UNL A   1      41.582  25.596  28.184  1.00  0.00     0.029 A 
ATOM     47  C   UNL A   1      42.965  25.854  27.795  1.00  0.00     0.049 A 
ATOM     48  H   UNL A   1      44.023  27.640  27.985  1.00  0.00     0.167 HD
ATOM     49  C   UNL A   1      46.030  31.533  28.192  1.00  0.00     0.037 A 
ATOM     50  C   UNL A   1      43.800  24.954  27.239  1.00  0.00     0.037 A 
ATOM     51  C   UNL A   1      47.020  30.618  27.690  1.00  0.00     0.049 A 
ATOM     52  C   UNL A   1      45.207  25.369  26.906  1.00  0.00     0.074 A 
ATOM     53  C   UNL A   1      48.348  30.868  27.391  1.00  0.00     0.029 A 
ATOM     54  N   UNL A   1      46.793  29.279  27.414  1.00  0.00    -0.354 N 
ATOM     55  N   UNL A   1      45.775  26.544  27.047  1.00  0.00    -0.248 NA
ATOM     56  C   UNL A   1      46.091  24.338  26.347  1.00  0.00     0.031 C 
ATOM     57  C   UNL A   1      48.916  29.686  26.903  1.00  0.00     0.029 A 
ATOM     58  C   UNL A   1      47.952  28.691  26.935  1.00  0.00     0.049 A 
ATOM     59  H   UNL A   1      45.934  28.814  27.539  1.00  0.00     0.167 HD
ATOM     60  C   UNL A   1      47.087  26.386  26.616  1.00  0.00     0.074 A 
ATOM     61  C   UNL A   1      47.232  25.001  26.221  1.00  0.00     0.031 C 
ATOM     62  C   UNL A   1      48.081  27.306  26.555  1.00  0.00     0.037 A 
BRANCH  49  63
ATOM     63  C   UNL A   1      46.412  32.976  28.372  1.00  0.00     0.058 A 
ATOM     64  C   UNL A   1      46.250  33.914  27.340  1.00  0.00     0.135 A 
ATOM     65  C   UNL A   1      46.917  33.434  29.600  1.00  0.00     0.135 A 
ATOM     66  F   UNL A   1      45.788  33.526  26.141  1.00  0.00    -0.206 F 
ATOM     67  C   UNL A   1      46.605  35.248  27.507  1.00  0.00     0.059 A 
ATOM     68  C   UNL A   1      47.253  34.769  29.798  1.00  0.00     0.059 A 
ATOM     69  F   UNL A   1      47.091  32.579  30.620  1.00  0.00    -0.206 F 
ATOM     70  C   UNL A   1      47.107  35.666  28.740  1.00  0.00     0.060 A 
BRANCH  70  71
ATOM     71  S   UNL A   1      47.559  37.402  28.944  1.00  0.00     0.124 S 
ATOM     72  O   UNL A   1      47.185  37.638  30.335  1.00  0.00    -0.237 OA
ATOM     73  O   UNL A   1      48.992  37.387  28.667  1.00  0.00    -0.237 OA
ATOM     74  O   UNL A   1      46.739  38.086  27.949  1.00  0.00    -0.744 OA
ENDBRANCH  70  71
ENDBRANCH  49  63
BRANCH  50  75
ATOM     75  C   UNL A   1      43.335  23.565  26.990  1.00  0.00     0.058 A 
ATOM     76  C   UNL A   1      43.007  23.137  25.695  1.00  0.00     0.135 A 
ATOM     77  C   UNL A   1      43.228  22.633  28.034  1.00  0.00     0.135 A 
ATOM     78  F   UNL A   1      43.090  23.992  24.665  1.00  0.00    -0.206 F 
ATOM     79  C   UNL A   1      42.571  21.840  25.445  1.00  0.00     0.059 A 
ATOM     80  C   UNL A   1      42.816  21.323  27.805  1.00  0.00     0.059 A 
ATOM     81  F   UNL A   1      43.548  22.988  29.287  1.00  0.00    -0.206 F 
ATOM     82  C   UNL A   1      42.480  20.939  26.507  1.00  0.00     0.060 A 
BRANCH  82  83
ATOM     83  S   UNL A   1      41.963  19.243  26.165  1.00  0.00     0.124 S 
ATOM     84  O   UNL A   1      42.321  18.571  27.409  1.00  0.00    -0.237 OA
ATOM     85  O   UNL A   1      40.534  19.400  25.912  1.00  0.00    -0.237 OA
ATOM     86  O   UNL A   1      42.761  18.879  24.998  1.00  0.00    -0.744 OA
ENDBRANCH  82  83
ENDBRANCH  50  75
BRANCH  62  87
ATOM     87  C   UNL A   1      49.424  26.839  26.072  1.00  0.00     0.058 A 
ATOM     88  C   UNL A   1      49.823  27.000  24.736  1.00  0.00     0.135 A 
ATOM     89  C   UNL A   1      50.344  26.275  26.969  1.00  0.00     0.135 A 
ATOM     90  F   UNL A   1      48.978  27.528  23.838  1.00  0.00    -0.206 F 
ATOM     91  C   UNL A   1      51.082  26.598  24.302  1.00  0.00     0.059 A 
ATOM     92  C   UNL A   1      51.618  25.888  26.563  1.00  0.00     0.059 A 
ATOM     93  F   UNL A   1      50.015  26.109  28.260  1.00  0.00    -0.206 F 
ATOM     94  C   UNL A   1      51.974  26.044  25.224  1.00  0.00     0.060 A 
BRANCH  94  95
ATOM     95  S   UNL A   1      53.618  25.562  24.658  1.00  0.00     0.124 S 
ATOM     96  O   UNL A   1      53.642  26.124  23.312  1.00  0.00    -0.237 OA
ATOM     97  O   UNL A   1      54.489  26.213  25.632  1.00  0.00    -0.237 OA
ATOM     98  O   UNL A   1      53.588  24.105  24.731  1.00  0.00    -0.744 OA
ENDBRANCH  94  95
ENDBRANCH  62  87
ENDBRANCH  36  37
ENDBRANCH  28  31
ENDBRANCH  26  27
ENDBRANCH  25  26
ENDBRANCH   1  25
TORSDOF 18
ENDMDL
MODEL 3
REMARK VINA RESULT:      -8.8      4.443      7.577
REMARK SMILES CC(C)(CNC(=O)[C@H]1CCC[C@H](C(=O)NCCCCNC(=O)c2ccc(-c3c4nc(c(-c5c(F)cc(S(=O)(=O)[O-])cc5F)c5ccc([nH]5)c(-c5c(F)cc(S(=O)(=O)[O-])cc5F)c5nc(c(-c6c(F)cc(S(=O)(=O)[O-])cc6F)c6ccc3[nH]6)C=C5)C=C4)cc2)C1)S(C)(=O)=O
REMARK SMILES IDX 17 1 16 2 15 3 13 4 14 5 12 7 8 8 9 9 89 10 10 11 11 12 6 13
REMARK SMILES IDX 5 14 7 16 4 17 2 18 1 19 3 20 90 21 91 22 92 23 93 24 18 25
REMARK SMILES IDX 19 26 20 27 21 28 22 30 23 31 24 32 88 33 25 34 87 35 26 36
REMARK SMILES IDX 27 37 28 38 81 39 29 40 86 41 80 42 82 43 30 44 85 45 79 46
REMARK SMILES IDX 78 47 31 49 65 50 44 51 64 52 45 53 48 54 63 55 83 56 46 57
REMARK SMILES IDX 47 58 62 60 84 61 49 62 32 63 33 64 42 65 34 66 35 67 41 68
REMARK SMILES IDX 43 69 36 70 37 71 38 72 39 73 40 74 66 75 67 76 76 77 68 78
REMARK SMILES IDX 69 79 75 80 77 81 70 82 71 83 72 84 73 85 74 86 50 87 51 88
REMARK SMILES IDX 60 89 52 90 53 91 59 92 61 93 54 94 55 95 56 96 57 97 58 98
REMARK H PARENT 15 6 5 15 20 29 82 48 48 59
REMARK Flexibility Score: inf
ROOT
ATOM      1  C   UNL A   1      33.402  29.917  27.059  1.00  0.00     0.023 C 
ENDROOT
BRANCH   1   2
ATOM      2  C   UNL A   1      33.237  29.536  25.590  1.00  0.00     0.116 C 
BRANCH   2   3
ATOM      3  N   UNL A   1      31.978  30.001  25.034  1.00  0.00    -0.356 N 
ATOM      4  C   UNL A   1      31.036  29.359  24.289  1.00  0.00     0.223 C 
ATOM      5  O   UNL A   1      30.042  30.002  23.942  1.00  0.00    -0.275 OA
ATOM      6  H   UNL A   1      31.770  30.943  25.230  1.00  0.00     0.163 HD
BRANCH   4   7
ATOM      7  C   UNL A   1      31.188  27.892  23.896  1.00  0.00     0.079 C 
ATOM      8  C   UNL A   1      31.828  25.578  24.857  1.00  0.00     0.079 C 
ATOM      9  C   UNL A   1      33.071  25.649  23.963  1.00  0.00     0.013 C 
ATOM     10  C   UNL A   1      31.325  26.999  25.148  1.00  0.00     0.027 C 
ATOM     11  C   UNL A   1      32.756  26.300  22.625  1.00  0.00     0.002 C 
ATOM     12  C   UNL A   1      32.250  27.721  22.801  1.00  0.00     0.013 C 
BRANCH   8  13
ATOM     13  C   UNL A   1      30.718  24.709  24.260  1.00  0.00     0.223 C 
ATOM     14  N   UNL A   1      30.716  23.361  24.465  1.00  0.00    -0.354 N 
ATOM     15  H   UNL A   1      29.955  22.877  24.072  1.00  0.00     0.163 HD
ATOM     16  O   UNL A   1      29.780  25.169  23.610  1.00  0.00    -0.275 OA
BRANCH  14  17
ATOM     17  C   UNL A   1      31.674  22.537  25.178  1.00  0.00     0.138 C 
BRANCH  17  18
ATOM     18  C   UNL A   1      32.615  21.706  24.291  1.00  0.00     0.084 C 
ATOM     19  C   UNL A   1      32.387  20.196  24.433  1.00  0.00     0.030 C 
ATOM     20  C   UNL A   1      32.328  22.103  22.826  1.00  0.00     0.030 C 
BRANCH  18  21
ATOM     21  S   UNL A   1      34.357  22.141  24.635  1.00  0.00     0.154 S 
ATOM     22  C   UNL A   1      35.230  20.627  24.977  1.00  0.00     0.158 C 
ATOM     23  O   UNL A   1      34.922  22.679  23.410  1.00  0.00    -0.229 OA
ATOM     24  O   UNL A   1      34.387  22.934  25.851  1.00  0.00    -0.229 OA
ENDBRANCH  18  21
ENDBRANCH  17  18
ENDBRANCH  14  17
ENDBRANCH   8  13
ENDBRANCH   4   7
ENDBRANCH   2   3
ENDBRANCH   1   2
BRANCH   1  25
ATOM     25  C   UNL A   1      34.665  30.713  27.378  1.00  0.00     0.023 C 
BRANCH  25  26
ATOM     26  C   UNL A   1      35.633  30.032  28.336  1.00  0.00     0.116 C 
BRANCH  26  27
ATOM     27  N   UNL A   1      35.491  30.488  29.711  1.00  0.00    -0.352 N 
ATOM     28  C   UNL A   1      36.466  30.633  30.669  1.00  0.00     0.251 C 
ATOM     29  H   UNL A   1      34.578  30.724  29.992  1.00  0.00     0.163 HD
ATOM     30  O   UNL A   1      36.161  30.919  31.823  1.00  0.00    -0.269 OA
BRANCH  28  31
ATOM     31  C   UNL A   1      37.877  30.404  30.301  1.00  0.00     0.039 A 
ATOM     32  C   UNL A   1      38.762  29.933  31.273  1.00  0.00     0.014 A 
ATOM     33  C   UNL A   1      38.306  30.597  28.985  1.00  0.00     0.014 A 
ATOM     34  C   UNL A   1      40.063  29.585  30.908  1.00  0.00     0.010 A 
ATOM     35  C   UNL A   1      39.579  30.181  28.609  1.00  0.00     0.010 A 
ATOM     36  C   UNL A   1      40.469  29.669  29.565  1.00  0.00    -0.014 A 
BRANCH  36  37
ATOM     37  C   UNL A   1      41.818  29.220  29.137  1.00  0.00     0.031 A 
ATOM     38  C   UNL A   1      42.951  30.204  29.071  1.00  0.00     0.074 A 
ATOM     39  C   UNL A   1      41.999  27.946  28.735  1.00  0.00     0.049 A 
ATOM     40  N   UNL A   1      44.175  30.028  28.645  1.00  0.00    -0.248 NA
ATOM     41  C   UNL A   1      42.663  31.579  29.513  1.00  0.00     0.031 C 
ATOM     42  C   UNL A   1      40.961  26.913  28.697  1.00  0.00     0.029 A 
ATOM     43  N   UNL A   1      43.120  27.306  28.267  1.00  0.00    -0.354 N 
ATOM     44  C   UNL A   1      44.794  31.267  28.746  1.00  0.00     0.074 A 
ATOM     45  C   UNL A   1      43.799  32.199  29.229  1.00  0.00     0.031 C 
ATOM     46  C   UNL A   1      41.498  25.767  28.247  1.00  0.00     0.029 A 
ATOM     47  C   UNL A   1      42.906  25.989  27.934  1.00  0.00     0.049 A 
ATOM     48  H   UNL A   1      43.995  27.749  28.178  1.00  0.00     0.167 HD
ATOM     49  C   UNL A   1      46.082  31.594  28.484  1.00  0.00     0.037 A 
ATOM     50  C   UNL A   1      43.748  25.067  27.428  1.00  0.00     0.037 A 
ATOM     51  C   UNL A   1      47.076  30.653  28.039  1.00  0.00     0.049 A 
ATOM     52  C   UNL A   1      45.180  25.446  27.170  1.00  0.00     0.074 A 
ATOM     53  C   UNL A   1      48.424  30.869  27.813  1.00  0.00     0.029 A 
ATOM     54  N   UNL A   1      46.831  29.318  27.754  1.00  0.00    -0.354 N 
ATOM     55  N   UNL A   1      45.768  26.608  27.340  1.00  0.00    -0.248 NA
ATOM     56  C   UNL A   1      46.068  24.392  26.664  1.00  0.00     0.031 C 
ATOM     57  C   UNL A   1      48.989  29.672  27.360  1.00  0.00     0.029 A 
ATOM     58  C   UNL A   1      48.000  28.701  27.342  1.00  0.00     0.049 A 
ATOM     59  H   UNL A   1      45.956  28.875  27.834  1.00  0.00     0.167 HD
ATOM     60  C   UNL A   1      47.098  26.417  26.982  1.00  0.00     0.074 A 
ATOM     61  C   UNL A   1      47.230  25.027  26.599  1.00  0.00     0.031 C 
ATOM     62  C   UNL A   1      48.115  27.312  26.973  1.00  0.00     0.037 A 
BRANCH  49  63
ATOM     63  C   UNL A   1      46.489  33.028  28.681  1.00  0.00     0.058 A 
ATOM     64  C   UNL A   1      46.416  33.963  27.637  1.00  0.00     0.135 A 
ATOM     65  C   UNL A   1      46.928  33.480  29.936  1.00  0.00     0.135 A 
ATOM     66  F   UNL A   1      46.019  33.580  26.413  1.00  0.00    -0.206 F 
ATOM     67  C   UNL A   1      46.793  35.289  27.819  1.00  0.00     0.059 A 
ATOM     68  C   UNL A   1      47.285  34.808  30.149  1.00  0.00     0.059 A 
ATOM     69  F   UNL A   1      47.017  32.627  30.968  1.00  0.00    -0.206 F 
ATOM     70  C   UNL A   1      47.229  35.701  29.080  1.00  0.00     0.060 A 
BRANCH  70  71
ATOM     71  S   UNL A   1      47.711  37.427  29.303  1.00  0.00     0.124 S 
ATOM     72  O   UNL A   1      48.469  37.677  28.081  1.00  0.00    -0.237 OA
ATOM     73  O   UNL A   1      46.422  38.103  29.399  1.00  0.00    -0.237 OA
ATOM     74  O   UNL A   1      48.496  37.403  30.534  1.00  0.00    -0.744 OA
ENDBRANCH  70  71
ENDBRANCH  49  63
BRANCH  50  75
ATOM     75  C   UNL A   1      43.263  23.688  27.157  1.00  0.00     0.058 A 
ATOM     76  C   UNL A   1      42.948  23.279  25.853  1.00  0.00     0.135 A 
ATOM     77  C   UNL A   1      43.124  22.749  28.190  1.00  0.00     0.135 A 
ATOM     78  F   UNL A   1      43.061  24.143  24.833  1.00  0.00    -0.206 F 
ATOM     79  C   UNL A   1      42.494  21.992  25.583  1.00  0.00     0.059 A 
ATOM     80  C   UNL A   1      42.693  21.448  27.941  1.00  0.00     0.059 A 
ATOM     81  F   UNL A   1      43.430  23.085  29.451  1.00  0.00    -0.206 F 
ATOM     82  C   UNL A   1      42.371  21.083  26.634  1.00  0.00     0.060 A 
BRANCH  82  83
ATOM     83  S   UNL A   1      41.831  19.399  26.266  1.00  0.00     0.124 S 
ATOM     84  O   UNL A   1      42.231  18.692  27.477  1.00  0.00    -0.237 OA
ATOM     85  O   UNL A   1      40.395  19.571  26.072  1.00  0.00    -0.237 OA
ATOM     86  O   UNL A   1      42.582  19.063  25.060  1.00  0.00    -0.744 OA
ENDBRANCH  82  83
ENDBRANCH  50  75
BRANCH  62  87
ATOM     87  C   UNL A   1      49.472  26.811  26.565  1.00  0.00     0.058 A 
ATOM     88  C   UNL A   1      50.368  26.268  27.499  1.00  0.00     0.135 A 
ATOM     89  C   UNL A   1      49.857  26.824  25.215  1.00  0.00     0.135 A 
ATOM     90  F   UNL A   1      50.049  26.239  28.802  1.00  0.00    -0.206 F 
ATOM     91  C   UNL A   1      51.608  25.772  27.110  1.00  0.00     0.059 A 
ATOM     92  C   UNL A   1      51.082  26.311  24.801  1.00  0.00     0.059 A 
ATOM     93  F   UNL A   1      49.031  27.323  24.281  1.00  0.00    -0.206 F 
ATOM     94  C   UNL A   1      51.956  25.797  25.758  1.00  0.00     0.060 A 
BRANCH  94  95
ATOM     95  S   UNL A   1      53.551  25.116  25.260  1.00  0.00     0.124 S 
ATOM     96  O   UNL A   1      53.751  25.754  23.963  1.00  0.00    -0.237 OA
ATOM     97  O   UNL A   1      54.434  25.568  26.331  1.00  0.00    -0.237 OA
ATOM     98  O   UNL A   1      53.309  23.677  25.222  1.00  0.00    -0.744 OA
ENDBRANCH  94  95
ENDBRANCH  62  87
ENDBRANCH  36  37
ENDBRANCH  28  31
ENDBRANCH  26  27
ENDBRANCH  25  26
ENDBRANCH   1  25
TORSDOF 18
ENDMDL
