MODEL 1
REMARK VINA RESULT:     -12.5      0.000      0.000
REMARK SMILES O=C(NCCCCNC(=O)C1(Cc2ccncc2)Cc2ccccc2C1)c1ccc(-c2c3nc(c(-c4c(F)cc(S(=O)(=O)[O-])cc4F)c4ccc([nH]4)c(-c4c(F)cc(S(=O)(=O)[O-])cc4F)c4nc(c(-c5c(F)cc(S(=O)(=O)[O-])cc5F)c5ccc2[nH]5)C=C4)C=C3)cc1
REMARK SMILES IDX 5 1 4 2 3 3 1 4 2 5 27 7 28 8 92 9 29 10 91 11 30 12 31 13
REMARK SMILES IDX 32 14 85 15 33 16 90 17 84 18 86 19 34 20 89 21 83 22 82 23
REMARK SMILES IDX 35 25 69 26 48 27 68 28 49 29 52 30 67 31 87 32 50 33 51 34
REMARK SMILES IDX 66 36 88 37 53 38 36 39 37 40 46 41 38 42 39 43 45 44 47 45
REMARK SMILES IDX 40 46 41 47 42 48 43 49 44 50 70 51 71 52 80 53 72 54 73 55
REMARK SMILES IDX 79 56 81 57 74 58 75 59 76 60 77 61 78 62 54 63 55 64 64 65
REMARK SMILES IDX 56 66 57 67 63 68 65 69 58 70 59 71 60 72 61 73 62 74 6 75
REMARK SMILES IDX 7 76 8 77 9 78 10 80 11 81 19 82 26 83 20 84 25 85 21 86
REMARK SMILES IDX 24 87 22 88 23 89 12 90 13 91 14 92 18 93 15 94 17 95 16 96
REMARK H PARENT 3 6 86 24 52 35 8 79
REMARK Flexibility Score: inf
ROOT
ATOM      1  C   UNL A   1      40.567  22.100  27.230  1.00  0.00     0.023 C 
ENDROOT
BRANCH   1   2
ATOM      2  C   UNL A   1      41.702  23.115  27.213  1.00  0.00     0.116 C 
BRANCH   2   3
ATOM      3  N   UNL A   1      41.669  24.005  26.062  1.00  0.00    -0.352 N 
ATOM      4  O   UNL A   1      41.395  25.985  25.000  1.00  0.00    -0.269 OA
ATOM      5  C   UNL A   1      41.500  25.370  26.058  1.00  0.00     0.251 C 
ATOM      6  H   UNL A   1      41.781  23.579  25.181  1.00  0.00     0.163 HD
BRANCH   5   7
ATOM      7  C   UNL A   1      41.397  26.072  27.352  1.00  0.00     0.039 A 
ATOM      8  C   UNL A   1      40.236  25.958  28.120  1.00  0.00     0.014 A 
ATOM      9  C   UNL A   1      42.436  26.915  27.754  1.00  0.00     0.014 A 
ATOM     10  C   UNL A   1      40.050  26.803  29.206  1.00  0.00     0.010 A 
ATOM     11  C   UNL A   1      42.276  27.708  28.893  1.00  0.00     0.010 A 
ATOM     12  C   UNL A   1      41.064  27.693  29.600  1.00  0.00    -0.014 A 
BRANCH  12  13
ATOM     13  C   UNL A   1      40.830  28.586  30.761  1.00  0.00     0.031 A 
ATOM     14  C   UNL A   1      41.715  28.527  31.975  1.00  0.00     0.074 A 
ATOM     15  C   UNL A   1      39.835  29.492  30.688  1.00  0.00     0.049 A 
ATOM     16  N   UNL A   1      41.679  29.263  33.056  1.00  0.00    -0.248 NA
ATOM     17  C   UNL A   1      42.775  27.506  31.983  1.00  0.00     0.031 C 
ATOM     18  C   UNL A   1      38.908  29.634  29.562  1.00  0.00     0.029 A 
ATOM     19  N   UNL A   1      39.457  30.481  31.557  1.00  0.00    -0.354 N 
ATOM     20  C   UNL A   1      42.683  28.777  33.886  1.00  0.00     0.074 A 
ATOM     21  C   UNL A   1      43.306  27.674  33.187  1.00  0.00     0.031 C 
ATOM     22  C   UNL A   1      38.104  30.684  29.786  1.00  0.00     0.029 A 
ATOM     23  C   UNL A   1      38.425  31.257  31.088  1.00  0.00     0.049 A 
ATOM     24  H   UNL A   1      39.882  30.621  32.435  1.00  0.00     0.167 HD
ATOM     25  C   UNL A   1      43.052  29.215  35.114  1.00  0.00     0.037 A 
ATOM     26  C   UNL A   1      37.805  32.314  31.643  1.00  0.00     0.037 A 
ATOM     27  C   UNL A   1      42.449  30.337  35.788  1.00  0.00     0.049 A 
ATOM     28  C   UNL A   1      38.253  32.798  32.991  1.00  0.00     0.074 A 
ATOM     29  C   UNL A   1      42.773  30.879  37.020  1.00  0.00     0.029 A 
ATOM     30  N   UNL A   1      41.401  31.094  35.284  1.00  0.00    -0.354 N 
ATOM     31  N   UNL A   1      39.216  32.334  33.753  1.00  0.00    -0.248 NA
ATOM     32  C   UNL A   1      37.534  33.947  33.554  1.00  0.00     0.031 C 
ATOM     33  C   UNL A   1      41.903  31.948  37.271  1.00  0.00     0.029 A 
ATOM     34  C   UNL A   1      41.060  32.092  36.182  1.00  0.00     0.049 A 
ATOM     35  H   UNL A   1      40.963  30.943  34.415  1.00  0.00     0.167 HD
ATOM     36  C   UNL A   1      39.226  33.144  34.882  1.00  0.00     0.074 A 
ATOM     37  C   UNL A   1      38.186  34.135  34.694  1.00  0.00     0.031 C 
ATOM     38  C   UNL A   1      40.024  33.071  35.974  1.00  0.00     0.037 A 
BRANCH  25  39
ATOM     39  C   UNL A   1      44.146  28.466  35.823  1.00  0.00     0.058 A 
ATOM     40  C   UNL A   1      45.500  28.795  35.652  1.00  0.00     0.135 A 
ATOM     41  C   UNL A   1      43.833  27.422  36.709  1.00  0.00     0.135 A 
ATOM     42  F   UNL A   1      45.856  29.772  34.803  1.00  0.00    -0.206 F 
ATOM     43  C   UNL A   1      46.507  28.099  36.316  1.00  0.00     0.059 A 
ATOM     44  C   UNL A   1      44.822  26.728  37.400  1.00  0.00     0.059 A 
ATOM     45  F   UNL A   1      42.554  27.068  36.909  1.00  0.00    -0.206 F 
ATOM     46  C   UNL A   1      46.157  27.063  37.184  1.00  0.00     0.060 A 
BRANCH  46  47
ATOM     47  S   UNL A   1      47.471  26.164  38.036  1.00  0.00     0.124 S 
ATOM     48  O   UNL A   1      47.588  24.969  37.206  1.00  0.00    -0.237 OA
ATOM     49  O   UNL A   1      48.592  27.097  37.964  1.00  0.00    -0.237 OA
ATOM     50  O   UNL A   1      46.924  25.950  39.372  1.00  0.00    -0.744 OA
ENDBRANCH  46  47
ENDBRANCH  25  39
BRANCH  26  51
ATOM     51  C   UNL A   1      36.709  32.992  30.906  1.00  0.00     0.058 A 
ATOM     52  C   UNL A   1      35.374  32.837  31.303  1.00  0.00     0.135 A 
ATOM     53  C   UNL A   1      36.979  33.841  29.821  1.00  0.00     0.135 A 
ATOM     54  F   UNL A   1      35.068  32.035  32.334  1.00  0.00    -0.206 F 
ATOM     55  C   UNL A   1      34.340  33.496  30.646  1.00  0.00     0.059 A 
ATOM     56  C   UNL A   1      35.966  34.527  29.164  1.00  0.00     0.059 A 
ATOM     57  F   UNL A   1      38.246  34.034  29.419  1.00  0.00    -0.206 F 
ATOM     58  C   UNL A   1      34.648  34.341  29.578  1.00  0.00     0.060 A 
BRANCH  58  59
ATOM     59  S   UNL A   1      33.310  35.247  28.771  1.00  0.00     0.124 S 
ATOM     60  O   UNL A   1      34.050  36.237  28.000  1.00  0.00    -0.237 OA
ATOM     61  O   UNL A   1      32.648  34.200  27.998  1.00  0.00    -0.237 OA
ATOM     62  O   UNL A   1      32.536  35.767  29.894  1.00  0.00    -0.744 OA
ENDBRANCH  58  59
ENDBRANCH  26  51
BRANCH  38  63
ATOM     63  C   UNL A   1      39.818  34.113  37.035  1.00  0.00     0.058 A 
ATOM     64  C   UNL A   1      39.020  33.865  38.162  1.00  0.00     0.135 A 
ATOM     65  C   UNL A   1      40.439  35.367  36.928  1.00  0.00     0.135 A 
ATOM     66  F   UNL A   1      38.399  32.684  38.303  1.00  0.00    -0.206 F 
ATOM     67  C   UNL A   1      38.819  34.837  39.135  1.00  0.00     0.059 A 
ATOM     68  C   UNL A   1      40.269  36.348  37.900  1.00  0.00     0.059 A 
ATOM     69  F   UNL A   1      41.219  35.649  35.874  1.00  0.00    -0.206 F 
ATOM     70  C   UNL A   1      39.444  36.078  38.993  1.00  0.00     0.060 A 
BRANCH  70  71
ATOM     71  S   UNL A   1      39.189  37.334  40.264  1.00  0.00     0.124 S 
ATOM     72  O   UNL A   1      40.559  37.751  40.544  1.00  0.00    -0.237 OA
ATOM     73  O   UNL A   1      38.355  38.316  39.579  1.00  0.00    -0.237 OA
ATOM     74  O   UNL A   1      38.525  36.598  41.335  1.00  0.00    -0.744 OA
ENDBRANCH  70  71
ENDBRANCH  38  63
ENDBRANCH  12  13
ENDBRANCH   5   7
ENDBRANCH   2   3
ENDBRANCH   1   2
BRANCH   1  75
ATOM     75  C   UNL A   1      39.204  22.656  26.819  1.00  0.00     0.023 C 
BRANCH  75  76
ATOM     76  C   UNL A   1      38.521  21.888  25.685  1.00  0.00     0.116 C 
BRANCH  76  77
ATOM     77  N   UNL A   1      37.730  22.777  24.856  1.00  0.00    -0.356 N 
ATOM     78  C   UNL A   1      36.420  22.770  24.502  1.00  0.00     0.227 C 
ATOM     79  H   UNL A   1      38.241  23.528  24.476  1.00  0.00     0.163 HD
ATOM     80  O   UNL A   1      36.059  23.705  23.775  1.00  0.00    -0.274 OA
BRANCH  78  81
ATOM     81  C   UNL A   1      35.379  21.774  25.041  1.00  0.00     0.061 C 
ATOM     82  C   UNL A   1      34.159  21.846  24.047  1.00  0.00     0.053 C 
ATOM     83  C   UNL A   1      35.770  20.276  25.030  1.00  0.00     0.053 C 
ATOM     84  C   UNL A   1      33.611  20.454  24.053  1.00  0.00    -0.044 A 
ATOM     85  C   UNL A   1      34.517  19.568  24.625  1.00  0.00    -0.044 A 
ATOM     86  C   UNL A   1      32.425  20.000  23.503  1.00  0.00     0.004 A 
ATOM     87  C   UNL A   1      34.263  18.207  24.674  1.00  0.00     0.004 A 
ATOM     88  C   UNL A   1      32.153  18.630  23.549  1.00  0.00     0.000 A 
ATOM     89  C   UNL A   1      33.066  17.739  24.134  1.00  0.00     0.000 A 
BRANCH  81  90
ATOM     90  C   UNL A   1      34.895  22.265  26.439  1.00  0.00     0.053 C 
BRANCH  90  91
ATOM     91  C   UNL A   1      33.638  23.104  26.477  1.00  0.00    -0.044 A 
ATOM     92  C   UNL A   1      33.664  24.457  26.125  1.00  0.00     0.024 A 
ATOM     93  C   UNL A   1      32.412  22.545  26.847  1.00  0.00     0.024 A 
ATOM     94  C   UNL A   1      32.490  25.191  26.193  1.00  0.00     0.111 A 
ATOM     95  C   UNL A   1      31.289  23.357  26.877  1.00  0.00     0.111 A 
ATOM     96  N   UNL A   1      31.303  24.670  26.568  1.00  0.00    -0.265 NA
ENDBRANCH  90  91
ENDBRANCH  81  90
ENDBRANCH  78  81
ENDBRANCH  76  77
ENDBRANCH  75  76
ENDBRANCH   1  75
TORSDOF 16
ENDMDL
MODEL 2
REMARK VINA RESULT:     -12.5      3.078      9.379
REMARK SMILES O=C(NCCCCNC(=O)C1(Cc2ccncc2)Cc2ccccc2C1)c1ccc(-c2c3nc(c(-c4c(F)cc(S(=O)(=O)[O-])cc4F)c4ccc([nH]4)c(-c4c(F)cc(S(=O)(=O)[O-])cc4F)c4nc(c(-c5c(F)cc(S(=O)(=O)[O-])cc5F)c5ccc2[nH]5)C=C4)C=C3)cc1
REMARK SMILES IDX 5 1 4 2 3 3 1 4 2 5 27 7 28 8 92 9 29 10 91 11 30 12 31 13
REMARK SMILES IDX 32 14 85 15 33 16 90 17 84 18 86 19 34 20 89 21 83 22 82 23
REMARK SMILES IDX 35 25 69 26 48 27 68 28 49 29 52 30 67 31 87 32 50 33 51 34
REMARK SMILES IDX 66 36 88 37 53 38 36 39 37 40 46 41 38 42 39 43 45 44 47 45
REMARK SMILES IDX 40 46 41 47 42 48 43 49 44 50 70 51 71 52 80 53 72 54 73 55
REMARK SMILES IDX 79 56 81 57 74 58 75 59 76 60 77 61 78 62 54 63 55 64 64 65
REMARK SMILES IDX 56 66 57 67 63 68 65 69 58 70 59 71 60 72 61 73 62 74 6 75
REMARK SMILES IDX 7 76 8 77 9 78 10 80 11 81 19 82 26 83 20 84 25 85 21 86
REMARK SMILES IDX 24 87 22 88 23 89 12 90 13 91 14 92 18 93 15 94 17 95 16 96
REMARK H PARENT 3 6 86 24 52 35 8 79
REMARK Flexibility Score: inf
ROOT
ATOM      1  C   UNL A   1      35.626  23.487  26.160  1.00  0.00     0.023 C 
ENDROOT
BRANCH   1   2
ATOM      2  C   UNL A   1      36.770  23.784  25.200  1.00  0.00     0.116 C 
BRANCH   2   3
ATOM      3  N   UNL A   1      37.874  22.842  25.302  1.00  0.00    -0.352 N 
ATOM      4  O   UNL A   1      39.958  22.169  25.875  1.00  0.00    -0.269 OA
ATOM      5  C   UNL A   1      39.073  23.016  25.954  1.00  0.00     0.251 C 
ATOM      6  H   UNL A   1      37.748  21.975  24.850  1.00  0.00     0.163 HD
BRANCH   5   7
ATOM      7  C   UNL A   1      39.291  24.267  26.707  1.00  0.00     0.039 A 
ATOM      8  C   UNL A   1      40.073  25.286  26.161  1.00  0.00     0.014 A 
ATOM      9  C   UNL A   1      38.777  24.380  28.001  1.00  0.00     0.014 A 
ATOM     10  C   UNL A   1      40.471  26.346  26.964  1.00  0.00     0.010 A 
ATOM     11  C   UNL A   1      39.117  25.488  28.780  1.00  0.00     0.010 A 
ATOM     12  C   UNL A   1      40.004  26.456  28.284  1.00  0.00    -0.014 A 
BRANCH  12  13
ATOM     13  C   UNL A   1      40.454  27.599  29.116  1.00  0.00     0.031 A 
ATOM     14  C   UNL A   1      39.562  28.789  29.345  1.00  0.00     0.074 A 
ATOM     15  C   UNL A   1      41.661  27.529  29.711  1.00  0.00     0.049 A 
ATOM     16  N   UNL A   1      39.780  29.850  30.079  1.00  0.00    -0.248 NA
ATOM     17  C   UNL A   1      38.262  28.794  28.658  1.00  0.00     0.031 C 
ATOM     18  C   UNL A   1      42.614  26.427  29.553  1.00  0.00     0.029 A 
ATOM     19  N   UNL A   1      42.281  28.382  30.585  1.00  0.00    -0.354 N 
ATOM     20  C   UNL A   1      38.664  30.664  29.917  1.00  0.00     0.074 A 
ATOM     21  C   UNL A   1      37.774  29.978  29.006  1.00  0.00     0.031 C 
ATOM     22  C   UNL A   1      43.672  26.644  30.347  1.00  0.00     0.029 A 
ATOM     23  C   UNL A   1      43.497  27.921  31.030  1.00  0.00     0.049 A 
ATOM     24  H   UNL A   1      41.894  29.243  30.866  1.00  0.00     0.167 HD
ATOM     25  C   UNL A   1      38.407  31.869  30.481  1.00  0.00     0.037 A 
ATOM     26  C   UNL A   1      44.373  28.465  31.893  1.00  0.00     0.037 A 
ATOM     27  C   UNL A   1      39.284  32.529  31.415  1.00  0.00     0.049 A 
ATOM     28  C   UNL A   1      44.051  29.786  32.527  1.00  0.00     0.074 A 
ATOM     29  C   UNL A   1      39.098  33.737  32.066  1.00  0.00     0.029 A 
ATOM     30  N   UNL A   1      40.510  32.035  31.836  1.00  0.00    -0.354 N 
ATOM     31  N   UNL A   1      42.983  30.533  32.372  1.00  0.00    -0.248 NA
ATOM     32  C   UNL A   1      45.048  30.338  33.451  1.00  0.00     0.031 C 
ATOM     33  C   UNL A   1      40.224  33.983  32.862  1.00  0.00     0.029 A 
ATOM     34  C   UNL A   1      41.095  32.915  32.731  1.00  0.00     0.049 A 
ATOM     35  H   UNL A   1      40.906  31.183  31.541  1.00  0.00     0.167 HD
ATOM     36  C   UNL A   1      43.174  31.639  33.191  1.00  0.00     0.074 A 
ATOM     37  C   UNL A   1      44.452  31.454  33.850  1.00  0.00     0.031 C 
ATOM     38  C   UNL A   1      42.366  32.710  33.378  1.00  0.00     0.037 A 
BRANCH  25  39
ATOM     39  C   UNL A   1      37.134  32.566  30.087  1.00  0.00     0.058 A 
ATOM     40  C   UNL A   1      35.912  32.288  30.717  1.00  0.00     0.135 A 
ATOM     41  C   UNL A   1      37.145  33.550  29.084  1.00  0.00     0.135 A 
ATOM     42  F   UNL A   1      35.842  31.345  31.670  1.00  0.00    -0.206 F 
ATOM     43  C   UNL A   1      34.739  32.942  30.350  1.00  0.00     0.059 A 
ATOM     44  C   UNL A   1      35.989  34.231  28.716  1.00  0.00     0.059 A 
ATOM     45  F   UNL A   1      38.288  33.855  28.450  1.00  0.00    -0.206 F 
ATOM     46  C   UNL A   1      34.787  33.909  29.344  1.00  0.00     0.060 A 
BRANCH  46  47
ATOM     47  S   UNL A   1      33.260  34.748  28.872  1.00  0.00     0.124 S 
ATOM     48  O   UNL A   1      32.579  34.855  30.159  1.00  0.00    -0.237 OA
ATOM     49  O   UNL A   1      33.748  36.002  28.308  1.00  0.00    -0.237 OA
ATOM     50  O   UNL A   1      32.650  33.830  27.914  1.00  0.00    -0.744 OA
ENDBRANCH  46  47
ENDBRANCH  25  39
BRANCH  26  51
ATOM     51  C   UNL A   1      45.629  27.741  32.217  1.00  0.00     0.058 A 
ATOM     52  C   UNL A   1      45.662  26.780  33.236  1.00  0.00     0.135 A 
ATOM     53  C   UNL A   1      46.805  27.964  31.483  1.00  0.00     0.135 A 
ATOM     54  F   UNL A   1      44.562  26.535  33.964  1.00  0.00    -0.206 F 
ATOM     55  C   UNL A   1      46.820  26.068  33.525  1.00  0.00     0.059 A 
ATOM     56  C   UNL A   1      47.968  27.248  31.738  1.00  0.00     0.059 A 
ATOM     57  F   UNL A   1      46.814  28.861  30.484  1.00  0.00    -0.206 F 
ATOM     58  C   UNL A   1      47.969  26.308  32.767  1.00  0.00     0.060 A 
BRANCH  58  59
ATOM     59  S   UNL A   1      49.452  25.333  33.101  1.00  0.00     0.124 S 
ATOM     60  O   UNL A   1      49.885  24.989  31.753  1.00  0.00    -0.237 OA
ATOM     61  O   UNL A   1      50.294  26.283  33.820  1.00  0.00    -0.237 OA
ATOM     62  O   UNL A   1      48.946  24.224  33.906  1.00  0.00    -0.744 OA
ENDBRANCH  58  59
ENDBRANCH  26  51
BRANCH  38  63
ATOM     63  C   UNL A   1      42.832  33.747  34.358  1.00  0.00     0.058 A 
ATOM     64  C   UNL A   1      42.538  33.649  35.727  1.00  0.00     0.135 A 
ATOM     65  C   UNL A   1      43.595  34.842  33.924  1.00  0.00     0.135 A 
ATOM     66  F   UNL A   1      41.804  32.624  36.188  1.00  0.00    -0.206 F 
ATOM     67  C   UNL A   1      42.959  34.619  36.630  1.00  0.00     0.059 A 
ATOM     68  C   UNL A   1      44.045  35.813  34.812  1.00  0.00     0.059 A 
ATOM     69  F   UNL A   1      43.910  34.975  32.626  1.00  0.00    -0.206 F 
ATOM     70  C   UNL A   1      43.709  35.701  36.161  1.00  0.00     0.060 A 
BRANCH  70  71
ATOM     71  S   UNL A   1      44.262  36.952  37.339  1.00  0.00     0.124 S 
ATOM     72  O   UNL A   1      43.139  36.994  38.270  1.00  0.00    -0.237 OA
ATOM     73  O   UNL A   1      45.497  36.373  37.861  1.00  0.00    -0.237 OA
ATOM     74  O   UNL A   1      44.437  38.140  36.511  1.00  0.00    -0.744 OA
ENDBRANCH  70  71
ENDBRANCH  38  63
ENDBRANCH  12  13
ENDBRANCH   5   7
ENDBRANCH   2   3
ENDBRANCH   1   2
BRANCH   1  75
ATOM     75  C   UNL A   1      34.516  22.609  25.582  1.00  0.00     0.023 C 
BRANCH  75  76
ATOM     76  C   UNL A   1      33.443  23.373  24.804  1.00  0.00     0.116 C 
BRANCH  76  77
ATOM     77  N   UNL A   1      32.308  23.685  25.650  1.00  0.00    -0.356 N 
ATOM     78  C   UNL A   1      31.802  24.861  26.102  1.00  0.00     0.227 C 
ATOM     79  H   UNL A   1      31.809  22.894  25.957  1.00  0.00     0.163 HD
ATOM     80  O   UNL A   1      30.792  24.770  26.812  1.00  0.00    -0.274 OA
BRANCH  78  81
ATOM     81  C   UNL A   1      32.324  26.248  25.689  1.00  0.00     0.061 C 
ATOM     82  C   UNL A   1      31.424  27.291  26.453  1.00  0.00     0.053 C 
ATOM     83  C   UNL A   1      33.762  26.616  26.127  1.00  0.00     0.053 C 
ATOM     84  C   UNL A   1      32.352  28.435  26.718  1.00  0.00    -0.044 A 
ATOM     85  C   UNL A   1      33.674  28.056  26.516  1.00  0.00    -0.044 A 
ATOM     86  C   UNL A   1      32.039  29.697  27.193  1.00  0.00     0.004 A 
ATOM     87  C   UNL A   1      34.721  28.926  26.773  1.00  0.00     0.004 A 
ATOM     88  C   UNL A   1      33.084  30.587  27.452  1.00  0.00     0.000 A 
ATOM     89  C   UNL A   1      34.418  30.205  27.240  1.00  0.00     0.000 A 
BRANCH  81  90
ATOM     90  C   UNL A   1      32.088  26.434  24.159  1.00  0.00     0.053 C 
BRANCH  90  91
ATOM     91  C   UNL A   1      30.882  27.244  23.742  1.00  0.00    -0.044 A 
ATOM     92  C   UNL A   1      31.021  28.556  23.277  1.00  0.00     0.024 A 
ATOM     93  C   UNL A   1      29.597  26.698  23.792  1.00  0.00     0.024 A 
ATOM     94  C   UNL A   1      29.884  29.266  22.923  1.00  0.00     0.111 A 
ATOM     95  C   UNL A   1      28.520  27.484  23.409  1.00  0.00     0.111 A 
ATOM     96  N   UNL A   1      28.635  28.759  22.986  1.00  0.00    -0.265 NA
ENDBRANCH  90  91
ENDBRANCH  81  90
ENDBRANCH  78  81
ENDBRANCH  76  77
ENDBRANCH  75  76
ENDBRANCH   1  75
TORSDOF 16
ENDMDL
MODEL 3
REMARK VINA RESULT:     -12.4      3.486      5.358
REMARK SMILES O=C(NCCCCNC(=O)C1(Cc2ccncc2)Cc2ccccc2C1)c1ccc(-c2c3nc(c(-c4c(F)cc(S(=O)(=O)[O-])cc4F)c4ccc([nH]4)c(-c4c(F)cc(S(=O)(=O)[O-])cc4F)c4nc(c(-c5c(F)cc(S(=O)(=O)[O-])cc5F)c5ccc2[nH]5)C=C4)C=C3)cc1
REMARK SMILES IDX 5 1 4 2 3 3 1 4 2 5 27 7 28 8 92 9 29 10 91 11 30 12 31 13
REMARK SMILES IDX 32 14 85 15 33 16 90 17 84 18 86 19 34 20 89 21 83 22 82 23
REMARK SMILES IDX 35 25 69 26 48 27 68 28 49 29 52 30 67 31 87 32 50 33 51 34
REMARK SMILES IDX 66 36 88 37 53 38 36 39 37 40 46 41 38 42 39 43 45 44 47 45
REMARK SMILES IDX 40 46 41 47 42 48 43 49 44 50 70 51 71 52 80 53 72 54 73 55
REMARK SMILES IDX 79 56 81 57 74 58 75 59 76 60 77 61 78 62 54 63 55 64 64 65
REMARK SMILES IDX 56 66 57 67 63 68 65 69 58 70 59 71 60 72 61 73 62 74 6 75
REMARK SMILES IDX 7 76 8 77 9 78 10 80 11 81 19 82 26 83 20 84 25 85 21 86
REMARK SMILES IDX 24 87 22 88 23 89 12 90 13 91 14 92 18 93 15 94 17 95 16 96
REMARK H PARENT 3 6 86 24 52 35 8 79
REMARK Flexibility Score: inf
ROOT
ATOM      1  C   UNL A   1      35.723  23.574  26.027  1.00  0.00     0.023 C 
ENDROOT
BRANCH   1   2
ATOM      2  C   UNL A   1      36.887  23.718  25.056  1.00  0.00     0.116 C 
BRANCH   2   3
ATOM      3  N   UNL A   1      37.948  22.745  25.272  1.00  0.00    -0.352 N 
ATOM      4  O   UNL A   1      39.956  22.027  26.029  1.00  0.00    -0.269 OA
ATOM      5  C   UNL A   1      39.097  22.903  26.013  1.00  0.00     0.251 C 
ATOM      6  H   UNL A   1      37.830  21.870  24.837  1.00  0.00     0.163 HD
BRANCH   5   7
ATOM      7  C   UNL A   1      39.295  24.169  26.746  1.00  0.00     0.039 A 
ATOM      8  C   UNL A   1      40.021  25.210  26.162  1.00  0.00     0.014 A 
ATOM      9  C   UNL A   1      38.824  24.278  28.056  1.00  0.00     0.014 A 
ATOM     10  C   UNL A   1      40.408  26.293  26.940  1.00  0.00     0.010 A 
ATOM     11  C   UNL A   1      39.150  25.407  28.812  1.00  0.00     0.010 A 
ATOM     12  C   UNL A   1      39.983  26.400  28.275  1.00  0.00    -0.014 A 
BRANCH  12  13
ATOM     13  C   UNL A   1      40.420  27.567  29.079  1.00  0.00     0.031 A 
ATOM     14  C   UNL A   1      41.799  27.624  29.678  1.00  0.00     0.074 A 
ATOM     15  C   UNL A   1      39.573  28.606  29.223  1.00  0.00     0.049 A 
ATOM     16  N   UNL A   1      42.357  28.585  30.368  1.00  0.00    -0.248 NA
ATOM     17  C   UNL A   1      42.663  26.449  29.484  1.00  0.00     0.031 C 
ATOM     18  C   UNL A   1      38.208  28.657  28.693  1.00  0.00     0.029 A 
ATOM     19  N   UNL A   1      39.741  29.824  29.827  1.00  0.00    -0.354 N 
ATOM     20  C   UNL A   1      43.620  28.122  30.720  1.00  0.00     0.074 A 
ATOM     21  C   UNL A   1      43.743  26.788  30.175  1.00  0.00     0.031 C 
ATOM     22  C   UNL A   1      37.683  29.864  28.947  1.00  0.00     0.029 A 
ATOM     23  C   UNL A   1      38.653  30.653  29.699  1.00  0.00     0.049 A 
ATOM     24  H   UNL A   1      40.562  30.080  30.307  1.00  0.00     0.167 HD
ATOM     25  C   UNL A   1      44.586  28.755  31.429  1.00  0.00     0.037 A 
ATOM     26  C   UNL A   1      38.456  31.909  30.138  1.00  0.00     0.037 A 
ATOM     27  C   UNL A   1      44.468  30.098  31.938  1.00  0.00     0.049 A 
ATOM     28  C   UNL A   1      39.554  32.599  30.894  1.00  0.00     0.074 A 
ATOM     29  C   UNL A   1      45.403  30.840  32.640  1.00  0.00     0.029 A 
ATOM     30  N   UNL A   1      43.347  30.904  31.795  1.00  0.00    -0.354 N 
ATOM     31  N   UNL A   1      40.748  32.149  31.203  1.00  0.00    -0.248 NA
ATOM     32  C   UNL A   1      39.281  33.963  31.359  1.00  0.00     0.031 C 
ATOM     33  C   UNL A   1      44.837  32.085  32.943  1.00  0.00     0.029 A 
ATOM     34  C   UNL A   1      43.563  32.130  32.402  1.00  0.00     0.049 A 
ATOM     35  H   UNL A   1      42.519  30.642  31.331  1.00  0.00     0.167 HD
ATOM     36  C   UNL A   1      41.374  33.182  31.889  1.00  0.00     0.074 A 
ATOM     37  C   UNL A   1      40.433  34.283  31.934  1.00  0.00     0.031 C 
ATOM     38  C   UNL A   1      42.615  33.214  32.433  1.00  0.00     0.037 A 
BRANCH  25  39
ATOM     39  C   UNL A   1      45.852  27.996  31.715  1.00  0.00     0.058 A 
ATOM     40  C   UNL A   1      45.998  27.207  32.867  1.00  0.00     0.135 A 
ATOM     41  C   UNL A   1      46.923  28.035  30.808  1.00  0.00     0.135 A 
ATOM     42  F   UNL A   1      45.011  27.148  33.776  1.00  0.00    -0.206 F 
ATOM     43  C   UNL A   1      47.172  26.503  33.122  1.00  0.00     0.059 A 
ATOM     44  C   UNL A   1      48.097  27.322  31.032  1.00  0.00     0.059 A 
ATOM     45  F   UNL A   1      46.834  28.774  29.691  1.00  0.00    -0.206 F 
ATOM     46  C   UNL A   1      48.218  26.572  32.200  1.00  0.00     0.060 A 
BRANCH  46  47
ATOM     47  S   UNL A   1      49.738  25.659  32.542  1.00  0.00     0.124 S 
ATOM     48  O   UNL A   1      49.259  24.638  33.471  1.00  0.00    -0.237 OA
ATOM     49  O   UNL A   1      50.124  25.178  31.219  1.00  0.00    -0.237 OA
ATOM     50  O   UNL A   1      50.618  26.669  33.119  1.00  0.00    -0.744 OA
ENDBRANCH  46  47
ENDBRANCH  25  39
BRANCH  26  51
ATOM     51  C   UNL A   1      37.171  32.594  29.850  1.00  0.00     0.058 A 
ATOM     52  C   UNL A   1      36.017  32.296  30.588  1.00  0.00     0.135 A 
ATOM     53  C   UNL A   1      37.084  33.589  28.864  1.00  0.00     0.135 A 
ATOM     54  F   UNL A   1      36.054  31.351  31.539  1.00  0.00    -0.206 F 
ATOM     55  C   UNL A   1      34.816  32.957  30.355  1.00  0.00     0.059 A 
ATOM     56  C   UNL A   1      35.901  34.279  28.628  1.00  0.00     0.059 A 
ATOM     57  F   UNL A   1      38.169  33.921  28.146  1.00  0.00    -0.206 F 
ATOM     58  C   UNL A   1      34.769  33.949  29.373  1.00  0.00     0.060 A 
BRANCH  58  59
ATOM     59  S   UNL A   1      33.225  34.851  29.120  1.00  0.00     0.124 S 
ATOM     60  O   UNL A   1      32.623  34.778  30.445  1.00  0.00    -0.237 OA
ATOM     61  O   UNL A   1      33.699  36.168  28.705  1.00  0.00    -0.237 OA
ATOM     62  O   UNL A   1      32.557  34.078  28.076  1.00  0.00    -0.744 OA
ENDBRANCH  58  59
ENDBRANCH  26  51
BRANCH  38  63
ATOM     63  C   UNL A   1      43.030  34.495  33.096  1.00  0.00     0.058 A 
ATOM     64  C   UNL A   1      43.661  35.523  32.378  1.00  0.00     0.135 A 
ATOM     65  C   UNL A   1      42.780  34.701  34.461  1.00  0.00     0.135 A 
ATOM     66  F   UNL A   1      43.929  35.368  31.072  1.00  0.00    -0.206 F 
ATOM     67  C   UNL A   1      44.057  36.702  32.998  1.00  0.00     0.059 A 
ATOM     68  C   UNL A   1      43.148  35.881  35.099  1.00  0.00     0.059 A 
ATOM     69  F   UNL A   1      42.171  33.752  35.189  1.00  0.00    -0.206 F 
ATOM     70  C   UNL A   1      43.801  36.870  34.362  1.00  0.00     0.060 A 
BRANCH  70  71
ATOM     71  S   UNL A   1      44.309  38.407  35.160  1.00  0.00     0.124 S 
ATOM     72  O   UNL A   1      43.539  39.394  34.411  1.00  0.00    -0.237 OA
ATOM     73  O   UNL A   1      43.895  38.198  36.544  1.00  0.00    -0.237 OA
ATOM     74  O   UNL A   1      45.751  38.438  34.944  1.00  0.00    -0.744 OA
ENDBRANCH  70  71
ENDBRANCH  38  63
ENDBRANCH  12  13
ENDBRANCH   5   7
ENDBRANCH   2   3
ENDBRANCH   1   2
BRANCH   1  75
ATOM     75  C   UNL A   1      34.562  22.721  25.515  1.00  0.00     0.023 C 
BRANCH  75  76
ATOM     76  C   UNL A   1      33.489  23.502  24.754  1.00  0.00     0.116 C 
BRANCH  76  77
ATOM     77  N   UNL A   1      32.355  23.797  25.608  1.00  0.00    -0.356 N 
ATOM     78  C   UNL A   1      31.842  24.964  26.073  1.00  0.00     0.227 C 
ATOM     79  H   UNL A   1      31.862  22.999  25.907  1.00  0.00     0.163 HD
ATOM     80  O   UNL A   1      30.835  24.858  26.786  1.00  0.00    -0.274 OA
BRANCH  78  81
ATOM     81  C   UNL A   1      32.352  26.359  25.673  1.00  0.00     0.061 C 
ATOM     82  C   UNL A   1      31.457  27.387  26.463  1.00  0.00     0.053 C 
ATOM     83  C   UNL A   1      33.794  26.728  26.098  1.00  0.00     0.053 C 
ATOM     84  C   UNL A   1      32.383  28.532  26.732  1.00  0.00    -0.044 A 
ATOM     85  C   UNL A   1      33.705  28.162  26.509  1.00  0.00    -0.044 A 
ATOM     86  C   UNL A   1      32.070  29.786  27.228  1.00  0.00     0.004 A 
ATOM     87  C   UNL A   1      34.751  29.034  26.765  1.00  0.00     0.004 A 
ATOM     88  C   UNL A   1      33.115  30.677  27.487  1.00  0.00     0.000 A 
ATOM     89  C   UNL A   1      34.448  30.304  27.254  1.00  0.00     0.000 A 
BRANCH  81  90
ATOM     90  C   UNL A   1      32.097  26.566  24.149  1.00  0.00     0.053 C 
BRANCH  90  91
ATOM     91  C   UNL A   1      30.919  27.430  23.759  1.00  0.00    -0.044 A 
ATOM     92  C   UNL A   1      31.096  28.772  23.405  1.00  0.00     0.024 A 
ATOM     93  C   UNL A   1      29.624  26.907  23.724  1.00  0.00     0.024 A 
ATOM     94  C   UNL A   1      29.984  29.530  23.073  1.00  0.00     0.111 A 
ATOM     95  C   UNL A   1      28.575  27.742  23.371  1.00  0.00     0.111 A 
ATOM     96  N   UNL A   1      28.725  29.044  23.054  1.00  0.00    -0.265 NA
ENDBRANCH  90  91
ENDBRANCH  81  90
ENDBRANCH  78  81
ENDBRANCH  76  77
ENDBRANCH  75  76
ENDBRANCH   1  75
TORSDOF 16
ENDMDL
