MODEL 1
REMARK VINA RESULT:     -10.8      0.000      0.000
REMARK SMILES C[NH2+]C[C@H](C)C(=O)Nc1snc(C)c1C(=O)NCCCCNC(=O)c1ccc(-c2c3nc(c(-c4c(F)cc(S(=O)(=O)[O-])cc4F)c4ccc([nH]4)c(-c4c(F)cc(S(=O)(=O)[O-])cc4F)c4nc(c(-c5c(F)cc(S(=O)(=O)[O-])cc5F)c5ccc2[nH]5)C=C4)C=C3)cc1
REMARK SMILES IDX 19 1 18 2 17 3 15 4 16 5 14 7 9 8 10 9 11 10 12 11 13 12
REMARK SMILES IDX 8 13 6 14 7 15 4 17 5 18 3 19 2 20 1 21 20 24 21 25 22 26
REMARK SMILES IDX 23 27 24 29 25 30 26 31 90 32 27 33 89 34 28 35 29 36 30 37
REMARK SMILES IDX 83 38 31 39 88 40 82 41 84 42 32 43 87 44 81 45 80 46 33 48
REMARK SMILES IDX 67 49 46 50 66 51 47 52 50 53 65 54 85 55 48 56 49 57 64 59
REMARK SMILES IDX 86 60 51 61 34 62 35 63 44 64 36 65 37 66 43 67 45 68 38 69
REMARK SMILES IDX 39 70 40 71 41 72 42 73 68 74 69 75 78 76 70 77 71 78 77 79
REMARK SMILES IDX 79 80 72 81 73 82 74 83 75 84 76 85 52 86 53 87 62 88 54 89
REMARK SMILES IDX 55 90 61 91 63 92 56 93 57 94 58 95 59 96 60 97
REMARK H PARENT 17 6 8 16 2 22 2 23 22 28 84 47 50 58
REMARK Flexibility Score: inf
ROOT
ATOM      1  C   UNL A   1      34.511  31.023  27.804  1.00  0.00     0.023 C 
ENDROOT
BRANCH   1   2
ATOM      2  C   UNL A   1      33.915  29.938  26.907  1.00  0.00     0.116 C 
BRANCH   2   3
ATOM      3  N   UNL A   1      32.836  29.156  27.466  1.00  0.00    -0.352 N 
ATOM      4  C   UNL A   1      32.218  28.003  27.024  1.00  0.00     0.256 C 
ATOM      5  O   UNL A   1      31.350  27.560  27.780  1.00  0.00    -0.269 OA
ATOM      6  H   UNL A   1      32.478  29.509  28.313  1.00  0.00     0.163 HD
BRANCH   4   7
ATOM      7  C   UNL A   1      32.471  27.370  25.717  1.00  0.00     0.097 A 
ATOM      8  C   UNL A   1      33.198  26.240  25.377  1.00  0.00     0.129 A 
ATOM      9  S   UNL A   1      33.576  26.279  23.714  1.00  0.00    -0.017 S 
ATOM     10  N   UNL A   1      32.469  27.432  23.332  1.00  0.00    -0.195 NA
ATOM     11  C   UNL A   1      31.910  27.882  24.459  1.00  0.00     0.066 A 
ATOM     12  C   UNL A   1      30.804  28.873  24.290  1.00  0.00     0.069 C 
BRANCH   8  13
ATOM     13  N   UNL A   1      33.755  25.171  26.019  1.00  0.00    -0.315 N 
ATOM     14  C   UNL A   1      33.285  23.897  26.122  1.00  0.00     0.233 C 
ATOM     15  O   UNL A   1      33.732  23.219  27.057  1.00  0.00    -0.274 OA
ATOM     16  H   UNL A   1      34.612  25.345  26.469  1.00  0.00     0.170 HD
BRANCH  14  17
ATOM     17  C   UNL A   1      32.402  23.239  25.062  1.00  0.00     0.130 C 
ATOM     18  C   UNL A   1      32.875  21.906  24.498  1.00  0.00     0.024 C 
BRANCH  17  19
ATOM     19  C   UNL A   1      30.932  23.171  25.520  1.00  0.00     0.273 C 
BRANCH  19  20
ATOM     20  N   UNL A   1      30.681  22.569  26.837  1.00  0.00    -0.348 N 
ATOM     21  C   UNL A   1      29.293  22.684  27.269  1.00  0.00     0.330 C 
ATOM     22  H   UNL A   1      30.925  21.580  26.792  1.00  0.00     0.346 HD
ATOM     23  H   UNL A   1      31.251  23.077  27.513  1.00  0.00     0.346 HD
ENDBRANCH  19  20
ENDBRANCH  17  19
ENDBRANCH  14  17
ENDBRANCH   8  13
ENDBRANCH   4   7
ENDBRANCH   2   3
ENDBRANCH   1   2
BRANCH   1  24
ATOM     24  C   UNL A   1      33.665  32.293  27.979  1.00  0.00     0.023 C 
BRANCH  24  25
ATOM     25  C   UNL A   1      34.432  33.569  28.336  1.00  0.00     0.116 C 
BRANCH  25  26
ATOM     26  N   UNL A   1      33.950  34.230  29.543  1.00  0.00    -0.352 N 
ATOM     27  C   UNL A   1      34.379  34.029  30.840  1.00  0.00     0.251 C 
ATOM     28  H   UNL A   1      33.237  34.897  29.418  1.00  0.00     0.163 HD
ATOM     29  O   UNL A   1      33.733  34.475  31.786  1.00  0.00    -0.269 OA
BRANCH  27  30
ATOM     30  C   UNL A   1      35.611  33.248  31.082  1.00  0.00     0.039 A 
ATOM     31  C   UNL A   1      35.535  31.872  31.320  1.00  0.00     0.014 A 
ATOM     32  C   UNL A   1      36.849  33.892  31.047  1.00  0.00     0.014 A 
ATOM     33  C   UNL A   1      36.713  31.133  31.429  1.00  0.00     0.010 A 
ATOM     34  C   UNL A   1      38.015  33.148  31.084  1.00  0.00     0.010 A 
ATOM     35  C   UNL A   1      37.957  31.767  31.282  1.00  0.00    -0.014 A 
BRANCH  35  36
ATOM     36  C   UNL A   1      39.175  30.954  31.175  1.00  0.00     0.031 A 
ATOM     37  C   UNL A   1      39.881  30.688  32.469  1.00  0.00     0.074 A 
ATOM     38  C   UNL A   1      39.533  30.268  30.068  1.00  0.00     0.049 A 
ATOM     39  N   UNL A   1      41.092  30.992  32.803  1.00  0.00    -0.248 NA
ATOM     40  C   UNL A   1      39.102  30.079  33.561  1.00  0.00     0.031 C 
ATOM     41  C   UNL A   1      38.789  30.141  28.811  1.00  0.00     0.029 A 
ATOM     42  N   UNL A   1      40.591  29.425  29.880  1.00  0.00    -0.354 N 
ATOM     43  C   UNL A   1      41.300  30.437  34.067  1.00  0.00     0.074 A 
ATOM     44  C   UNL A   1      40.005  30.031  34.543  1.00  0.00     0.031 C 
ATOM     45  C   UNL A   1      39.286  29.107  28.098  1.00  0.00     0.029 A 
ATOM     46  C   UNL A   1      40.471  28.600  28.768  1.00  0.00     0.049 A 
ATOM     47  H   UNL A   1      41.371  29.404  30.480  1.00  0.00     0.167 HD
ATOM     48  C   UNL A   1      42.551  30.164  34.539  1.00  0.00     0.037 A 
ATOM     49  C   UNL A   1      41.259  27.546  28.435  1.00  0.00     0.037 A 
ATOM     50  C   UNL A   1      43.561  30.859  33.782  1.00  0.00     0.049 A 
ATOM     51  C   UNL A   1      42.543  27.702  29.159  1.00  0.00     0.074 A 
ATOM     52  C   UNL A   1      43.827  32.183  33.493  1.00  0.00     0.029 A 
ATOM     53  N   UNL A   1      44.310  30.129  32.892  1.00  0.00    -0.354 N 
ATOM     54  N   UNL A   1      43.412  28.642  28.915  1.00  0.00    -0.248 NA
ATOM     55  C   UNL A   1      42.695  27.036  30.444  1.00  0.00     0.031 C 
ATOM     56  C   UNL A   1      44.316  32.178  32.153  1.00  0.00     0.029 A 
ATOM     57  C   UNL A   1      44.370  30.850  31.728  1.00  0.00     0.049 A 
ATOM     58  H   UNL A   1      44.726  29.252  33.059  1.00  0.00     0.167 HD
ATOM     59  C   UNL A   1      43.921  28.984  30.157  1.00  0.00     0.074 A 
ATOM     60  C   UNL A   1      43.537  27.885  31.037  1.00  0.00     0.031 C 
ATOM     61  C   UNL A   1      44.361  30.252  30.412  1.00  0.00     0.037 A 
BRANCH  48  62
ATOM     62  C   UNL A   1      42.898  28.999  35.447  1.00  0.00     0.058 A 
ATOM     63  C   UNL A   1      43.699  29.225  36.588  1.00  0.00     0.135 A 
ATOM     64  C   UNL A   1      42.736  27.643  35.084  1.00  0.00     0.135 A 
ATOM     65  F   UNL A   1      43.922  30.473  37.033  1.00  0.00    -0.206 F 
ATOM     66  C   UNL A   1      44.367  28.195  37.255  1.00  0.00     0.059 A 
ATOM     67  C   UNL A   1      43.347  26.597  35.768  1.00  0.00     0.059 A 
ATOM     68  F   UNL A   1      42.060  27.271  33.991  1.00  0.00    -0.206 F 
ATOM     69  C   UNL A   1      44.201  26.884  36.819  1.00  0.00     0.060 A 
BRANCH  69  70
ATOM     70  S   UNL A   1      45.164  25.567  37.582  1.00  0.00     0.124 S 
ATOM     71  O   UNL A   1      44.981  25.860  38.999  1.00  0.00    -0.237 OA
ATOM     72  O   UNL A   1      44.492  24.371  37.083  1.00  0.00    -0.237 OA
ATOM     73  O   UNL A   1      46.508  25.788  37.058  1.00  0.00    -0.744 OA
ENDBRANCH  69  70
ENDBRANCH  48  62
BRANCH  49  74
ATOM     74  C   UNL A   1      40.885  26.285  27.746  1.00  0.00     0.058 A 
ATOM     75  C   UNL A   1      41.699  25.736  26.738  1.00  0.00     0.135 A 
ATOM     76  C   UNL A   1      39.874  25.445  28.256  1.00  0.00     0.135 A 
ATOM     77  F   UNL A   1      42.697  26.459  26.207  1.00  0.00    -0.206 F 
ATOM     78  C   UNL A   1      41.559  24.413  26.305  1.00  0.00     0.059 A 
ATOM     79  C   UNL A   1      39.708  24.129  27.829  1.00  0.00     0.059 A 
ATOM     80  F   UNL A   1      39.079  25.848  29.258  1.00  0.00    -0.206 F 
ATOM     81  C   UNL A   1      40.574  23.609  26.874  1.00  0.00     0.060 A 
BRANCH  81  82
ATOM     82  S   UNL A   1      40.517  21.847  26.466  1.00  0.00     0.124 S 
ATOM     83  O   UNL A   1      40.620  21.230  27.783  1.00  0.00    -0.237 OA
ATOM     84  O   UNL A   1      39.223  21.727  25.804  1.00  0.00    -0.237 OA
ATOM     85  O   UNL A   1      41.677  21.665  25.597  1.00  0.00    -0.744 OA
ENDBRANCH  81  82
ENDBRANCH  49  74
BRANCH  61  86
ATOM     86  C   UNL A   1      44.631  31.160  29.242  1.00  0.00     0.058 A 
ATOM     87  C   UNL A   1      45.820  31.172  28.489  1.00  0.00     0.135 A 
ATOM     88  C   UNL A   1      43.588  31.988  28.798  1.00  0.00     0.135 A 
ATOM     89  F   UNL A   1      46.824  30.329  28.768  1.00  0.00    -0.206 F 
ATOM     90  C   UNL A   1      45.986  32.018  27.391  1.00  0.00     0.059 A 
ATOM     91  C   UNL A   1      43.718  32.813  27.686  1.00  0.00     0.059 A 
ATOM     92  F   UNL A   1      42.403  31.975  29.432  1.00  0.00    -0.206 F 
ATOM     93  C   UNL A   1      44.931  32.841  27.001  1.00  0.00     0.060 A 
BRANCH  93  94
ATOM     94  S   UNL A   1      45.132  33.908  25.559  1.00  0.00     0.124 S 
ATOM     95  O   UNL A   1      46.582  34.045  25.480  1.00  0.00    -0.237 OA
ATOM     96  O   UNL A   1      44.511  33.126  24.494  1.00  0.00    -0.237 OA
ATOM     97  O   UNL A   1      44.410  35.123  25.929  1.00  0.00    -0.744 OA
ENDBRANCH  93  94
ENDBRANCH  61  86
ENDBRANCH  35  36
ENDBRANCH  27  30
ENDBRANCH  25  26
ENDBRANCH  24  25
ENDBRANCH   1  24
TORSDOF 18
ENDMDL
MODEL 2
REMARK VINA RESULT:     -10.5      1.991      2.829
REMARK SMILES C[NH2+]C[C@H](C)C(=O)Nc1snc(C)c1C(=O)NCCCCNC(=O)c1ccc(-c2c3nc(c(-c4c(F)cc(S(=O)(=O)[O-])cc4F)c4ccc([nH]4)c(-c4c(F)cc(S(=O)(=O)[O-])cc4F)c4nc(c(-c5c(F)cc(S(=O)(=O)[O-])cc5F)c5ccc2[nH]5)C=C4)C=C3)cc1
REMARK SMILES IDX 19 1 18 2 17 3 15 4 16 5 14 7 9 8 10 9 11 10 12 11 13 12
REMARK SMILES IDX 8 13 6 14 7 15 4 17 5 18 3 19 2 20 1 21 20 24 21 25 22 26
REMARK SMILES IDX 23 27 24 29 25 30 26 31 90 32 27 33 89 34 28 35 29 36 30 37
REMARK SMILES IDX 83 38 31 39 88 40 82 41 84 42 32 43 87 44 81 45 80 46 33 48
REMARK SMILES IDX 67 49 46 50 66 51 47 52 50 53 65 54 85 55 48 56 49 57 64 59
REMARK SMILES IDX 86 60 51 61 34 62 35 63 44 64 36 65 37 66 43 67 45 68 38 69
REMARK SMILES IDX 39 70 40 71 41 72 42 73 68 74 69 75 78 76 70 77 71 78 77 79
REMARK SMILES IDX 79 80 72 81 73 82 74 83 75 84 76 85 52 86 53 87 62 88 54 89
REMARK SMILES IDX 55 90 61 91 63 92 56 93 57 94 58 95 59 96 60 97
REMARK H PARENT 17 6 8 16 2 22 2 23 22 28 84 47 50 58
REMARK Flexibility Score: inf
ROOT
ATOM      1  C   UNL A   1      31.712  29.298  27.061  1.00  0.00     0.023 C 
ENDROOT
BRANCH   1   2
ATOM      2  C   UNL A   1      32.173  27.890  26.684  1.00  0.00     0.116 C 
BRANCH   2   3
ATOM      3  N   UNL A   1      31.194  26.833  26.808  1.00  0.00    -0.352 N 
ATOM      4  C   UNL A   1      30.742  25.896  25.900  1.00  0.00     0.256 C 
ATOM      5  O   UNL A   1      29.924  25.092  26.352  1.00  0.00    -0.269 OA
ATOM      6  H   UNL A   1      30.777  26.771  27.697  1.00  0.00     0.163 HD
BRANCH   4   7
ATOM      7  C   UNL A   1      31.100  25.879  24.471  1.00  0.00     0.097 A 
ATOM      8  C   UNL A   1      31.713  24.905  23.697  1.00  0.00     0.129 A 
ATOM      9  S   UNL A   1      32.338  25.611  22.275  1.00  0.00    -0.017 S 
ATOM     10  N   UNL A   1      31.464  26.998  22.395  1.00  0.00    -0.195 NA
ATOM     11  C   UNL A   1      30.808  26.994  23.559  1.00  0.00     0.066 A 
ATOM     12  C   UNL A   1      29.881  28.142  23.791  1.00  0.00     0.069 C 
BRANCH   8  13
ATOM     13  N   UNL A   1      32.020  23.579  23.805  1.00  0.00    -0.315 N 
ATOM     14  C   UNL A   1      33.049  22.994  24.477  1.00  0.00     0.233 C 
ATOM     15  O   UNL A   1      33.361  21.849  24.120  1.00  0.00    -0.274 OA
ATOM     16  H   UNL A   1      31.416  22.963  23.334  1.00  0.00     0.170 HD
BRANCH  14  17
ATOM     17  C   UNL A   1      33.689  23.598  25.727  1.00  0.00     0.130 C 
ATOM     18  C   UNL A   1      33.073  23.226  27.068  1.00  0.00     0.024 C 
BRANCH  17  19
ATOM     19  C   UNL A   1      35.216  23.394  25.729  1.00  0.00     0.273 C 
BRANCH  19  20
ATOM     20  N   UNL A   1      35.961  23.991  24.612  1.00  0.00    -0.348 N 
ATOM     21  C   UNL A   1      36.653  23.006  23.787  1.00  0.00     0.330 C 
ATOM     22  H   UNL A   1      35.304  24.502  24.023  1.00  0.00     0.346 HD
ATOM     23  H   UNL A   1      36.672  24.600  25.015  1.00  0.00     0.346 HD
ENDBRANCH  19  20
ENDBRANCH  17  19
ENDBRANCH  14  17
ENDBRANCH   8  13
ENDBRANCH   4   7
ENDBRANCH   2   3
ENDBRANCH   1   2
BRANCH   1  24
ATOM     24  C   UNL A   1      32.577  30.453  26.535  1.00  0.00     0.023 C 
BRANCH  24  25
ATOM     25  C   UNL A   1      33.900  30.692  27.267  1.00  0.00     0.116 C 
BRANCH  25  26
ATOM     26  N   UNL A   1      33.791  31.590  28.410  1.00  0.00    -0.352 N 
ATOM     27  C   UNL A   1      34.717  31.788  29.415  1.00  0.00     0.251 C 
ATOM     28  H   UNL A   1      32.961  32.117  28.471  1.00  0.00     0.163 HD
ATOM     29  O   UNL A   1      34.405  32.393  30.439  1.00  0.00    -0.269 OA
BRANCH  27  30
ATOM     30  C   UNL A   1      36.081  31.241  29.260  1.00  0.00     0.039 A 
ATOM     31  C   UNL A   1      37.179  32.103  29.171  1.00  0.00     0.014 A 
ATOM     32  C   UNL A   1      36.265  29.857  29.228  1.00  0.00     0.014 A 
ATOM     33  C   UNL A   1      38.466  31.567  29.144  1.00  0.00     0.010 A 
ATOM     34  C   UNL A   1      37.544  29.329  29.273  1.00  0.00     0.010 A 
ATOM     35  C   UNL A   1      38.651  30.178  29.224  1.00  0.00    -0.014 A 
BRANCH  35  36
ATOM     36  C   UNL A   1      40.003  29.639  29.420  1.00  0.00     0.031 A 
ATOM     37  C   UNL A   1      40.408  29.434  30.847  1.00  0.00     0.074 A 
ATOM     38  C   UNL A   1      40.762  29.118  28.432  1.00  0.00     0.049 A 
ATOM     39  N   UNL A   1      41.405  29.955  31.485  1.00  0.00    -0.248 NA
ATOM     40  C   UNL A   1      39.533  28.606  31.694  1.00  0.00     0.031 C 
ATOM     41  C   UNL A   1      40.397  28.929  27.025  1.00  0.00     0.029 A 
ATOM     42  N   UNL A   1      41.990  28.523  28.509  1.00  0.00    -0.354 N 
ATOM     43  C   UNL A   1      41.408  29.369  32.752  1.00  0.00     0.074 A 
ATOM     44  C   UNL A   1      40.153  28.675  32.874  1.00  0.00     0.031 C 
ATOM     45  C   UNL A   1      41.265  28.069  26.448  1.00  0.00     0.029 A 
ATOM     46  C   UNL A   1      42.328  27.770  27.391  1.00  0.00     0.049 A 
ATOM     47  H   UNL A   1      42.582  28.621  29.288  1.00  0.00     0.167 HD
ATOM     48  C   UNL A   1      42.532  29.324  33.524  1.00  0.00     0.037 A 
ATOM     49  C   UNL A   1      43.381  26.924  27.255  1.00  0.00     0.037 A 
ATOM     50  C   UNL A   1      43.524  30.260  33.062  1.00  0.00     0.049 A 
ATOM     51  C   UNL A   1      44.382  27.287  28.287  1.00  0.00     0.074 A 
ATOM     52  C   UNL A   1      43.564  31.628  32.870  1.00  0.00     0.029 A 
ATOM     53  N   UNL A   1      44.609  29.761  32.383  1.00  0.00    -0.354 N 
ATOM     54  N   UNL A   1      45.062  28.399  28.287  1.00  0.00    -0.248 NA
ATOM     55  C   UNL A   1      44.351  26.580  29.558  1.00  0.00     0.031 C 
ATOM     56  C   UNL A   1      44.357  31.814  31.700  1.00  0.00     0.029 A 
ATOM     57  C   UNL A   1      44.799  30.558  31.283  1.00  0.00     0.049 A 
ATOM     58  H   UNL A   1      45.148  28.978  32.638  1.00  0.00     0.167 HD
ATOM     59  C   UNL A   1      45.163  28.752  29.623  1.00  0.00     0.074 A 
ATOM     60  C   UNL A   1      44.818  27.540  30.359  1.00  0.00     0.031 C 
ATOM     61  C   UNL A   1      45.244  30.062  30.000  1.00  0.00     0.037 A 
BRANCH  48  62
ATOM     62  C   UNL A   1      42.885  28.195  34.474  1.00  0.00     0.058 A 
ATOM     63  C   UNL A   1      43.154  28.488  35.830  1.00  0.00     0.135 A 
ATOM     64  C   UNL A   1      43.264  26.901  34.051  1.00  0.00     0.135 A 
ATOM     65  F   UNL A   1      42.834  29.684  36.348  1.00  0.00    -0.206 F 
ATOM     66  C   UNL A   1      43.835  27.603  36.670  1.00  0.00     0.059 A 
ATOM     67  C   UNL A   1      43.894  25.984  34.887  1.00  0.00     0.059 A 
ATOM     68  F   UNL A   1      43.134  26.496  32.782  1.00  0.00    -0.206 F 
ATOM     69  C   UNL A   1      44.222  26.360  36.178  1.00  0.00     0.060 A 
BRANCH  69  70
ATOM     70  S   UNL A   1      45.219  25.270  37.208  1.00  0.00     0.124 S 
ATOM     71  O   UNL A   1      46.480  26.001  37.263  1.00  0.00    -0.237 OA
ATOM     72  O   UNL A   1      44.448  25.230  38.445  1.00  0.00    -0.237 OA
ATOM     73  O   UNL A   1      45.242  24.023  36.450  1.00  0.00    -0.744 OA
ENDBRANCH  69  70
ENDBRANCH  48  62
BRANCH  49  74
ATOM     74  C   UNL A   1      43.468  25.664  26.475  1.00  0.00     0.058 A 
ATOM     75  C   UNL A   1      44.413  25.509  25.444  1.00  0.00     0.135 A 
ATOM     76  C   UNL A   1      42.825  24.487  26.911  1.00  0.00     0.135 A 
ATOM     77  F   UNL A   1      45.086  26.573  24.979  1.00  0.00    -0.206 F 
ATOM     78  C   UNL A   1      44.743  24.255  24.918  1.00  0.00     0.059 A 
ATOM     79  C   UNL A   1      43.128  23.230  26.392  1.00  0.00     0.059 A 
ATOM     80  F   UNL A   1      41.949  24.513  27.926  1.00  0.00    -0.206 F 
ATOM     81  C   UNL A   1      44.112  23.118  25.416  1.00  0.00     0.060 A 
BRANCH  81  82
ATOM     82  S   UNL A   1      44.676  21.482  24.886  1.00  0.00     0.124 S 
ATOM     83  O   UNL A   1      45.971  21.381  25.548  1.00  0.00    -0.237 OA
ATOM     84  O   UNL A   1      43.625  20.612  25.403  1.00  0.00    -0.237 OA
ATOM     85  O   UNL A   1      44.725  21.598  23.431  1.00  0.00    -0.744 OA
ENDBRANCH  81  82
ENDBRANCH  49  74
BRANCH  61  86
ATOM     86  C   UNL A   1      45.593  31.085  28.952  1.00  0.00     0.058 A 
ATOM     87  C   UNL A   1      44.681  31.648  28.040  1.00  0.00     0.135 A 
ATOM     88  C   UNL A   1      46.901  31.596  28.941  1.00  0.00     0.135 A 
ATOM     89  F   UNL A   1      43.384  31.306  28.059  1.00  0.00    -0.206 F 
ATOM     90  C   UNL A   1      45.069  32.620  27.117  1.00  0.00     0.059 A 
ATOM     91  C   UNL A   1      47.301  32.590  28.056  1.00  0.00     0.059 A 
ATOM     92  F   UNL A   1      47.804  31.149  29.831  1.00  0.00    -0.206 F 
ATOM     93  C   UNL A   1      46.385  33.081  27.128  1.00  0.00     0.060 A 
BRANCH  93  94
ATOM     94  S   UNL A   1      46.879  34.366  25.961  1.00  0.00     0.124 S 
ATOM     95  O   UNL A   1      46.807  35.569  26.782  1.00  0.00    -0.237 OA
ATOM     96  O   UNL A   1      48.220  33.944  25.570  1.00  0.00    -0.237 OA
ATOM     97  O   UNL A   1      45.873  34.272  24.904  1.00  0.00    -0.744 OA
ENDBRANCH  93  94
ENDBRANCH  61  86
ENDBRANCH  35  36
ENDBRANCH  27  30
ENDBRANCH  25  26
ENDBRANCH  24  25
ENDBRANCH   1  24
TORSDOF 18
ENDMDL
MODEL 3
REMARK VINA RESULT:     -10.5      2.067      2.988
REMARK SMILES C[NH2+]C[C@H](C)C(=O)Nc1snc(C)c1C(=O)NCCCCNC(=O)c1ccc(-c2c3nc(c(-c4c(F)cc(S(=O)(=O)[O-])cc4F)c4ccc([nH]4)c(-c4c(F)cc(S(=O)(=O)[O-])cc4F)c4nc(c(-c5c(F)cc(S(=O)(=O)[O-])cc5F)c5ccc2[nH]5)C=C4)C=C3)cc1
REMARK SMILES IDX 19 1 18 2 17 3 15 4 16 5 14 7 9 8 10 9 11 10 12 11 13 12
REMARK SMILES IDX 8 13 6 14 7 15 4 17 5 18 3 19 2 20 1 21 20 24 21 25 22 26
REMARK SMILES IDX 23 27 24 29 25 30 26 31 90 32 27 33 89 34 28 35 29 36 30 37
REMARK SMILES IDX 83 38 31 39 88 40 82 41 84 42 32 43 87 44 81 45 80 46 33 48
REMARK SMILES IDX 67 49 46 50 66 51 47 52 50 53 65 54 85 55 48 56 49 57 64 59
REMARK SMILES IDX 86 60 51 61 34 62 35 63 44 64 36 65 37 66 43 67 45 68 38 69
REMARK SMILES IDX 39 70 40 71 41 72 42 73 68 74 69 75 78 76 70 77 71 78 77 79
REMARK SMILES IDX 79 80 72 81 73 82 74 83 75 84 76 85 52 86 53 87 62 88 54 89
REMARK SMILES IDX 55 90 61 91 63 92 56 93 57 94 58 95 59 96 60 97
REMARK H PARENT 17 6 8 16 2 22 2 23 22 28 84 47 50 58
REMARK Flexibility Score: inf
ROOT
ATOM      1  C   UNL A   1      31.660  27.879  26.552  1.00  0.00     0.023 C 
ENDROOT
BRANCH   1   2
ATOM      2  C   UNL A   1      31.702  26.428  26.074  1.00  0.00     0.116 C 
BRANCH   2   3
ATOM      3  N   UNL A   1      32.893  25.674  26.397  1.00  0.00    -0.352 N 
ATOM      4  C   UNL A   1      33.648  24.793  25.648  1.00  0.00     0.256 C 
ATOM      5  O   UNL A   1      34.649  24.356  26.219  1.00  0.00    -0.269 OA
ATOM      6  H   UNL A   1      33.224  25.815  27.313  1.00  0.00     0.163 HD
BRANCH   4   7
ATOM      7  C   UNL A   1      33.275  24.307  24.308  1.00  0.00     0.097 A 
ATOM      8  C   UNL A   1      32.746  23.094  23.893  1.00  0.00     0.129 A 
ATOM      9  S   UNL A   1      33.003  22.898  22.218  1.00  0.00    -0.017 S 
ATOM     10  N   UNL A   1      33.345  24.479  21.928  1.00  0.00    -0.195 NA
ATOM     11  C   UNL A   1      33.397  25.129  23.095  1.00  0.00     0.066 A 
ATOM     12  C   UNL A   1      33.602  26.606  23.013  1.00  0.00     0.069 C 
BRANCH   8  13
ATOM     13  N   UNL A   1      32.164  22.000  24.468  1.00  0.00    -0.315 N 
ATOM     14  C   UNL A   1      32.655  20.737  24.587  1.00  0.00     0.233 C 
ATOM     15  O   UNL A   1      31.824  19.838  24.776  1.00  0.00    -0.274 OA
ATOM     16  H   UNL A   1      31.269  22.146  24.849  1.00  0.00     0.170 HD
BRANCH  14  17
ATOM     17  C   UNL A   1      34.148  20.419  24.677  1.00  0.00     0.130 C 
ATOM     18  C   UNL A   1      34.901  20.969  25.879  1.00  0.00     0.024 C 
BRANCH  17  19
ATOM     19  C   UNL A   1      34.413  18.913  24.482  1.00  0.00     0.273 C 
BRANCH  19  20
ATOM     20  N   UNL A   1      33.832  18.008  25.482  1.00  0.00    -0.348 N 
ATOM     21  C   UNL A   1      33.922  16.601  25.110  1.00  0.00     0.330 C 
ATOM     22  H   UNL A   1      34.325  18.141  26.364  1.00  0.00     0.346 HD
ATOM     23  H   UNL A   1      32.841  18.238  25.556  1.00  0.00     0.346 HD
ENDBRANCH  19  20
ENDBRANCH  17  19
ENDBRANCH  14  17
ENDBRANCH   8  13
ENDBRANCH   4   7
ENDBRANCH   2   3
ENDBRANCH   1   2
BRANCH   1  24
ATOM     24  C   UNL A   1      32.799  28.784  26.059  1.00  0.00     0.023 C 
BRANCH  24  25
ATOM     25  C   UNL A   1      33.684  29.405  27.144  1.00  0.00     0.116 C 
BRANCH  25  26
ATOM     26  N   UNL A   1      33.648  30.862  27.175  1.00  0.00    -0.352 N 
ATOM     27  C   UNL A   1      34.523  31.711  27.824  1.00  0.00     0.251 C 
ATOM     28  H   UNL A   1      32.915  31.290  26.675  1.00  0.00     0.163 HD
ATOM     29  O   UNL A   1      34.248  32.901  27.965  1.00  0.00    -0.269 OA
BRANCH  27  30
ATOM     30  C   UNL A   1      35.785  31.169  28.371  1.00  0.00     0.039 A 
ATOM     31  C   UNL A   1      36.018  29.791  28.366  1.00  0.00     0.014 A 
ATOM     32  C   UNL A   1      36.749  32.048  28.871  1.00  0.00     0.014 A 
ATOM     33  C   UNL A   1      37.260  29.308  28.778  1.00  0.00     0.010 A 
ATOM     34  C   UNL A   1      38.003  31.574  29.211  1.00  0.00     0.010 A 
ATOM     35  C   UNL A   1      38.267  30.204  29.174  1.00  0.00    -0.014 A 
BRANCH  35  36
ATOM     36  C   UNL A   1      39.632  29.708  29.389  1.00  0.00     0.031 A 
ATOM     37  C   UNL A   1      40.018  29.503  30.822  1.00  0.00     0.074 A 
ATOM     38  C   UNL A   1      40.425  29.221  28.411  1.00  0.00     0.049 A 
ATOM     39  N   UNL A   1      40.986  30.051  31.482  1.00  0.00    -0.248 NA
ATOM     40  C   UNL A   1      39.157  28.638  31.646  1.00  0.00     0.031 C 
ATOM     41  C   UNL A   1      40.091  29.034  26.995  1.00  0.00     0.029 A 
ATOM     42  N   UNL A   1      41.670  28.667  28.503  1.00  0.00    -0.354 N 
ATOM     43  C   UNL A   1      40.987  29.453  32.743  1.00  0.00     0.074 A 
ATOM     44  C   UNL A   1      39.754  28.717  32.837  1.00  0.00     0.031 C 
ATOM     45  C   UNL A   1      40.996  28.209  26.426  1.00  0.00     0.029 A 
ATOM     46  C   UNL A   1      42.053  27.936  27.385  1.00  0.00     0.049 A 
ATOM     47  H   UNL A   1      42.245  28.777  29.294  1.00  0.00     0.167 HD
ATOM     48  C   UNL A   1      42.098  29.438  33.535  1.00  0.00     0.037 A 
ATOM     49  C   UNL A   1      43.135  27.126  27.261  1.00  0.00     0.037 A 
ATOM     50  C   UNL A   1      43.067  30.411  33.098  1.00  0.00     0.049 A 
ATOM     51  C   UNL A   1      44.105  27.513  28.313  1.00  0.00     0.074 A 
ATOM     52  C   UNL A   1      43.064  31.781  32.919  1.00  0.00     0.029 A 
ATOM     53  N   UNL A   1      44.179  29.954  32.434  1.00  0.00    -0.354 N 
ATOM     54  N   UNL A   1      44.748  28.647  28.335  1.00  0.00    -0.248 NA
ATOM     55  C   UNL A   1      44.076  26.794  29.577  1.00  0.00     0.031 C 
ATOM     56  C   UNL A   1      43.871  32.004  31.765  1.00  0.00     0.029 A 
ATOM     57  C   UNL A   1      44.361  30.767  31.345  1.00  0.00     0.049 A 
ATOM     58  H   UNL A   1      44.739  29.187  32.691  1.00  0.00     0.167 HD
ATOM     59  C   UNL A   1      44.814  28.990  29.675  1.00  0.00     0.074 A 
ATOM     60  C   UNL A   1      44.496  27.760  30.395  1.00  0.00     0.031 C 
ATOM     61  C   UNL A   1      44.844  30.299  30.066  1.00  0.00     0.037 A 
BRANCH  48  62
ATOM     62  C   UNL A   1      42.473  28.312  34.480  1.00  0.00     0.058 A 
ATOM     63  C   UNL A   1      42.711  28.602  35.843  1.00  0.00     0.135 A 
ATOM     64  C   UNL A   1      42.899  27.035  34.053  1.00  0.00     0.135 A 
ATOM     65  F   UNL A   1      42.345  29.783  36.366  1.00  0.00    -0.206 F 
ATOM     66  C   UNL A   1      43.406  27.732  36.686  1.00  0.00     0.059 A 
ATOM     67  C   UNL A   1      43.544  26.131  34.891  1.00  0.00     0.059 A 
ATOM     68  F   UNL A   1      42.802  26.638  32.779  1.00  0.00    -0.206 F 
ATOM     69  C   UNL A   1      43.840  26.506  36.190  1.00  0.00     0.060 A 
BRANCH  69  70
ATOM     70  S   UNL A   1      44.855  25.439  37.227  1.00  0.00     0.124 S 
ATOM     71  O   UNL A   1      46.120  26.164  37.234  1.00  0.00    -0.237 OA
ATOM     72  O   UNL A   1      44.111  25.435  38.482  1.00  0.00    -0.237 OA
ATOM     73  O   UNL A   1      44.856  24.172  36.502  1.00  0.00    -0.744 OA
ENDBRANCH  69  70
ENDBRANCH  48  62
BRANCH  49  74
ATOM     74  C   UNL A   1      43.278  25.877  26.471  1.00  0.00     0.058 A 
ATOM     75  C   UNL A   1      44.217  25.777  25.429  1.00  0.00     0.135 A 
ATOM     76  C   UNL A   1      42.699  24.667  26.905  1.00  0.00     0.135 A 
ATOM     77  F   UNL A   1      44.831  26.876  24.965  1.00  0.00    -0.206 F 
ATOM     78  C   UNL A   1      44.606  24.545  24.891  1.00  0.00     0.059 A 
ATOM     79  C   UNL A   1      43.060  23.430  26.374  1.00  0.00     0.059 A 
ATOM     80  F   UNL A   1      41.834  24.642  27.930  1.00  0.00    -0.206 F 
ATOM     81  C   UNL A   1      44.038  23.374  25.388  1.00  0.00     0.060 A 
BRANCH  81  82
ATOM     82  S   UNL A   1      44.678  21.773  24.841  1.00  0.00     0.124 S 
ATOM     83  O   UNL A   1      43.619  20.864  25.264  1.00  0.00    -0.237 OA
ATOM     84  O   UNL A   1      44.813  21.970  23.402  1.00  0.00    -0.237 OA
ATOM     85  O   UNL A   1      45.938  21.647  25.570  1.00  0.00    -0.744 OA
ENDBRANCH  81  82
ENDBRANCH  49  74
BRANCH  61  86
ATOM     86  C   UNL A   1      45.178  31.342  29.032  1.00  0.00     0.058 A 
ATOM     87  C   UNL A   1      46.479  31.770  28.711  1.00  0.00     0.135 A 
ATOM     88  C   UNL A   1      44.128  31.858  28.256  1.00  0.00     0.135 A 
ATOM     89  F   UNL A   1      47.551  31.243  29.320  1.00  0.00    -0.206 F 
ATOM     90  C   UNL A   1      46.716  32.718  27.714  1.00  0.00     0.059 A 
ATOM     91  C   UNL A   1      44.343  32.775  27.233  1.00  0.00     0.059 A 
ATOM     92  F   UNL A   1      42.868  31.439  28.467  1.00  0.00    -0.206 F 
ATOM     93  C   UNL A   1      45.639  33.220  26.984  1.00  0.00     0.060 A 
BRANCH  93  94
ATOM     94  S   UNL A   1      45.948  34.417  25.668  1.00  0.00     0.124 S 
ATOM     95  O   UNL A   1      45.014  33.984  24.635  1.00  0.00    -0.237 OA
ATOM     96  O   UNL A   1      45.636  35.688  26.313  1.00  0.00    -0.237 OA
ATOM     97  O   UNL A   1      47.361  34.220  25.353  1.00  0.00    -0.744 OA
ENDBRANCH  93  94
ENDBRANCH  61  86
ENDBRANCH  35  36
ENDBRANCH  27  30
ENDBRANCH  25  26
ENDBRANCH  24  25
ENDBRANCH   1  24
TORSDOF 18
ENDMDL
