MODEL 1
REMARK VINA RESULT:     -12.6      0.000      0.000
REMARK SMILES Cc1nsc(NC(=O)[C@H]2Cc3[nH]cnc3C[NH2+]2)c1C(=O)NCCCCNC(=O)c1ccc(-c2c3nc(c(-c4c(F)cc(S(=O)(=O)[O-])cc4F)c4ccc([nH]4)c(-c4c(F)cc(S(=O)(=O)[O-])cc4F)c4nc(c(-c5c(F)cc(S(=O)(=O)[O-])cc5F)c5ccc2[nH]5)C=C4)C=C3)cc1
REMARK SMILES IDX 24 1 23 2 22 3 21 4 19 5 20 6 18 8 1 9 2 10 3 11 4 12 5 13
REMARK SMILES IDX 6 14 7 15 8 17 9 18 10 19 17 20 11 21 16 22 12 25 15 26
REMARK SMILES IDX 13 27 14 29 25 30 26 31 27 32 28 34 29 35 30 36 94 37 31 38
REMARK SMILES IDX 93 39 32 40 33 41 34 42 87 43 35 44 92 45 86 46 88 47 36 48
REMARK SMILES IDX 91 49 85 50 84 51 37 53 71 54 50 55 70 56 51 57 54 58 69 59
REMARK SMILES IDX 89 60 52 61 53 62 68 64 90 65 55 66 38 67 39 68 48 69 40 70
REMARK SMILES IDX 41 71 47 72 49 73 42 74 43 75 44 76 45 77 46 78 72 79 73 80
REMARK SMILES IDX 82 81 74 82 75 83 81 84 83 85 76 86 77 87 78 88 79 89 80 90
REMARK SMILES IDX 56 91 57 92 66 93 58 94 59 95 65 96 67 97 60 98 61 99 62 100
REMARK SMILES IDX 63 101 64 102
REMARK H PARENT 21 7 6 16 17 23 17 24 12 28 26 33 88 52 54 63
REMARK Flexibility Score: inf
ROOT
ATOM      1  C   UNL A   1      39.195  22.290  26.308  1.00  0.00     0.023 C 
ENDROOT
BRANCH   1   2
ATOM      2  C   UNL A   1      38.530  23.663  26.465  1.00  0.00     0.023 C 
BRANCH   2   3
ATOM      3  C   UNL A   1      37.148  23.797  25.830  1.00  0.00     0.116 C 
BRANCH   3   4
ATOM      4  N   UNL A   1      37.138  23.544  24.418  1.00  0.00    -0.352 N 
ATOM      5  C   UNL A   1      36.223  23.053  23.529  1.00  0.00     0.256 C 
ATOM      6  O   UNL A   1      36.656  23.038  22.368  1.00  0.00    -0.269 OA
ATOM      7  H   UNL A   1      37.992  23.780  23.988  1.00  0.00     0.163 HD
BRANCH   5   8
ATOM      8  C   UNL A   1      34.847  22.575  23.799  1.00  0.00     0.097 A 
ATOM      9  C   UNL A   1      34.787  20.214  25.162  1.00  0.00     0.069 C 
ATOM     10  C   UNL A   1      34.237  21.425  24.495  1.00  0.00     0.066 A 
ATOM     11  N   UNL A   1      32.906  21.425  24.559  1.00  0.00    -0.195 NA
ATOM     12  S   UNL A   1      32.329  22.778  23.896  1.00  0.00    -0.017 S 
ATOM     13  C   UNL A   1      33.781  23.331  23.257  1.00  0.00     0.129 A 
BRANCH  13  14
ATOM     14  N   UNL A   1      33.843  24.443  22.425  1.00  0.00    -0.311 N 
ATOM     15  C   UNL A   1      33.500  25.764  22.559  1.00  0.00     0.283 C 
ATOM     16  H   UNL A   1      34.217  24.235  21.538  1.00  0.00     0.171 HD
ATOM     17  O   UNL A   1      33.694  26.488  21.571  1.00  0.00    -0.268 OA
BRANCH  15  18
ATOM     18  C   UNL A   1      32.769  26.371  23.780  1.00  0.00     0.279 C 
ATOM     19  C   UNL A   1      33.814  27.041  24.729  1.00  0.00     0.131 C 
ATOM     20  N   UNL A   1      31.541  27.104  23.343  1.00  0.00    -0.331 N 
ATOM     21  C   UNL A   1      33.262  28.291  25.287  1.00  0.00     0.050 A 
ATOM     22  C   UNL A   1      30.930  27.979  24.369  1.00  0.00     0.320 C 
ATOM     23  H   UNL A   1      30.845  26.414  23.062  1.00  0.00     0.347 HD
ATOM     24  H   UNL A   1      31.835  27.720  22.585  1.00  0.00     0.347 HD
ATOM     25  N   UNL A   1      33.915  29.280  25.958  1.00  0.00    -0.348 N 
ATOM     26  C   UNL A   1      31.973  28.733  25.119  1.00  0.00     0.116 A 
ATOM     27  C   UNL A   1      33.005  30.282  26.162  1.00  0.00     0.197 A 
ATOM     28  H   UNL A   1      34.860  29.275  26.240  1.00  0.00     0.167 HD
ATOM     29  N   UNL A   1      31.817  29.972  25.682  1.00  0.00    -0.236 NA
ENDBRANCH  15  18
ENDBRANCH  13  14
ENDBRANCH   5   8
ENDBRANCH   3   4
ENDBRANCH   2   3
ENDBRANCH   1   2
BRANCH   1  30
ATOM     30  C   UNL A   1      40.498  22.105  27.085  1.00  0.00     0.116 C 
BRANCH  30  31
ATOM     31  N   UNL A   1      41.663  21.873  26.229  1.00  0.00    -0.352 N 
ATOM     32  C   UNL A   1      42.469  22.827  25.620  1.00  0.00     0.251 C 
ATOM     33  H   UNL A   1      41.902  20.931  26.066  1.00  0.00     0.163 HD
ATOM     34  O   UNL A   1      43.137  22.556  24.641  1.00  0.00    -0.269 OA
BRANCH  32  35
ATOM     35  C   UNL A   1      42.503  24.176  26.215  1.00  0.00     0.039 A 
ATOM     36  C   UNL A   1      41.806  25.254  25.664  1.00  0.00     0.014 A 
ATOM     37  C   UNL A   1      43.212  24.314  27.403  1.00  0.00     0.014 A 
ATOM     38  C   UNL A   1      41.752  26.450  26.378  1.00  0.00     0.010 A 
ATOM     39  C   UNL A   1      43.017  25.424  28.179  1.00  0.00     0.010 A 
ATOM     40  C   UNL A   1      42.343  26.520  27.650  1.00  0.00    -0.014 A 
BRANCH  40  41
ATOM     41  C   UNL A   1      42.204  27.702  28.494  1.00  0.00     0.031 A 
ATOM     42  C   UNL A   1      43.294  28.710  28.369  1.00  0.00     0.074 A 
ATOM     43  C   UNL A   1      41.047  27.991  29.129  1.00  0.00     0.049 A 
ATOM     44  N   UNL A   1      44.177  29.038  29.253  1.00  0.00    -0.248 NA
ATOM     45  C   UNL A   1      43.520  29.337  27.055  1.00  0.00     0.031 C 
ATOM     46  C   UNL A   1      39.764  27.276  29.057  1.00  0.00     0.029 A 
ATOM     47  N   UNL A   1      40.730  29.080  29.876  1.00  0.00    -0.354 N 
ATOM     48  C   UNL A   1      44.919  30.078  28.695  1.00  0.00     0.074 A 
ATOM     49  C   UNL A   1      44.612  30.069  27.289  1.00  0.00     0.031 C 
ATOM     50  C   UNL A   1      38.774  28.080  29.500  1.00  0.00     0.029 A 
ATOM     51  C   UNL A   1      39.366  29.284  30.051  1.00  0.00     0.049 A 
ATOM     52  H   UNL A   1      41.411  29.677  30.261  1.00  0.00     0.167 HD
ATOM     53  C   UNL A   1      45.540  31.010  29.475  1.00  0.00     0.037 A 
ATOM     54  C   UNL A   1      38.770  30.385  30.572  1.00  0.00     0.037 A 
ATOM     55  C   UNL A   1      45.556  30.594  30.857  1.00  0.00     0.049 A 
ATOM     56  C   UNL A   1      39.812  31.114  31.347  1.00  0.00     0.074 A 
ATOM     57  C   UNL A   1      46.043  29.489  31.532  1.00  0.00     0.029 A 
ATOM     58  N   UNL A   1      44.652  31.183  31.711  1.00  0.00    -0.354 N 
ATOM     59  N   UNL A   1      40.369  30.645  32.431  1.00  0.00    -0.248 NA
ATOM     60  C   UNL A   1      40.578  32.139  30.652  1.00  0.00     0.031 C 
ATOM     61  C   UNL A   1      45.046  29.191  32.507  1.00  0.00     0.029 A 
ATOM     62  C   UNL A   1      44.061  30.176  32.430  1.00  0.00     0.049 A 
ATOM     63  H   UNL A   1      44.464  32.146  31.790  1.00  0.00     0.167 HD
ATOM     64  C   UNL A   1      41.712  30.979  32.316  1.00  0.00     0.074 A 
ATOM     65  C   UNL A   1      41.763  31.974  31.247  1.00  0.00     0.031 C 
ATOM     66  C   UNL A   1      42.688  30.210  32.887  1.00  0.00     0.037 A 
BRANCH  53  67
ATOM     67  C   UNL A   1      45.813  32.447  29.086  1.00  0.00     0.058 A 
ATOM     68  C   UNL A   1      44.741  33.252  28.638  1.00  0.00     0.135 A 
ATOM     69  C   UNL A   1      47.101  32.981  28.866  1.00  0.00     0.135 A 
ATOM     70  F   UNL A   1      43.470  32.852  28.798  1.00  0.00    -0.206 F 
ATOM     71  C   UNL A   1      44.938  34.446  27.943  1.00  0.00     0.059 A 
ATOM     72  C   UNL A   1      47.318  34.197  28.226  1.00  0.00     0.059 A 
ATOM     73  F   UNL A   1      48.216  32.306  29.167  1.00  0.00    -0.206 F 
ATOM     74  C   UNL A   1      46.234  34.899  27.725  1.00  0.00     0.060 A 
BRANCH  74  75
ATOM     75  S   UNL A   1      46.500  36.375  26.728  1.00  0.00     0.124 S 
ATOM     76  O   UNL A   1      45.180  36.992  26.768  1.00  0.00    -0.237 OA
ATOM     77  O   UNL A   1      47.550  37.059  27.473  1.00  0.00    -0.237 OA
ATOM     78  O   UNL A   1      46.907  35.836  25.434  1.00  0.00    -0.744 OA
ENDBRANCH  74  75
ENDBRANCH  53  67
BRANCH  54  79
ATOM     79  C   UNL A   1      37.473  30.998  30.176  1.00  0.00     0.058 A 
ATOM     80  C   UNL A   1      36.603  31.544  31.135  1.00  0.00     0.135 A 
ATOM     81  C   UNL A   1      37.183  31.305  28.830  1.00  0.00     0.135 A 
ATOM     82  F   UNL A   1      36.813  31.318  32.442  1.00  0.00    -0.206 F 
ATOM     83  C   UNL A   1      35.542  32.389  30.787  1.00  0.00     0.059 A 
ATOM     84  C   UNL A   1      36.124  32.134  28.458  1.00  0.00     0.059 A 
ATOM     85  F   UNL A   1      37.978  30.885  27.834  1.00  0.00    -0.206 F 
ATOM     86  C   UNL A   1      35.326  32.696  29.444  1.00  0.00     0.060 A 
BRANCH  86  87
ATOM     87  S   UNL A   1      34.084  33.938  29.004  1.00  0.00     0.124 S 
ATOM     88  O   UNL A   1      33.507  34.261  30.303  1.00  0.00    -0.237 OA
ATOM     89  O   UNL A   1      34.898  34.981  28.389  1.00  0.00    -0.237 OA
ATOM     90  O   UNL A   1      33.201  33.221  28.088  1.00  0.00    -0.744 OA
ENDBRANCH  86  87
ENDBRANCH  54  79
BRANCH  66  91
ATOM     91  C   UNL A   1      42.292  29.169  33.904  1.00  0.00     0.058 A 
ATOM     92  C   UNL A   1      41.876  27.862  33.598  1.00  0.00     0.135 A 
ATOM     93  C   UNL A   1      42.497  29.471  35.260  1.00  0.00     0.135 A 
ATOM     94  F   UNL A   1      41.766  27.450  32.328  1.00  0.00    -0.206 F 
ATOM     95  C   UNL A   1      41.624  26.917  34.595  1.00  0.00     0.059 A 
ATOM     96  C   UNL A   1      42.288  28.535  36.268  1.00  0.00     0.059 A 
ATOM     97  F   UNL A   1      42.960  30.681  35.617  1.00  0.00    -0.206 F 
ATOM     98  C   UNL A   1      41.833  27.264  35.929  1.00  0.00     0.060 A 
BRANCH  98  99
ATOM     99  S   UNL A   1      41.559  26.026  37.215  1.00  0.00     0.124 S 
ATOM    100  O   UNL A   1      40.234  26.386  37.707  1.00  0.00    -0.237 OA
ATOM    101  O   UNL A   1      41.642  24.773  36.472  1.00  0.00    -0.237 OA
ATOM    102  O   UNL A   1      42.657  26.259  38.152  1.00  0.00    -0.744 OA
ENDBRANCH  98  99
ENDBRANCH  66  91
ENDBRANCH  40  41
ENDBRANCH  32  35
ENDBRANCH  30  31
ENDBRANCH   1  30
TORSDOF 16
ENDMDL
MODEL 2
REMARK VINA RESULT:     -12.5      2.517      9.324
REMARK SMILES Cc1nsc(NC(=O)[C@H]2Cc3[nH]cnc3C[NH2+]2)c1C(=O)NCCCCNC(=O)c1ccc(-c2c3nc(c(-c4c(F)cc(S(=O)(=O)[O-])cc4F)c4ccc([nH]4)c(-c4c(F)cc(S(=O)(=O)[O-])cc4F)c4nc(c(-c5c(F)cc(S(=O)(=O)[O-])cc5F)c5ccc2[nH]5)C=C4)C=C3)cc1
REMARK SMILES IDX 24 1 23 2 22 3 21 4 19 5 20 6 18 8 1 9 2 10 3 11 4 12 5 13
REMARK SMILES IDX 6 14 7 15 8 17 9 18 10 19 17 20 11 21 16 22 12 25 15 26
REMARK SMILES IDX 13 27 14 29 25 30 26 31 27 32 28 34 29 35 30 36 94 37 31 38
REMARK SMILES IDX 93 39 32 40 33 41 34 42 87 43 35 44 92 45 86 46 88 47 36 48
REMARK SMILES IDX 91 49 85 50 84 51 37 53 71 54 50 55 70 56 51 57 54 58 69 59
REMARK SMILES IDX 89 60 52 61 53 62 68 64 90 65 55 66 38 67 39 68 48 69 40 70
REMARK SMILES IDX 41 71 47 72 49 73 42 74 43 75 44 76 45 77 46 78 72 79 73 80
REMARK SMILES IDX 82 81 74 82 75 83 81 84 83 85 76 86 77 87 78 88 79 89 80 90
REMARK SMILES IDX 56 91 57 92 66 93 58 94 59 95 65 96 67 97 60 98 61 99 62 100
REMARK SMILES IDX 63 101 64 102
REMARK H PARENT 21 7 6 16 17 23 17 24 12 28 26 33 88 52 54 63
REMARK Flexibility Score: inf
ROOT
ATOM      1  C   UNL A   1      32.152  29.238  27.136  1.00  0.00     0.023 C 
ENDROOT
BRANCH   1   2
ATOM      2  C   UNL A   1      31.775  28.714  25.745  1.00  0.00     0.023 C 
BRANCH   2   3
ATOM      3  C   UNL A   1      31.439  27.226  25.675  1.00  0.00     0.116 C 
BRANCH   3   4
ATOM      4  N   UNL A   1      32.525  26.374  26.067  1.00  0.00    -0.352 N 
ATOM      5  C   UNL A   1      33.301  25.443  25.434  1.00  0.00     0.256 C 
ATOM      6  O   UNL A   1      34.164  24.962  26.184  1.00  0.00    -0.269 OA
ATOM      7  H   UNL A   1      32.768  26.486  27.014  1.00  0.00     0.163 HD
BRANCH   5   8
ATOM      8  C   UNL A   1      33.224  24.988  24.027  1.00  0.00     0.097 A 
ATOM      9  C   UNL A   1      33.041  27.049  22.249  1.00  0.00     0.069 C 
ATOM     10  C   UNL A   1      33.146  25.635  22.701  1.00  0.00     0.066 A 
ATOM     11  N   UNL A   1      33.164  24.814  21.653  1.00  0.00    -0.195 NA
ATOM     12  S   UNL A   1      33.351  23.292  22.157  1.00  0.00    -0.017 S 
ATOM     13  C   UNL A   1      33.166  23.593  23.800  1.00  0.00     0.129 A 
BRANCH  13  14
ATOM     14  N   UNL A   1      33.095  22.565  24.732  1.00  0.00    -0.311 N 
ATOM     15  C   UNL A   1      33.994  21.660  25.235  1.00  0.00     0.283 C 
ATOM     16  H   UNL A   1      32.195  22.464  25.120  1.00  0.00     0.171 HD
ATOM     17  O   UNL A   1      33.560  20.858  26.075  1.00  0.00    -0.268 OA
BRANCH  15  18
ATOM     18  C   UNL A   1      35.446  21.479  24.732  1.00  0.00     0.279 C 
ATOM     19  C   UNL A   1      36.267  22.772  25.043  1.00  0.00     0.131 C 
ATOM     20  N   UNL A   1      35.964  20.127  25.106  1.00  0.00    -0.331 N 
ATOM     21  C   UNL A   1      37.637  22.413  25.461  1.00  0.00     0.050 A 
ATOM     22  C   UNL A   1      37.426  19.947  24.955  1.00  0.00     0.320 C 
ATOM     23  H   UNL A   1      35.499  19.438  24.516  1.00  0.00     0.347 HD
ATOM     24  H   UNL A   1      35.767  20.014  26.100  1.00  0.00     0.347 HD
ATOM     25  N   UNL A   1      38.583  23.207  26.033  1.00  0.00    -0.348 N 
ATOM     26  C   UNL A   1      38.165  21.146  25.442  1.00  0.00     0.116 A 
ATOM     27  C   UNL A   1      39.639  22.394  26.346  1.00  0.00     0.197 A 
ATOM     28  H   UNL A   1      38.520  24.178  26.192  1.00  0.00     0.167 HD
ATOM     29  N   UNL A   1      39.423  21.145  25.984  1.00  0.00    -0.236 NA
ENDBRANCH  15  18
ENDBRANCH  13  14
ENDBRANCH   5   8
ENDBRANCH   3   4
ENDBRANCH   2   3
ENDBRANCH   1   2
BRANCH   1  30
ATOM     30  C   UNL A   1      33.629  29.582  27.322  1.00  0.00     0.116 C 
BRANCH  30  31
ATOM     31  N   UNL A   1      33.938  30.991  27.075  1.00  0.00    -0.352 N 
ATOM     32  C   UNL A   1      34.982  31.735  27.612  1.00  0.00     0.251 C 
ATOM     33  H   UNL A   1      33.337  31.467  26.457  1.00  0.00     0.163 HD
ATOM     34  O   UNL A   1      34.928  32.949  27.670  1.00  0.00    -0.269 OA
BRANCH  32  35
ATOM     35  C   UNL A   1      36.170  31.003  28.091  1.00  0.00     0.039 A 
ATOM     36  C   UNL A   1      36.464  29.702  27.676  1.00  0.00     0.014 A 
ATOM     37  C   UNL A   1      37.032  31.699  28.931  1.00  0.00     0.014 A 
ATOM     38  C   UNL A   1      37.689  29.145  28.040  1.00  0.00     0.010 A 
ATOM     39  C   UNL A   1      38.298  31.222  29.142  1.00  0.00     0.010 A 
ATOM     40  C   UNL A   1      38.613  29.923  28.756  1.00  0.00    -0.014 A 
BRANCH  40  41
ATOM     41  C   UNL A   1      39.957  29.437  29.049  1.00  0.00     0.031 A 
ATOM     42  C   UNL A   1      40.268  29.244  30.493  1.00  0.00     0.074 A 
ATOM     43  C   UNL A   1      40.760  28.939  28.083  1.00  0.00     0.049 A 
ATOM     44  N   UNL A   1      41.102  29.910  31.221  1.00  0.00    -0.248 NA
ATOM     45  C   UNL A   1      39.457  28.284  31.261  1.00  0.00     0.031 C 
ATOM     46  C   UNL A   1      40.453  28.730  26.661  1.00  0.00     0.029 A 
ATOM     47  N   UNL A   1      41.991  28.377  28.199  1.00  0.00    -0.354 N 
ATOM     48  C   UNL A   1      41.097  29.300  32.476  1.00  0.00     0.074 A 
ATOM     49  C   UNL A   1      39.929  28.460  32.498  1.00  0.00     0.031 C 
ATOM     50  C   UNL A   1      41.344  27.866  26.129  1.00  0.00     0.029 A 
ATOM     51  C   UNL A   1      42.379  27.605  27.110  1.00  0.00     0.049 A 
ATOM     52  H   UNL A   1      42.561  28.506  28.991  1.00  0.00     0.167 HD
ATOM     53  C   UNL A   1      42.182  29.356  33.300  1.00  0.00     0.037 A 
ATOM     54  C   UNL A   1      43.452  26.778  27.042  1.00  0.00     0.037 A 
ATOM     55  C   UNL A   1      43.137  30.329  32.827  1.00  0.00     0.049 A 
ATOM     56  C   UNL A   1      44.386  27.195  28.124  1.00  0.00     0.074 A 
ATOM     57  C   UNL A   1      43.088  31.684  32.557  1.00  0.00     0.029 A 
ATOM     58  N   UNL A   1      44.256  29.861  32.178  1.00  0.00    -0.354 N 
ATOM     59  N   UNL A   1      45.008  28.343  28.144  1.00  0.00    -0.248 NA
ATOM     60  C   UNL A   1      44.254  26.542  29.420  1.00  0.00     0.031 C 
ATOM     61  C   UNL A   1      43.858  31.846  31.368  1.00  0.00     0.029 A 
ATOM     62  C   UNL A   1      44.401  30.605  31.035  1.00  0.00     0.049 A 
ATOM     63  H   UNL A   1      44.842  29.129  32.478  1.00  0.00     0.167 HD
ATOM     64  C   UNL A   1      44.953  28.757  29.467  1.00  0.00     0.074 A 
ATOM     65  C   UNL A   1      44.557  27.568  30.219  1.00  0.00     0.031 C 
ATOM     66  C   UNL A   1      44.942  30.084  29.799  1.00  0.00     0.037 A 
BRANCH  53  67
ATOM     67  C   UNL A   1      42.572  28.306  34.319  1.00  0.00     0.058 A 
ATOM     68  C   UNL A   1      42.690  28.678  35.677  1.00  0.00     0.135 A 
ATOM     69  C   UNL A   1      43.100  27.038  33.993  1.00  0.00     0.135 A 
ATOM     70  F   UNL A   1      42.218  29.859  36.107  1.00  0.00    -0.206 F 
ATOM     71  C   UNL A   1      43.364  27.894  36.615  1.00  0.00     0.059 A 
ATOM     72  C   UNL A   1      43.725  26.215  34.924  1.00  0.00     0.059 A 
ATOM     73  F   UNL A   1      43.129  26.576  32.738  1.00  0.00    -0.206 F 
ATOM     74  C   UNL A   1      43.896  26.672  36.221  1.00  0.00     0.060 A 
BRANCH  74  75
ATOM     75  S   UNL A   1      44.867  25.711  37.394  1.00  0.00     0.124 S 
ATOM     76  O   UNL A   1      44.276  26.119  38.662  1.00  0.00    -0.237 OA
ATOM     77  O   UNL A   1      44.590  24.343  36.969  1.00  0.00    -0.237 OA
ATOM     78  O   UNL A   1      46.232  26.171  37.154  1.00  0.00    -0.744 OA
ENDBRANCH  74  75
ENDBRANCH  53  67
BRANCH  54  79
ATOM     79  C   UNL A   1      43.562  25.478  26.327  1.00  0.00     0.058 A 
ATOM     80  C   UNL A   1      44.522  25.278  25.321  1.00  0.00     0.135 A 
ATOM     81  C   UNL A   1      42.911  24.319  26.801  1.00  0.00     0.135 A 
ATOM     82  F   UNL A   1      45.204  26.323  24.824  1.00  0.00    -0.206 F 
ATOM     83  C   UNL A   1      44.860  24.004  24.852  1.00  0.00     0.059 A 
ATOM     84  C   UNL A   1      43.221  23.040  26.339  1.00  0.00     0.059 A 
ATOM     85  F   UNL A   1      42.017  24.383  27.799  1.00  0.00    -0.206 F 
ATOM     86  C   UNL A   1      44.217  22.887  25.385  1.00  0.00     0.060 A 
BRANCH  86  87
ATOM     87  S   UNL A   1      44.783  21.230  24.926  1.00  0.00     0.124 S 
ATOM     88  O   UNL A   1      44.641  21.254  23.475  1.00  0.00    -0.237 OA
ATOM     89  O   UNL A   1      46.151  21.221  25.433  1.00  0.00    -0.237 OA
ATOM     90  O   UNL A   1      43.855  20.350  25.631  1.00  0.00    -0.744 OA
ENDBRANCH  86  87
ENDBRANCH  54  79
BRANCH  66  91
ATOM     91  C   UNL A   1      45.303  31.100  28.743  1.00  0.00     0.058 A 
ATOM     92  C   UNL A   1      44.421  31.594  27.766  1.00  0.00     0.135 A 
ATOM     93  C   UNL A   1      46.563  31.713  28.832  1.00  0.00     0.135 A 
ATOM     94  F   UNL A   1      43.159  31.149  27.683  1.00  0.00    -0.206 F 
ATOM     95  C   UNL A   1      44.793  32.611  26.884  1.00  0.00     0.059 A 
ATOM     96  C   UNL A   1      46.943  32.752  27.988  1.00  0.00     0.059 A 
ATOM     97  F   UNL A   1      47.428  31.335  29.787  1.00  0.00    -0.206 F 
ATOM     98  C   UNL A   1      46.059  33.184  27.003  1.00  0.00     0.060 A 
BRANCH  98  99
ATOM     99  S   UNL A   1      46.522  34.535  25.899  1.00  0.00     0.124 S 
ATOM    100  O   UNL A   1      45.567  34.379  24.808  1.00  0.00    -0.237 OA
ATOM    101  O   UNL A   1      46.335  35.713  26.742  1.00  0.00    -0.237 OA
ATOM    102  O   UNL A   1      47.912  34.238  25.560  1.00  0.00    -0.744 OA
ENDBRANCH  98  99
ENDBRANCH  66  91
ENDBRANCH  40  41
ENDBRANCH  32  35
ENDBRANCH  30  31
ENDBRANCH   1  30
TORSDOF 16
ENDMDL
MODEL 3
REMARK VINA RESULT:     -12.4      1.271      1.561
REMARK SMILES Cc1nsc(NC(=O)[C@H]2Cc3[nH]cnc3C[NH2+]2)c1C(=O)NCCCCNC(=O)c1ccc(-c2c3nc(c(-c4c(F)cc(S(=O)(=O)[O-])cc4F)c4ccc([nH]4)c(-c4c(F)cc(S(=O)(=O)[O-])cc4F)c4nc(c(-c5c(F)cc(S(=O)(=O)[O-])cc5F)c5ccc2[nH]5)C=C4)C=C3)cc1
REMARK SMILES IDX 24 1 23 2 22 3 21 4 19 5 20 6 18 8 1 9 2 10 3 11 4 12 5 13
REMARK SMILES IDX 6 14 7 15 8 17 9 18 10 19 17 20 11 21 16 22 12 25 15 26
REMARK SMILES IDX 13 27 14 29 25 30 26 31 27 32 28 34 29 35 30 36 94 37 31 38
REMARK SMILES IDX 93 39 32 40 33 41 34 42 87 43 35 44 92 45 86 46 88 47 36 48
REMARK SMILES IDX 91 49 85 50 84 51 37 53 71 54 50 55 70 56 51 57 54 58 69 59
REMARK SMILES IDX 89 60 52 61 53 62 68 64 90 65 55 66 38 67 39 68 48 69 40 70
REMARK SMILES IDX 41 71 47 72 49 73 42 74 43 75 44 76 45 77 46 78 72 79 73 80
REMARK SMILES IDX 82 81 74 82 75 83 81 84 83 85 76 86 77 87 78 88 79 89 80 90
REMARK SMILES IDX 56 91 57 92 66 93 58 94 59 95 65 96 67 97 60 98 61 99 62 100
REMARK SMILES IDX 63 101 64 102
REMARK H PARENT 21 7 6 16 17 23 17 24 12 28 26 33 88 52 54 63
REMARK Flexibility Score: inf
ROOT
ATOM      1  C   UNL A   1      39.030  22.157  26.174  1.00  0.00     0.023 C 
ENDROOT
BRANCH   1   2
ATOM      2  C   UNL A   1      38.189  23.436  26.078  1.00  0.00     0.023 C 
BRANCH   2   3
ATOM      3  C   UNL A   1      36.783  23.254  25.510  1.00  0.00     0.116 C 
BRANCH   3   4
ATOM      4  N   UNL A   1      35.974  24.436  25.590  1.00  0.00    -0.352 N 
ATOM      5  C   UNL A   1      34.632  24.696  25.549  1.00  0.00     0.256 C 
ATOM      6  O   UNL A   1      34.382  25.902  25.690  1.00  0.00    -0.269 OA
ATOM      7  H   UNL A   1      36.512  25.253  25.701  1.00  0.00     0.163 HD
BRANCH   5   8
ATOM      8  C   UNL A   1      33.518  23.736  25.373  1.00  0.00     0.097 A 
ATOM      9  C   UNL A   1      33.109  22.164  27.564  1.00  0.00     0.069 C 
ATOM     10  C   UNL A   1      32.858  22.707  26.201  1.00  0.00     0.066 A 
ATOM     11  N   UNL A   1      31.809  22.102  25.647  1.00  0.00    -0.195 NA
ATOM     12  S   UNL A   1      31.506  22.752  24.201  1.00  0.00    -0.017 S 
ATOM     13  C   UNL A   1      32.891  23.698  24.105  1.00  0.00     0.129 A 
BRANCH  13  14
ATOM     14  N   UNL A   1      33.227  24.395  22.951  1.00  0.00    -0.311 N 
ATOM     15  C   UNL A   1      32.955  25.652  22.474  1.00  0.00     0.283 C 
ATOM     16  H   UNL A   1      33.787  23.868  22.335  1.00  0.00     0.171 HD
ATOM     17  O   UNL A   1      33.429  25.937  21.364  1.00  0.00    -0.268 OA
BRANCH  15  18
ATOM     18  C   UNL A   1      31.998  26.667  23.144  1.00  0.00     0.279 C 
ATOM     19  C   UNL A   1      32.304  28.101  22.604  1.00  0.00     0.131 C 
ATOM     20  N   UNL A   1      30.601  26.133  23.167  1.00  0.00    -0.331 N 
ATOM     21  C   UNL A   1      31.046  28.852  22.422  1.00  0.00     0.050 A 
ATOM     22  C   UNL A   1      29.552  27.123  23.498  1.00  0.00     0.320 C 
ATOM     23  H   UNL A   1      30.561  25.387  23.861  1.00  0.00     0.347 HD
ATOM     24  H   UNL A   1      30.404  25.818  22.217  1.00  0.00     0.347 HD
ATOM     25  N   UNL A   1      30.850  30.029  21.765  1.00  0.00    -0.348 N 
ATOM     26  C   UNL A   1      29.801  28.417  22.803  1.00  0.00     0.116 A 
ATOM     27  C   UNL A   1      29.500  30.256  21.765  1.00  0.00     0.197 A 
ATOM     28  H   UNL A   1      31.544  30.603  21.366  1.00  0.00     0.167 HD
ATOM     29  N   UNL A   1      28.841  29.308  22.401  1.00  0.00    -0.236 NA
ENDBRANCH  15  18
ENDBRANCH  13  14
ENDBRANCH   5   8
ENDBRANCH   3   4
ENDBRANCH   2   3
ENDBRANCH   1   2
BRANCH   1  30
ATOM     30  C   UNL A   1      40.347  22.301  26.935  1.00  0.00     0.116 C 
BRANCH  30  31
ATOM     31  N   UNL A   1      41.532  22.095  26.100  1.00  0.00    -0.352 N 
ATOM     32  C   UNL A   1      42.336  23.068  25.519  1.00  0.00     0.251 C 
ATOM     33  H   UNL A   1      41.787  21.159  25.931  1.00  0.00     0.163 HD
ATOM     34  O   UNL A   1      43.028  22.818  24.550  1.00  0.00    -0.269 OA
BRANCH  32  35
ATOM     35  C   UNL A   1      42.340  24.410  26.131  1.00  0.00     0.039 A 
ATOM     36  C   UNL A   1      41.489  25.430  25.699  1.00  0.00     0.014 A 
ATOM     37  C   UNL A   1      43.188  24.596  27.216  1.00  0.00     0.014 A 
ATOM     38  C   UNL A   1      41.434  26.612  26.438  1.00  0.00     0.010 A 
ATOM     39  C   UNL A   1      43.009  25.679  28.033  1.00  0.00     0.010 A 
ATOM     40  C   UNL A   1      42.183  26.720  27.620  1.00  0.00    -0.014 A 
BRANCH  40  41
ATOM     41  C   UNL A   1      42.063  27.878  28.498  1.00  0.00     0.031 A 
ATOM     42  C   UNL A   1      43.149  28.890  28.377  1.00  0.00     0.074 A 
ATOM     43  C   UNL A   1      40.919  28.149  29.167  1.00  0.00     0.049 A 
ATOM     44  N   UNL A   1      44.051  29.194  29.250  1.00  0.00    -0.248 NA
ATOM     45  C   UNL A   1      43.346  29.552  27.076  1.00  0.00     0.031 C 
ATOM     46  C   UNL A   1      39.635  27.436  29.103  1.00  0.00     0.029 A 
ATOM     47  N   UNL A   1      40.618  29.218  29.949  1.00  0.00    -0.354 N 
ATOM     48  C   UNL A   1      44.781  30.250  28.704  1.00  0.00     0.074 A 
ATOM     49  C   UNL A   1      44.443  30.278  27.305  1.00  0.00     0.031 C 
ATOM     50  C   UNL A   1      38.655  28.227  29.589  1.00  0.00     0.029 A 
ATOM     51  C   UNL A   1      39.259  29.416  30.159  1.00  0.00     0.049 A 
ATOM     52  H   UNL A   1      41.308  29.804  30.335  1.00  0.00     0.167 HD
ATOM     53  C   UNL A   1      45.418  31.161  29.495  1.00  0.00     0.037 A 
ATOM     54  C   UNL A   1      38.674  30.503  30.722  1.00  0.00     0.037 A 
ATOM     55  C   UNL A   1      45.465  30.708  30.864  1.00  0.00     0.049 A 
ATOM     56  C   UNL A   1      39.733  31.211  31.494  1.00  0.00     0.074 A 
ATOM     57  C   UNL A   1      45.966  29.586  31.498  1.00  0.00     0.029 A 
ATOM     58  N   UNL A   1      44.579  31.273  31.753  1.00  0.00    -0.354 N 
ATOM     59  N   UNL A   1      40.314  30.714  32.553  1.00  0.00    -0.248 NA
ATOM     60  C   UNL A   1      40.484  32.254  30.810  1.00  0.00     0.031 C 
ATOM     61  C   UNL A   1      44.992  29.261  32.486  1.00  0.00     0.029 A 
ATOM     62  C   UNL A   1      44.004  30.247  32.458  1.00  0.00     0.049 A 
ATOM     63  H   UNL A   1      44.394  32.234  31.862  1.00  0.00     0.167 HD
ATOM     64  C   UNL A   1      41.653  31.051  32.417  1.00  0.00     0.074 A 
ATOM     65  C   UNL A   1      41.681  32.075  31.374  1.00  0.00     0.031 C 
ATOM     66  C   UNL A   1      42.643  30.268  32.945  1.00  0.00     0.037 A 
BRANCH  53  67
ATOM     67  C   UNL A   1      45.683  32.608  29.138  1.00  0.00     0.058 A 
ATOM     68  C   UNL A   1      44.593  33.440  28.793  1.00  0.00     0.135 A 
ATOM     69  C   UNL A   1      46.960  33.136  28.850  1.00  0.00     0.135 A 
ATOM     70  F   UNL A   1      43.331  33.047  29.025  1.00  0.00    -0.206 F 
ATOM     71  C   UNL A   1      44.758  34.656  28.128  1.00  0.00     0.059 A 
ATOM     72  C   UNL A   1      47.149  34.372  28.240  1.00  0.00     0.059 A 
ATOM     73  F   UNL A   1      48.084  32.440  29.051  1.00  0.00    -0.206 F 
ATOM     74  C   UNL A   1      46.043  35.103  27.838  1.00  0.00     0.060 A 
BRANCH  74  75
ATOM     75  S   UNL A   1      46.259  36.611  26.878  1.00  0.00     0.124 S 
ATOM     76  O   UNL A   1      46.955  36.105  25.700  1.00  0.00    -0.237 OA
ATOM     77  O   UNL A   1      44.881  37.040  26.672  1.00  0.00    -0.237 OA
ATOM     78  O   UNL A   1      47.049  37.461  27.764  1.00  0.00    -0.744 OA
ENDBRANCH  74  75
ENDBRANCH  53  67
BRANCH  54  79
ATOM     79  C   UNL A   1      37.369  31.125  30.371  1.00  0.00     0.058 A 
ATOM     80  C   UNL A   1      36.496  31.597  31.367  1.00  0.00     0.135 A 
ATOM     81  C   UNL A   1      37.070  31.516  29.050  1.00  0.00     0.135 A 
ATOM     82  F   UNL A   1      36.714  31.288  32.655  1.00  0.00    -0.206 F 
ATOM     83  C   UNL A   1      35.425  32.451  31.078  1.00  0.00     0.059 A 
ATOM     84  C   UNL A   1      36.001  32.355  28.736  1.00  0.00     0.059 A 
ATOM     85  F   UNL A   1      37.866  31.171  28.026  1.00  0.00    -0.206 F 
ATOM     86  C   UNL A   1      35.200  32.843  29.759  1.00  0.00     0.060 A 
BRANCH  86  87
ATOM     87  S   UNL A   1      33.943  34.096  29.405  1.00  0.00     0.124 S 
ATOM     88  O   UNL A   1      32.994  33.348  28.588  1.00  0.00    -0.237 OA
ATOM     89  O   UNL A   1      33.487  34.460  30.742  1.00  0.00    -0.237 OA
ATOM     90  O   UNL A   1      34.691  35.134  28.702  1.00  0.00    -0.744 OA
ENDBRANCH  86  87
ENDBRANCH  54  79
BRANCH  66  91
ATOM     91  C   UNL A   1      42.269  29.200  33.943  1.00  0.00     0.058 A 
ATOM     92  C   UNL A   1      41.913  27.880  33.614  1.00  0.00     0.135 A 
ATOM     93  C   UNL A   1      42.433  29.494  35.306  1.00  0.00     0.135 A 
ATOM     94  F   UNL A   1      41.846  27.479  32.337  1.00  0.00    -0.206 F 
ATOM     95  C   UNL A   1      41.680  26.914  34.595  1.00  0.00     0.059 A 
ATOM     96  C   UNL A   1      42.242  28.538  36.299  1.00  0.00     0.059 A 
ATOM     97  F   UNL A   1      42.838  30.718  35.686  1.00  0.00    -0.206 F 
ATOM     98  C   UNL A   1      41.847  27.254  35.937  1.00  0.00     0.060 A 
BRANCH  98  99
ATOM     99  S   UNL A   1      41.598  25.991  37.204  1.00  0.00     0.124 S 
ATOM    100  O   UNL A   1      40.264  26.314  37.699  1.00  0.00    -0.237 OA
ATOM    101  O   UNL A   1      41.709  24.751  36.442  1.00  0.00    -0.237 OA
ATOM    102  O   UNL A   1      42.689  26.233  38.146  1.00  0.00    -0.744 OA
ENDBRANCH  98  99
ENDBRANCH  66  91
ENDBRANCH  40  41
ENDBRANCH  32  35
ENDBRANCH  30  31
ENDBRANCH   1  30
TORSDOF 16
ENDMDL
