MODEL 1
REMARK VINA RESULT:     -11.4      0.000      0.000
REMARK SMILES COCC[C@]1(C(=O)NCCCCNC(=O)c2ccc(-c3c4nc(c(-c5c(F)cc(S(=O)(=O)[O-])cc5F)c5ccc([nH]5)c(-c5c(F)cc(S(=O)(=O)[O-])cc5F)c5nc(c(-c6c(F)cc(S(=O)(=O)[O-])cc6F)c6ccc3[nH]6)C=C5)C=C4)cc2)CCCN(C(=O)c2ccc(=O)[nH]c2)C1
REMARK SMILES IDX 10 1 9 2 8 3 6 4 7 5 5 7 82 8 95 9 83 10 85 11 84 12 4 13
REMARK SMILES IDX 3 14 2 15 1 16 86 17 87 18 88 19 89 20 94 21 90 22 93 23
REMARK SMILES IDX 91 24 92 26 11 27 12 28 13 29 14 30 15 32 16 33 17 34 81 35
REMARK SMILES IDX 18 36 80 37 19 38 20 39 21 40 74 41 22 42 79 43 73 44 75 45
REMARK SMILES IDX 23 46 78 47 72 48 71 49 24 51 58 52 37 53 57 54 38 55 41 56
REMARK SMILES IDX 56 57 76 58 39 59 40 60 55 62 77 63 42 64 25 65 26 66 35 67
REMARK SMILES IDX 27 68 28 69 34 70 36 71 29 72 30 73 31 74 32 75 33 76 59 77
REMARK SMILES IDX 60 78 69 79 61 80 62 81 68 82 70 83 63 84 64 85 65 86 66 87
REMARK SMILES IDX 67 88 43 89 44 90 53 91 45 92 46 93 52 94 54 95 47 96 48 97
REMARK SMILES IDX 49 98 50 99 51 100
REMARK H PARENT 8 6 93 25 13 31 75 50 41 61
REMARK Flexibility Score: inf
ROOT
ATOM      1  C   UNL A   1      38.392  23.838  26.669  1.00  0.00     0.023 C 
ENDROOT
BRANCH   1   2
ATOM      2  C   UNL A   1      37.069  23.426  26.031  1.00  0.00     0.116 C 
BRANCH   2   3
ATOM      3  N   UNL A   1      37.129  23.491  24.584  1.00  0.00    -0.356 N 
ATOM      4  C   UNL A   1      36.233  23.193  23.606  1.00  0.00     0.228 C 
ATOM      5  O   UNL A   1      36.711  23.116  22.471  1.00  0.00    -0.274 OA
ATOM      6  H   UNL A   1      37.992  23.817  24.241  1.00  0.00     0.163 HD
BRANCH   4   7
ATOM      7  C   UNL A   1      34.746  22.889  23.892  1.00  0.00     0.069 C 
ATOM      8  C   UNL A   1      33.921  23.615  22.784  1.00  0.00     0.021 C 
ATOM      9  C   UNL A   1      34.457  21.369  23.906  1.00  0.00     0.136 C 
ATOM     10  C   UNL A   1      32.461  23.168  22.695  1.00  0.00     0.023 C 
ATOM     11  N   UNL A   1      33.025  21.074  23.843  1.00  0.00    -0.338 N 
ATOM     12  C   UNL A   1      32.327  21.652  22.698  1.00  0.00     0.120 C 
BRANCH   7  13
ATOM     13  C   UNL A   1      34.338  23.522  25.270  1.00  0.00     0.047 C 
BRANCH  13  14
ATOM     14  C   UNL A   1      33.952  25.009  25.325  1.00  0.00     0.161 C 
BRANCH  14  15
ATOM     15  O   UNL A   1      32.681  25.263  25.903  1.00  0.00    -0.385 OA
ATOM     16  C   UNL A   1      31.988  24.107  26.347  1.00  0.00     0.194 C 
ENDBRANCH  14  15
ENDBRANCH  13  14
ENDBRANCH   7  13
BRANCH  11  17
ATOM     17  C   UNL A   1      32.468  20.265  24.822  1.00  0.00     0.255 C 
ATOM     18  O   UNL A   1      31.627  20.656  25.630  1.00  0.00    -0.269 OA
BRANCH  17  19
ATOM     19  C   UNL A   1      32.877  18.840  24.857  1.00  0.00     0.056 A 
ATOM     20  C   UNL A   1      33.447  18.163  23.711  1.00  0.00     0.021 A 
ATOM     21  C   UNL A   1      32.770  18.199  26.030  1.00  0.00     0.099 A 
ATOM     22  C   UNL A   1      33.831  16.881  23.804  1.00  0.00     0.072 A 
ATOM     23  N   UNL A   1      33.160  16.885  26.138  1.00  0.00    -0.328 N 
ATOM     24  C   UNL A   1      33.687  16.153  25.096  1.00  0.00     0.247 A 
ATOM     25  H   UNL A   1      33.059  16.441  27.010  1.00  0.00     0.169 HD
ATOM     26  O   UNL A   1      34.021  14.985  25.207  1.00  0.00    -0.270 OA
ENDBRANCH  17  19
ENDBRANCH  11  17
ENDBRANCH   4   7
ENDBRANCH   2   3
ENDBRANCH   1   2
BRANCH   1  27
ATOM     27  C   UNL A   1      39.513  22.809  26.540  1.00  0.00     0.023 C 
BRANCH  27  28
ATOM     28  C   UNL A   1      40.889  23.295  26.978  1.00  0.00     0.116 C 
BRANCH  28  29
ATOM     29  N   UNL A   1      41.556  24.094  25.960  1.00  0.00    -0.352 N 
ATOM     30  C   UNL A   1      41.943  25.411  26.009  1.00  0.00     0.251 C 
ATOM     31  H   UNL A   1      41.757  23.624  25.119  1.00  0.00     0.163 HD
ATOM     32  O   UNL A   1      42.358  25.965  24.996  1.00  0.00    -0.269 OA
BRANCH  30  33
ATOM     33  C   UNL A   1      41.824  26.157  27.278  1.00  0.00     0.039 A 
ATOM     34  C   UNL A   1      42.557  27.334  27.444  1.00  0.00     0.014 A 
ATOM     35  C   UNL A   1      40.962  25.713  28.285  1.00  0.00     0.014 A 
ATOM     36  C   UNL A   1      42.369  28.105  28.592  1.00  0.00     0.010 A 
ATOM     37  C   UNL A   1      40.717  26.523  29.388  1.00  0.00     0.010 A 
ATOM     38  C   UNL A   1      41.417  27.727  29.554  1.00  0.00    -0.014 A 
BRANCH  38  39
ATOM     39  C   UNL A   1      41.134  28.583  30.735  1.00  0.00     0.031 A 
ATOM     40  C   UNL A   1      40.037  29.612  30.676  1.00  0.00     0.074 A 
ATOM     41  C   UNL A   1      41.915  28.486  31.831  1.00  0.00     0.049 A 
ATOM     42  N   UNL A   1      39.691  30.501  31.570  1.00  0.00    -0.248 NA
ATOM     43  C   UNL A   1      39.244  29.672  29.436  1.00  0.00     0.031 C 
ATOM     44  C   UNL A   1      43.050  27.572  31.985  1.00  0.00     0.029 A 
ATOM     45  N   UNL A   1      41.886  29.176  33.017  1.00  0.00    -0.354 N 
ATOM     46  C   UNL A   1      38.660  31.236  30.996  1.00  0.00     0.074 A 
ATOM     47  C   UNL A   1      38.466  30.721  29.660  1.00  0.00     0.031 C 
ATOM     48  C   UNL A   1      43.599  27.749  33.196  1.00  0.00     0.029 A 
ATOM     49  C   UNL A   1      42.884  28.814  33.894  1.00  0.00     0.049 A 
ATOM     50  H   UNL A   1      41.214  29.866  33.223  1.00  0.00     0.167 HD
ATOM     51  C   UNL A   1      37.931  32.237  31.543  1.00  0.00     0.037 A 
ATOM     52  C   UNL A   1      43.198  29.295  35.113  1.00  0.00     0.037 A 
ATOM     53  C   UNL A   1      38.105  32.717  32.888  1.00  0.00     0.049 A 
ATOM     54  C   UNL A   1      42.355  30.393  35.705  1.00  0.00     0.074 A 
ATOM     55  C   UNL A   1      37.355  33.664  33.565  1.00  0.00     0.029 A 
ATOM     56  N   UNL A   1      39.097  32.296  33.760  1.00  0.00    -0.354 N 
ATOM     57  N   UNL A   1      41.324  31.012  35.182  1.00  0.00    -0.248 NA
ATOM     58  C   UNL A   1      42.710  30.851  37.056  1.00  0.00     0.031 C 
ATOM     59  C   UNL A   1      37.928  33.855  34.825  1.00  0.00     0.029 A 
ATOM     60  C   UNL A   1      38.998  32.985  34.957  1.00  0.00     0.049 A 
ATOM     61  H   UNL A   1      39.773  31.608  33.558  1.00  0.00     0.167 HD
ATOM     62  C   UNL A   1      40.891  31.913  36.150  1.00  0.00     0.074 A 
ATOM     63  C   UNL A   1      41.761  31.747  37.294  1.00  0.00     0.031 C 
ATOM     64  C   UNL A   1      39.866  32.799  36.094  1.00  0.00     0.037 A 
BRANCH  51  65
ATOM     65  C   UNL A   1      36.870  32.885  30.694  1.00  0.00     0.058 A 
ATOM     66  C   UNL A   1      35.511  32.569  30.839  1.00  0.00     0.135 A 
ATOM     67  C   UNL A   1      37.215  33.888  29.773  1.00  0.00     0.135 A 
ATOM     68  F   UNL A   1      35.127  31.606  31.693  1.00  0.00    -0.206 F 
ATOM     69  C   UNL A   1      34.530  33.213  30.092  1.00  0.00     0.059 A 
ATOM     70  C   UNL A   1      36.248  34.565  29.035  1.00  0.00     0.059 A 
ATOM     71  F   UNL A   1      38.500  34.227  29.592  1.00  0.00    -0.206 F 
ATOM     72  C   UNL A   1      34.909  34.215  29.196  1.00  0.00     0.060 A 
BRANCH  72  73
ATOM     73  S   UNL A   1      33.620  35.065  28.262  1.00  0.00     0.124 S 
ATOM     74  O   UNL A   1      33.462  36.293  29.034  1.00  0.00    -0.237 OA
ATOM     75  O   UNL A   1      34.235  35.216  26.948  1.00  0.00    -0.237 OA
ATOM     76  O   UNL A   1      32.491  34.139  28.320  1.00  0.00    -0.744 OA
ENDBRANCH  72  73
ENDBRANCH  51  65
BRANCH  52  77
ATOM     77  C   UNL A   1      44.365  28.745  35.856  1.00  0.00     0.058 A 
ATOM     78  C   UNL A   1      45.654  29.270  35.677  1.00  0.00     0.135 A 
ATOM     79  C   UNL A   1      44.215  27.677  36.754  1.00  0.00     0.135 A 
ATOM     80  F   UNL A   1      45.852  30.289  34.827  1.00  0.00    -0.206 F 
ATOM     81  C   UNL A   1      46.756  28.739  36.339  1.00  0.00     0.059 A 
ATOM     82  C   UNL A   1      45.297  27.147  37.451  1.00  0.00     0.059 A 
ATOM     83  F   UNL A   1      43.001  27.149  36.976  1.00  0.00    -0.206 F 
ATOM     84  C   UNL A   1      46.568  27.676  37.224  1.00  0.00     0.060 A 
BRANCH  84  85
ATOM     85  S   UNL A   1      48.000  27.012  38.101  1.00  0.00     0.124 S 
ATOM     86  O   UNL A   1      48.651  26.234  37.053  1.00  0.00    -0.237 OA
ATOM     87  O   UNL A   1      48.692  28.227  38.520  1.00  0.00    -0.237 OA
ATOM     88  O   UNL A   1      47.401  26.238  39.185  1.00  0.00    -0.744 OA
ENDBRANCH  84  85
ENDBRANCH  52  77
BRANCH  64  89
ATOM     89  C   UNL A   1      39.598  33.631  37.317  1.00  0.00     0.058 A 
ATOM     90  C   UNL A   1      38.762  33.181  38.351  1.00  0.00     0.135 A 
ATOM     91  C   UNL A   1      40.232  34.873  37.483  1.00  0.00     0.135 A 
ATOM     92  F   UNL A   1      38.125  32.003  38.241  1.00  0.00    -0.206 F 
ATOM     93  C   UNL A   1      38.547  33.942  39.495  1.00  0.00     0.059 A 
ATOM     94  C   UNL A   1      40.057  35.637  38.632  1.00  0.00     0.059 A 
ATOM     95  F   UNL A   1      41.051  35.346  36.529  1.00  0.00    -0.206 F 
ATOM     96  C   UNL A   1      39.203  35.168  39.628  1.00  0.00     0.060 A 
BRANCH  96  97
ATOM     97  S   UNL A   1      38.944  36.129  41.134  1.00  0.00     0.124 S 
ATOM     98  O   UNL A   1      40.198  35.904  41.846  1.00  0.00    -0.237 OA
ATOM     99  O   UNL A   1      38.743  37.478  40.613  1.00  0.00    -0.237 OA
ATOM    100  O   UNL A   1      37.763  35.512  41.732  1.00  0.00    -0.744 OA
ENDBRANCH  96  97
ENDBRANCH  64  89
ENDBRANCH  38  39
ENDBRANCH  30  33
ENDBRANCH  28  29
ENDBRANCH  27  28
ENDBRANCH   1  27
TORSDOF 19
ENDMDL
MODEL 2
REMARK VINA RESULT:     -11.3      1.962      8.967
REMARK SMILES COCC[C@]1(C(=O)NCCCCNC(=O)c2ccc(-c3c4nc(c(-c5c(F)cc(S(=O)(=O)[O-])cc5F)c5ccc([nH]5)c(-c5c(F)cc(S(=O)(=O)[O-])cc5F)c5nc(c(-c6c(F)cc(S(=O)(=O)[O-])cc6F)c6ccc3[nH]6)C=C5)C=C4)cc2)CCCN(C(=O)c2ccc(=O)[nH]c2)C1
REMARK SMILES IDX 10 1 9 2 8 3 6 4 7 5 5 7 82 8 95 9 83 10 85 11 84 12 4 13
REMARK SMILES IDX 3 14 2 15 1 16 86 17 87 18 88 19 89 20 94 21 90 22 93 23
REMARK SMILES IDX 91 24 92 26 11 27 12 28 13 29 14 30 15 32 16 33 17 34 81 35
REMARK SMILES IDX 18 36 80 37 19 38 20 39 21 40 74 41 22 42 79 43 73 44 75 45
REMARK SMILES IDX 23 46 78 47 72 48 71 49 24 51 58 52 37 53 57 54 38 55 41 56
REMARK SMILES IDX 56 57 76 58 39 59 40 60 55 62 77 63 42 64 25 65 26 66 35 67
REMARK SMILES IDX 27 68 28 69 34 70 36 71 29 72 30 73 31 74 32 75 33 76 59 77
REMARK SMILES IDX 60 78 69 79 61 80 62 81 68 82 70 83 63 84 64 85 65 86 66 87
REMARK SMILES IDX 67 88 43 89 44 90 53 91 45 92 46 93 52 94 54 95 47 96 48 97
REMARK SMILES IDX 49 98 50 99 51 100
REMARK H PARENT 8 6 93 25 13 31 75 50 41 61
REMARK Flexibility Score: inf
ROOT
ATOM      1  C   UNL A   1      38.010  24.031  26.119  1.00  0.00     0.023 C 
ENDROOT
BRANCH   1   2
ATOM      2  C   UNL A   1      36.600  23.749  25.609  1.00  0.00     0.116 C 
BRANCH   2   3
ATOM      3  N   UNL A   1      35.888  22.835  26.481  1.00  0.00    -0.356 N 
ATOM      4  C   UNL A   1      34.567  22.638  26.736  1.00  0.00     0.228 C 
ATOM      5  O   UNL A   1      34.329  21.954  27.734  1.00  0.00    -0.274 OA
ATOM      6  H   UNL A   1      36.481  22.237  26.991  1.00  0.00     0.163 HD
BRANCH   4   7
ATOM      7  C   UNL A   1      33.444  23.285  25.898  1.00  0.00     0.069 C 
ATOM      8  C   UNL A   1      32.112  23.048  26.677  1.00  0.00     0.021 C 
ATOM      9  C   UNL A   1      33.694  24.792  25.654  1.00  0.00     0.136 C 
ATOM     10  C   UNL A   1      30.938  23.895  26.184  1.00  0.00     0.023 C 
ATOM     11  N   UNL A   1      32.503  25.482  25.159  1.00  0.00    -0.338 N 
ATOM     12  C   UNL A   1      31.322  25.357  26.010  1.00  0.00     0.120 C 
BRANCH   7  13
ATOM     13  C   UNL A   1      33.319  22.536  24.522  1.00  0.00     0.047 C 
BRANCH  13  14
ATOM     14  C   UNL A   1      33.621  21.030  24.460  1.00  0.00     0.161 C 
BRANCH  14  15
ATOM     15  O   UNL A   1      32.475  20.198  24.550  1.00  0.00    -0.385 OA
ATOM     16  C   UNL A   1      32.734  18.876  24.994  1.00  0.00     0.194 C 
ENDBRANCH  14  15
ENDBRANCH  13  14
ENDBRANCH   7  13
BRANCH  11  17
ATOM     17  C   UNL A   1      32.595  26.209  23.982  1.00  0.00     0.255 C 
ATOM     18  O   UNL A   1      33.359  25.921  23.062  1.00  0.00    -0.269 OA
BRANCH  17  19
ATOM     19  C   UNL A   1      31.682  27.365  23.809  1.00  0.00     0.056 A 
ATOM     20  C   UNL A   1      30.328  27.223  23.317  1.00  0.00     0.021 A 
ATOM     21  C   UNL A   1      32.131  28.567  24.200  1.00  0.00     0.099 A 
ATOM     22  C   UNL A   1      29.530  28.297  23.209  1.00  0.00     0.072 A 
ATOM     23  N   UNL A   1      31.323  29.674  24.094  1.00  0.00    -0.328 N 
ATOM     24  C   UNL A   1      30.033  29.640  23.613  1.00  0.00     0.247 A 
ATOM     25  H   UNL A   1      31.688  30.542  24.381  1.00  0.00     0.169 HD
ATOM     26  O   UNL A   1      29.332  30.635  23.519  1.00  0.00    -0.270 OA
ENDBRANCH  17  19
ENDBRANCH  11  17
ENDBRANCH   4   7
ENDBRANCH   2   3
ENDBRANCH   1   2
BRANCH   1  27
ATOM     27  C   UNL A   1      38.886  22.794  26.296  1.00  0.00     0.023 C 
BRANCH  27  28
ATOM     28  C   UNL A   1      40.191  23.029  27.048  1.00  0.00     0.116 C 
BRANCH  28  29
ATOM     29  N   UNL A   1      41.277  23.448  26.175  1.00  0.00    -0.352 N 
ATOM     30  C   UNL A   1      41.923  24.659  26.117  1.00  0.00     0.251 C 
ATOM     31  H   UNL A   1      41.593  22.769  25.536  1.00  0.00     0.163 HD
ATOM     32  O   UNL A   1      42.718  24.886  25.211  1.00  0.00    -0.269 OA
BRANCH  30  33
ATOM     33  C   UNL A   1      41.628  25.690  27.133  1.00  0.00     0.039 A 
ATOM     34  C   UNL A   1      40.708  25.402  28.143  1.00  0.00     0.014 A 
ATOM     35  C   UNL A   1      42.287  26.922  27.107  1.00  0.00     0.014 A 
ATOM     36  C   UNL A   1      40.504  26.325  29.171  1.00  0.00     0.010 A 
ATOM     37  C   UNL A   1      42.142  27.803  28.173  1.00  0.00     0.010 A 
ATOM     38  C   UNL A   1      41.249  27.515  29.216  1.00  0.00    -0.014 A 
BRANCH  38  39
ATOM     39  C   UNL A   1      41.116  28.465  30.350  1.00  0.00     0.031 A 
ATOM     40  C   UNL A   1      41.983  28.309  31.571  1.00  0.00     0.074 A 
ATOM     41  C   UNL A   1      40.161  29.417  30.313  1.00  0.00     0.049 A 
ATOM     42  N   UNL A   1      41.962  28.987  32.688  1.00  0.00    -0.248 NA
ATOM     43  C   UNL A   1      42.986  27.231  31.544  1.00  0.00     0.031 C 
ATOM     44  C   UNL A   1      39.216  29.627  29.214  1.00  0.00     0.029 A 
ATOM     45  N   UNL A   1      39.814  30.376  31.232  1.00  0.00    -0.354 N 
ATOM     46  C   UNL A   1      42.928  28.406  33.504  1.00  0.00     0.074 A 
ATOM     47  C   UNL A   1      43.486  27.293  32.770  1.00  0.00     0.031 C 
ATOM     48  C   UNL A   1      38.408  30.655  29.515  1.00  0.00     0.029 A 
ATOM     49  C   UNL A   1      38.747  31.155  30.844  1.00  0.00     0.049 A 
ATOM     50  H   UNL A   1      40.285  30.497  32.089  1.00  0.00     0.167 HD
ATOM     51  C   UNL A   1      43.324  28.781  34.742  1.00  0.00     0.037 A 
ATOM     52  C   UNL A   1      38.104  32.147  31.492  1.00  0.00     0.037 A 
ATOM     53  C   UNL A   1      42.790  29.915  35.449  1.00  0.00     0.049 A 
ATOM     54  C   UNL A   1      38.582  32.558  32.859  1.00  0.00     0.074 A 
ATOM     55  C   UNL A   1      43.190  30.431  36.670  1.00  0.00     0.029 A 
ATOM     56  N   UNL A   1      41.740  30.705  35.006  1.00  0.00    -0.354 N 
ATOM     57  N   UNL A   1      39.559  32.055  33.575  1.00  0.00    -0.248 NA
ATOM     58  C   UNL A   1      37.878  33.676  33.503  1.00  0.00     0.031 C 
ATOM     59  C   UNL A   1      42.346  31.498  36.990  1.00  0.00     0.029 A 
ATOM     60  C   UNL A   1      41.459  31.686  35.942  1.00  0.00     0.049 A 
ATOM     61  H   UNL A   1      41.265  30.588  34.151  1.00  0.00     0.167 HD
ATOM     62  C   UNL A   1      39.605  32.813  34.741  1.00  0.00     0.074 A 
ATOM     63  C   UNL A   1      38.568  33.816  34.627  1.00  0.00     0.031 C 
ATOM     64  C   UNL A   1      40.430  32.687  35.809  1.00  0.00     0.037 A 
BRANCH  51  65
ATOM     65  C   UNL A   1      44.391  27.965  35.421  1.00  0.00     0.058 A 
ATOM     66  C   UNL A   1      44.075  26.870  36.240  1.00  0.00     0.135 A 
ATOM     67  C   UNL A   1      45.748  28.242  35.193  1.00  0.00     0.135 A 
ATOM     68  F   UNL A   1      42.794  26.570  36.507  1.00  0.00    -0.206 F 
ATOM     69  C   UNL A   1      45.067  26.085  36.819  1.00  0.00     0.059 A 
ATOM     70  C   UNL A   1      46.757  27.454  35.739  1.00  0.00     0.059 A 
ATOM     71  F   UNL A   1      46.106  29.280  34.421  1.00  0.00    -0.206 F 
ATOM     72  C   UNL A   1      46.406  26.382  36.557  1.00  0.00     0.060 A 
BRANCH  72  73
ATOM     73  S   UNL A   1      47.679  25.331  37.288  1.00  0.00     0.124 S 
ATOM     74  O   UNL A   1      47.490  25.591  38.711  1.00  0.00    -0.237 OA
ATOM     75  O   UNL A   1      47.287  24.003  36.828  1.00  0.00    -0.237 OA
ATOM     76  O   UNL A   1      48.918  25.849  36.716  1.00  0.00    -0.744 OA
ENDBRANCH  72  73
ENDBRANCH  51  65
BRANCH  52  77
ATOM     77  C   UNL A   1      36.939  32.821  30.857  1.00  0.00     0.058 A 
ATOM     78  C   UNL A   1      35.624  32.419  31.140  1.00  0.00     0.135 A 
ATOM     79  C   UNL A   1      37.116  33.877  29.949  1.00  0.00     0.135 A 
ATOM     80  F   UNL A   1      35.400  31.412  31.997  1.00  0.00    -0.206 F 
ATOM     81  C   UNL A   1      34.529  33.018  30.524  1.00  0.00     0.059 A 
ATOM     82  C   UNL A   1      36.036  34.512  29.343  1.00  0.00     0.059 A 
ATOM     83  F   UNL A   1      38.351  34.314  29.658  1.00  0.00    -0.206 F 
ATOM     84  C   UNL A   1      34.746  34.064  29.625  1.00  0.00     0.060 A 
BRANCH  84  85
ATOM     85  S   UNL A   1      33.318  34.856  28.854  1.00  0.00     0.124 S 
ATOM     86  O   UNL A   1      33.941  35.982  28.169  1.00  0.00    -0.237 OA
ATOM     87  O   UNL A   1      32.803  33.791  27.998  1.00  0.00    -0.237 OA
ATOM     88  O   UNL A   1      32.469  35.198  29.992  1.00  0.00    -0.744 OA
ENDBRANCH  84  85
ENDBRANCH  52  77
BRANCH  64  89
ATOM     89  C   UNL A   1      40.278  33.681  36.927  1.00  0.00     0.058 A 
ATOM     90  C   UNL A   1      39.411  33.454  38.008  1.00  0.00     0.135 A 
ATOM     91  C   UNL A   1      41.054  34.852  36.946  1.00  0.00     0.135 A 
ATOM     92  F   UNL A   1      38.641  32.354  38.036  1.00  0.00    -0.206 F 
ATOM     93  C   UNL A   1      39.302  34.362  39.055  1.00  0.00     0.059 A 
ATOM     94  C   UNL A   1      40.985  35.759  37.998  1.00  0.00     0.059 A 
ATOM     95  F   UNL A   1      41.908  35.113  35.943  1.00  0.00    -0.206 F 
ATOM     96  C   UNL A   1      40.097  35.511  39.043  1.00  0.00     0.060 A 
BRANCH  96  97
ATOM     97  S   UNL A   1      39.972  36.664  40.426  1.00  0.00     0.124 S 
ATOM     98  O   UNL A   1      38.537  36.931  40.457  1.00  0.00    -0.237 OA
ATOM     99  O   UNL A   1      40.495  35.875  41.539  1.00  0.00    -0.237 OA
ATOM    100  O   UNL A   1      40.810  37.785  40.012  1.00  0.00    -0.744 OA
ENDBRANCH  96  97
ENDBRANCH  64  89
ENDBRANCH  38  39
ENDBRANCH  30  33
ENDBRANCH  28  29
ENDBRANCH  27  28
ENDBRANCH   1  27
TORSDOF 19
ENDMDL
MODEL 3
REMARK VINA RESULT:     -11.2      6.396     11.571
REMARK SMILES COCC[C@]1(C(=O)NCCCCNC(=O)c2ccc(-c3c4nc(c(-c5c(F)cc(S(=O)(=O)[O-])cc5F)c5ccc([nH]5)c(-c5c(F)cc(S(=O)(=O)[O-])cc5F)c5nc(c(-c6c(F)cc(S(=O)(=O)[O-])cc6F)c6ccc3[nH]6)C=C5)C=C4)cc2)CCCN(C(=O)c2ccc(=O)[nH]c2)C1
REMARK SMILES IDX 10 1 9 2 8 3 6 4 7 5 5 7 82 8 95 9 83 10 85 11 84 12 4 13
REMARK SMILES IDX 3 14 2 15 1 16 86 17 87 18 88 19 89 20 94 21 90 22 93 23
REMARK SMILES IDX 91 24 92 26 11 27 12 28 13 29 14 30 15 32 16 33 17 34 81 35
REMARK SMILES IDX 18 36 80 37 19 38 20 39 21 40 74 41 22 42 79 43 73 44 75 45
REMARK SMILES IDX 23 46 78 47 72 48 71 49 24 51 58 52 37 53 57 54 38 55 41 56
REMARK SMILES IDX 56 57 76 58 39 59 40 60 55 62 77 63 42 64 25 65 26 66 35 67
REMARK SMILES IDX 27 68 28 69 34 70 36 71 29 72 30 73 31 74 32 75 33 76 59 77
REMARK SMILES IDX 60 78 69 79 61 80 62 81 68 82 70 83 63 84 64 85 65 86 66 87
REMARK SMILES IDX 67 88 43 89 44 90 53 91 45 92 46 93 52 94 54 95 47 96 48 97
REMARK SMILES IDX 49 98 50 99 51 100
REMARK H PARENT 8 6 93 25 13 31 75 50 41 61
REMARK Flexibility Score: inf
ROOT
ATOM      1  C   UNL A   1      33.762  31.040  27.168  1.00  0.00     0.023 C 
ENDROOT
BRANCH   1   2
ATOM      2  C   UNL A   1      33.978  29.534  27.054  1.00  0.00     0.116 C 
BRANCH   2   3
ATOM      3  N   UNL A   1      32.908  28.791  27.692  1.00  0.00    -0.356 N 
ATOM      4  C   UNL A   1      31.967  27.932  27.216  1.00  0.00     0.228 C 
ATOM      5  O   UNL A   1      31.046  27.688  28.000  1.00  0.00    -0.274 OA
ATOM      6  H   UNL A   1      32.853  28.936  28.664  1.00  0.00     0.163 HD
BRANCH   4   7
ATOM      7  C   UNL A   1      31.992  27.368  25.779  1.00  0.00     0.069 C 
ATOM      8  C   UNL A   1      31.936  28.596  24.817  1.00  0.00     0.021 C 
ATOM      9  C   UNL A   1      33.246  26.502  25.517  1.00  0.00     0.136 C 
ATOM     10  C   UNL A   1      32.285  28.271  23.364  1.00  0.00     0.023 C 
ATOM     11  N   UNL A   1      33.455  26.240  24.092  1.00  0.00    -0.338 N 
ATOM     12  C   UNL A   1      33.551  27.433  23.255  1.00  0.00     0.120 C 
BRANCH   7  13
ATOM     13  C   UNL A   1      30.695  26.518  25.527  1.00  0.00     0.047 C 
BRANCH  13  14
ATOM     14  C   UNL A   1      30.749  24.994  25.724  1.00  0.00     0.161 C 
BRANCH  14  15
ATOM     15  O   UNL A   1      31.317  24.583  26.958  1.00  0.00    -0.385 OA
ATOM     16  C   UNL A   1      31.909  23.294  26.940  1.00  0.00     0.194 C 
ENDBRANCH  14  15
ENDBRANCH  13  14
ENDBRANCH   7  13
BRANCH  11  17
ATOM     17  C   UNL A   1      33.578  24.926  23.668  1.00  0.00     0.255 C 
ATOM     18  O   UNL A   1      32.794  24.386  22.889  1.00  0.00    -0.269 OA
BRANCH  17  19
ATOM     19  C   UNL A   1      34.750  24.151  24.145  1.00  0.00     0.056 A 
ATOM     20  C   UNL A   1      35.465  24.486  25.358  1.00  0.00     0.021 A 
ATOM     21  C   UNL A   1      35.093  23.062  23.442  1.00  0.00     0.099 A 
ATOM     22  C   UNL A   1      36.499  23.734  25.765  1.00  0.00     0.072 A 
ATOM     23  N   UNL A   1      36.151  22.284  23.848  1.00  0.00    -0.328 N 
ATOM     24  C   UNL A   1      36.906  22.539  24.973  1.00  0.00     0.247 A 
ATOM     25  H   UNL A   1      36.383  21.497  23.305  1.00  0.00     0.169 HD
ATOM     26  O   UNL A   1      37.847  21.842  25.314  1.00  0.00    -0.270 OA
ENDBRANCH  17  19
ENDBRANCH  11  17
ENDBRANCH   4   7
ENDBRANCH   2   3
ENDBRANCH   1   2
BRANCH   1  27
ATOM     27  C   UNL A   1      34.696  31.748  28.146  1.00  0.00     0.023 C 
BRANCH  27  28
ATOM     28  C   UNL A   1      35.521  30.825  29.035  1.00  0.00     0.116 C 
BRANCH  28  29
ATOM     29  N   UNL A   1      35.738  31.369  30.367  1.00  0.00    -0.352 N 
ATOM     30  C   UNL A   1      36.843  31.264  31.176  1.00  0.00     0.251 C 
ATOM     31  H   UNL A   1      34.987  31.884  30.741  1.00  0.00     0.163 HD
ATOM     32  O   UNL A   1      36.793  31.660  32.336  1.00  0.00    -0.269 OA
BRANCH  30  33
ATOM     33  C   UNL A   1      38.075  30.643  30.647  1.00  0.00     0.039 A 
ATOM     34  C   UNL A   1      38.299  30.649  29.269  1.00  0.00     0.014 A 
ATOM     35  C   UNL A   1      39.020  30.089  31.515  1.00  0.00     0.014 A 
ATOM     36  C   UNL A   1      39.508  30.165  28.767  1.00  0.00     0.010 A 
ATOM     37  C   UNL A   1      40.254  29.683  31.020  1.00  0.00     0.010 A 
ATOM     38  C   UNL A   1      40.512  29.716  29.642  1.00  0.00    -0.014 A 
BRANCH  38  39
ATOM     39  C   UNL A   1      41.841  29.287  29.134  1.00  0.00     0.031 A 
ATOM     40  C   UNL A   1      42.949  30.294  28.973  1.00  0.00     0.074 A 
ATOM     41  C   UNL A   1      42.024  28.008  28.745  1.00  0.00     0.049 A 
ATOM     42  N   UNL A   1      44.146  30.129  28.476  1.00  0.00    -0.248 NA
ATOM     43  C   UNL A   1      42.663  31.674  29.399  1.00  0.00     0.031 C 
ATOM     44  C   UNL A   1      41.008  26.954  28.791  1.00  0.00     0.029 A 
ATOM     45  N   UNL A   1      43.124  27.380  28.216  1.00  0.00    -0.354 N 
ATOM     46  C   UNL A   1      44.747  31.383  28.508  1.00  0.00     0.074 A 
ATOM     47  C   UNL A   1      43.767  32.308  29.031  1.00  0.00     0.031 C 
ATOM     48  C   UNL A   1      41.534  25.812  28.325  1.00  0.00     0.029 A 
ATOM     49  C   UNL A   1      42.912  26.056  27.908  1.00  0.00     0.049 A 
ATOM     50  H   UNL A   1      43.986  27.834  28.071  1.00  0.00     0.167 HD
ATOM     51  C   UNL A   1      46.007  31.725  28.151  1.00  0.00     0.037 A 
ATOM     52  C   UNL A   1      43.727  25.145  27.339  1.00  0.00     0.037 A 
ATOM     53  C   UNL A   1      46.988  30.789  27.668  1.00  0.00     0.049 A 
ATOM     54  C   UNL A   1      45.131  25.549  26.973  1.00  0.00     0.074 A 
ATOM     55  C   UNL A   1      48.319  31.022  27.366  1.00  0.00     0.029 A 
ATOM     56  N   UNL A   1      46.748  29.448  27.410  1.00  0.00    -0.354 N 
ATOM     57  N   UNL A   1      45.710  26.719  27.098  1.00  0.00    -0.248 NA
ATOM     58  C   UNL A   1      45.995  24.508  26.400  1.00  0.00     0.031 C 
ATOM     59  C   UNL A   1      48.869  29.835  26.874  1.00  0.00     0.029 A 
ATOM     60  C   UNL A   1      47.898  28.848  26.924  1.00  0.00     0.049 A 
ATOM     61  H   UNL A   1      45.888  28.990  27.551  1.00  0.00     0.167 HD
ATOM     62  C   UNL A   1      47.014  26.547  26.644  1.00  0.00     0.074 A 
ATOM     63  C   UNL A   1      47.142  25.158  26.257  1.00  0.00     0.031 C 
ATOM     64  C   UNL A   1      48.014  27.459  26.555  1.00  0.00     0.037 A 
BRANCH  51  65
ATOM     65  C   UNL A   1      46.409  33.170  28.269  1.00  0.00     0.058 A 
ATOM     66  C   UNL A   1      47.090  33.659  29.394  1.00  0.00     0.135 A 
ATOM     67  C   UNL A   1      46.169  34.061  27.210  1.00  0.00     0.135 A 
ATOM     68  F   UNL A   1      47.330  32.856  30.443  1.00  0.00    -0.206 F 
ATOM     69  C   UNL A   1      47.509  34.983  29.472  1.00  0.00     0.059 A 
ATOM     70  C   UNL A   1      46.604  35.383  27.254  1.00  0.00     0.059 A 
ATOM     71  F   UNL A   1      45.518  33.647  26.112  1.00  0.00    -0.206 F 
ATOM     72  C   UNL A   1      47.266  35.836  28.393  1.00  0.00     0.060 A 
BRANCH  72  73
ATOM     73  S   UNL A   1      47.849  37.541  28.497  1.00  0.00     0.124 S 
ATOM     74  O   UNL A   1      48.852  37.442  29.553  1.00  0.00    -0.237 OA
ATOM     75  O   UNL A   1      48.364  37.777  27.153  1.00  0.00    -0.237 OA
ATOM     76  O   UNL A   1      46.645  38.292  28.846  1.00  0.00    -0.744 OA
ENDBRANCH  72  73
ENDBRANCH  51  65
BRANCH  52  77
ATOM     77  C   UNL A   1      43.238  23.764  27.079  1.00  0.00     0.058 A 
ATOM     78  C   UNL A   1      42.897  23.346  25.783  1.00  0.00     0.135 A 
ATOM     79  C   UNL A   1      43.096  22.835  28.122  1.00  0.00     0.135 A 
ATOM     80  F   UNL A   1      43.010  24.196  24.752  1.00  0.00    -0.206 F 
ATOM     81  C   UNL A   1      42.404  22.068  25.535  1.00  0.00     0.059 A 
ATOM     82  C   UNL A   1      42.634  21.542  27.895  1.00  0.00     0.059 A 
ATOM     83  F   UNL A   1      43.427  23.177  29.377  1.00  0.00    -0.206 F 
ATOM     84  C   UNL A   1      42.276  21.173  26.599  1.00  0.00     0.060 A 
BRANCH  84  85
ATOM     85  S   UNL A   1      41.664  19.508  26.262  1.00  0.00     0.124 S 
ATOM     86  O   UNL A   1      40.230  19.742  26.140  1.00  0.00    -0.237 OA
ATOM     87  O   UNL A   1      42.364  19.168  25.027  1.00  0.00    -0.237 OA
ATOM     88  O   UNL A   1      42.084  18.752  27.438  1.00  0.00    -0.744 OA
ENDBRANCH  84  85
ENDBRANCH  52  77
BRANCH  64  89
ATOM     89  C   UNL A   1      49.350  26.980  26.056  1.00  0.00     0.058 A 
ATOM     90  C   UNL A   1      49.745  27.148  24.720  1.00  0.00     0.135 A 
ATOM     91  C   UNL A   1      50.270  26.397  26.943  1.00  0.00     0.135 A 
ATOM     92  F   UNL A   1      48.901  27.694  23.829  1.00  0.00    -0.206 F 
ATOM     93  C   UNL A   1      50.996  26.734  24.275  1.00  0.00     0.059 A 
ATOM     94  C   UNL A   1      51.538  26.004  26.528  1.00  0.00     0.059 A 
ATOM     95  F   UNL A   1      49.946  26.224  28.235  1.00  0.00    -0.206 F 
ATOM     96  C   UNL A   1      51.888  26.166  25.189  1.00  0.00     0.060 A 
BRANCH  96  97
ATOM     97  S   UNL A   1      53.521  25.666  24.607  1.00  0.00     0.124 S 
ATOM     98  O   UNL A   1      54.352  26.769  25.080  1.00  0.00    -0.237 OA
ATOM     99  O   UNL A   1      53.717  24.387  25.284  1.00  0.00    -0.237 OA
ATOM    100  O   UNL A   1      53.355  25.583  23.158  1.00  0.00    -0.744 OA
ENDBRANCH  96  97
ENDBRANCH  64  89
ENDBRANCH  38  39
ENDBRANCH  30  33
ENDBRANCH  28  29
ENDBRANCH  27  28
ENDBRANCH   1  27
TORSDOF 19
ENDMDL
