MODEL 1
REMARK VINA RESULT:     -11.8      0.000      0.000
REMARK SMILES Cc1cc2nc(SCC(=O)NCCCCNC(=O)c3ccc(-c4c5nc(c(-c6c(F)cc(S(=O)(=O)[O-])cc6F)c6ccc([nH]6)c(-c6c(F)cc(S(=O)(=O)[O-])cc6F)c6nc(c(-c7c(F)cc(S(=O)(=O)[O-])cc7F)c7ccc4[nH]7)C=C6)C=C5)cc3)n(CC(C)C)c(=O)c2[nH]1
REMARK SMILES IDX 13 1 12 2 11 3 9 4 10 5 8 7 7 8 6 9 1 10 2 11 3 12 93 13
REMARK SMILES IDX 4 14 92 15 5 17 90 18 85 19 91 20 86 21 87 22 88 23 89 24
REMARK SMILES IDX 14 25 15 26 16 27 17 28 18 30 19 31 20 32 84 33 21 34 83 35
REMARK SMILES IDX 22 36 23 37 24 38 77 39 25 40 82 41 76 42 78 43 26 44 81 45
REMARK SMILES IDX 75 46 74 47 27 49 61 50 40 51 60 52 41 53 44 54 59 55 79 56
REMARK SMILES IDX 42 57 43 58 58 60 80 61 45 62 28 63 29 64 38 65 30 66 31 67
REMARK SMILES IDX 37 68 39 69 32 70 33 71 34 72 35 73 36 74 62 75 63 76 72 77
REMARK SMILES IDX 64 78 65 79 71 80 73 81 66 82 67 83 68 84 69 85 70 86 46 87
REMARK SMILES IDX 47 88 56 89 48 90 49 91 55 92 57 93 50 94 51 95 52 96 53 97
REMARK SMILES IDX 54 98
REMARK H PARENT 11 6 93 16 16 29 78 48 44 59
REMARK Flexibility Score: inf
ROOT
ATOM      1  C   UNL A   1      40.781  20.906  27.140  1.00  0.00     0.023 C 
ENDROOT
BRANCH   1   2
ATOM      2  C   UNL A   1      39.816  21.941  26.556  1.00  0.00     0.116 C 
BRANCH   2   3
ATOM      3  N   UNL A   1      38.814  21.365  25.685  1.00  0.00    -0.355 N 
ATOM      4  C   UNL A   1      37.689  21.938  25.187  1.00  0.00     0.230 C 
ATOM      5  O   UNL A   1      37.211  21.431  24.171  1.00  0.00    -0.274 OA
ATOM      6  H   UNL A   1      38.970  20.431  25.417  1.00  0.00     0.163 HD
BRANCH   4   7
ATOM      7  C   UNL A   1      37.072  23.192  25.749  1.00  0.00     0.178 C 
BRANCH   7   8
ATOM      8  S   UNL A   1      35.318  23.242  25.951  1.00  0.00    -0.078 SA
BRANCH   8   9
ATOM      9  C   UNL A   1      34.403  24.459  25.089  1.00  0.00     0.172 A 
ATOM     10  C   UNL A   1      31.863  29.828  25.211  1.00  0.00     0.064 C 
ATOM     11  C   UNL A   1      32.581  28.535  25.091  1.00  0.00     0.014 A 
ATOM     12  C   UNL A   1      33.127  27.711  26.065  1.00  0.00     0.052 A 
ATOM     13  N   UNL A   1      32.783  27.924  23.868  1.00  0.00    -0.353 N 
ATOM     14  C   UNL A   1      33.576  26.564  25.400  1.00  0.00     0.097 A 
ATOM     15  C   UNL A   1      33.386  26.715  24.072  1.00  0.00     0.131 A 
ATOM     16  H   UNL A   1      32.534  28.299  22.992  1.00  0.00     0.166 HD
ATOM     17  N   UNL A   1      34.168  25.434  25.929  1.00  0.00    -0.222 NA
ATOM     18  C   UNL A   1      33.746  25.721  23.122  1.00  0.00     0.278 A 
ATOM     19  N   UNL A   1      34.097  24.487  23.717  1.00  0.00    -0.286 N 
ATOM     20  O   UNL A   1      33.738  25.948  21.924  1.00  0.00    -0.267 OA
BRANCH  19  21
ATOM     21  C   UNL A   1      34.125  23.381  22.750  1.00  0.00     0.131 C 
BRANCH  21  22
ATOM     22  C   UNL A   1      32.866  22.459  22.794  1.00  0.00     0.003 C 
ATOM     23  C   UNL A   1      32.970  21.276  23.767  1.00  0.00     0.009 C 
ATOM     24  C   UNL A   1      31.628  23.264  23.214  1.00  0.00     0.009 C 
ENDBRANCH  21  22
ENDBRANCH  19  21
ENDBRANCH   8   9
ENDBRANCH   7   8
ENDBRANCH   4   7
ENDBRANCH   2   3
ENDBRANCH   1   2
BRANCH   1  25
ATOM     25  C   UNL A   1      41.431  19.931  26.147  1.00  0.00     0.023 C 
BRANCH  25  26
ATOM     26  C   UNL A   1      42.785  19.400  26.580  1.00  0.00     0.116 C 
BRANCH  26  27
ATOM     27  N   UNL A   1      43.804  19.494  25.536  1.00  0.00    -0.352 N 
ATOM     28  C   UNL A   1      44.294  20.635  24.926  1.00  0.00     0.251 C 
ATOM     29  H   UNL A   1      44.190  18.641  25.230  1.00  0.00     0.163 HD
ATOM     30  O   UNL A   1      44.864  20.567  23.842  1.00  0.00    -0.269 OA
BRANCH  28  31
ATOM     31  C   UNL A   1      44.138  21.927  25.615  1.00  0.00     0.039 A 
ATOM     32  C   UNL A   1      44.929  22.292  26.708  1.00  0.00     0.014 A 
ATOM     33  C   UNL A   1      43.141  22.781  25.148  1.00  0.00     0.014 A 
ATOM     34  C   UNL A   1      44.708  23.533  27.303  1.00  0.00     0.010 A 
ATOM     35  C   UNL A   1      43.071  24.072  25.585  1.00  0.00     0.010 A 
ATOM     36  C   UNL A   1      43.766  24.404  26.732  1.00  0.00    -0.014 A 
BRANCH  36  37
ATOM     37  C   UNL A   1      43.479  25.709  27.289  1.00  0.00     0.031 A 
ATOM     38  C   UNL A   1      44.466  26.747  26.929  1.00  0.00     0.074 A 
ATOM     39  C   UNL A   1      42.315  25.991  27.913  1.00  0.00     0.049 A 
ATOM     40  N   UNL A   1      45.408  27.206  27.679  1.00  0.00    -0.248 NA
ATOM     41  C   UNL A   1      44.544  27.192  25.530  1.00  0.00     0.031 C 
ATOM     42  C   UNL A   1      41.118  25.158  28.087  1.00  0.00     0.029 A 
ATOM     43  N   UNL A   1      41.948  27.159  28.497  1.00  0.00    -0.354 N 
ATOM     44  C   UNL A   1      46.048  28.183  26.929  1.00  0.00     0.074 A 
ATOM     45  C   UNL A   1      45.624  27.977  25.568  1.00  0.00     0.031 C 
ATOM     46  C   UNL A   1      40.100  25.913  28.564  1.00  0.00     0.029 A 
ATOM     47  C   UNL A   1      40.615  27.232  28.885  1.00  0.00     0.049 A 
ATOM     48  H   UNL A   1      42.579  27.901  28.638  1.00  0.00     0.167 HD
ATOM     49  C   UNL A   1      46.680  29.224  27.538  1.00  0.00     0.037 A 
ATOM     50  C   UNL A   1      39.998  28.307  29.442  1.00  0.00     0.037 A 
ATOM     51  C   UNL A   1      46.845  28.967  28.953  1.00  0.00     0.049 A 
ATOM     52  C   UNL A   1      41.076  29.136  30.052  1.00  0.00     0.074 A 
ATOM     53  C   UNL A   1      47.501  27.996  29.687  1.00  0.00     0.029 A 
ATOM     54  N   UNL A   1      45.926  29.524  29.813  1.00  0.00    -0.354 N 
ATOM     55  N   UNL A   1      41.800  28.737  31.064  1.00  0.00    -0.248 NA
ATOM     56  C   UNL A   1      41.682  30.169  29.226  1.00  0.00     0.031 C 
ATOM     57  C   UNL A   1      46.617  27.689  30.767  1.00  0.00     0.029 A 
ATOM     58  C   UNL A   1      45.515  28.539  30.680  1.00  0.00     0.049 A 
ATOM     59  H   UNL A   1      45.619  30.459  29.808  1.00  0.00     0.167 HD
ATOM     60  C   UNL A   1      43.095  29.138  30.763  1.00  0.00     0.074 A 
ATOM     61  C   UNL A   1      42.947  30.078  29.650  1.00  0.00     0.031 C 
ATOM     62  C   UNL A   1      44.181  28.461  31.243  1.00  0.00     0.037 A 
BRANCH  49  63
ATOM     63  C   UNL A   1      46.825  30.604  26.948  1.00  0.00     0.058 A 
ATOM     64  C   UNL A   1      48.091  31.225  26.960  1.00  0.00     0.135 A 
ATOM     65  C   UNL A   1      45.739  31.443  26.614  1.00  0.00     0.135 A 
ATOM     66  F   UNL A   1      49.195  30.523  27.259  1.00  0.00    -0.206 F 
ATOM     67  C   UNL A   1      48.253  32.593  26.740  1.00  0.00     0.059 A 
ATOM     68  C   UNL A   1      45.885  32.798  26.338  1.00  0.00     0.059 A 
ATOM     69  F   UNL A   1      44.470  31.020  26.635  1.00  0.00    -0.206 F 
ATOM     70  C   UNL A   1      47.139  33.374  26.446  1.00  0.00     0.060 A 
BRANCH  70  71
ATOM     71  S   UNL A   1      47.330  35.156  26.282  1.00  0.00     0.124 S 
ATOM     72  O   UNL A   1      45.994  35.554  25.854  1.00  0.00    -0.237 OA
ATOM     73  O   UNL A   1      47.712  35.542  27.636  1.00  0.00    -0.237 OA
ATOM     74  O   UNL A   1      48.381  35.290  25.277  1.00  0.00    -0.744 OA
ENDBRANCH  70  71
ENDBRANCH  49  63
BRANCH  50  75
ATOM     75  C   UNL A   1      38.643  28.846  29.142  1.00  0.00     0.058 A 
ATOM     76  C   UNL A   1      37.694  29.048  30.161  1.00  0.00     0.135 A 
ATOM     77  C   UNL A   1      38.360  29.456  27.903  1.00  0.00     0.135 A 
ATOM     78  F   UNL A   1      37.889  28.515  31.378  1.00  0.00    -0.206 F 
ATOM     79  C   UNL A   1      36.565  29.859  29.984  1.00  0.00     0.059 A 
ATOM     80  C   UNL A   1      37.240  30.265  27.702  1.00  0.00     0.059 A 
ATOM     81  F   UNL A   1      39.217  29.360  26.876  1.00  0.00    -0.206 F 
ATOM     82  C   UNL A   1      36.361  30.486  28.755  1.00  0.00     0.060 A 
BRANCH  82  83
ATOM     83  S   UNL A   1      35.011  31.679  28.578  1.00  0.00     0.124 S 
ATOM     84  O   UNL A   1      34.801  32.108  29.956  1.00  0.00    -0.237 OA
ATOM     85  O   UNL A   1      35.594  32.673  27.683  1.00  0.00    -0.237 OA
ATOM     86  O   UNL A   1      33.929  30.885  28.001  1.00  0.00    -0.744 OA
ENDBRANCH  82  83
ENDBRANCH  50  75
BRANCH  62  87
ATOM     87  C   UNL A   1      43.941  27.409  32.304  1.00  0.00     0.058 A 
ATOM     88  C   UNL A   1      43.619  27.688  33.647  1.00  0.00     0.135 A 
ATOM     89  C   UNL A   1      43.922  26.061  31.921  1.00  0.00     0.135 A 
ATOM     90  F   UNL A   1      43.500  28.949  34.078  1.00  0.00    -0.206 F 
ATOM     91  C   UNL A   1      43.354  26.677  34.574  1.00  0.00     0.059 A 
ATOM     92  C   UNL A   1      43.630  25.037  32.821  1.00  0.00     0.059 A 
ATOM     93  F   UNL A   1      44.151  25.724  30.641  1.00  0.00    -0.206 F 
ATOM     94  C   UNL A   1      43.370  25.350  34.152  1.00  0.00     0.060 A 
BRANCH  94  95
ATOM     95  S   UNL A   1      43.011  24.042  35.346  1.00  0.00     0.124 S 
ATOM     96  O   UNL A   1      43.443  22.846  34.629  1.00  0.00    -0.237 OA
ATOM     97  O   UNL A   1      43.830  24.424  36.492  1.00  0.00    -0.237 OA
ATOM     98  O   UNL A   1      41.569  24.156  35.555  1.00  0.00    -0.744 OA
ENDBRANCH  94  95
ENDBRANCH  62  87
ENDBRANCH  36  37
ENDBRANCH  28  31
ENDBRANCH  26  27
ENDBRANCH  25  26
ENDBRANCH   1  25
TORSDOF 18
ENDMDL
MODEL 2
REMARK VINA RESULT:     -11.7      2.481      4.082
REMARK SMILES Cc1cc2nc(SCC(=O)NCCCCNC(=O)c3ccc(-c4c5nc(c(-c6c(F)cc(S(=O)(=O)[O-])cc6F)c6ccc([nH]6)c(-c6c(F)cc(S(=O)(=O)[O-])cc6F)c6nc(c(-c7c(F)cc(S(=O)(=O)[O-])cc7F)c7ccc4[nH]7)C=C6)C=C5)cc3)n(CC(C)C)c(=O)c2[nH]1
REMARK SMILES IDX 13 1 12 2 11 3 9 4 10 5 8 7 7 8 6 9 1 10 2 11 3 12 93 13
REMARK SMILES IDX 4 14 92 15 5 17 90 18 85 19 91 20 86 21 87 22 88 23 89 24
REMARK SMILES IDX 14 25 15 26 16 27 17 28 18 30 19 31 20 32 84 33 21 34 83 35
REMARK SMILES IDX 22 36 23 37 24 38 77 39 25 40 82 41 76 42 78 43 26 44 81 45
REMARK SMILES IDX 75 46 74 47 27 49 61 50 40 51 60 52 41 53 44 54 59 55 79 56
REMARK SMILES IDX 42 57 43 58 58 60 80 61 45 62 28 63 29 64 38 65 30 66 31 67
REMARK SMILES IDX 37 68 39 69 32 70 33 71 34 72 35 73 36 74 62 75 63 76 72 77
REMARK SMILES IDX 64 78 65 79 71 80 73 81 66 82 67 83 68 84 69 85 70 86 46 87
REMARK SMILES IDX 47 88 56 89 48 90 49 91 55 92 57 93 50 94 51 95 52 96 53 97
REMARK SMILES IDX 54 98
REMARK H PARENT 11 6 93 16 16 29 78 48 44 59
REMARK Flexibility Score: inf
ROOT
ATOM      1  C   UNL A   1      36.442  21.315  25.470  1.00  0.00     0.023 C 
ENDROOT
BRANCH   1   2
ATOM      2  C   UNL A   1      35.198  22.206  25.452  1.00  0.00     0.116 C 
BRANCH   2   3
ATOM      3  N   UNL A   1      34.962  22.836  24.171  1.00  0.00    -0.355 N 
ATOM      4  C   UNL A   1      34.165  23.895  23.878  1.00  0.00     0.230 C 
ATOM      5  O   UNL A   1      34.418  24.511  22.841  1.00  0.00    -0.274 OA
ATOM      6  H   UNL A   1      35.444  22.444  23.408  1.00  0.00     0.163 HD
BRANCH   4   7
ATOM      7  C   UNL A   1      33.076  24.398  24.790  1.00  0.00     0.178 C 
BRANCH   7   8
ATOM      8  S   UNL A   1      33.428  25.787  25.823  1.00  0.00    -0.078 SA
BRANCH   8   9
ATOM      9  C   UNL A   1      32.723  27.337  25.422  1.00  0.00     0.172 A 
ATOM     10  C   UNL A   1      29.259  30.455  21.737  1.00  0.00     0.064 C 
ATOM     11  C   UNL A   1      30.034  29.698  22.751  1.00  0.00     0.014 A 
ATOM     12  C   UNL A   1      30.583  28.424  22.702  1.00  0.00     0.052 A 
ATOM     13  N   UNL A   1      30.357  30.244  23.979  1.00  0.00    -0.353 N 
ATOM     14  C   UNL A   1      31.308  28.265  23.889  1.00  0.00     0.097 A 
ATOM     15  C   UNL A   1      31.144  29.360  24.663  1.00  0.00     0.131 A 
ATOM     16  H   UNL A   1      30.068  31.126  24.308  1.00  0.00     0.166 HD
ATOM     17  N   UNL A   1      32.061  27.185  24.304  1.00  0.00    -0.222 NA
ATOM     18  C   UNL A   1      31.751  29.502  25.939  1.00  0.00     0.278 A 
ATOM     19  N   UNL A   1      32.717  28.503  26.208  1.00  0.00    -0.286 N 
ATOM     20  O   UNL A   1      31.446  30.407  26.696  1.00  0.00    -0.267 OA
BRANCH  19  21
ATOM     21  C   UNL A   1      33.579  28.843  27.348  1.00  0.00     0.131 C 
BRANCH  21  22
ATOM     22  C   UNL A   1      34.695  29.885  27.019  1.00  0.00     0.003 C 
ATOM     23  C   UNL A   1      34.478  31.274  27.633  1.00  0.00     0.009 C 
ATOM     24  C   UNL A   1      36.056  29.389  27.528  1.00  0.00     0.009 C 
ENDBRANCH  21  22
ENDBRANCH  19  21
ENDBRANCH   8   9
ENDBRANCH   7   8
ENDBRANCH   4   7
ENDBRANCH   2   3
ENDBRANCH   1   2
BRANCH   1  25
ATOM     25  C   UNL A   1      37.764  21.967  25.039  1.00  0.00     0.023 C 
BRANCH  25  26
ATOM     26  C   UNL A   1      38.543  22.620  26.166  1.00  0.00     0.116 C 
BRANCH  26  27
ATOM     27  N   UNL A   1      39.893  22.083  26.324  1.00  0.00    -0.352 N 
ATOM     28  C   UNL A   1      41.074  22.785  26.490  1.00  0.00     0.251 C 
ATOM     29  H   UNL A   1      39.972  21.101  26.311  1.00  0.00     0.163 HD
ATOM     30  O   UNL A   1      42.154  22.254  26.253  1.00  0.00    -0.269 OA
BRANCH  28  31
ATOM     31  C   UNL A   1      41.008  24.173  26.980  1.00  0.00     0.039 A 
ATOM     32  C   UNL A   1      40.343  25.183  26.278  1.00  0.00     0.014 A 
ATOM     33  C   UNL A   1      41.662  24.457  28.176  1.00  0.00     0.014 A 
ATOM     34  C   UNL A   1      40.336  26.469  26.813  1.00  0.00     0.010 A 
ATOM     35  C   UNL A   1      41.471  25.653  28.805  1.00  0.00     0.010 A 
ATOM     36  C   UNL A   1      40.916  26.686  28.074  1.00  0.00    -0.014 A 
BRANCH  36  37
ATOM     37  C   UNL A   1      40.949  27.992  28.699  1.00  0.00     0.031 A 
ATOM     38  C   UNL A   1      42.006  28.882  28.176  1.00  0.00     0.074 A 
ATOM     39  C   UNL A   1      39.982  28.418  29.538  1.00  0.00     0.049 A 
ATOM     40  N   UNL A   1      43.131  29.154  28.741  1.00  0.00    -0.248 NA
ATOM     41  C   UNL A   1      41.893  29.376  26.796  1.00  0.00     0.031 C 
ATOM     42  C   UNL A   1      38.719  27.771  29.922  1.00  0.00     0.029 A 
ATOM     43  N   UNL A   1      39.920  29.599  30.202  1.00  0.00    -0.354 N 
ATOM     44  C   UNL A   1      43.769  30.056  27.901  1.00  0.00     0.074 A 
ATOM     45  C   UNL A   1      43.072  29.984  26.642  1.00  0.00     0.031 C 
ATOM     46  C   UNL A   1      37.942  28.650  30.597  1.00  0.00     0.029 A 
ATOM     47  C   UNL A   1      38.710  29.857  30.837  1.00  0.00     0.049 A 
ATOM     48  H   UNL A   1      40.676  30.228  30.233  1.00  0.00     0.167 HD
ATOM     49  C   UNL A   1      44.661  30.958  28.397  1.00  0.00     0.037 A 
ATOM     50  C   UNL A   1      38.387  30.986  31.522  1.00  0.00     0.037 A 
ATOM     51  C   UNL A   1      45.041  30.611  29.749  1.00  0.00     0.049 A 
ATOM     52  C   UNL A   1      39.677  31.609  31.930  1.00  0.00     0.074 A 
ATOM     53  C   UNL A   1      45.658  29.517  30.328  1.00  0.00     0.029 A 
ATOM     54  N   UNL A   1      44.398  31.260  30.779  1.00  0.00    -0.354 N 
ATOM     55  N   UNL A   1      40.503  31.056  32.778  1.00  0.00    -0.248 NA
ATOM     56  C   UNL A   1      40.277  32.575  31.022  1.00  0.00     0.031 C 
ATOM     57  C   UNL A   1      44.952  29.298  31.550  1.00  0.00     0.029 A 
ATOM     58  C   UNL A   1      44.002  30.310  31.690  1.00  0.00     0.049 A 
ATOM     59  H   UNL A   1      44.248  32.231  30.849  1.00  0.00     0.167 HD
ATOM     60  C   UNL A   1      41.767  31.268  32.243  1.00  0.00     0.074 A 
ATOM     61  C   UNL A   1      41.567  32.272  31.196  1.00  0.00     0.031 C 
ATOM     62  C   UNL A   1      42.801  30.410  32.496  1.00  0.00     0.037 A 
BRANCH  49  63
ATOM     63  C   UNL A   1      44.912  32.327  27.815  1.00  0.00     0.058 A 
ATOM     64  C   UNL A   1      46.153  32.593  27.202  1.00  0.00     0.135 A 
ATOM     65  C   UNL A   1      44.101  33.456  28.062  1.00  0.00     0.135 A 
ATOM     66  F   UNL A   1      47.004  31.594  26.916  1.00  0.00    -0.206 F 
ATOM     67  C   UNL A   1      46.590  33.890  26.933  1.00  0.00     0.059 A 
ATOM     68  C   UNL A   1      44.494  34.753  27.753  1.00  0.00     0.059 A 
ATOM     69  F   UNL A   1      42.931  33.375  28.706  1.00  0.00    -0.206 F 
ATOM     70  C   UNL A   1      45.757  34.965  27.229  1.00  0.00     0.060 A 
BRANCH  70  71
ATOM     71  S   UNL A   1      46.367  36.642  26.996  1.00  0.00     0.124 S 
ATOM     72  O   UNL A   1      45.121  37.391  26.880  1.00  0.00    -0.237 OA
ATOM     73  O   UNL A   1      47.133  36.855  28.219  1.00  0.00    -0.237 OA
ATOM     74  O   UNL A   1      47.160  36.545  25.774  1.00  0.00    -0.744 OA
ENDBRANCH  70  71
ENDBRANCH  49  63
BRANCH  50  75
ATOM     75  C   UNL A   1      37.103  31.739  31.494  1.00  0.00     0.058 A 
ATOM     76  C   UNL A   1      36.379  31.993  32.674  1.00  0.00     0.135 A 
ATOM     77  C   UNL A   1      36.720  32.485  30.361  1.00  0.00     0.135 A 
ATOM     78  F   UNL A   1      36.685  31.338  33.805  1.00  0.00    -0.206 F 
ATOM     79  C   UNL A   1      35.378  32.972  32.743  1.00  0.00     0.059 A 
ATOM     80  C   UNL A   1      35.725  33.463  30.405  1.00  0.00     0.059 A 
ATOM     81  F   UNL A   1      37.371  32.351  29.195  1.00  0.00    -0.206 F 
ATOM     82  C   UNL A   1      35.077  33.721  31.607  1.00  0.00     0.060 A 
BRANCH  82  83
ATOM     83  S   UNL A   1      33.922  35.110  31.737  1.00  0.00     0.124 S 
ATOM     84  O   UNL A   1      32.840  34.532  32.527  1.00  0.00    -0.237 OA
ATOM     85  O   UNL A   1      34.731  36.122  32.407  1.00  0.00    -0.237 OA
ATOM     86  O   UNL A   1      33.588  35.404  30.345  1.00  0.00    -0.744 OA
ENDBRANCH  82  83
ENDBRANCH  50  75
BRANCH  62  87
ATOM     87  C   UNL A   1      42.597  29.358  33.564  1.00  0.00     0.058 A 
ATOM     88  C   UNL A   1      42.769  29.578  34.944  1.00  0.00     0.135 A 
ATOM     89  C   UNL A   1      42.094  28.106  33.185  1.00  0.00     0.135 A 
ATOM     90  F   UNL A   1      43.136  30.777  35.410  1.00  0.00    -0.206 F 
ATOM     91  C   UNL A   1      42.515  28.585  35.894  1.00  0.00     0.059 A 
ATOM     92  C   UNL A   1      41.804  27.109  34.116  1.00  0.00     0.059 A 
ATOM     93  F   UNL A   1      41.838  27.849  31.891  1.00  0.00    -0.206 F 
ATOM     94  C   UNL A   1      42.038  27.347  35.468  1.00  0.00     0.060 A 
BRANCH  94  95
ATOM     95  S   UNL A   1      41.692  26.067  36.695  1.00  0.00     0.124 S 
ATOM     96  O   UNL A   1      42.995  25.891  37.330  1.00  0.00    -0.237 OA
ATOM     97  O   UNL A   1      40.663  26.688  37.522  1.00  0.00    -0.237 OA
ATOM     98  O   UNL A   1      41.235  24.936  35.889  1.00  0.00    -0.744 OA
ENDBRANCH  94  95
ENDBRANCH  62  87
ENDBRANCH  36  37
ENDBRANCH  28  31
ENDBRANCH  26  27
ENDBRANCH  25  26
ENDBRANCH   1  25
TORSDOF 18
ENDMDL
MODEL 3
REMARK VINA RESULT:     -11.4      1.225      2.046
REMARK SMILES Cc1cc2nc(SCC(=O)NCCCCNC(=O)c3ccc(-c4c5nc(c(-c6c(F)cc(S(=O)(=O)[O-])cc6F)c6ccc([nH]6)c(-c6c(F)cc(S(=O)(=O)[O-])cc6F)c6nc(c(-c7c(F)cc(S(=O)(=O)[O-])cc7F)c7ccc4[nH]7)C=C6)C=C5)cc3)n(CC(C)C)c(=O)c2[nH]1
REMARK SMILES IDX 13 1 12 2 11 3 9 4 10 5 8 7 7 8 6 9 1 10 2 11 3 12 93 13
REMARK SMILES IDX 4 14 92 15 5 17 90 18 85 19 91 20 86 21 87 22 88 23 89 24
REMARK SMILES IDX 14 25 15 26 16 27 17 28 18 30 19 31 20 32 84 33 21 34 83 35
REMARK SMILES IDX 22 36 23 37 24 38 77 39 25 40 82 41 76 42 78 43 26 44 81 45
REMARK SMILES IDX 75 46 74 47 27 49 61 50 40 51 60 52 41 53 44 54 59 55 79 56
REMARK SMILES IDX 42 57 43 58 58 60 80 61 45 62 28 63 29 64 38 65 30 66 31 67
REMARK SMILES IDX 37 68 39 69 32 70 33 71 34 72 35 73 36 74 62 75 63 76 72 77
REMARK SMILES IDX 64 78 65 79 71 80 73 81 66 82 67 83 68 84 69 85 70 86 46 87
REMARK SMILES IDX 47 88 56 89 48 90 49 91 55 92 57 93 50 94 51 95 52 96 53 97
REMARK SMILES IDX 54 98
REMARK H PARENT 11 6 93 16 16 29 78 48 44 59
REMARK Flexibility Score: inf
ROOT
ATOM      1  C   UNL A   1      41.035  21.240  27.524  1.00  0.00     0.023 C 
ENDROOT
BRANCH   1   2
ATOM      2  C   UNL A   1      40.103  21.646  26.379  1.00  0.00     0.116 C 
BRANCH   2   3
ATOM      3  N   UNL A   1      39.299  20.552  25.878  1.00  0.00    -0.355 N 
ATOM      4  C   UNL A   1      38.047  20.585  25.357  1.00  0.00     0.230 C 
ATOM      5  O   UNL A   1      37.720  19.642  24.634  1.00  0.00    -0.274 OA
ATOM      6  H   UNL A   1      39.718  19.662  25.921  1.00  0.00     0.163 HD
BRANCH   4   7
ATOM      7  C   UNL A   1      37.099  21.742  25.538  1.00  0.00     0.178 C 
BRANCH   7   8
ATOM      8  S   UNL A   1      35.405  21.386  25.891  1.00  0.00    -0.078 SA
BRANCH   8   9
ATOM      9  C   UNL A   1      34.169  22.029  24.833  1.00  0.00     0.172 A 
ATOM     10  C   UNL A   1      32.101  26.717  21.824  1.00  0.00     0.064 C 
ATOM     11  C   UNL A   1      32.639  25.488  22.460  1.00  0.00     0.014 A 
ATOM     12  C   UNL A   1      33.626  25.327  23.421  1.00  0.00     0.052 A 
ATOM     13  N   UNL A   1      32.145  24.234  22.155  1.00  0.00    -0.353 N 
ATOM     14  C   UNL A   1      33.643  23.963  23.740  1.00  0.00     0.097 A 
ATOM     15  C   UNL A   1      32.762  23.310  22.951  1.00  0.00     0.131 A 
ATOM     16  H   UNL A   1      31.461  24.037  21.475  1.00  0.00     0.166 HD
ATOM     17  N   UNL A   1      34.427  23.301  24.663  1.00  0.00    -0.222 NA
ATOM     18  C   UNL A   1      32.549  21.907  23.028  1.00  0.00     0.278 A 
ATOM     19  N   UNL A   1      33.167  21.313  24.153  1.00  0.00    -0.286 N 
ATOM     20  O   UNL A   1      31.893  21.313  22.190  1.00  0.00    -0.267 OA
BRANCH  19  21
ATOM     21  C   UNL A   1      32.666  19.959  24.424  1.00  0.00     0.131 C 
BRANCH  21  22
ATOM     22  C   UNL A   1      33.448  18.827  23.686  1.00  0.00     0.003 C 
ATOM     23  C   UNL A   1      34.198  17.857  24.610  1.00  0.00     0.009 C 
ATOM     24  C   UNL A   1      32.489  17.975  22.843  1.00  0.00     0.009 C 
ENDBRANCH  21  22
ENDBRANCH  19  21
ENDBRANCH   8   9
ENDBRANCH   7   8
ENDBRANCH   4   7
ENDBRANCH   2   3
ENDBRANCH   1   2
BRANCH   1  25
ATOM     25  C   UNL A   1      41.936  20.020  27.281  1.00  0.00     0.023 C 
BRANCH  25  26
ATOM     26  C   UNL A   1      42.296  19.781  25.826  1.00  0.00     0.116 C 
BRANCH  26  27
ATOM     27  N   UNL A   1      43.737  19.700  25.592  1.00  0.00    -0.352 N 
ATOM     28  C   UNL A   1      44.621  20.740  25.363  1.00  0.00     0.251 C 
ATOM     29  H   UNL A   1      44.126  18.796  25.600  1.00  0.00     0.163 HD
ATOM     30  O   UNL A   1      45.707  20.529  24.835  1.00  0.00    -0.269 OA
BRANCH  28  31
ATOM     31  C   UNL A   1      44.240  22.098  25.788  1.00  0.00     0.039 A 
ATOM     32  C   UNL A   1      43.402  22.914  25.023  1.00  0.00     0.014 A 
ATOM     33  C   UNL A   1      44.772  22.561  26.989  1.00  0.00     0.014 A 
ATOM     34  C   UNL A   1      43.100  24.187  25.500  1.00  0.00     0.010 A 
ATOM     35  C   UNL A   1      44.306  23.710  27.558  1.00  0.00     0.010 A 
ATOM     36  C   UNL A   1      43.571  24.571  26.765  1.00  0.00    -0.014 A 
BRANCH  36  37
ATOM     37  C   UNL A   1      43.300  25.876  27.332  1.00  0.00     0.031 A 
ATOM     38  C   UNL A   1      44.295  26.906  26.973  1.00  0.00     0.074 A 
ATOM     39  C   UNL A   1      42.142  26.165  27.965  1.00  0.00     0.049 A 
ATOM     40  N   UNL A   1      45.245  27.351  27.720  1.00  0.00    -0.248 NA
ATOM     41  C   UNL A   1      44.368  27.359  25.576  1.00  0.00     0.031 C 
ATOM     42  C   UNL A   1      40.938  25.342  28.141  1.00  0.00     0.029 A 
ATOM     43  N   UNL A   1      41.790  27.333  28.558  1.00  0.00    -0.354 N 
ATOM     44  C   UNL A   1      45.890  28.327  26.972  1.00  0.00     0.074 A 
ATOM     45  C   UNL A   1      45.456  28.133  25.612  1.00  0.00     0.031 C 
ATOM     46  C   UNL A   1      39.931  26.104  28.628  1.00  0.00     0.029 A 
ATOM     47  C   UNL A   1      40.460  27.416  28.954  1.00  0.00     0.049 A 
ATOM     48  H   UNL A   1      42.429  28.067  28.699  1.00  0.00     0.167 HD
ATOM     49  C   UNL A   1      46.536  29.358  27.584  1.00  0.00     0.037 A 
ATOM     50  C   UNL A   1      39.856  28.493  29.521  1.00  0.00     0.037 A 
ATOM     51  C   UNL A   1      46.707  29.091  28.995  1.00  0.00     0.049 A 
ATOM     52  C   UNL A   1      40.946  29.308  30.130  1.00  0.00     0.074 A 
ATOM     53  C   UNL A   1      47.357  28.110  29.720  1.00  0.00     0.029 A 
ATOM     54  N   UNL A   1      45.798  29.651  29.864  1.00  0.00    -0.354 N 
ATOM     55  N   UNL A   1      41.672  28.896  31.135  1.00  0.00    -0.248 NA
ATOM     56  C   UNL A   1      41.557  30.340  29.306  1.00  0.00     0.031 C 
ATOM     57  C   UNL A   1      46.477  27.804  30.803  1.00  0.00     0.029 A 
ATOM     58  C   UNL A   1      45.382  28.665  30.728  1.00  0.00     0.049 A 
ATOM     59  H   UNL A   1      45.499  30.589  29.867  1.00  0.00     0.167 HD
ATOM     60  C   UNL A   1      42.968  29.286  30.828  1.00  0.00     0.074 A 
ATOM     61  C   UNL A   1      42.823  30.234  29.723  1.00  0.00     0.031 C 
ATOM     62  C   UNL A   1      44.051  28.596  31.298  1.00  0.00     0.037 A 
BRANCH  49  63
ATOM     63  C   UNL A   1      46.690  30.741  27.001  1.00  0.00     0.058 A 
ATOM     64  C   UNL A   1      47.965  31.342  26.993  1.00  0.00     0.135 A 
ATOM     65  C   UNL A   1      45.611  31.598  26.694  1.00  0.00     0.135 A 
ATOM     66  F   UNL A   1      49.065  30.622  27.267  1.00  0.00    -0.206 F 
ATOM     67  C   UNL A   1      48.144  32.710  26.780  1.00  0.00     0.059 A 
ATOM     68  C   UNL A   1      45.772  32.953  26.425  1.00  0.00     0.059 A 
ATOM     69  F   UNL A   1      44.336  31.194  26.736  1.00  0.00    -0.206 F 
ATOM     70  C   UNL A   1      47.037  33.509  26.514  1.00  0.00     0.060 A 
BRANCH  70  71
ATOM     71  S   UNL A   1      47.251  35.289  26.359  1.00  0.00     0.124 S 
ATOM     72  O   UNL A   1      48.013  35.596  27.564  1.00  0.00    -0.237 OA
ATOM     73  O   UNL A   1      47.976  35.395  25.098  1.00  0.00    -0.237 OA
ATOM     74  O   UNL A   1      45.881  35.792  26.333  1.00  0.00    -0.744 OA
ENDBRANCH  70  71
ENDBRANCH  49  63
BRANCH  50  75
ATOM     75  C   UNL A   1      38.505  29.046  29.232  1.00  0.00     0.058 A 
ATOM     76  C   UNL A   1      37.612  29.376  30.269  1.00  0.00     0.135 A 
ATOM     77  C   UNL A   1      38.180  29.546  27.955  1.00  0.00     0.135 A 
ATOM     78  F   UNL A   1      37.850  28.955  31.521  1.00  0.00    -0.206 F 
ATOM     79  C   UNL A   1      36.500  30.204  30.066  1.00  0.00     0.059 A 
ATOM     80  C   UNL A   1      37.076  30.370  27.727  1.00  0.00     0.059 A 
ATOM     81  F   UNL A   1      38.984  29.325  26.903  1.00  0.00    -0.206 F 
ATOM     82  C   UNL A   1      36.256  30.719  28.793  1.00  0.00     0.060 A 
BRANCH  82  83
ATOM     83  S   UNL A   1      34.935  31.935  28.563  1.00  0.00     0.124 S 
ATOM     84  O   UNL A   1      35.590  32.942  27.736  1.00  0.00    -0.237 OA
ATOM     85  O   UNL A   1      33.899  31.145  27.905  1.00  0.00    -0.237 OA
ATOM     86  O   UNL A   1      34.620  32.357  29.926  1.00  0.00    -0.744 OA
ENDBRANCH  82  83
ENDBRANCH  50  75
BRANCH  62  87
ATOM     87  C   UNL A   1      43.807  27.540  32.354  1.00  0.00     0.058 A 
ATOM     88  C   UNL A   1      43.732  26.157  32.098  1.00  0.00     0.135 A 
ATOM     89  C   UNL A   1      43.763  27.933  33.699  1.00  0.00     0.135 A 
ATOM     90  F   UNL A   1      43.878  25.678  30.857  1.00  0.00    -0.206 F 
ATOM     91  C   UNL A   1      43.557  25.219  33.119  1.00  0.00     0.059 A 
ATOM     92  C   UNL A   1      43.620  27.013  34.737  1.00  0.00     0.059 A 
ATOM     93  F   UNL A   1      43.900  29.229  34.024  1.00  0.00    -0.206 F 
ATOM     94  C   UNL A   1      43.495  25.659  34.439  1.00  0.00     0.060 A 
BRANCH  94  95
ATOM     95  S   UNL A   1      43.287  24.447  35.763  1.00  0.00     0.124 S 
ATOM     96  O   UNL A   1      42.115  23.701  35.314  1.00  0.00    -0.237 OA
ATOM     97  O   UNL A   1      44.551  23.719  35.729  1.00  0.00    -0.237 OA
ATOM     98  O   UNL A   1      43.083  25.271  36.952  1.00  0.00    -0.744 OA
ENDBRANCH  94  95
ENDBRANCH  62  87
ENDBRANCH  36  37
ENDBRANCH  28  31
ENDBRANCH  26  27
ENDBRANCH  25  26
ENDBRANCH   1  25
TORSDOF 18
ENDMDL
