MODEL 1
REMARK VINA RESULT:     -13.2      0.000      0.000
REMARK SMILES Cc1cccc(O[C@@H](C)C(=O)N2CC[C@@H](C(=O)NCCCCNC(=O)c3ccc(-c4c5nc(c(-c6c(F)cc(S(=O)(=O)[O-])cc6F)c6ccc([nH]6)c(-c6c(F)cc(S(=O)(=O)[O-])cc6F)c6nc(c(-c7c(F)cc(S(=O)(=O)[O-])cc7F)c7ccc4[nH]7)C=C6)C=C5)cc3)[C@@H]2C)c1
REMARK SMILES IDX 20 1 19 2 18 3 16 4 17 5 15 7 12 8 13 9 92 10 14 11 93 12
REMARK SMILES IDX 10 13 11 14 8 15 9 16 7 17 6 18 1 19 2 20 3 21 94 22 4 23
REMARK SMILES IDX 5 24 21 25 22 26 23 27 24 28 25 30 26 31 27 32 91 33 28 34
REMARK SMILES IDX 90 35 29 36 30 37 31 38 84 39 32 40 89 41 83 42 85 43 33 44
REMARK SMILES IDX 88 45 82 46 81 47 34 49 68 50 47 51 67 52 48 53 51 54 66 55
REMARK SMILES IDX 86 56 49 57 50 58 65 60 87 61 52 62 35 63 36 64 45 65 37 66
REMARK SMILES IDX 38 67 44 68 46 69 39 70 40 71 41 72 42 73 43 74 69 75 70 76
REMARK SMILES IDX 79 77 71 78 72 79 78 80 80 81 73 82 74 83 75 84 76 85 77 86
REMARK SMILES IDX 53 87 54 88 63 89 55 90 56 91 62 92 64 93 57 94 58 95 59 96
REMARK SMILES IDX 60 97 61 98
REMARK H PARENT 18 6 23 29 85 48 51 59
REMARK Flexibility Score: inf
ROOT
ATOM      1  C   UNL A   1      32.173  29.720  27.246  1.00  0.00     0.023 C 
ENDROOT
BRANCH   1   2
ATOM      2  C   UNL A   1      31.816  30.498  25.943  1.00  0.00     0.116 C 
BRANCH   2   3
ATOM      3  N   UNL A   1      31.465  29.651  24.689  1.00  0.00    -0.356 N 
ATOM      4  C   UNL A   1      31.278  28.476  24.028  1.00  0.00     0.225 C 
ATOM      5  O   UNL A   1      30.836  28.763  22.884  1.00  0.00    -0.275 OA
ATOM      6  H   UNL A   1      31.277  30.330  24.003  1.00  0.00     0.163 HD
BRANCH   4   7
ATOM      7  C   UNL A   1      31.369  26.869  24.258  1.00  0.00     0.102 C 
ATOM      8  N   UNL A   1      32.754  24.869  23.978  1.00  0.00    -0.336 N 
ATOM      9  C   UNL A   1      32.689  25.128  25.409  1.00  0.00     0.121 C 
ATOM     10  C   UNL A   1      31.654  25.614  23.333  1.00  0.00     0.094 C 
ATOM     11  C   UNL A   1      31.937  26.444  25.619  1.00  0.00     0.037 C 
ATOM     12  C   UNL A   1      30.421  24.679  23.259  1.00  0.00     0.032 C 
BRANCH   8  13
ATOM     13  C   UNL A   1      33.580  23.825  23.567  1.00  0.00     0.263 C 
ATOM     14  O   UNL A   1      34.506  24.130  22.784  1.00  0.00    -0.271 OA
BRANCH  13  15
ATOM     15  C   UNL A   1      33.472  22.239  23.877  1.00  0.00     0.259 C 
ATOM     16  C   UNL A   1      32.368  21.687  22.919  1.00  0.00     0.064 C 
BRANCH  15  17
ATOM     17  O   UNL A   1      33.526  21.417  25.043  1.00  0.00    -0.481 OA
BRANCH  17  18
ATOM     18  C   UNL A   1      34.781  21.171  25.521  1.00  0.00     0.120 A 
ATOM     19  C   UNL A   1      37.066  23.919  25.678  1.00  0.00     0.044 C 
ATOM     20  C   UNL A   1      36.689  22.456  25.593  1.00  0.00    -0.047 A 
ATOM     21  C   UNL A   1      37.356  21.388  24.940  1.00  0.00     0.003 A 
ATOM     22  C   UNL A   1      35.485  22.166  26.155  1.00  0.00     0.049 A 
ATOM     23  C   UNL A   1      36.777  20.132  24.782  1.00  0.00     0.004 A 
ATOM     24  C   UNL A   1      35.422  20.045  25.013  1.00  0.00     0.046 A 
ENDBRANCH  17  18
ENDBRANCH  15  17
ENDBRANCH  13  15
ENDBRANCH   8  13
ENDBRANCH   4   7
ENDBRANCH   2   3
ENDBRANCH   1   2
BRANCH   1  25
ATOM     25  C   UNL A   1      33.484  29.016  27.602  1.00  0.00     0.023 C 
BRANCH  25  26
ATOM     26  C   UNL A   1      34.698  29.452  26.802  1.00  0.00     0.116 C 
BRANCH  26  27
ATOM     27  N   UNL A   1      35.376  30.674  27.242  1.00  0.00    -0.352 N 
ATOM     28  C   UNL A   1      36.514  30.813  28.047  1.00  0.00     0.251 C 
ATOM     29  H   UNL A   1      34.975  31.516  26.928  1.00  0.00     0.163 HD
ATOM     30  O   UNL A   1      36.834  31.897  28.492  1.00  0.00    -0.269 OA
BRANCH  28  31
ATOM     31  C   UNL A   1      37.381  29.621  28.262  1.00  0.00     0.039 A 
ATOM     32  C   UNL A   1      37.358  28.944  29.488  1.00  0.00     0.014 A 
ATOM     33  C   UNL A   1      38.380  29.339  27.351  1.00  0.00     0.014 A 
ATOM     34  C   UNL A   1      38.462  28.174  29.867  1.00  0.00     0.010 A 
ATOM     35  C   UNL A   1      39.559  28.833  27.819  1.00  0.00     0.010 A 
ATOM     36  C   UNL A   1      39.601  28.221  29.070  1.00  0.00    -0.014 A 
BRANCH  36  37
ATOM     37  C   UNL A   1      40.898  27.632  29.349  1.00  0.00     0.031 A 
ATOM     38  C   UNL A   1      41.162  26.255  28.865  1.00  0.00     0.074 A 
ATOM     39  C   UNL A   1      41.902  28.448  29.734  1.00  0.00     0.049 A 
ATOM     40  N   UNL A   1      42.194  25.553  29.176  1.00  0.00    -0.248 NA
ATOM     41  C   UNL A   1      40.261  25.554  27.953  1.00  0.00     0.031 C 
ATOM     42  C   UNL A   1      43.338  28.209  29.633  1.00  0.00     0.029 A 
ATOM     43  N   UNL A   1      41.801  29.624  30.473  1.00  0.00    -0.354 N 
ATOM     44  C   UNL A   1      42.243  24.464  28.328  1.00  0.00     0.074 A 
ATOM     45  C   UNL A   1      41.000  24.501  27.601  1.00  0.00     0.031 C 
ATOM     46  C   UNL A   1      43.975  29.029  30.484  1.00  0.00     0.029 A 
ATOM     47  C   UNL A   1      42.956  29.706  31.272  1.00  0.00     0.049 A 
ATOM     48  H   UNL A   1      41.062  30.274  30.444  1.00  0.00     0.167 HD
ATOM     49  C   UNL A   1      43.393  23.732  28.268  1.00  0.00     0.037 A 
ATOM     50  C   UNL A   1      42.838  29.594  32.631  1.00  0.00     0.037 A 
ATOM     51  C   UNL A   1      44.352  24.232  29.255  1.00  0.00     0.049 A 
ATOM     52  C   UNL A   1      43.463  28.332  33.187  1.00  0.00     0.074 A 
ATOM     53  C   UNL A   1      45.424  25.103  29.157  1.00  0.00     0.029 A 
ATOM     54  N   UNL A   1      44.053  24.126  30.611  1.00  0.00    -0.354 N 
ATOM     55  N   UNL A   1      43.768  27.282  32.471  1.00  0.00    -0.248 NA
ATOM     56  C   UNL A   1      43.818  28.164  34.592  1.00  0.00     0.031 C 
ATOM     57  C   UNL A   1      45.710  25.593  30.457  1.00  0.00     0.029 A 
ATOM     58  C   UNL A   1      44.832  25.000  31.349  1.00  0.00     0.049 A 
ATOM     59  H   UNL A   1      43.382  23.516  30.991  1.00  0.00     0.167 HD
ATOM     60  C   UNL A   1      44.311  26.313  33.276  1.00  0.00     0.074 A 
ATOM     61  C   UNL A   1      44.344  26.927  34.591  1.00  0.00     0.031 C 
ATOM     62  C   UNL A   1      44.690  25.088  32.796  1.00  0.00     0.037 A 
BRANCH  49  63
ATOM     63  C   UNL A   1      43.754  22.758  27.158  1.00  0.00     0.058 A 
ATOM     64  C   UNL A   1      43.003  21.573  26.977  1.00  0.00     0.135 A 
ATOM     65  C   UNL A   1      44.841  22.893  26.270  1.00  0.00     0.135 A 
ATOM     66  F   UNL A   1      41.887  21.336  27.679  1.00  0.00    -0.206 F 
ATOM     67  C   UNL A   1      43.360  20.570  26.071  1.00  0.00     0.059 A 
ATOM     68  C   UNL A   1      45.249  21.881  25.392  1.00  0.00     0.059 A 
ATOM     69  F   UNL A   1      45.523  24.038  26.162  1.00  0.00    -0.206 F 
ATOM     70  C   UNL A   1      44.505  20.716  25.304  1.00  0.00     0.060 A 
BRANCH  70  71
ATOM     71  S   UNL A   1      44.980  19.389  24.182  1.00  0.00     0.124 S 
ATOM     72  O   UNL A   1      44.293  18.239  24.759  1.00  0.00    -0.237 OA
ATOM     73  O   UNL A   1      44.459  19.867  22.906  1.00  0.00    -0.237 OA
ATOM     74  O   UNL A   1      46.437  19.357  24.290  1.00  0.00    -0.744 OA
ENDBRANCH  70  71
ENDBRANCH  49  63
BRANCH  50  75
ATOM     75  C   UNL A   1      41.612  30.279  33.144  1.00  0.00     0.058 A 
ATOM     76  C   UNL A   1      41.675  31.684  33.260  1.00  0.00     0.135 A 
ATOM     77  C   UNL A   1      40.340  29.701  33.004  1.00  0.00     0.135 A 
ATOM     78  F   UNL A   1      42.862  32.287  33.423  1.00  0.00    -0.206 F 
ATOM     79  C   UNL A   1      40.563  32.488  33.032  1.00  0.00     0.059 A 
ATOM     80  C   UNL A   1      39.207  30.492  32.793  1.00  0.00     0.059 A 
ATOM     81  F   UNL A   1      40.211  28.370  32.895  1.00  0.00    -0.206 F 
ATOM     82  C   UNL A   1      39.351  31.878  32.718  1.00  0.00     0.060 A 
BRANCH  82  83
ATOM     83  S   UNL A   1      38.050  32.913  32.003  1.00  0.00     0.124 S 
ATOM     84  O   UNL A   1      38.649  33.331  30.741  1.00  0.00    -0.237 OA
ATOM     85  O   UNL A   1      36.949  31.955  31.894  1.00  0.00    -0.237 OA
ATOM     86  O   UNL A   1      37.877  33.965  32.997  1.00  0.00    -0.744 OA
ENDBRANCH  82  83
ENDBRANCH  50  75
BRANCH  62  87
ATOM     87  C   UNL A   1      45.060  23.882  33.636  1.00  0.00     0.058 A 
ATOM     88  C   UNL A   1      44.158  22.873  34.012  1.00  0.00     0.135 A 
ATOM     89  C   UNL A   1      46.416  23.637  33.978  1.00  0.00     0.135 A 
ATOM     90  F   UNL A   1      42.871  22.911  33.641  1.00  0.00    -0.206 F 
ATOM     91  C   UNL A   1      44.548  21.752  34.747  1.00  0.00     0.059 A 
ATOM     92  C   UNL A   1      46.837  22.493  34.653  1.00  0.00     0.059 A 
ATOM     93  F   UNL A   1      47.391  24.498  33.653  1.00  0.00    -0.206 F 
ATOM     94  C   UNL A   1      45.890  21.571  35.065  1.00  0.00     0.060 A 
BRANCH  94  95
ATOM     95  S   UNL A   1      46.408  20.105  35.974  1.00  0.00     0.124 S 
ATOM     96  O   UNL A   1      45.704  20.284  37.239  1.00  0.00    -0.237 OA
ATOM     97  O   UNL A   1      45.924  19.014  35.132  1.00  0.00    -0.237 OA
ATOM     98  O   UNL A   1      47.859  20.245  36.031  1.00  0.00    -0.744 OA
ENDBRANCH  94  95
ENDBRANCH  62  87
ENDBRANCH  36  37
ENDBRANCH  28  31
ENDBRANCH  26  27
ENDBRANCH  25  26
ENDBRANCH   1  25
TORSDOF 18
ENDMDL
MODEL 2
REMARK VINA RESULT:     -13.1      0.984      2.098
REMARK SMILES Cc1cccc(O[C@@H](C)C(=O)N2CC[C@@H](C(=O)NCCCCNC(=O)c3ccc(-c4c5nc(c(-c6c(F)cc(S(=O)(=O)[O-])cc6F)c6ccc([nH]6)c(-c6c(F)cc(S(=O)(=O)[O-])cc6F)c6nc(c(-c7c(F)cc(S(=O)(=O)[O-])cc7F)c7ccc4[nH]7)C=C6)C=C5)cc3)[C@@H]2C)c1
REMARK SMILES IDX 20 1 19 2 18 3 16 4 17 5 15 7 12 8 13 9 92 10 14 11 93 12
REMARK SMILES IDX 10 13 11 14 8 15 9 16 7 17 6 18 1 19 2 20 3 21 94 22 4 23
REMARK SMILES IDX 5 24 21 25 22 26 23 27 24 28 25 30 26 31 27 32 91 33 28 34
REMARK SMILES IDX 90 35 29 36 30 37 31 38 84 39 32 40 89 41 83 42 85 43 33 44
REMARK SMILES IDX 88 45 82 46 81 47 34 49 68 50 47 51 67 52 48 53 51 54 66 55
REMARK SMILES IDX 86 56 49 57 50 58 65 60 87 61 52 62 35 63 36 64 45 65 37 66
REMARK SMILES IDX 38 67 44 68 46 69 39 70 40 71 41 72 42 73 43 74 69 75 70 76
REMARK SMILES IDX 79 77 71 78 72 79 78 80 80 81 73 82 74 83 75 84 76 85 77 86
REMARK SMILES IDX 53 87 54 88 63 89 55 90 56 91 62 92 64 93 57 94 58 95 59 96
REMARK SMILES IDX 60 97 61 98
REMARK H PARENT 18 6 23 29 85 48 51 59
REMARK Flexibility Score: inf
ROOT
ATOM      1  C   UNL A   1      33.224  29.398  24.984  1.00  0.00     0.023 C 
ENDROOT
BRANCH   1   2
ATOM      2  C   UNL A   1      31.737  29.337  25.450  1.00  0.00     0.116 C 
BRANCH   2   3
ATOM      3  N   UNL A   1      30.727  28.641  24.497  1.00  0.00    -0.356 N 
ATOM      4  C   UNL A   1      30.361  27.683  23.602  1.00  0.00     0.225 C 
ATOM      5  O   UNL A   1      29.130  27.837  23.381  1.00  0.00    -0.275 OA
ATOM      6  H   UNL A   1      29.914  29.187  24.590  1.00  0.00     0.163 HD
BRANCH   4   7
ATOM      7  C   UNL A   1      30.965  26.401  22.807  1.00  0.00     0.102 C 
ATOM      8  N   UNL A   1      32.683  24.656  22.807  1.00  0.00    -0.336 N 
ATOM      9  C   UNL A   1      31.414  23.984  23.044  1.00  0.00     0.121 C 
ATOM     10  C   UNL A   1      32.390  25.991  22.248  1.00  0.00     0.094 C 
ATOM     11  C   UNL A   1      30.328  25.054  23.178  1.00  0.00     0.037 C 
ATOM     12  C   UNL A   1      32.376  25.872  20.704  1.00  0.00     0.032 C 
BRANCH   8  13
ATOM     13  C   UNL A   1      33.830  23.868  22.865  1.00  0.00     0.263 C 
ATOM     14  O   UNL A   1      34.154  23.286  21.807  1.00  0.00    -0.271 OA
BRANCH  13  15
ATOM     15  C   UNL A   1      34.773  23.508  24.132  1.00  0.00     0.259 C 
ATOM     16  C   UNL A   1      36.080  22.893  23.535  1.00  0.00     0.064 C 
BRANCH  15  17
ATOM     17  O   UNL A   1      34.571  22.982  25.443  1.00  0.00    -0.481 OA
BRANCH  17  18
ATOM     18  C   UNL A   1      33.837  23.774  26.278  1.00  0.00     0.120 A 
ATOM     19  C   UNL A   1      30.400  22.918  26.782  1.00  0.00     0.044 C 
ATOM     20  C   UNL A   1      31.586  23.858  26.748  1.00  0.00    -0.047 A 
ATOM     21  C   UNL A   1      31.634  25.238  26.425  1.00  0.00     0.003 A 
ATOM     22  C   UNL A   1      32.778  23.246  26.977  1.00  0.00     0.049 A 
ATOM     23  C   UNL A   1      32.835  25.920  26.244  1.00  0.00     0.004 A 
ATOM     24  C   UNL A   1      33.965  25.147  26.092  1.00  0.00     0.046 A 
ENDBRANCH  17  18
ENDBRANCH  15  17
ENDBRANCH  13  15
ENDBRANCH   8  13
ENDBRANCH   4   7
ENDBRANCH   2   3
ENDBRANCH   1   2
BRANCH   1  25
ATOM     25  C   UNL A   1      34.473  28.937  25.737  1.00  0.00     0.023 C 
BRANCH  25  26
ATOM     26  C   UNL A   1      34.565  29.383  27.185  1.00  0.00     0.116 C 
BRANCH  26  27
ATOM     27  N   UNL A   1      35.300  30.623  27.450  1.00  0.00    -0.352 N 
ATOM     28  C   UNL A   1      36.520  30.803  28.113  1.00  0.00     0.251 C 
ATOM     29  H   UNL A   1      34.875  31.445  27.114  1.00  0.00     0.163 HD
ATOM     30  O   UNL A   1      36.898  31.912  28.433  1.00  0.00    -0.269 OA
BRANCH  28  31
ATOM     31  C   UNL A   1      37.394  29.616  28.328  1.00  0.00     0.039 A 
ATOM     32  C   UNL A   1      37.410  28.969  29.571  1.00  0.00     0.014 A 
ATOM     33  C   UNL A   1      38.362  29.310  27.393  1.00  0.00     0.014 A 
ATOM     34  C   UNL A   1      38.527  28.207  29.931  1.00  0.00     0.010 A 
ATOM     35  C   UNL A   1      39.556  28.815  27.833  1.00  0.00     0.010 A 
ATOM     36  C   UNL A   1      39.638  28.233  29.096  1.00  0.00    -0.014 A 
BRANCH  36  37
ATOM     37  C   UNL A   1      40.944  27.649  29.347  1.00  0.00     0.031 A 
ATOM     38  C   UNL A   1      41.203  26.274  28.855  1.00  0.00     0.074 A 
ATOM     39  C   UNL A   1      41.952  28.469  29.711  1.00  0.00     0.049 A 
ATOM     40  N   UNL A   1      42.244  25.576  29.144  1.00  0.00    -0.248 NA
ATOM     41  C   UNL A   1      40.285  25.570  27.963  1.00  0.00     0.031 C 
ATOM     42  C   UNL A   1      43.386  28.237  29.578  1.00  0.00     0.029 A 
ATOM     43  N   UNL A   1      41.862  29.644  30.454  1.00  0.00    -0.354 N 
ATOM     44  C   UNL A   1      42.280  24.488  28.294  1.00  0.00     0.074 A 
ATOM     45  C   UNL A   1      41.021  24.520  27.594  1.00  0.00     0.031 C 
ATOM     46  C   UNL A   1      44.038  29.059  30.417  1.00  0.00     0.029 A 
ATOM     47  C   UNL A   1      43.034  29.731  31.227  1.00  0.00     0.049 A 
ATOM     48  H   UNL A   1      41.119  30.291  30.441  1.00  0.00     0.167 HD
ATOM     49  C   UNL A   1      43.431  23.761  28.208  1.00  0.00     0.037 A 
ATOM     50  C   UNL A   1      42.946  29.617  32.588  1.00  0.00     0.037 A 
ATOM     51  C   UNL A   1      44.409  24.265  29.175  1.00  0.00     0.049 A 
ATOM     52  C   UNL A   1      43.588  28.356  33.129  1.00  0.00     0.074 A 
ATOM     53  C   UNL A   1      45.475  25.140  29.054  1.00  0.00     0.029 A 
ATOM     54  N   UNL A   1      44.140  24.156  30.537  1.00  0.00    -0.354 N 
ATOM     55  N   UNL A   1      43.882  27.308  32.406  1.00  0.00    -0.248 NA
ATOM     56  C   UNL A   1      43.973  28.189  34.526  1.00  0.00     0.031 C 
ATOM     57  C   UNL A   1      45.787  25.630  30.348  1.00  0.00     0.029 A 
ATOM     58  C   UNL A   1      44.931  25.032  31.258  1.00  0.00     0.049 A 
ATOM     59  H   UNL A   1      43.480  23.542  30.930  1.00  0.00     0.167 HD
ATOM     60  C   UNL A   1      44.447  26.341  33.198  1.00  0.00     0.074 A 
ATOM     61  C   UNL A   1      44.505  26.954  34.512  1.00  0.00     0.031 C 
ATOM     62  C   UNL A   1      44.820  25.118  32.709  1.00  0.00     0.037 A 
BRANCH  49  63
ATOM     63  C   UNL A   1      43.772  22.790  27.089  1.00  0.00     0.058 A 
ATOM     64  C   UNL A   1      43.045  21.585  26.944  1.00  0.00     0.135 A 
ATOM     65  C   UNL A   1      44.820  22.946  26.158  1.00  0.00     0.135 A 
ATOM     66  F   UNL A   1      41.964  21.325  27.691  1.00  0.00    -0.206 F 
ATOM     67  C   UNL A   1      43.391  20.587  26.029  1.00  0.00     0.059 A 
ATOM     68  C   UNL A   1      45.218  21.940  25.270  1.00  0.00     0.059 A 
ATOM     69  F   UNL A   1      45.468  24.108  26.017  1.00  0.00    -0.206 F 
ATOM     70  C   UNL A   1      44.500  20.757  25.217  1.00  0.00     0.060 A 
BRANCH  70  71
ATOM     71  S   UNL A   1      44.964  19.435  24.083  1.00  0.00     0.124 S 
ATOM     72  O   UNL A   1      44.231  18.296  24.625  1.00  0.00    -0.237 OA
ATOM     73  O   UNL A   1      44.488  19.950  22.804  1.00  0.00    -0.237 OA
ATOM     74  O   UNL A   1      46.416  19.359  24.225  1.00  0.00    -0.744 OA
ENDBRANCH  70  71
ENDBRANCH  49  63
BRANCH  50  75
ATOM     75  C   UNL A   1      41.728  30.296  33.129  1.00  0.00     0.058 A 
ATOM     76  C   UNL A   1      41.766  31.705  33.191  1.00  0.00     0.135 A 
ATOM     77  C   UNL A   1      40.464  29.687  33.064  1.00  0.00     0.135 A 
ATOM     78  F   UNL A   1      42.946  32.337  33.281  1.00  0.00    -0.206 F 
ATOM     79  C   UNL A   1      40.628  32.477  32.982  1.00  0.00     0.059 A 
ATOM     80  C   UNL A   1      39.306  30.448  32.873  1.00  0.00     0.059 A 
ATOM     81  F   UNL A   1      40.358  28.351  33.009  1.00  0.00    -0.206 F 
ATOM     82  C   UNL A   1      39.418  31.833  32.742  1.00  0.00     0.060 A 
BRANCH  82  83
ATOM     83  S   UNL A   1      38.065  32.815  32.048  1.00  0.00     0.124 S 
ATOM     84  O   UNL A   1      37.027  31.810  31.848  1.00  0.00    -0.237 OA
ATOM     85  O   UNL A   1      37.820  33.770  33.129  1.00  0.00    -0.237 OA
ATOM     86  O   UNL A   1      38.647  33.369  30.831  1.00  0.00    -0.744 OA
ENDBRANCH  82  83
ENDBRANCH  50  75
BRANCH  62  87
ATOM     87  C   UNL A   1      45.214  23.913  33.538  1.00  0.00     0.058 A 
ATOM     88  C   UNL A   1      46.452  23.771  34.187  1.00  0.00     0.135 A 
ATOM     89  C   UNL A   1      44.265  22.897  33.822  1.00  0.00     0.135 A 
ATOM     90  F   UNL A   1      47.394  24.721  34.114  1.00  0.00    -0.206 F 
ATOM     91  C   UNL A   1      46.761  22.666  34.983  1.00  0.00     0.059 A 
ATOM     92  C   UNL A   1      44.529  21.821  34.666  1.00  0.00     0.059 A 
ATOM     93  F   UNL A   1      43.031  22.921  33.299  1.00  0.00    -0.206 F 
ATOM     94  C   UNL A   1      45.794  21.694  35.215  1.00  0.00     0.060 A 
BRANCH  94  95
ATOM     95  S   UNL A   1      46.170  20.289  36.276  1.00  0.00     0.124 S 
ATOM     96  O   UNL A   1      47.597  20.112  36.030  1.00  0.00    -0.237 OA
ATOM     97  O   UNL A   1      45.816  20.782  37.604  1.00  0.00    -0.237 OA
ATOM     98  O   UNL A   1      45.302  19.237  35.756  1.00  0.00    -0.744 OA
ENDBRANCH  94  95
ENDBRANCH  62  87
ENDBRANCH  36  37
ENDBRANCH  28  31
ENDBRANCH  26  27
ENDBRANCH  25  26
ENDBRANCH   1  25
TORSDOF 18
ENDMDL
MODEL 3
REMARK VINA RESULT:     -12.9      4.380     11.225
REMARK SMILES Cc1cccc(O[C@@H](C)C(=O)N2CC[C@@H](C(=O)NCCCCNC(=O)c3ccc(-c4c5nc(c(-c6c(F)cc(S(=O)(=O)[O-])cc6F)c6ccc([nH]6)c(-c6c(F)cc(S(=O)(=O)[O-])cc6F)c6nc(c(-c7c(F)cc(S(=O)(=O)[O-])cc7F)c7ccc4[nH]7)C=C6)C=C5)cc3)[C@@H]2C)c1
REMARK SMILES IDX 20 1 19 2 18 3 16 4 17 5 15 7 12 8 13 9 92 10 14 11 93 12
REMARK SMILES IDX 10 13 11 14 8 15 9 16 7 17 6 18 1 19 2 20 3 21 94 22 4 23
REMARK SMILES IDX 5 24 21 25 22 26 23 27 24 28 25 30 26 31 27 32 91 33 28 34
REMARK SMILES IDX 90 35 29 36 30 37 31 38 84 39 32 40 89 41 83 42 85 43 33 44
REMARK SMILES IDX 88 45 82 46 81 47 34 49 68 50 47 51 67 52 48 53 51 54 66 55
REMARK SMILES IDX 86 56 49 57 50 58 65 60 87 61 52 62 35 63 36 64 45 65 37 66
REMARK SMILES IDX 38 67 44 68 46 69 39 70 40 71 41 72 42 73 43 74 69 75 70 76
REMARK SMILES IDX 79 77 71 78 72 79 78 80 80 81 73 82 74 83 75 84 76 85 77 86
REMARK SMILES IDX 53 87 54 88 63 89 55 90 56 91 62 92 64 93 57 94 58 95 59 96
REMARK SMILES IDX 60 97 61 98
REMARK H PARENT 18 6 23 29 85 48 51 59
REMARK Flexibility Score: inf
ROOT
ATOM      1  C   UNL A   1      37.159  21.404  24.927  1.00  0.00     0.023 C 
ENDROOT
BRANCH   1   2
ATOM      2  C   UNL A   1      35.800  20.664  25.118  1.00  0.00     0.116 C 
BRANCH   2   3
ATOM      3  N   UNL A   1      34.857  21.198  26.230  1.00  0.00    -0.356 N 
ATOM      4  C   UNL A   1      33.687  21.727  26.683  1.00  0.00     0.225 C 
ATOM      5  O   UNL A   1      33.755  21.751  27.940  1.00  0.00    -0.275 OA
ATOM      6  H   UNL A   1      35.395  21.104  27.048  1.00  0.00     0.163 HD
BRANCH   4   7
ATOM      7  C   UNL A   1      32.247  22.254  26.143  1.00  0.00     0.102 C 
ATOM      8  N   UNL A   1      30.910  24.221  25.559  1.00  0.00    -0.336 N 
ATOM      9  C   UNL A   1      31.189  23.527  24.310  1.00  0.00     0.121 C 
ATOM     10  C   UNL A   1      31.153  23.275  26.666  1.00  0.00     0.094 C 
ATOM     11  C   UNL A   1      32.130  22.360  24.616  1.00  0.00     0.037 C 
ATOM     12  C   UNL A   1      29.818  22.555  26.982  1.00  0.00     0.032 C 
BRANCH   8  13
ATOM     13  C   UNL A   1      30.241  25.439  25.464  1.00  0.00     0.263 C 
ATOM     14  O   UNL A   1      29.534  25.758  26.443  1.00  0.00    -0.271 OA
BRANCH  13  15
ATOM     15  C   UNL A   1      30.161  26.479  24.224  1.00  0.00     0.259 C 
ATOM     16  C   UNL A   1      28.647  26.589  23.851  1.00  0.00     0.064 C 
BRANCH  15  17
ATOM     17  O   UNL A   1      30.944  26.751  23.063  1.00  0.00    -0.481 OA
BRANCH  17  18
ATOM     18  C   UNL A   1      32.189  27.255  23.308  1.00  0.00     0.120 A 
ATOM     19  C   UNL A   1      34.354  25.369  25.441  1.00  0.00     0.044 C 
ATOM     20  C   UNL A   1      33.851  26.629  24.770  1.00  0.00    -0.047 A 
ATOM     21  C   UNL A   1      33.849  27.965  25.246  1.00  0.00     0.003 A 
ATOM     22  C   UNL A   1      33.236  26.408  23.578  1.00  0.00     0.049 A 
ATOM     23  C   UNL A   1      33.167  28.988  24.593  1.00  0.00     0.004 A 
ATOM     24  C   UNL A   1      32.250  28.605  23.639  1.00  0.00     0.046 A 
ENDBRANCH  17  18
ENDBRANCH  15  17
ENDBRANCH  13  15
ENDBRANCH   8  13
ENDBRANCH   4   7
ENDBRANCH   2   3
ENDBRANCH   1   2
BRANCH   1  25
ATOM     25  C   UNL A   1      37.407  22.905  24.767  1.00  0.00     0.023 C 
BRANCH  25  26
ATOM     26  C   UNL A   1      37.655  23.667  26.056  1.00  0.00     0.116 C 
BRANCH  26  27
ATOM     27  N   UNL A   1      38.810  23.254  26.857  1.00  0.00    -0.352 N 
ATOM     28  C   UNL A   1      39.797  24.045  27.459  1.00  0.00     0.251 C 
ATOM     29  H   UNL A   1      38.906  22.284  26.990  1.00  0.00     0.163 HD
ATOM     30  O   UNL A   1      40.805  23.543  27.917  1.00  0.00    -0.269 OA
BRANCH  28  31
ATOM     31  C   UNL A   1      39.540  25.503  27.617  1.00  0.00     0.039 A 
ATOM     32  C   UNL A   1      40.161  26.425  26.764  1.00  0.00     0.014 A 
ATOM     33  C   UNL A   1      38.895  25.957  28.750  1.00  0.00     0.014 A 
ATOM     34  C   UNL A   1      40.320  27.749  27.185  1.00  0.00     0.010 A 
ATOM     35  C   UNL A   1      39.286  27.151  29.284  1.00  0.00     0.010 A 
ATOM     36  C   UNL A   1      39.978  28.068  28.495  1.00  0.00    -0.014 A 
BRANCH  36  37
ATOM     37  C   UNL A   1      40.200  29.327  29.183  1.00  0.00     0.031 A 
ATOM     38  C   UNL A   1      39.120  30.343  29.156  1.00  0.00     0.074 A 
ATOM     39  C   UNL A   1      41.212  29.398  30.074  1.00  0.00     0.049 A 
ATOM     40  N   UNL A   1      39.238  31.552  29.577  1.00  0.00    -0.248 NA
ATOM     41  C   UNL A   1      37.780  30.054  28.647  1.00  0.00     0.031 C 
ATOM     42  C   UNL A   1      41.363  30.334  31.183  1.00  0.00     0.029 A 
ATOM     43  N   UNL A   1      42.424  28.714  30.035  1.00  0.00    -0.354 N 
ATOM     44  C   UNL A   1      37.975  32.103  29.659  1.00  0.00     0.074 A 
ATOM     45  C   UNL A   1      37.104  31.134  29.045  1.00  0.00     0.031 C 
ATOM     46  C   UNL A   1      42.653  30.365  31.552  1.00  0.00     0.029 A 
ATOM     47  C   UNL A   1      43.396  29.570  30.586  1.00  0.00     0.049 A 
ATOM     48  H   UNL A   1      42.575  27.805  29.687  1.00  0.00     0.167 HD
ATOM     49  C   UNL A   1      37.812  33.269  30.349  1.00  0.00     0.037 A 
ATOM     50  C   UNL A   1      44.381  30.070  29.778  1.00  0.00     0.037 A 
ATOM     51  C   UNL A   1      39.115  33.767  30.796  1.00  0.00     0.049 A 
ATOM     52  C   UNL A   1      44.280  31.565  29.561  1.00  0.00     0.074 A 
ATOM     53  C   UNL A   1      39.791  33.664  32.000  1.00  0.00     0.029 A 
ATOM     54  N   UNL A   1      40.056  34.161  29.848  1.00  0.00    -0.354 N 
ATOM     55  N   UNL A   1      43.208  32.275  29.794  1.00  0.00    -0.248 NA
ATOM     56  C   UNL A   1      45.391  32.383  29.087  1.00  0.00     0.031 C 
ATOM     57  C   UNL A   1      41.165  33.910  31.752  1.00  0.00     0.029 A 
ATOM     58  C   UNL A   1      41.322  34.190  30.405  1.00  0.00     0.049 A 
ATOM     59  H   UNL A   1      39.849  34.387  28.913  1.00  0.00     0.167 HD
ATOM     60  C   UNL A   1      43.446  33.591  29.490  1.00  0.00     0.074 A 
ATOM     61  C   UNL A   1      44.837  33.609  29.076  1.00  0.00     0.031 C 
ATOM     62  C   UNL A   1      42.483  34.556  29.604  1.00  0.00     0.037 A 
BRANCH  49  63
ATOM     63  C   UNL A   1      36.484  33.812  30.850  1.00  0.00     0.058 A 
ATOM     64  C   UNL A   1      35.512  34.277  29.932  1.00  0.00     0.135 A 
ATOM     65  C   UNL A   1      36.111  33.952  32.203  1.00  0.00     0.135 A 
ATOM     66  F   UNL A   1      35.673  34.135  28.610  1.00  0.00    -0.206 F 
ATOM     67  C   UNL A   1      34.331  34.914  30.323  1.00  0.00     0.059 A 
ATOM     68  C   UNL A   1      34.961  34.632  32.619  1.00  0.00     0.059 A 
ATOM     69  F   UNL A   1      36.811  33.378  33.187  1.00  0.00    -0.206 F 
ATOM     70  C   UNL A   1      34.077  35.118  31.670  1.00  0.00     0.060 A 
BRANCH  70  71
ATOM     71  S   UNL A   1      32.577  35.990  32.154  1.00  0.00     0.124 S 
ATOM     72  O   UNL A   1      32.151  36.590  30.893  1.00  0.00    -0.237 OA
ATOM     73  O   UNL A   1      31.742  34.905  32.656  1.00  0.00    -0.237 OA
ATOM     74  O   UNL A   1      33.044  36.939  33.162  1.00  0.00    -0.744 OA
ENDBRANCH  70  71
ENDBRANCH  49  63
BRANCH  50  75
ATOM     75  C   UNL A   1      44.858  29.058  28.786  1.00  0.00     0.058 A 
ATOM     76  C   UNL A   1      45.669  28.017  29.285  1.00  0.00     0.135 A 
ATOM     77  C   UNL A   1      44.150  28.810  27.599  1.00  0.00     0.135 A 
ATOM     78  F   UNL A   1      46.389  28.209  30.402  1.00  0.00    -0.206 F 
ATOM     79  C   UNL A   1      45.614  26.730  28.761  1.00  0.00     0.059 A 
ATOM     80  C   UNL A   1      44.097  27.527  27.045  1.00  0.00     0.059 A 
ATOM     81  F   UNL A   1      43.366  29.760  27.068  1.00  0.00    -0.206 F 
ATOM     82  C   UNL A   1      44.759  26.481  27.690  1.00  0.00     0.060 A 
BRANCH  82  83
ATOM     83  S   UNL A   1      44.368  24.756  27.309  1.00  0.00     0.124 S 
ATOM     84  O   UNL A   1      43.265  24.892  26.364  1.00  0.00    -0.237 OA
ATOM     85  O   UNL A   1      45.634  24.295  26.738  1.00  0.00    -0.237 OA
ATOM     86  O   UNL A   1      44.018  24.198  28.609  1.00  0.00    -0.744 OA
ENDBRANCH  82  83
ENDBRANCH  50  75
BRANCH  62  87
ATOM     87  C   UNL A   1      42.574  35.968  29.063  1.00  0.00     0.058 A 
ATOM     88  C   UNL A   1      43.232  37.024  29.716  1.00  0.00     0.135 A 
ATOM     89  C   UNL A   1      42.099  36.270  27.760  1.00  0.00     0.135 A 
ATOM     90  F   UNL A   1      43.843  36.845  30.896  1.00  0.00    -0.206 F 
ATOM     91  C   UNL A   1      43.336  38.302  29.163  1.00  0.00     0.059 A 
ATOM     92  C   UNL A   1      42.250  37.518  27.163  1.00  0.00     0.059 A 
ATOM     93  F   UNL A   1      41.479  35.349  27.007  1.00  0.00    -0.206 F 
ATOM     94  C   UNL A   1      42.839  38.541  27.887  1.00  0.00     0.060 A 
BRANCH  94  95
ATOM     95  S   UNL A   1      43.009  40.175  27.148  1.00  0.00     0.124 S 
ATOM     96  O   UNL A   1      41.682  40.737  27.380  1.00  0.00    -0.237 OA
ATOM     97  O   UNL A   1      44.091  40.771  27.926  1.00  0.00    -0.237 OA
ATOM     98  O   UNL A   1      43.337  39.879  25.757  1.00  0.00    -0.744 OA
ENDBRANCH  94  95
ENDBRANCH  62  87
ENDBRANCH  36  37
ENDBRANCH  28  31
ENDBRANCH  26  27
ENDBRANCH  25  26
ENDBRANCH   1  25
TORSDOF 18
ENDMDL
