MODEL 1
REMARK VINA RESULT:     -12.2      0.000      0.000
REMARK SMILES O=C(NCCCCNC(=O)c1occc1Cn1ccc2ccc([N+](=O)[O-])cc21)c1ccc(-c2c3nc(c(-c4c(F)cc(S(=O)(=O)[O-])cc4F)c4ccc([nH]4)c(-c4c(F)cc(S(=O)(=O)[O-])cc4F)c4nc(c(-c5c(F)cc(S(=O)(=O)[O-])cc5F)c5ccc2[nH]5)C=C4)C=C3)cc1
REMARK SMILES IDX 5 1 4 2 3 3 1 4 2 5 29 7 30 8 94 9 31 10 93 11 32 12 33 13
REMARK SMILES IDX 34 14 87 15 35 16 92 17 86 18 88 19 36 20 91 21 85 22 84 23
REMARK SMILES IDX 37 25 71 26 50 27 70 28 51 29 54 30 69 31 89 32 52 33 53 34
REMARK SMILES IDX 68 36 90 37 55 38 38 39 39 40 48 41 40 42 41 43 47 44 49 45
REMARK SMILES IDX 42 46 43 47 44 48 45 49 46 50 72 51 73 52 82 53 74 54 75 55
REMARK SMILES IDX 81 56 83 57 76 58 77 59 78 60 79 61 80 62 56 63 57 64 66 65
REMARK SMILES IDX 58 66 59 67 65 68 67 69 60 70 61 71 62 72 63 73 64 74 6 75
REMARK SMILES IDX 7 76 8 77 9 78 10 80 11 81 12 82 15 83 13 84 14 85 16 86
REMARK SMILES IDX 17 87 18 88 28 89 19 90 20 91 27 92 21 93 23 94 22 95 24 96
REMARK SMILES IDX 25 97 26 98
REMARK H PARENT 3 6 88 24 54 35 8 79
REMARK Flexibility Score: inf
ROOT
ATOM      1  C   UNL A   1      38.429  22.631  25.753  1.00  0.00     0.023 C 
ENDROOT
BRANCH   1   2
ATOM      2  C   UNL A   1      39.423  22.690  26.903  1.00  0.00     0.116 C 
BRANCH   2   3
ATOM      3  N   UNL A   1      40.772  22.241  26.545  1.00  0.00    -0.352 N 
ATOM      4  O   UNL A   1      42.784  22.573  25.539  1.00  0.00    -0.269 OA
ATOM      5  C   UNL A   1      41.853  23.033  26.172  1.00  0.00     0.251 C 
ATOM      6  H   UNL A   1      40.929  21.269  26.571  1.00  0.00     0.163 HD
BRANCH   5   7
ATOM      7  C   UNL A   1      41.838  24.451  26.586  1.00  0.00     0.039 A 
ATOM      8  C   UNL A   1      41.198  25.451  25.852  1.00  0.00     0.014 A 
ATOM      9  C   UNL A   1      42.436  24.740  27.805  1.00  0.00     0.014 A 
ATOM     10  C   UNL A   1      41.104  26.726  26.412  1.00  0.00     0.010 A 
ATOM     11  C   UNL A   1      42.122  25.901  28.448  1.00  0.00     0.010 A 
ATOM     12  C   UNL A   1      41.554  26.938  27.728  1.00  0.00    -0.014 A 
BRANCH  12  13
ATOM     13  C   UNL A   1      41.397  28.220  28.406  1.00  0.00     0.031 A 
ATOM     14  C   UNL A   1      42.480  29.197  28.131  1.00  0.00     0.074 A 
ATOM     15  C   UNL A   1      40.278  28.564  29.086  1.00  0.00     0.049 A 
ATOM     16  N   UNL A   1      43.428  29.558  28.930  1.00  0.00    -0.248 NA
ATOM     17  C   UNL A   1      42.640  29.701  26.757  1.00  0.00     0.031 C 
ATOM     18  C   UNL A   1      39.006  27.834  29.205  1.00  0.00     0.029 A 
ATOM     19  N   UNL A   1      40.011  29.713  29.762  1.00  0.00    -0.354 N 
ATOM     20  C   UNL A   1      44.157  30.524  28.246  1.00  0.00     0.074 A 
ATOM     21  C   UNL A   1      43.766  30.410  26.866  1.00  0.00     0.031 C 
ATOM     22  C   UNL A   1      38.048  28.650  29.697  1.00  0.00     0.029 A 
ATOM     23  C   UNL A   1      38.675  29.886  30.117  1.00  0.00     0.049 A 
ATOM     24  H   UNL A   1      40.708  30.371  29.984  1.00  0.00     0.167 HD
ATOM     25  C   UNL A   1      44.829  31.499  28.921  1.00  0.00     0.037 A 
ATOM     26  C   UNL A   1      38.128  30.964  30.732  1.00  0.00     0.037 A 
ATOM     27  C   UNL A   1      44.954  31.157  30.319  1.00  0.00     0.049 A 
ATOM     28  C   UNL A   1      39.245  31.666  31.413  1.00  0.00     0.074 A 
ATOM     29  C   UNL A   1      45.537  30.116  31.016  1.00  0.00     0.029 A 
ATOM     30  N   UNL A   1      44.069  31.747  31.192  1.00  0.00    -0.354 N 
ATOM     31  N   UNL A   1      39.918  31.162  32.412  1.00  0.00    -0.248 NA
ATOM     32  C   UNL A   1      39.911  32.736  30.688  1.00  0.00     0.031 C 
ATOM     33  C   UNL A   1      44.642  29.845  32.094  1.00  0.00     0.029 A 
ATOM     34  C   UNL A   1      43.604  30.779  32.046  1.00  0.00     0.049 A 
ATOM     35  H   UNL A   1      43.815  32.697  31.202  1.00  0.00     0.167 HD
ATOM     36  C   UNL A   1      41.233  31.537  32.178  1.00  0.00     0.074 A 
ATOM     37  C   UNL A   1      41.150  32.583  31.161  1.00  0.00     0.031 C 
ATOM     38  C   UNL A   1      42.275  30.772  32.622  1.00  0.00     0.037 A 
BRANCH  25  39
ATOM     39  C   UNL A   1      45.037  32.912  28.420  1.00  0.00     0.058 A 
ATOM     40  C   UNL A   1      46.353  33.379  28.213  1.00  0.00     0.135 A 
ATOM     41  C   UNL A   1      44.033  33.906  28.400  1.00  0.00     0.135 A 
ATOM     42  F   UNL A   1      47.390  32.527  28.212  1.00  0.00    -0.206 F 
ATOM     43  C   UNL A   1      46.654  34.735  28.080  1.00  0.00     0.059 A 
ATOM     44  C   UNL A   1      44.307  35.257  28.213  1.00  0.00     0.059 A 
ATOM     45  F   UNL A   1      42.747  33.638  28.654  1.00  0.00    -0.206 F 
ATOM     46  C   UNL A   1      45.623  35.668  28.097  1.00  0.00     0.060 A 
BRANCH  46  47
ATOM     47  S   UNL A   1      46.016  37.422  28.026  1.00  0.00     0.124 S 
ATOM     48  O   UNL A   1      45.221  37.852  26.881  1.00  0.00    -0.237 OA
ATOM     49  O   UNL A   1      45.561  37.885  29.332  1.00  0.00    -0.237 OA
ATOM     50  O   UNL A   1      47.463  37.435  27.831  1.00  0.00    -0.744 OA
ENDBRANCH  46  47
ENDBRANCH  25  39
BRANCH  26  51
ATOM     51  C   UNL A   1      36.802  31.599  30.500  1.00  0.00     0.058 A 
ATOM     52  C   UNL A   1      36.012  32.025  31.584  1.00  0.00     0.135 A 
ATOM     53  C   UNL A   1      36.426  32.085  29.232  1.00  0.00     0.135 A 
ATOM     54  F   UNL A   1      36.298  31.613  32.830  1.00  0.00    -0.206 F 
ATOM     55  C   UNL A   1      34.967  32.942  31.434  1.00  0.00     0.059 A 
ATOM     56  C   UNL A   1      35.382  32.994  29.056  1.00  0.00     0.059 A 
ATOM     57  F   UNL A   1      37.126  31.763  28.133  1.00  0.00    -0.206 F 
ATOM     58  C   UNL A   1      34.680  33.447  30.166  1.00  0.00     0.060 A 
BRANCH  58  59
ATOM     59  S   UNL A   1      33.472  34.784  30.002  1.00  0.00     0.124 S 
ATOM     60  O   UNL A   1      34.296  35.875  29.492  1.00  0.00    -0.237 OA
ATOM     61  O   UNL A   1      32.513  34.216  29.061  1.00  0.00    -0.237 OA
ATOM     62  O   UNL A   1      32.976  34.961  31.364  1.00  0.00    -0.744 OA
ENDBRANCH  58  59
ENDBRANCH  26  51
BRANCH  38  63
ATOM     63  C   UNL A   1      41.990  29.698  33.645  1.00  0.00     0.058 A 
ATOM     64  C   UNL A   1      41.630  28.370  33.343  1.00  0.00     0.135 A 
ATOM     65  C   UNL A   1      42.257  29.992  34.991  1.00  0.00     0.135 A 
ATOM     66  F   UNL A   1      41.446  27.977  32.075  1.00  0.00    -0.206 F 
ATOM     67  C   UNL A   1      41.516  27.393  34.336  1.00  0.00     0.059 A 
ATOM     68  C   UNL A   1      42.180  29.028  35.992  1.00  0.00     0.059 A 
ATOM     69  F   UNL A   1      42.656  31.226  35.342  1.00  0.00    -0.206 F 
ATOM     70  C   UNL A   1      41.800  27.730  35.659  1.00  0.00     0.060 A 
BRANCH  70  71
ATOM     71  S   UNL A   1      41.736  26.448  36.930  1.00  0.00     0.124 S 
ATOM     72  O   UNL A   1      42.911  26.756  37.738  1.00  0.00    -0.237 OA
ATOM     73  O   UNL A   1      40.446  26.697  37.566  1.00  0.00    -0.237 OA
ATOM     74  O   UNL A   1      41.814  25.205  36.166  1.00  0.00    -0.744 OA
ENDBRANCH  70  71
ENDBRANCH  38  63
ENDBRANCH  12  13
ENDBRANCH   5   7
ENDBRANCH   2   3
ENDBRANCH   1   2
BRANCH   1  75
ATOM     75  C   UNL A   1      37.371  23.738  25.758  1.00  0.00     0.023 C 
BRANCH  75  76
ATOM     76  C   UNL A   1      35.916  23.304  25.579  1.00  0.00     0.116 C 
BRANCH  76  77
ATOM     77  N   UNL A   1      35.287  22.846  26.804  1.00  0.00    -0.349 N 
ATOM     78  C   UNL A   1      34.125  22.122  26.970  1.00  0.00     0.287 C 
ATOM     79  H   UNL A   1      35.757  23.086  27.635  1.00  0.00     0.163 HD
ATOM     80  O   UNL A   1      33.688  22.002  28.113  1.00  0.00    -0.266 OA
BRANCH  78  81
ATOM     81  C   UNL A   1      33.468  21.579  25.801  1.00  0.00     0.196 A 
ATOM     82  O   UNL A   1      33.820  20.308  25.434  1.00  0.00    -0.459 OA
ATOM     83  C   UNL A   1      32.490  22.073  24.939  1.00  0.00     0.023 A 
ATOM     84  C   UNL A   1      33.037  19.953  24.392  1.00  0.00     0.196 A 
ATOM     85  C   UNL A   1      32.194  20.983  24.060  1.00  0.00     0.048 A 
BRANCH  83  86
ATOM     86  C   UNL A   1      31.837  23.425  25.000  1.00  0.00     0.162 C 
BRANCH  86  87
ATOM     87  N   UNL A   1      32.602  24.482  24.343  1.00  0.00    -0.343 N 
ATOM     88  C   UNL A   1      33.332  24.303  23.195  1.00  0.00     0.087 A 
ATOM     89  C   UNL A   1      32.778  25.771  24.812  1.00  0.00     0.055 A 
ATOM     90  C   UNL A   1      33.898  25.512  22.857  1.00  0.00     0.028 A 
ATOM     91  C   UNL A   1      33.519  26.458  23.846  1.00  0.00     0.000 A 
ATOM     92  C   UNL A   1      32.320  26.399  25.980  1.00  0.00     0.112 A 
ATOM     93  C   UNL A   1      33.749  27.839  24.012  1.00  0.00     0.017 A 
ATOM     94  C   UNL A   1      32.499  27.787  26.083  1.00  0.00     0.271 A 
ATOM     95  C   UNL A   1      33.207  28.505  25.118  1.00  0.00     0.086 A 
BRANCH  94  96
ATOM     96  N   UNL A   1      31.871  28.496  27.207  1.00  0.00     0.062 N 
ATOM     97  O   UNL A   1      31.408  27.812  28.134  1.00  0.00    -0.258 OA
ATOM     98  O   UNL A   1      31.815  29.732  27.157  1.00  0.00    -0.258 OA
ENDBRANCH  94  96
ENDBRANCH  86  87
ENDBRANCH  83  86
ENDBRANCH  78  81
ENDBRANCH  76  77
ENDBRANCH  75  76
ENDBRANCH   1  75
TORSDOF 17
ENDMDL
MODEL 2
REMARK VINA RESULT:     -12.2      3.114      9.186
REMARK SMILES O=C(NCCCCNC(=O)c1occc1Cn1ccc2ccc([N+](=O)[O-])cc21)c1ccc(-c2c3nc(c(-c4c(F)cc(S(=O)(=O)[O-])cc4F)c4ccc([nH]4)c(-c4c(F)cc(S(=O)(=O)[O-])cc4F)c4nc(c(-c5c(F)cc(S(=O)(=O)[O-])cc5F)c5ccc2[nH]5)C=C4)C=C3)cc1
REMARK SMILES IDX 5 1 4 2 3 3 1 4 2 5 29 7 30 8 94 9 31 10 93 11 32 12 33 13
REMARK SMILES IDX 34 14 87 15 35 16 92 17 86 18 88 19 36 20 91 21 85 22 84 23
REMARK SMILES IDX 37 25 71 26 50 27 70 28 51 29 54 30 69 31 89 32 52 33 53 34
REMARK SMILES IDX 68 36 90 37 55 38 38 39 39 40 48 41 40 42 41 43 47 44 49 45
REMARK SMILES IDX 42 46 43 47 44 48 45 49 46 50 72 51 73 52 82 53 74 54 75 55
REMARK SMILES IDX 81 56 83 57 76 58 77 59 78 60 79 61 80 62 56 63 57 64 66 65
REMARK SMILES IDX 58 66 59 67 65 68 67 69 60 70 61 71 62 72 63 73 64 74 6 75
REMARK SMILES IDX 7 76 8 77 9 78 10 80 11 81 12 82 15 83 13 84 14 85 16 86
REMARK SMILES IDX 17 87 18 88 28 89 19 90 20 91 27 92 21 93 23 94 22 95 24 96
REMARK SMILES IDX 25 97 26 98
REMARK H PARENT 3 6 88 24 54 35 8 79
REMARK Flexibility Score: inf
ROOT
ATOM      1  C   UNL A   1      33.461  29.255  25.865  1.00  0.00     0.023 C 
ENDROOT
BRANCH   1   2
ATOM      2  C   UNL A   1      34.277  29.551  27.114  1.00  0.00     0.116 C 
BRANCH   2   3
ATOM      3  N   UNL A   1      34.276  30.965  27.502  1.00  0.00    -0.352 N 
ATOM      4  O   UNL A   1      34.674  32.621  29.009  1.00  0.00    -0.269 OA
ATOM      5  C   UNL A   1      35.014  31.562  28.520  1.00  0.00     0.251 C 
ATOM      6  H   UNL A   1      33.685  31.559  26.984  1.00  0.00     0.163 HD
BRANCH   5   7
ATOM      7  C   UNL A   1      36.236  30.868  28.975  1.00  0.00     0.039 A 
ATOM      8  C   UNL A   1      36.223  29.587  29.530  1.00  0.00     0.014 A 
ATOM      9  C   UNL A   1      37.436  31.529  28.750  1.00  0.00     0.014 A 
ATOM     10  C   UNL A   1      37.445  28.959  29.776  1.00  0.00     0.010 A 
ATOM     11  C   UNL A   1      38.603  30.822  28.754  1.00  0.00     0.010 A 
ATOM     12  C   UNL A   1      38.637  29.580  29.363  1.00  0.00    -0.014 A 
BRANCH  12  13
ATOM     13  C   UNL A   1      39.938  28.936  29.502  1.00  0.00     0.031 A 
ATOM     14  C   UNL A   1      40.390  28.761  30.906  1.00  0.00     0.074 A 
ATOM     15  C   UNL A   1      40.603  28.382  28.462  1.00  0.00     0.049 A 
ATOM     16  N   UNL A   1      41.312  29.427  31.517  1.00  0.00    -0.248 NA
ATOM     17  C   UNL A   1      39.617  27.872  31.788  1.00  0.00     0.031 C 
ATOM     18  C   UNL A   1      40.163  28.208  27.068  1.00  0.00     0.029 A 
ATOM     19  N   UNL A   1      41.815  27.764  28.456  1.00  0.00    -0.354 N 
ATOM     20  C   UNL A   1      41.407  28.869  32.787  1.00  0.00     0.074 A 
ATOM     21  C   UNL A   1      40.215  28.083  32.963  1.00  0.00     0.031 C 
ATOM     22  C   UNL A   1      40.976  27.337  26.431  1.00  0.00     0.029 A 
ATOM     23  C   UNL A   1      42.102  27.052  27.295  1.00  0.00     0.049 A 
ATOM     24  H   UNL A   1      42.440  27.817  29.215  1.00  0.00     0.167 HD
ATOM     25  C   UNL A   1      42.581  28.903  33.478  1.00  0.00     0.037 A 
ATOM     26  C   UNL A   1      43.201  26.294  27.054  1.00  0.00     0.037 A 
ATOM     27  C   UNL A   1      43.492  29.855  32.888  1.00  0.00     0.049 A 
ATOM     28  C   UNL A   1      44.248  26.769  27.993  1.00  0.00     0.074 A 
ATOM     29  C   UNL A   1      43.459  31.217  32.656  1.00  0.00     0.029 A 
ATOM     30  N   UNL A   1      44.476  29.357  32.065  1.00  0.00    -0.354 N 
ATOM     31  N   UNL A   1      44.785  27.958  27.941  1.00  0.00    -0.248 NA
ATOM     32  C   UNL A   1      44.369  26.086  29.271  1.00  0.00     0.031 C 
ATOM     33  C   UNL A   1      44.084  31.392  31.386  1.00  0.00     0.029 A 
ATOM     34  C   UNL A   1      44.534  30.146  30.945  1.00  0.00     0.049 A 
ATOM     35  H   UNL A   1      45.040  28.572  32.250  1.00  0.00     0.167 HD
ATOM     36  C   UNL A   1      44.923  28.343  29.266  1.00  0.00     0.074 A 
ATOM     37  C   UNL A   1      44.742  27.114  30.036  1.00  0.00     0.031 C 
ATOM     38  C   UNL A   1      44.890  29.661  29.626  1.00  0.00     0.037 A 
BRANCH  25  39
ATOM     39  C   UNL A   1      43.053  27.829  34.435  1.00  0.00     0.058 A 
ATOM     40  C   UNL A   1      43.262  28.164  35.791  1.00  0.00     0.135 A 
ATOM     41  C   UNL A   1      43.569  26.577  34.037  1.00  0.00     0.135 A 
ATOM     42  F   UNL A   1      42.816  29.329  36.286  1.00  0.00    -0.206 F 
ATOM     43  C   UNL A   1      43.996  27.354  36.658  1.00  0.00     0.059 A 
ATOM     44  C   UNL A   1      44.257  25.730  34.899  1.00  0.00     0.059 A 
ATOM     45  F   UNL A   1      43.520  26.147  32.770  1.00  0.00    -0.206 F 
ATOM     46  C   UNL A   1      44.504  26.144  36.196  1.00  0.00     0.060 A 
BRANCH  46  47
ATOM     47  S   UNL A   1      45.537  25.146  37.280  1.00  0.00     0.124 S 
ATOM     48  O   UNL A   1      44.806  25.234  38.539  1.00  0.00    -0.237 OA
ATOM     49  O   UNL A   1      45.510  23.850  36.611  1.00  0.00    -0.237 OA
ATOM     50  O   UNL A   1      46.823  25.837  37.248  1.00  0.00    -0.744 OA
ENDBRANCH  46  47
ENDBRANCH  25  39
BRANCH  26  51
ATOM     51  C   UNL A   1      43.304  25.001  26.324  1.00  0.00     0.058 A 
ATOM     52  C   UNL A   1      44.266  24.823  25.312  1.00  0.00     0.135 A 
ATOM     53  C   UNL A   1      42.691  23.827  26.809  1.00  0.00     0.135 A 
ATOM     54  F   UNL A   1      44.902  25.885  24.792  1.00  0.00    -0.206 F 
ATOM     55  C   UNL A   1      44.658  23.557  24.866  1.00  0.00     0.059 A 
ATOM     56  C   UNL A   1      43.060  22.554  26.373  1.00  0.00     0.059 A 
ATOM     57  F   UNL A   1      41.780  23.879  27.792  1.00  0.00    -0.206 F 
ATOM     58  C   UNL A   1      44.070  22.424  25.427  1.00  0.00     0.060 A 
BRANCH  58  59
ATOM     59  S   UNL A   1      44.722  20.790  25.004  1.00  0.00     0.124 S 
ATOM     60  O   UNL A   1      46.090  20.872  25.504  1.00  0.00    -0.237 OA
ATOM     61  O   UNL A   1      43.826  19.904  25.739  1.00  0.00    -0.237 OA
ATOM     62  O   UNL A   1      44.590  20.740  23.550  1.00  0.00    -0.744 OA
ENDBRANCH  58  59
ENDBRANCH  26  51
BRANCH  38  63
ATOM     63  C   UNL A   1      45.031  30.704  28.542  1.00  0.00     0.058 A 
ATOM     64  C   UNL A   1      43.963  31.257  27.810  1.00  0.00     0.135 A 
ATOM     65  C   UNL A   1      46.295  31.283  28.355  1.00  0.00     0.135 A 
ATOM     66  F   UNL A   1      42.706  30.828  27.992  1.00  0.00    -0.206 F 
ATOM     67  C   UNL A   1      44.151  32.317  26.917  1.00  0.00     0.059 A 
ATOM     68  C   UNL A   1      46.501  32.359  27.495  1.00  0.00     0.059 A 
ATOM     69  F   UNL A   1      47.348  30.838  29.061  1.00  0.00    -0.206 F 
ATOM     70  C   UNL A   1      45.425  32.866  26.772  1.00  0.00     0.060 A 
BRANCH  70  71
ATOM     71  S   UNL A   1      45.652  34.290  25.684  1.00  0.00     0.124 S 
ATOM     72  O   UNL A   1      47.096  34.290  25.474  1.00  0.00    -0.237 OA
ATOM     73  O   UNL A   1      44.843  33.934  24.523  1.00  0.00    -0.237 OA
ATOM     74  O   UNL A   1      45.137  35.408  26.472  1.00  0.00    -0.744 OA
ENDBRANCH  70  71
ENDBRANCH  38  63
ENDBRANCH  12  13
ENDBRANCH   5   7
ENDBRANCH   2   3
ENDBRANCH   1   2
BRANCH   1  75
ATOM     75  C   UNL A   1      32.092  28.620  26.125  1.00  0.00     0.023 C 
BRANCH  75  76
ATOM     76  C   UNL A   1      32.058  27.101  26.306  1.00  0.00     0.116 C 
BRANCH  76  77
ATOM     77  N   UNL A   1      30.764  26.591  26.720  1.00  0.00    -0.349 N 
ATOM     78  C   UNL A   1      30.199  25.354  26.488  1.00  0.00     0.287 C 
ATOM     79  H   UNL A   1      30.210  27.217  27.240  1.00  0.00     0.163 HD
ATOM     80  O   UNL A   1      29.015  25.206  26.779  1.00  0.00    -0.266 OA
BRANCH  78  81
ATOM     81  C   UNL A   1      31.011  24.319  25.885  1.00  0.00     0.196 A 
ATOM     82  O   UNL A   1      31.708  23.509  26.740  1.00  0.00    -0.459 OA
ATOM     83  C   UNL A   1      31.232  23.925  24.566  1.00  0.00     0.023 A 
ATOM     84  C   UNL A   1      32.319  22.561  25.998  1.00  0.00     0.196 A 
ATOM     85  C   UNL A   1      32.048  22.754  24.667  1.00  0.00     0.048 A 
BRANCH  83  86
ATOM     86  C   UNL A   1      30.651  24.552  23.330  1.00  0.00     0.162 C 
BRANCH  86  87
ATOM     87  N   UNL A   1      31.246  25.841  22.985  1.00  0.00    -0.343 N 
ATOM     88  C   UNL A   1      32.574  26.020  22.687  1.00  0.00     0.087 A 
ATOM     89  C   UNL A   1      30.600  27.063  22.989  1.00  0.00     0.055 A 
ATOM     90  C   UNL A   1      32.769  27.350  22.392  1.00  0.00     0.028 A 
ATOM     91  C   UNL A   1      31.521  28.012  22.535  1.00  0.00     0.000 A 
ATOM     92  C   UNL A   1      29.281  27.409  23.318  1.00  0.00     0.112 A 
ATOM     93  C   UNL A   1      31.094  29.339  22.329  1.00  0.00     0.017 A 
ATOM     94  C   UNL A   1      28.863  28.718  23.033  1.00  0.00     0.271 A 
ATOM     95  C   UNL A   1      29.753  29.679  22.548  1.00  0.00     0.086 A 
BRANCH  94  96
ATOM     96  N   UNL A   1      27.442  29.054  23.197  1.00  0.00     0.062 N 
ATOM     97  O   UNL A   1      27.102  30.231  22.998  1.00  0.00    -0.258 OA
ATOM     98  O   UNL A   1      26.667  28.154  23.548  1.00  0.00    -0.258 OA
ENDBRANCH  94  96
ENDBRANCH  86  87
ENDBRANCH  83  86
ENDBRANCH  78  81
ENDBRANCH  76  77
ENDBRANCH  75  76
ENDBRANCH   1  75
TORSDOF 17
ENDMDL
MODEL 3
REMARK VINA RESULT:     -12.2      2.986      9.317
REMARK SMILES O=C(NCCCCNC(=O)c1occc1Cn1ccc2ccc([N+](=O)[O-])cc21)c1ccc(-c2c3nc(c(-c4c(F)cc(S(=O)(=O)[O-])cc4F)c4ccc([nH]4)c(-c4c(F)cc(S(=O)(=O)[O-])cc4F)c4nc(c(-c5c(F)cc(S(=O)(=O)[O-])cc5F)c5ccc2[nH]5)C=C4)C=C3)cc1
REMARK SMILES IDX 5 1 4 2 3 3 1 4 2 5 29 7 30 8 94 9 31 10 93 11 32 12 33 13
REMARK SMILES IDX 34 14 87 15 35 16 92 17 86 18 88 19 36 20 91 21 85 22 84 23
REMARK SMILES IDX 37 25 71 26 50 27 70 28 51 29 54 30 69 31 89 32 52 33 53 34
REMARK SMILES IDX 68 36 90 37 55 38 38 39 39 40 48 41 40 42 41 43 47 44 49 45
REMARK SMILES IDX 42 46 43 47 44 48 45 49 46 50 72 51 73 52 82 53 74 54 75 55
REMARK SMILES IDX 81 56 83 57 76 58 77 59 78 60 79 61 80 62 56 63 57 64 66 65
REMARK SMILES IDX 58 66 59 67 65 68 67 69 60 70 61 71 62 72 63 73 64 74 6 75
REMARK SMILES IDX 7 76 8 77 9 78 10 80 11 81 12 82 15 83 13 84 14 85 16 86
REMARK SMILES IDX 17 87 18 88 28 89 19 90 20 91 27 92 21 93 23 94 22 95 24 96
REMARK SMILES IDX 25 97 26 98
REMARK H PARENT 3 6 88 24 54 35 8 79
REMARK Flexibility Score: inf
ROOT
ATOM      1  C   UNL A   1      32.997  29.960  27.136  1.00  0.00     0.023 C 
ENDROOT
BRANCH   1   2
ATOM      2  C   UNL A   1      34.177  30.901  27.315  1.00  0.00     0.116 C 
BRANCH   2   3
ATOM      3  N   UNL A   1      34.062  31.782  28.481  1.00  0.00    -0.352 N 
ATOM      4  O   UNL A   1      34.509  32.287  30.654  1.00  0.00    -0.269 OA
ATOM      5  C   UNL A   1      34.890  31.815  29.599  1.00  0.00     0.251 C 
ATOM      6  H   UNL A   1      33.313  32.422  28.472  1.00  0.00     0.163 HD
BRANCH   5   7
ATOM      7  C   UNL A   1      36.255  31.270  29.456  1.00  0.00     0.039 A 
ATOM      8  C   UNL A   1      37.395  32.074  29.396  1.00  0.00     0.014 A 
ATOM      9  C   UNL A   1      36.365  29.886  29.460  1.00  0.00     0.014 A 
ATOM     10  C   UNL A   1      38.645  31.454  29.424  1.00  0.00     0.010 A 
ATOM     11  C   UNL A   1      37.569  29.309  29.741  1.00  0.00     0.010 A 
ATOM     12  C   UNL A   1      38.723  30.064  29.618  1.00  0.00    -0.014 A 
BRANCH  12  13
ATOM     13  C   UNL A   1      39.998  29.368  29.754  1.00  0.00     0.031 A 
ATOM     14  C   UNL A   1      40.460  29.198  31.154  1.00  0.00     0.074 A 
ATOM     15  C   UNL A   1      40.626  28.768  28.716  1.00  0.00     0.049 A 
ATOM     16  N   UNL A   1      41.416  29.836  31.743  1.00  0.00    -0.248 NA
ATOM     17  C   UNL A   1      39.662  28.358  32.061  1.00  0.00     0.031 C 
ATOM     18  C   UNL A   1      40.161  28.589  27.330  1.00  0.00     0.029 A 
ATOM     19  N   UNL A   1      41.810  28.100  28.706  1.00  0.00    -0.354 N 
ATOM     20  C   UNL A   1      41.504  29.296  33.021  1.00  0.00     0.074 A 
ATOM     21  C   UNL A   1      40.283  28.564  33.226  1.00  0.00     0.031 C 
ATOM     22  C   UNL A   1      40.929  27.674  26.699  1.00  0.00     0.029 A 
ATOM     23  C   UNL A   1      42.053  27.356  27.554  1.00  0.00     0.049 A 
ATOM     24  H   UNL A   1      42.447  28.140  29.456  1.00  0.00     0.167 HD
ATOM     25  C   UNL A   1      42.687  29.293  33.697  1.00  0.00     0.037 A 
ATOM     26  C   UNL A   1      43.117  26.549  27.314  1.00  0.00     0.037 A 
ATOM     27  C   UNL A   1      43.630  30.196  33.079  1.00  0.00     0.049 A 
ATOM     28  C   UNL A   1      44.194  26.996  28.232  1.00  0.00     0.074 A 
ATOM     29  C   UNL A   1      43.651  31.553  32.824  1.00  0.00     0.029 A 
ATOM     30  N   UNL A   1      44.582  29.643  32.254  1.00  0.00    -0.354 N 
ATOM     31  N   UNL A   1      44.780  28.160  28.152  1.00  0.00    -0.248 NA
ATOM     32  C   UNL A   1      44.303  26.330  29.520  1.00  0.00     0.031 C 
ATOM     33  C   UNL A   1      44.267  31.680  31.543  1.00  0.00     0.029 A 
ATOM     34  C   UNL A   1      44.658  30.409  31.119  1.00  0.00     0.049 A 
ATOM     35  H   UNL A   1      45.115  28.838  32.446  1.00  0.00     0.167 HD
ATOM     36  C   UNL A   1      44.951  28.562  29.468  1.00  0.00     0.074 A 
ATOM     37  C   UNL A   1      44.728  27.355  30.262  1.00  0.00     0.031 C 
ATOM     38  C   UNL A   1      44.977  29.887  29.805  1.00  0.00     0.037 A 
BRANCH  25  39
ATOM     39  C   UNL A   1      43.126  28.218  34.668  1.00  0.00     0.058 A 
ATOM     40  C   UNL A   1      43.483  28.586  35.984  1.00  0.00     0.135 A 
ATOM     41  C   UNL A   1      43.475  26.901  34.294  1.00  0.00     0.135 A 
ATOM     42  F   UNL A   1      43.204  29.812  36.451  1.00  0.00    -0.206 F 
ATOM     43  C   UNL A   1      44.202  27.741  36.829  1.00  0.00     0.059 A 
ATOM     44  C   UNL A   1      44.144  26.023  35.142  1.00  0.00     0.059 A 
ATOM     45  F   UNL A   1      43.274  26.425  33.060  1.00  0.00    -0.206 F 
ATOM     46  C   UNL A   1      44.541  26.464  36.391  1.00  0.00     0.060 A 
BRANCH  46  47
ATOM     47  S   UNL A   1      45.554  25.410  37.439  1.00  0.00     0.124 S 
ATOM     48  O   UNL A   1      46.565  26.351  37.908  1.00  0.00    -0.237 OA
ATOM     49  O   UNL A   1      44.589  24.958  38.434  1.00  0.00    -0.237 OA
ATOM     50  O   UNL A   1      46.030  24.379  36.519  1.00  0.00    -0.744 OA
ENDBRANCH  46  47
ENDBRANCH  25  39
BRANCH  26  51
ATOM     51  C   UNL A   1      43.156  25.240  26.606  1.00  0.00     0.058 A 
ATOM     52  C   UNL A   1      43.856  25.101  25.394  1.00  0.00     0.135 A 
ATOM     53  C   UNL A   1      42.786  24.040  27.249  1.00  0.00     0.135 A 
ATOM     54  F   UNL A   1      44.249  26.190  24.714  1.00  0.00    -0.206 F 
ATOM     55  C   UNL A   1      44.241  23.855  24.889  1.00  0.00     0.059 A 
ATOM     56  C   UNL A   1      43.152  22.785  26.761  1.00  0.00     0.059 A 
ATOM     57  F   UNL A   1      42.139  24.057  28.423  1.00  0.00    -0.206 F 
ATOM     58  C   UNL A   1      43.911  22.701  25.599  1.00  0.00     0.060 A 
BRANCH  58  59
ATOM     59  S   UNL A   1      44.586  21.111  25.061  1.00  0.00     0.124 S 
ATOM     60  O   UNL A   1      45.910  21.122  25.672  1.00  0.00    -0.237 OA
ATOM     61  O   UNL A   1      43.630  20.166  25.627  1.00  0.00    -0.237 OA
ATOM     62  O   UNL A   1      44.569  21.212  23.604  1.00  0.00    -0.744 OA
ENDBRANCH  58  59
ENDBRANCH  26  51
BRANCH  38  63
ATOM     63  C   UNL A   1      45.147  30.903  28.700  1.00  0.00     0.058 A 
ATOM     64  C   UNL A   1      44.102  31.426  27.916  1.00  0.00     0.135 A 
ATOM     65  C   UNL A   1      46.412  31.491  28.546  1.00  0.00     0.135 A 
ATOM     66  F   UNL A   1      42.844  30.988  28.062  1.00  0.00    -0.206 F 
ATOM     67  C   UNL A   1      44.312  32.465  27.004  1.00  0.00     0.059 A 
ATOM     68  C   UNL A   1      46.638  32.547  27.667  1.00  0.00     0.059 A 
ATOM     69  F   UNL A   1      47.442  31.076  29.301  1.00  0.00    -0.206 F 
ATOM     70  C   UNL A   1      45.584  33.025  26.892  1.00  0.00     0.060 A 
BRANCH  70  71
ATOM     71  S   UNL A   1      45.838  34.424  25.777  1.00  0.00     0.124 S 
ATOM     72  O   UNL A   1      47.260  34.320  25.470  1.00  0.00    -0.237 OA
ATOM     73  O   UNL A   1      44.928  34.120  24.677  1.00  0.00    -0.237 OA
ATOM     74  O   UNL A   1      45.458  35.580  26.587  1.00  0.00    -0.744 OA
ENDBRANCH  70  71
ENDBRANCH  38  63
ENDBRANCH  12  13
ENDBRANCH   5   7
ENDBRANCH   2   3
ENDBRANCH   1   2
BRANCH   1  75
ATOM     75  C   UNL A   1      33.330  28.472  27.288  1.00  0.00     0.023 C 
BRANCH  75  76
ATOM     76  C   UNL A   1      33.224  27.608  26.030  1.00  0.00     0.116 C 
BRANCH  76  77
ATOM     77  N   UNL A   1      33.870  28.188  24.867  1.00  0.00    -0.349 N 
ATOM     78  C   UNL A   1      33.336  28.481  23.629  1.00  0.00     0.287 C 
ATOM     79  H   UNL A   1      34.824  28.402  24.976  1.00  0.00     0.163 HD
ATOM     80  O   UNL A   1      34.116  28.801  22.735  1.00  0.00    -0.266 OA
BRANCH  78  81
ATOM     81  C   UNL A   1      31.906  28.362  23.439  1.00  0.00     0.196 A 
ATOM     82  O   UNL A   1      31.140  29.411  23.870  1.00  0.00    -0.459 OA
ATOM     83  C   UNL A   1      31.097  27.383  22.865  1.00  0.00     0.023 A 
ATOM     84  C   UNL A   1      29.861  29.153  23.522  1.00  0.00     0.196 A 
ATOM     85  C   UNL A   1      29.779  27.939  22.888  1.00  0.00     0.048 A 
BRANCH  83  86
ATOM     86  C   UNL A   1      31.548  26.078  22.270  1.00  0.00     0.162 C 
BRANCH  86  87
ATOM     87  N   UNL A   1      32.484  25.336  23.111  1.00  0.00    -0.343 N 
ATOM     88  C   UNL A   1      33.805  25.135  22.800  1.00  0.00     0.087 A 
ATOM     89  C   UNL A   1      32.172  24.665  24.279  1.00  0.00     0.055 A 
ATOM     90  C   UNL A   1      34.380  24.419  23.825  1.00  0.00     0.028 A 
ATOM     91  C   UNL A   1      33.370  24.154  24.787  1.00  0.00     0.000 A 
ATOM     92  C   UNL A   1      30.950  24.493  24.947  1.00  0.00     0.112 A 
ATOM     93  C   UNL A   1      33.365  23.514  26.043  1.00  0.00     0.017 A 
ATOM     94  C   UNL A   1      30.986  23.920  26.227  1.00  0.00     0.271 A 
ATOM     95  C   UNL A   1      32.173  23.430  26.775  1.00  0.00     0.086 A 
BRANCH  94  96
ATOM     96  N   UNL A   1      29.750  23.895  27.022  1.00  0.00     0.062 N 
ATOM     97  O   UNL A   1      28.983  24.867  26.926  1.00  0.00    -0.258 OA
ATOM     98  O   UNL A   1      29.553  22.921  27.761  1.00  0.00    -0.258 OA
ENDBRANCH  94  96
ENDBRANCH  86  87
ENDBRANCH  83  86
ENDBRANCH  78  81
ENDBRANCH  76  77
ENDBRANCH  75  76
ENDBRANCH   1  75
TORSDOF 17
ENDMDL
