MODEL 1
REMARK VINA RESULT:     -11.0      0.000      0.000
REMARK SMILES CC(C)[C@@H](CCNC(=O)N1C[C@@H](C)[C@H](C)C1)CCC(=O)NCCCCNC(=O)c1ccc(-c2c3nc(c(-c4c(F)cc(S(=O)(=O)[O-])cc4F)c4ccc([nH]4)c(-c4c(F)cc(S(=O)(=O)[O-])cc4F)c4nc(c(-c5c(F)cc(S(=O)(=O)[O-])cc5F)c5ccc2[nH]5)C=C4)C=C3)cc1
REMARK SMILES IDX 22 1 21 2 19 3 20 4 18 6 17 7 4 8 2 9 1 10 3 11 5 12 6 13
REMARK SMILES IDX 7 14 8 15 9 17 10 18 11 19 16 20 12 21 14 22 13 23 15 24
REMARK SMILES IDX 23 25 24 26 25 27 26 28 27 29 28 31 29 32 30 33 94 34 31 35
REMARK SMILES IDX 93 36 32 37 33 38 34 39 87 40 35 41 92 42 86 43 88 44 36 45
REMARK SMILES IDX 91 46 85 47 84 48 37 50 71 51 50 52 70 53 51 54 54 55 69 56
REMARK SMILES IDX 89 57 52 58 53 59 68 61 90 62 55 63 38 64 39 65 48 66 40 67
REMARK SMILES IDX 41 68 47 69 49 70 42 71 43 72 44 73 45 74 46 75 72 76 73 77
REMARK SMILES IDX 82 78 74 79 75 80 81 81 83 82 76 83 77 84 78 85 79 86 80 87
REMARK SMILES IDX 56 88 57 89 66 90 58 91 59 92 65 93 67 94 60 95 61 96 62 97
REMARK SMILES IDX 63 98 64 99
REMARK H PARENT 21 5 7 16 26 30 88 49 54 60
REMARK Flexibility Score: inf
ROOT
ATOM      1  C   UNL A   1      35.657  21.303  25.795  1.00  0.00     0.116 C 
ENDROOT
BRANCH   1   2
ATOM      2  N   UNL A   1      35.597  20.042  25.077  1.00  0.00    -0.356 N 
ATOM      3  C   UNL A   1      34.551  19.212  24.812  1.00  0.00     0.220 C 
ATOM      4  O   UNL A   1      34.794  18.119  24.297  1.00  0.00    -0.275 OA
ATOM      5  H   UNL A   1      36.462  19.735  24.720  1.00  0.00     0.163 HD
BRANCH   3   6
ATOM      6  C   UNL A   1      33.116  19.633  25.089  1.00  0.00     0.100 C 
BRANCH   6   7
ATOM      7  C   UNL A   1      32.447  20.478  23.986  1.00  0.00     0.014 C 
BRANCH   7   8
ATOM      8  C   UNL A   1      32.673  22.001  24.116  1.00  0.00    -0.006 C 
BRANCH   8   9
ATOM      9  C   UNL A   1      33.124  22.763  22.832  1.00  0.00    -0.014 C 
ATOM     10  C   UNL A   1      32.295  24.049  22.653  1.00  0.00     0.007 C 
ATOM     11  C   UNL A   1      34.602  23.155  22.792  1.00  0.00     0.007 C 
ENDBRANCH   8   9
BRANCH   8  12
ATOM     12  C   UNL A   1      31.510  22.700  24.870  1.00  0.00     0.025 C 
BRANCH  12  13
ATOM     13  C   UNL A   1      31.756  23.127  26.317  1.00  0.00     0.118 C 
BRANCH  13  14
ATOM     14  N   UNL A   1      33.091  23.648  26.515  1.00  0.00    -0.338 N 
ATOM     15  C   UNL A   1      33.653  24.767  25.997  1.00  0.00     0.317 C 
ATOM     16  H   UNL A   1      33.670  23.117  27.107  1.00  0.00     0.165 HD
ATOM     17  O   UNL A   1      34.872  24.765  25.826  1.00  0.00    -0.249 OA
ATOM     18  N   UNL A   1      32.867  25.842  25.698  1.00  0.00    -0.324 N 
ATOM     19  C   UNL A   1      33.376  26.944  24.909  1.00  0.00     0.125 C 
ATOM     20  C   UNL A   1      31.644  26.239  26.376  1.00  0.00     0.125 C 
ATOM     21  C   UNL A   1      32.960  28.180  25.695  1.00  0.00     0.010 C 
ATOM     22  C   UNL A   1      31.626  27.773  26.355  1.00  0.00     0.010 C 
ATOM     23  C   UNL A   1      32.828  29.412  24.811  1.00  0.00     0.010 C 
ATOM     24  C   UNL A   1      31.475  28.358  27.754  1.00  0.00     0.010 C 
ENDBRANCH  13  14
ENDBRANCH  12  13
ENDBRANCH   8  12
ENDBRANCH   7   8
ENDBRANCH   6   7
ENDBRANCH   3   6
ENDBRANCH   1   2
BRANCH   1  25
ATOM     25  C   UNL A   1      37.041  21.949  25.624  1.00  0.00     0.023 C 
BRANCH  25  26
ATOM     26  C   UNL A   1      38.140  20.994  25.175  1.00  0.00     0.023 C 
BRANCH  26  27
ATOM     27  C   UNL A   1      39.367  21.009  26.074  1.00  0.00     0.116 C 
BRANCH  27  28
ATOM     28  N   UNL A   1      40.141  19.773  26.051  1.00  0.00    -0.352 N 
ATOM     29  C   UNL A   1      41.504  19.623  26.230  1.00  0.00     0.251 C 
ATOM     30  H   UNL A   1      39.632  18.946  25.887  1.00  0.00     0.163 HD
ATOM     31  O   UNL A   1      42.032  18.533  26.126  1.00  0.00    -0.269 OA
BRANCH  29  32
ATOM     32  C   UNL A   1      42.306  20.841  26.489  1.00  0.00     0.039 A 
ATOM     33  C   UNL A   1      42.724  21.612  25.405  1.00  0.00     0.014 A 
ATOM     34  C   UNL A   1      42.527  21.273  27.799  1.00  0.00     0.014 A 
ATOM     35  C   UNL A   1      43.284  22.869  25.638  1.00  0.00     0.010 A 
ATOM     36  C   UNL A   1      42.993  22.561  28.024  1.00  0.00     0.010 A 
ATOM     37  C   UNL A   1      43.374  23.375  26.947  1.00  0.00    -0.014 A 
BRANCH  37  38
ATOM     38  C   UNL A   1      43.853  24.758  27.202  1.00  0.00     0.031 A 
ATOM     39  C   UNL A   1      45.299  25.108  26.982  1.00  0.00     0.074 A 
ATOM     40  C   UNL A   1      42.999  25.677  27.694  1.00  0.00     0.049 A 
ATOM     41  N   UNL A   1      45.907  26.250  27.167  1.00  0.00    -0.248 NA
ATOM     42  C   UNL A   1      46.186  24.023  26.532  1.00  0.00     0.031 C 
ATOM     43  C   UNL A   1      41.594  25.436  28.037  1.00  0.00     0.029 A 
ATOM     44  N   UNL A   1      43.186  27.002  27.994  1.00  0.00    -0.354 N 
ATOM     45  C   UNL A   1      47.245  26.018  26.873  1.00  0.00     0.074 A 
ATOM     46  C   UNL A   1      47.372  24.611  26.563  1.00  0.00     0.031 C 
ATOM     47  C   UNL A   1      41.039  26.584  28.458  1.00  0.00     0.029 A 
ATOM     48  C   UNL A   1      42.049  27.636  28.435  1.00  0.00     0.049 A 
ATOM     49  H   UNL A   1      44.055  27.458  27.900  1.00  0.00     0.167 HD
ATOM     50  C   UNL A   1      48.272  26.901  26.831  1.00  0.00     0.037 A 
ATOM     51  C   UNL A   1      41.841  28.925  28.766  1.00  0.00     0.037 A 
ATOM     52  C   UNL A   1      48.132  28.308  27.099  1.00  0.00     0.049 A 
ATOM     53  C   UNL A   1      42.977  29.902  28.641  1.00  0.00     0.074 A 
ATOM     54  C   UNL A   1      49.093  29.300  27.023  1.00  0.00     0.029 A 
ATOM     55  N   UNL A   1      46.950  28.923  27.484  1.00  0.00    -0.354 N 
ATOM     56  N   UNL A   1      44.221  29.679  28.291  1.00  0.00    -0.248 NA
ATOM     57  C   UNL A   1      42.676  31.309  28.938  1.00  0.00     0.031 C 
ATOM     58  C   UNL A   1      48.495  30.515  27.384  1.00  0.00     0.029 A 
ATOM     59  C   UNL A   1      47.156  30.282  27.651  1.00  0.00     0.049 A 
ATOM     60  H   UNL A   1      46.091  28.462  27.620  1.00  0.00     0.167 HD
ATOM     61  C   UNL A   1      44.846  30.921  28.300  1.00  0.00     0.074 A 
ATOM     62  C   UNL A   1      43.838  31.892  28.676  1.00  0.00     0.031 C 
ATOM     63  C   UNL A   1      46.136  31.232  28.020  1.00  0.00     0.037 A 
BRANCH  50  64
ATOM     64  C   UNL A   1      49.625  26.364  26.458  1.00  0.00     0.058 A 
ATOM     65  C   UNL A   1      50.471  25.782  27.417  1.00  0.00     0.135 A 
ATOM     66  C   UNL A   1      50.085  26.431  25.134  1.00  0.00     0.135 A 
ATOM     67  F   UNL A   1      50.089  25.711  28.702  1.00  0.00    -0.206 F 
ATOM     68  C   UNL A   1      51.740  25.322  27.084  1.00  0.00     0.059 A 
ATOM     69  C   UNL A   1      51.341  25.951  24.773  1.00  0.00     0.059 A 
ATOM     70  F   UNL A   1      49.317  26.978  24.178  1.00  0.00    -0.206 F 
ATOM     71  C   UNL A   1      52.169  25.416  25.760  1.00  0.00     0.060 A 
BRANCH  71  72
ATOM     72  S   UNL A   1      53.824  24.828  25.344  1.00  0.00     0.124 S 
ATOM     73  O   UNL A   1      53.568  23.418  25.067  1.00  0.00    -0.237 OA
ATOM     74  O   UNL A   1      54.168  25.648  24.187  1.00  0.00    -0.237 OA
ATOM     75  O   UNL A   1      54.593  25.103  26.553  1.00  0.00    -0.744 OA
ENDBRANCH  71  72
ENDBRANCH  50  64
BRANCH  51  76
ATOM     76  C   UNL A   1      40.487  29.378  29.181  1.00  0.00     0.058 A 
ATOM     77  C   UNL A   1      40.191  29.608  30.533  1.00  0.00     0.135 A 
ATOM     78  C   UNL A   1      39.470  29.603  28.242  1.00  0.00     0.135 A 
ATOM     79  F   UNL A   1      41.131  29.404  31.469  1.00  0.00    -0.206 F 
ATOM     80  C   UNL A   1      38.931  30.029  30.943  1.00  0.00     0.059 A 
ATOM     81  C   UNL A   1      38.207  30.045  28.624  1.00  0.00     0.059 A 
ATOM     82  F   UNL A   1      39.709  29.416  26.934  1.00  0.00    -0.206 F 
ATOM     83  C   UNL A   1      37.944  30.246  29.979  1.00  0.00     0.060 A 
BRANCH  83  84
ATOM     84  S   UNL A   1      36.326  30.846  30.515  1.00  0.00     0.124 S 
ATOM     85  O   UNL A   1      35.551  30.735  29.285  1.00  0.00    -0.237 OA
ATOM     86  O   UNL A   1      35.982  29.902  31.574  1.00  0.00    -0.237 OA
ATOM     87  O   UNL A   1      36.608  32.205  30.967  1.00  0.00    -0.744 OA
ENDBRANCH  83  84
ENDBRANCH  51  76
BRANCH  63  88
ATOM     88  C   UNL A   1      46.517  32.683  28.079  1.00  0.00     0.058 A 
ATOM     89  C   UNL A   1      46.302  33.544  26.993  1.00  0.00     0.135 A 
ATOM     90  C   UNL A   1      47.089  33.220  29.243  1.00  0.00     0.135 A 
ATOM     91  F   UNL A   1      45.761  33.077  25.856  1.00  0.00    -0.206 F 
ATOM     92  C   UNL A   1      46.675  34.884  27.045  1.00  0.00     0.059 A 
ATOM     93  C   UNL A   1      47.447  34.561  29.326  1.00  0.00     0.059 A 
ATOM     94  F   UNL A   1      47.303  32.439  30.314  1.00  0.00    -0.206 F 
ATOM     95  C   UNL A   1      47.254  35.380  28.214  1.00  0.00     0.060 A 
BRANCH  95  96
ATOM     96  S   UNL A   1      47.735  37.120  28.276  1.00  0.00     0.124 S 
ATOM     97  O   UNL A   1      47.429  37.458  29.661  1.00  0.00    -0.237 OA
ATOM     98  O   UNL A   1      49.154  37.068  27.935  1.00  0.00    -0.237 OA
ATOM     99  O   UNL A   1      46.879  37.742  27.271  1.00  0.00    -0.744 OA
ENDBRANCH  95  96
ENDBRANCH  63  88
ENDBRANCH  37  38
ENDBRANCH  29  32
ENDBRANCH  27  28
ENDBRANCH  26  27
ENDBRANCH  25  26
ENDBRANCH   1  25
TORSDOF 20
ENDMDL
MODEL 2
REMARK VINA RESULT:     -10.9      2.402      9.083
REMARK SMILES CC(C)[C@@H](CCNC(=O)N1C[C@@H](C)[C@H](C)C1)CCC(=O)NCCCCNC(=O)c1ccc(-c2c3nc(c(-c4c(F)cc(S(=O)(=O)[O-])cc4F)c4ccc([nH]4)c(-c4c(F)cc(S(=O)(=O)[O-])cc4F)c4nc(c(-c5c(F)cc(S(=O)(=O)[O-])cc5F)c5ccc2[nH]5)C=C4)C=C3)cc1
REMARK SMILES IDX 22 1 21 2 19 3 20 4 18 6 17 7 4 8 2 9 1 10 3 11 5 12 6 13
REMARK SMILES IDX 7 14 8 15 9 17 10 18 11 19 16 20 12 21 14 22 13 23 15 24
REMARK SMILES IDX 23 25 24 26 25 27 26 28 27 29 28 31 29 32 30 33 94 34 31 35
REMARK SMILES IDX 93 36 32 37 33 38 34 39 87 40 35 41 92 42 86 43 88 44 36 45
REMARK SMILES IDX 91 46 85 47 84 48 37 50 71 51 50 52 70 53 51 54 54 55 69 56
REMARK SMILES IDX 89 57 52 58 53 59 68 61 90 62 55 63 38 64 39 65 48 66 40 67
REMARK SMILES IDX 41 68 47 69 49 70 42 71 43 72 44 73 45 74 46 75 72 76 73 77
REMARK SMILES IDX 82 78 74 79 75 80 81 81 83 82 76 83 77 84 78 85 79 86 80 87
REMARK SMILES IDX 56 88 57 89 66 90 58 91 59 92 65 93 67 94 60 95 61 96 62 97
REMARK SMILES IDX 63 98 64 99
REMARK H PARENT 21 5 7 16 26 30 88 49 54 60
REMARK Flexibility Score: inf
ROOT
ATOM      1  C   UNL A   1      34.342  30.168  27.185  1.00  0.00     0.116 C 
ENDROOT
BRANCH   1   2
ATOM      2  N   UNL A   1      33.358  29.193  27.621  1.00  0.00    -0.356 N 
ATOM      3  C   UNL A   1      32.078  28.970  27.213  1.00  0.00     0.220 C 
ATOM      4  O   UNL A   1      31.399  28.161  27.849  1.00  0.00    -0.275 OA
ATOM      5  H   UNL A   1      33.670  28.590  28.334  1.00  0.00     0.163 HD
BRANCH   3   6
ATOM      6  C   UNL A   1      31.509  29.653  25.979  1.00  0.00     0.100 C 
BRANCH   6   7
ATOM      7  C   UNL A   1      31.733  28.910  24.646  1.00  0.00     0.014 C 
BRANCH   7   8
ATOM      8  C   UNL A   1      30.557  28.012  24.204  1.00  0.00    -0.006 C 
BRANCH   8   9
ATOM      9  C   UNL A   1      29.853  28.376  22.860  1.00  0.00    -0.014 C 
ATOM     10  C   UNL A   1      28.432  28.906  23.126  1.00  0.00     0.007 C 
ATOM     11  C   UNL A   1      30.582  29.413  22.003  1.00  0.00     0.007 C 
ENDBRANCH   8   9
BRANCH   8  12
ATOM     12  C   UNL A   1      30.895  26.503  24.332  1.00  0.00     0.025 C 
BRANCH  12  13
ATOM     13  C   UNL A   1      32.212  26.125  25.009  1.00  0.00     0.118 C 
BRANCH  13  14
ATOM     14  N   UNL A   1      32.008  25.354  26.216  1.00  0.00    -0.338 N 
ATOM     15  C   UNL A   1      31.700  24.041  26.343  1.00  0.00     0.317 C 
ATOM     16  H   UNL A   1      32.106  25.851  27.059  1.00  0.00     0.165 HD
ATOM     17  O   UNL A   1      31.057  23.701  27.337  1.00  0.00    -0.249 OA
ATOM     18  N   UNL A   1      32.113  23.154  25.392  1.00  0.00    -0.324 N 
ATOM     19  C   UNL A   1      31.589  21.805  25.349  1.00  0.00     0.125 C 
ATOM     20  C   UNL A   1      33.318  23.246  24.583  1.00  0.00     0.125 C 
ATOM     21  C   UNL A   1      32.830  20.934  25.205  1.00  0.00     0.010 C 
ATOM     22  C   UNL A   1      33.804  21.804  24.383  1.00  0.00     0.010 C 
ATOM     23  C   UNL A   1      32.528  19.599  24.541  1.00  0.00     0.010 C 
ATOM     24  C   UNL A   1      35.250  21.625  24.829  1.00  0.00     0.010 C 
ENDBRANCH  13  14
ENDBRANCH  12  13
ENDBRANCH   8  12
ENDBRANCH   7   8
ENDBRANCH   6   7
ENDBRANCH   3   6
ENDBRANCH   1   2
BRANCH   1  25
ATOM     25  C   UNL A   1      34.475  31.292  28.226  1.00  0.00     0.023 C 
BRANCH  25  26
ATOM     26  C   UNL A   1      35.655  32.230  28.004  1.00  0.00     0.023 C 
BRANCH  26  27
ATOM     27  C   UNL A   1      36.687  32.188  29.122  1.00  0.00     0.116 C 
BRANCH  27  28
ATOM     28  N   UNL A   1      36.198  31.602  30.365  1.00  0.00    -0.352 N 
ATOM     29  C   UNL A   1      36.705  30.510  31.044  1.00  0.00     0.251 C 
ATOM     30  H   UNL A   1      35.413  32.037  30.769  1.00  0.00     0.163 HD
ATOM     31  O   UNL A   1      36.161  30.088  32.045  1.00  0.00    -0.269 OA
BRANCH  29  32
ATOM     32  C   UNL A   1      37.892  29.831  30.475  1.00  0.00     0.039 A 
ATOM     33  C   UNL A   1      38.052  29.806  29.090  1.00  0.00     0.014 A 
ATOM     34  C   UNL A   1      38.894  29.342  31.317  1.00  0.00     0.014 A 
ATOM     35  C   UNL A   1      39.264  29.372  28.550  1.00  0.00     0.010 A 
ATOM     36  C   UNL A   1      40.130  29.003  30.783  1.00  0.00     0.010 A 
ATOM     37  C   UNL A   1      40.330  29.018  29.396  1.00  0.00    -0.014 A 
BRANCH  37  38
ATOM     38  C   UNL A   1      41.664  28.671  28.841  1.00  0.00     0.031 A 
ATOM     39  C   UNL A   1      42.729  29.727  28.722  1.00  0.00     0.074 A 
ATOM     40  C   UNL A   1      41.891  27.424  28.384  1.00  0.00     0.049 A 
ATOM     41  N   UNL A   1      43.944  29.622  28.249  1.00  0.00    -0.248 NA
ATOM     42  C   UNL A   1      42.372  31.087  29.158  1.00  0.00     0.031 C 
ATOM     43  C   UNL A   1      40.909  26.336  28.359  1.00  0.00     0.029 A 
ATOM     44  N   UNL A   1      43.021  26.857  27.852  1.00  0.00    -0.354 N 
ATOM     45  C   UNL A   1      44.486  30.900  28.313  1.00  0.00     0.074 A 
ATOM     46  C   UNL A   1      43.447  31.775  28.809  1.00  0.00     0.031 C 
ATOM     47  C   UNL A   1      41.492  25.226  27.879  1.00  0.00     0.029 A 
ATOM     48  C   UNL A   1      42.880  25.525  27.544  1.00  0.00     0.049 A 
ATOM     49  H   UNL A   1      43.857  27.358  27.705  1.00  0.00     0.167 HD
ATOM     50  C   UNL A   1      45.745  31.305  28.020  1.00  0.00     0.037 A 
ATOM     51  C   UNL A   1      43.775  24.641  27.062  1.00  0.00     0.037 A 
ATOM     52  C   UNL A   1      46.787  30.421  27.568  1.00  0.00     0.049 A 
ATOM     53  C   UNL A   1      45.187  25.096  26.813  1.00  0.00     0.074 A 
ATOM     54  C   UNL A   1      48.112  30.716  27.302  1.00  0.00     0.029 A 
ATOM     55  N   UNL A   1      46.621  29.066  27.326  1.00  0.00    -0.354 N 
ATOM     56  N   UNL A   1      45.703  26.293  26.949  1.00  0.00    -0.248 NA
ATOM     57  C   UNL A   1      46.142  24.074  26.364  1.00  0.00     0.031 C 
ATOM     58  C   UNL A   1      48.744  29.540  26.878  1.00  0.00     0.029 A 
ATOM     59  C   UNL A   1      47.819  28.508  26.913  1.00  0.00     0.049 A 
ATOM     60  H   UNL A   1      45.776  28.572  27.431  1.00  0.00     0.167 HD
ATOM     61  C   UNL A   1      47.049  26.166  26.627  1.00  0.00     0.074 A 
ATOM     62  C   UNL A   1      47.269  24.770  26.305  1.00  0.00     0.031 C 
ATOM     63  C   UNL A   1      48.018  27.115  26.602  1.00  0.00     0.037 A 
BRANCH  50  64
ATOM     64  C   UNL A   1      46.059  32.763  28.205  1.00  0.00     0.058 A 
ATOM     65  C   UNL A   1      45.903  33.684  27.156  1.00  0.00     0.135 A 
ATOM     66  C   UNL A   1      46.520  33.247  29.439  1.00  0.00     0.135 A 
ATOM     67  F   UNL A   1      45.484  33.271  25.950  1.00  0.00    -0.206 F 
ATOM     68  C   UNL A   1      46.232  35.026  27.311  1.00  0.00     0.059 A 
ATOM     69  C   UNL A   1      46.829  34.592  29.625  1.00  0.00     0.059 A 
ATOM     70  F   UNL A   1      46.688  32.410  30.474  1.00  0.00    -0.206 F 
ATOM     71  C   UNL A   1      46.700  35.470  28.549  1.00  0.00     0.060 A 
BRANCH  71  72
ATOM     72  S   UNL A   1      47.136  37.212  28.733  1.00  0.00     0.124 S 
ATOM     73  O   UNL A   1      46.723  37.751  27.441  1.00  0.00    -0.237 OA
ATOM     74  O   UNL A   1      46.327  37.620  29.877  1.00  0.00    -0.237 OA
ATOM     75  O   UNL A   1      48.576  37.176  28.969  1.00  0.00    -0.744 OA
ENDBRANCH  71  72
ENDBRANCH  50  64
BRANCH  51  76
ATOM     76  C   UNL A   1      43.381  23.224  26.849  1.00  0.00     0.058 A 
ATOM     77  C   UNL A   1      43.224  22.711  25.552  1.00  0.00     0.135 A 
ATOM     78  C   UNL A   1      43.168  22.353  27.927  1.00  0.00     0.135 A 
ATOM     79  F   UNL A   1      43.414  23.506  24.489  1.00  0.00    -0.206 F 
ATOM     80  C   UNL A   1      42.854  21.389  25.331  1.00  0.00     0.059 A 
ATOM     81  C   UNL A   1      42.817  21.020  27.732  1.00  0.00     0.059 A 
ATOM     82  F   UNL A   1      43.325  22.791  29.187  1.00  0.00    -0.206 F 
ATOM     83  C   UNL A   1      42.653  20.550  26.429  1.00  0.00     0.060 A 
BRANCH  83  84
ATOM     84  S   UNL A   1      42.225  18.820  26.132  1.00  0.00     0.124 S 
ATOM     85  O   UNL A   1      43.154  18.468  25.065  1.00  0.00    -0.237 OA
ATOM     86  O   UNL A   1      42.485  18.210  27.432  1.00  0.00    -0.237 OA
ATOM     87  O   UNL A   1      40.817  18.886  25.751  1.00  0.00    -0.744 OA
ENDBRANCH  83  84
ENDBRANCH  51  76
BRANCH  63  88
ATOM     88  C   UNL A   1      49.405  26.665  26.246  1.00  0.00     0.058 A 
ATOM     89  C   UNL A   1      50.281  26.147  27.212  1.00  0.00     0.135 A 
ATOM     90  C   UNL A   1      49.857  26.741  24.919  1.00  0.00     0.135 A 
ATOM     91  F   UNL A   1      49.897  26.058  28.495  1.00  0.00    -0.206 F 
ATOM     92  C   UNL A   1      51.573  25.751  26.880  1.00  0.00     0.059 A 
ATOM     93  C   UNL A   1      51.136  26.327  24.561  1.00  0.00     0.059 A 
ATOM     94  F   UNL A   1      49.052  27.217  23.957  1.00  0.00    -0.206 F 
ATOM     95  C   UNL A   1      51.992  25.852  25.553  1.00  0.00     0.060 A 
BRANCH  95  96
ATOM     96  S   UNL A   1      53.670  25.336  25.129  1.00  0.00     0.124 S 
ATOM     97  O   UNL A   1      53.537  23.883  25.131  1.00  0.00    -0.237 OA
ATOM     98  O   UNL A   1      53.871  25.953  23.822  1.00  0.00    -0.237 OA
ATOM     99  O   UNL A   1      54.478  25.895  26.208  1.00  0.00    -0.744 OA
ENDBRANCH  95  96
ENDBRANCH  63  88
ENDBRANCH  37  38
ENDBRANCH  29  32
ENDBRANCH  27  28
ENDBRANCH  26  27
ENDBRANCH  25  26
ENDBRANCH   1  25
TORSDOF 20
ENDMDL
MODEL 3
REMARK VINA RESULT:     -10.9      1.385      2.157
REMARK SMILES CC(C)[C@@H](CCNC(=O)N1C[C@@H](C)[C@H](C)C1)CCC(=O)NCCCCNC(=O)c1ccc(-c2c3nc(c(-c4c(F)cc(S(=O)(=O)[O-])cc4F)c4ccc([nH]4)c(-c4c(F)cc(S(=O)(=O)[O-])cc4F)c4nc(c(-c5c(F)cc(S(=O)(=O)[O-])cc5F)c5ccc2[nH]5)C=C4)C=C3)cc1
REMARK SMILES IDX 22 1 21 2 19 3 20 4 18 6 17 7 4 8 2 9 1 10 3 11 5 12 6 13
REMARK SMILES IDX 7 14 8 15 9 17 10 18 11 19 16 20 12 21 14 22 13 23 15 24
REMARK SMILES IDX 23 25 24 26 25 27 26 28 27 29 28 31 29 32 30 33 94 34 31 35
REMARK SMILES IDX 93 36 32 37 33 38 34 39 87 40 35 41 92 42 86 43 88 44 36 45
REMARK SMILES IDX 91 46 85 47 84 48 37 50 71 51 50 52 70 53 51 54 54 55 69 56
REMARK SMILES IDX 89 57 52 58 53 59 68 61 90 62 55 63 38 64 39 65 48 66 40 67
REMARK SMILES IDX 41 68 47 69 49 70 42 71 43 72 44 73 45 74 46 75 72 76 73 77
REMARK SMILES IDX 82 78 74 79 75 80 81 81 83 82 76 83 77 84 78 85 79 86 80 87
REMARK SMILES IDX 56 88 57 89 66 90 58 91 59 92 65 93 67 94 60 95 61 96 62 97
REMARK SMILES IDX 63 98 64 99
REMARK H PARENT 21 5 7 16 26 30 88 49 54 60
REMARK Flexibility Score: inf
ROOT
ATOM      1  C   UNL A   1      37.368  23.669  25.721  1.00  0.00     0.116 C 
ENDROOT
BRANCH   1   2
ATOM      2  N   UNL A   1      36.305  23.106  26.534  1.00  0.00    -0.356 N 
ATOM      3  C   UNL A   1      35.336  22.197  26.237  1.00  0.00     0.220 C 
ATOM      4  O   UNL A   1      34.458  21.989  27.077  1.00  0.00    -0.275 OA
ATOM      5  H   UNL A   1      36.281  23.439  27.461  1.00  0.00     0.163 HD
BRANCH   3   6
ATOM      6  C   UNL A   1      35.357  21.416  24.932  1.00  0.00     0.100 C 
BRANCH   6   7
ATOM      7  C   UNL A   1      34.503  20.131  24.914  1.00  0.00     0.014 C 
BRANCH   7   8
ATOM      8  C   UNL A   1      33.318  20.159  23.923  1.00  0.00    -0.006 C 
BRANCH   8   9
ATOM      9  C   UNL A   1      32.353  18.934  23.938  1.00  0.00    -0.014 C 
ATOM     10  C   UNL A   1      32.465  18.148  22.618  1.00  0.00     0.007 C 
ATOM     11  C   UNL A   1      32.570  17.946  25.086  1.00  0.00     0.007 C 
ENDBRANCH   8   9
BRANCH   8  12
ATOM     12  C   UNL A   1      32.580  21.524  23.937  1.00  0.00     0.025 C 
BRANCH  12  13
ATOM     13  C   UNL A   1      32.466  22.284  22.615  1.00  0.00     0.118 C 
BRANCH  13  14
ATOM     14  N   UNL A   1      33.323  23.448  22.576  1.00  0.00    -0.338 N 
ATOM     15  C   UNL A   1      32.998  24.734  22.299  1.00  0.00     0.317 C 
ATOM     16  H   UNL A   1      34.272  23.284  22.780  1.00  0.00     0.165 HD
ATOM     17  O   UNL A   1      33.868  25.445  21.795  1.00  0.00    -0.249 OA
ATOM     18  N   UNL A   1      31.747  25.194  22.592  1.00  0.00    -0.324 N 
ATOM     19  C   UNL A   1      31.278  26.463  22.079  1.00  0.00     0.125 C 
ATOM     20  C   UNL A   1      30.891  24.749  23.680  1.00  0.00     0.125 C 
ATOM     21  C   UNL A   1      30.680  27.153  23.299  1.00  0.00     0.010 C 
ATOM     22  C   UNL A   1      30.122  25.993  24.149  1.00  0.00     0.010 C 
ATOM     23  C   UNL A   1      29.615  28.173  22.924  1.00  0.00     0.010 C 
ATOM     24  C   UNL A   1      30.298  26.239  25.643  1.00  0.00     0.010 C 
ENDBRANCH  13  14
ENDBRANCH  12  13
ENDBRANCH   8  12
ENDBRANCH   7   8
ENDBRANCH   6   7
ENDBRANCH   3   6
ENDBRANCH   1   2
BRANCH   1  25
ATOM     25  C   UNL A   1      38.733  23.133  26.181  1.00  0.00     0.023 C 
BRANCH  25  26
ATOM     26  C   UNL A   1      38.994  21.672  25.837  1.00  0.00     0.023 C 
BRANCH  26  27
ATOM     27  C   UNL A   1      39.962  20.985  26.790  1.00  0.00     0.116 C 
BRANCH  27  28
ATOM     28  N   UNL A   1      40.746  19.918  26.178  1.00  0.00    -0.352 N 
ATOM     29  C   UNL A   1      42.081  19.946  25.821  1.00  0.00     0.251 C 
ATOM     30  H   UNL A   1      40.267  19.077  25.999  1.00  0.00     0.163 HD
ATOM     31  O   UNL A   1      42.599  18.999  25.261  1.00  0.00    -0.269 OA
BRANCH  29  32
ATOM     32  C   UNL A   1      42.842  21.189  26.082  1.00  0.00     0.039 A 
ATOM     33  C   UNL A   1      43.008  22.106  25.044  1.00  0.00     0.014 A 
ATOM     34  C   UNL A   1      43.271  21.493  27.377  1.00  0.00     0.014 A 
ATOM     35  C   UNL A   1      43.524  23.372  25.328  1.00  0.00     0.010 A 
ATOM     36  C   UNL A   1      43.692  22.783  27.672  1.00  0.00     0.010 A 
ATOM     37  C   UNL A   1      43.820  23.737  26.653  1.00  0.00    -0.014 A 
BRANCH  37  38
ATOM     38  C   UNL A   1      44.253  25.118  26.988  1.00  0.00     0.031 A 
ATOM     39  C   UNL A   1      45.685  25.531  26.781  1.00  0.00     0.074 A 
ATOM     40  C   UNL A   1      43.372  25.976  27.539  1.00  0.00     0.049 A 
ATOM     41  N   UNL A   1      46.255  26.681  27.031  1.00  0.00    -0.248 NA
ATOM     42  C   UNL A   1      46.605  24.507  26.262  1.00  0.00     0.031 C 
ATOM     43  C   UNL A   1      41.979  25.666  27.875  1.00  0.00     0.029 A 
ATOM     44  N   UNL A   1      43.515  27.287  27.916  1.00  0.00    -0.354 N 
ATOM     45  C   UNL A   1      47.597  26.513  26.716  1.00  0.00     0.074 A 
ATOM     46  C   UNL A   1      47.770  25.133  26.321  1.00  0.00     0.031 C 
ATOM     47  C   UNL A   1      41.388  26.767  28.367  1.00  0.00     0.029 A 
ATOM     48  C   UNL A   1      42.360  27.853  28.401  1.00  0.00     0.049 A 
ATOM     49  H   UNL A   1      44.367  27.778  27.845  1.00  0.00     0.167 HD
ATOM     50  C   UNL A   1      48.592  27.433  26.721  1.00  0.00     0.037 A 
ATOM     51  C   UNL A   1      42.111  29.112  28.810  1.00  0.00     0.037 A 
ATOM     52  C   UNL A   1      48.406  28.815  27.073  1.00  0.00     0.049 A 
ATOM     53  C   UNL A   1      43.211  30.134  28.737  1.00  0.00     0.074 A 
ATOM     54  C   UNL A   1      49.332  29.843  27.052  1.00  0.00     0.029 A 
ATOM     55  N   UNL A   1      47.207  29.365  27.501  1.00  0.00    -0.354 N 
ATOM     56  N   UNL A   1      44.459  29.976  28.367  1.00  0.00    -0.248 NA
ATOM     57  C   UNL A   1      42.865  31.510  29.119  1.00  0.00     0.031 C 
ATOM     58  C   UNL A   1      48.695  31.013  27.488  1.00  0.00     0.029 A 
ATOM     59  C   UNL A   1      47.367  30.718  27.747  1.00  0.00     0.049 A 
ATOM     60  H   UNL A   1      46.365  28.867  27.613  1.00  0.00     0.167 HD
ATOM     61  C   UNL A   1      45.041  31.236  28.446  1.00  0.00     0.074 A 
ATOM     62  C   UNL A   1      44.004  32.147  28.885  1.00  0.00     0.031 C 
ATOM     63  C   UNL A   1      46.318  31.608  28.179  1.00  0.00     0.037 A 
BRANCH  50  64
ATOM     64  C   UNL A   1      49.961  26.967  26.309  1.00  0.00     0.058 A 
ATOM     65  C   UNL A   1      50.368  26.991  24.965  1.00  0.00     0.135 A 
ATOM     66  C   UNL A   1      50.874  26.490  27.262  1.00  0.00     0.135 A 
ATOM     67  F   UNL A   1      49.527  27.418  24.010  1.00  0.00    -0.206 F 
ATOM     68  C   UNL A   1      51.618  26.522  24.574  1.00  0.00     0.059 A 
ATOM     69  C   UNL A   1      52.141  26.041  26.897  1.00  0.00     0.059 A 
ATOM     70  F   UNL A   1      50.536  26.444  28.559  1.00  0.00    -0.206 F 
ATOM     71  C   UNL A   1      52.495  26.043  25.548  1.00  0.00     0.060 A 
BRANCH  71  72
ATOM     72  S   UNL A   1      54.109  25.424  25.027  1.00  0.00     0.124 S 
ATOM     73  O   UNL A   1      54.933  25.755  26.185  1.00  0.00    -0.237 OA
ATOM     74  O   UNL A   1      53.849  24.003  24.820  1.00  0.00    -0.237 OA
ATOM     75  O   UNL A   1      54.388  26.189  23.816  1.00  0.00    -0.744 OA
ENDBRANCH  71  72
ENDBRANCH  50  64
BRANCH  51  76
ATOM     76  C   UNL A   1      40.745  29.492  29.258  1.00  0.00     0.058 A 
ATOM     77  C   UNL A   1      40.466  29.683  30.620  1.00  0.00     0.135 A 
ATOM     78  C   UNL A   1      39.701  29.685  28.343  1.00  0.00     0.135 A 
ATOM     79  F   UNL A   1      41.432  29.508  31.534  1.00  0.00    -0.206 F 
ATOM     80  C   UNL A   1      39.195  30.037  31.061  1.00  0.00     0.059 A 
ATOM     81  C   UNL A   1      38.425  30.058  28.757  1.00  0.00     0.059 A 
ATOM     82  F   UNL A   1      39.922  29.532  27.027  1.00  0.00    -0.206 F 
ATOM     83  C   UNL A   1      38.180  30.223  30.121  1.00  0.00     0.060 A 
BRANCH  83  84
ATOM     84  S   UNL A   1      36.546  30.734  30.697  1.00  0.00     0.124 S 
ATOM     85  O   UNL A   1      35.762  30.646  29.472  1.00  0.00    -0.237 OA
ATOM     86  O   UNL A   1      36.252  29.733  31.718  1.00  0.00    -0.237 OA
ATOM     87  O   UNL A   1      36.780  32.083  31.206  1.00  0.00    -0.744 OA
ENDBRANCH  83  84
ENDBRANCH  51  76
BRANCH  63  88
ATOM     88  C   UNL A   1      46.649  33.065  28.322  1.00  0.00     0.058 A 
ATOM     89  C   UNL A   1      46.497  33.962  27.254  1.00  0.00     0.135 A 
ATOM     90  C   UNL A   1      47.108  33.572  29.548  1.00  0.00     0.135 A 
ATOM     91  F   UNL A   1      46.065  33.526  26.060  1.00  0.00    -0.206 F 
ATOM     92  C   UNL A   1      46.825  35.308  27.386  1.00  0.00     0.059 A 
ATOM     93  C   UNL A   1      47.417  34.918  29.709  1.00  0.00     0.059 A 
ATOM     94  F   UNL A   1      47.257  32.756  30.604  1.00  0.00    -0.206 F 
ATOM     95  C   UNL A   1      47.291  35.774  28.617  1.00  0.00     0.060 A 
BRANCH  95  96
ATOM     96  S   UNL A   1      47.713  37.522  28.782  1.00  0.00     0.124 S 
ATOM     97  O   UNL A   1      46.440  38.160  28.468  1.00  0.00    -0.237 OA
ATOM     98  O   UNL A   1      48.143  37.614  30.174  1.00  0.00    -0.237 OA
ATOM     99  O   UNL A   1      48.772  37.708  27.794  1.00  0.00    -0.744 OA
ENDBRANCH  95  96
ENDBRANCH  63  88
ENDBRANCH  37  38
ENDBRANCH  29  32
ENDBRANCH  27  28
ENDBRANCH  26  27
ENDBRANCH  25  26
ENDBRANCH   1  25
TORSDOF 20
ENDMDL
