MODEL 1
REMARK VINA RESULT:      -8.1      0.000      0.000
REMARK SMILES CC(C)(O)CCOc1ccc(C(=O)NCCCCNC(=O)c2ccc(-c3c4nc(c(-c5c(F)cc(S(=O)(=O)[O-])cc5F)c5ccc([nH]5)c(-c5c(F)cc(S(=O)(=O)[O-])cc5F)c5nc(c(-c6c(F)cc(S(=O)(=O)[O-])cc6F)c6ccc3[nH]6)C=C5)C=C4)cc2)cc1
REMARK SMILES IDX 15 1 14 2 12 3 13 4 11 6 8 7 9 8 89 9 10 10 88 11 7 12 6 13
REMARK SMILES IDX 5 14 2 15 1 16 3 17 4 18 16 20 17 21 18 22 19 23 20 24 21 26
REMARK SMILES IDX 22 27 23 28 87 29 24 30 86 31 25 32 26 33 27 34 80 35 28 36
REMARK SMILES IDX 85 37 79 38 81 39 29 40 84 41 78 42 77 43 30 45 64 46 43 47
REMARK SMILES IDX 63 48 44 49 47 50 62 51 82 52 45 53 46 54 61 56 83 57 48 58
REMARK SMILES IDX 31 59 32 60 41 61 33 62 34 63 40 64 42 65 35 66 36 67 37 68
REMARK SMILES IDX 38 69 39 70 65 71 66 72 75 73 67 74 68 75 74 76 76 77 69 78
REMARK SMILES IDX 70 79 71 80 72 81 73 82 49 83 50 84 59 85 51 86 52 87 58 88
REMARK SMILES IDX 60 89 53 90 54 91 55 92 56 93 57 94
REMARK H PARENT 14 5 4 19 19 25 81 44 47 55
REMARK Flexibility Score: inf
ROOT
ATOM      1  C   UNL A   1      44.896  23.927  25.036  1.00  0.00     0.116 C 
ENDROOT
BRANCH   1   2
ATOM      2  N   UNL A   1      45.461  23.868  26.378  1.00  0.00    -0.352 N 
ATOM      3  C   UNL A   1      45.668  24.833  27.339  1.00  0.00     0.251 C 
ATOM      4  O   UNL A   1      46.255  24.520  28.373  1.00  0.00    -0.269 OA
ATOM      5  H   UNL A   1      45.750  22.968  26.649  1.00  0.00     0.163 HD
BRANCH   3   6
ATOM      6  C   UNL A   1      45.266  26.251  27.152  1.00  0.00     0.040 A 
ATOM      7  C   UNL A   1      44.719  28.949  26.582  1.00  0.00     0.119 A 
ATOM      8  C   UNL A   1      45.911  28.589  27.214  1.00  0.00     0.047 A 
ATOM      9  C   UNL A   1      43.742  27.976  26.394  1.00  0.00     0.047 A 
ATOM     10  C   UNL A   1      46.187  27.247  27.497  1.00  0.00     0.017 A 
ATOM     11  C   UNL A   1      44.008  26.633  26.689  1.00  0.00     0.017 A 
BRANCH   7  12
ATOM     12  O   UNL A   1      44.672  30.244  26.151  1.00  0.00    -0.493 OA
BRANCH  12  13
ATOM     13  C   UNL A   1      45.086  31.294  27.026  1.00  0.00     0.232 C 
BRANCH  13  14
ATOM     14  C   UNL A   1      43.933  32.148  27.587  1.00  0.00     0.076 C 
BRANCH  14  15
ATOM     15  C   UNL A   1      43.689  32.117  29.114  1.00  0.00     0.062 C 
ATOM     16  C   UNL A   1      43.265  33.479  29.674  1.00  0.00     0.042 C 
ATOM     17  C   UNL A   1      44.968  31.681  29.845  1.00  0.00     0.042 C 
BRANCH  15  18
ATOM     18  O   UNL A   1      42.700  31.132  29.416  1.00  0.00    -0.390 OA
ATOM     19  H   UNL A   1      42.849  30.788  30.310  1.00  0.00     0.211 HD
ENDBRANCH  15  18
ENDBRANCH  14  15
ENDBRANCH  13  14
ENDBRANCH  12  13
ENDBRANCH   7  12
ENDBRANCH   3   6
ENDBRANCH   1   2
BRANCH   1  20
ATOM     20  C   UNL A   1      43.375  23.777  25.011  1.00  0.00     0.023 C 
BRANCH  20  21
ATOM     21  C   UNL A   1      42.843  22.398  25.415  1.00  0.00     0.023 C 
BRANCH  21  22
ATOM     22  C   UNL A   1      41.743  22.391  26.480  1.00  0.00     0.116 C 
BRANCH  22  23
ATOM     23  N   UNL A   1      40.404  22.170  25.950  1.00  0.00    -0.352 N 
ATOM     24  C   UNL A   1      39.302  22.993  26.049  1.00  0.00     0.251 C 
ATOM     25  H   UNL A   1      40.268  21.327  25.462  1.00  0.00     0.163 HD
ATOM     26  O   UNL A   1      38.216  22.629  25.608  1.00  0.00    -0.269 OA
BRANCH  24  27
ATOM     27  C   UNL A   1      39.428  24.296  26.739  1.00  0.00     0.039 A 
ATOM     28  C   UNL A   1      38.887  24.438  28.020  1.00  0.00     0.014 A 
ATOM     29  C   UNL A   1      40.137  25.348  26.152  1.00  0.00     0.014 A 
ATOM     30  C   UNL A   1      39.147  25.599  28.755  1.00  0.00     0.010 A 
ATOM     31  C   UNL A   1      40.438  26.481  26.906  1.00  0.00     0.010 A 
ATOM     32  C   UNL A   1      39.971  26.604  28.224  1.00  0.00    -0.014 A 
BRANCH  32  33
ATOM     33  C   UNL A   1      40.420  27.754  29.049  1.00  0.00     0.031 A 
ATOM     34  C   UNL A   1      41.707  27.686  29.820  1.00  0.00     0.074 A 
ATOM     35  C   UNL A   1      39.611  28.825  29.182  1.00  0.00     0.049 A 
ATOM     36  N   UNL A   1      42.202  28.543  30.675  1.00  0.00    -0.248 NA
ATOM     37  C   UNL A   1      42.536  26.488  29.619  1.00  0.00     0.031 C 
ATOM     38  C   UNL A   1      38.312  28.989  28.524  1.00  0.00     0.029 A 
ATOM     39  N   UNL A   1      39.748  29.968  29.930  1.00  0.00    -0.354 N 
ATOM     40  C   UNL A   1      43.392  27.986  31.125  1.00  0.00     0.074 A 
ATOM     41  C   UNL A   1      43.526  26.699  30.476  1.00  0.00     0.031 C 
ATOM     42  C   UNL A   1      37.777  30.166  28.890  1.00  0.00     0.029 A 
ATOM     43  C   UNL A   1      38.673  30.822  29.838  1.00  0.00     0.049 A 
ATOM     44  H   UNL A   1      40.541  30.158  30.481  1.00  0.00     0.167 HD
ATOM     45  C   UNL A   1      44.298  28.508  31.986  1.00  0.00     0.037 A 
ATOM     46  C   UNL A   1      38.425  31.991  30.460  1.00  0.00     0.037 A 
ATOM     47  C   UNL A   1      44.171  29.798  32.613  1.00  0.00     0.049 A 
ATOM     48  C   UNL A   1      39.435  32.538  31.430  1.00  0.00     0.074 A 
ATOM     49  C   UNL A   1      45.075  30.447  33.438  1.00  0.00     0.029 A 
ATOM     50  N   UNL A   1      43.070  30.633  32.493  1.00  0.00    -0.354 N 
ATOM     51  N   UNL A   1      40.589  32.030  31.788  1.00  0.00    -0.248 NA
ATOM     52  C   UNL A   1      39.108  33.814  32.083  1.00  0.00     0.031 C 
ATOM     53  C   UNL A   1      44.502  31.656  33.849  1.00  0.00     0.029 A 
ATOM     54  C   UNL A   1      43.258  31.777  33.253  1.00  0.00     0.049 A 
ATOM     55  H   UNL A   1      42.273  30.441  31.949  1.00  0.00     0.167 HD
ATOM     56  C   UNL A   1      41.130  32.926  32.702  1.00  0.00     0.074 A 
ATOM     57  C   UNL A   1      40.186  34.018  32.828  1.00  0.00     0.031 C 
ATOM     58  C   UNL A   1      42.304  32.850  33.378  1.00  0.00     0.037 A 
BRANCH  45  59
ATOM     59  C   UNL A   1      45.514  27.682  32.299  1.00  0.00     0.058 A 
ATOM     60  C   UNL A   1      45.532  26.786  33.379  1.00  0.00     0.135 A 
ATOM     61  C   UNL A   1      46.660  27.760  31.491  1.00  0.00     0.135 A 
ATOM     62  F   UNL A   1      44.467  26.681  34.189  1.00  0.00    -0.206 F 
ATOM     63  C   UNL A   1      46.655  26.017  33.666  1.00  0.00     0.059 A 
ATOM     64  C   UNL A   1      47.787  26.983  31.747  1.00  0.00     0.059 A 
ATOM     65  F   UNL A   1      46.694  28.602  30.446  1.00  0.00    -0.206 F 
ATOM     66  C   UNL A   1      47.780  26.126  32.846  1.00  0.00     0.060 A 
BRANCH  66  67
ATOM     67  S   UNL A   1      49.230  25.123  33.234  1.00  0.00     0.124 S 
ATOM     68  O   UNL A   1      48.620  23.983  33.910  1.00  0.00    -0.237 OA
ATOM     69  O   UNL A   1      49.787  24.852  31.913  1.00  0.00    -0.237 OA
ATOM     70  O   UNL A   1      50.032  26.001  34.081  1.00  0.00    -0.744 OA
ENDBRANCH  66  67
ENDBRANCH  45  59
BRANCH  46  71
ATOM     71  C   UNL A   1      37.161  32.723  30.183  1.00  0.00     0.058 A 
ATOM     72  C   UNL A   1      36.093  32.681  31.089  1.00  0.00     0.135 A 
ATOM     73  C   UNL A   1      37.005  33.494  29.021  1.00  0.00     0.135 A 
ATOM     74  F   UNL A   1      36.193  31.949  32.209  1.00  0.00    -0.206 F 
ATOM     75  C   UNL A   1      34.909  33.370  30.851  1.00  0.00     0.059 A 
ATOM     76  C   UNL A   1      35.839  34.210  28.770  1.00  0.00     0.059 A 
ATOM     77  F   UNL A   1      38.006  33.578  28.130  1.00  0.00    -0.206 F 
ATOM     78  C   UNL A   1      34.793  34.135  29.689  1.00  0.00     0.060 A 
BRANCH  78  79
ATOM     79  S   UNL A   1      33.275  35.077  29.419  1.00  0.00     0.124 S 
ATOM     80  O   UNL A   1      32.621  34.289  28.381  1.00  0.00    -0.237 OA
ATOM     81  O   UNL A   1      32.650  35.040  30.738  1.00  0.00    -0.237 OA
ATOM     82  O   UNL A   1      33.766  36.389  29.005  1.00  0.00    -0.744 OA
ENDBRANCH  78  79
ENDBRANCH  46  71
BRANCH  58  83
ATOM     83  C   UNL A   1      42.634  33.975  34.316  1.00  0.00     0.058 A 
ATOM     84  C   UNL A   1      42.135  33.999  35.628  1.00  0.00     0.135 A 
ATOM     85  C   UNL A   1      43.503  35.004  33.924  1.00  0.00     0.135 A 
ATOM     86  F   UNL A   1      41.292  33.042  36.048  1.00  0.00    -0.206 F 
ATOM     87  C   UNL A   1      42.479  35.013  36.516  1.00  0.00     0.059 A 
ATOM     88  C   UNL A   1      43.877  36.017  34.802  1.00  0.00     0.059 A 
ATOM     89  F   UNL A   1      44.011  35.023  32.681  1.00  0.00    -0.206 F 
ATOM     90  C   UNL A   1      43.354  36.016  36.095  1.00  0.00     0.060 A 
BRANCH  90  91
ATOM     91  S   UNL A   1      43.832  37.299  37.272  1.00  0.00     0.124 S 
ATOM     92  O   UNL A   1      45.176  36.868  37.646  1.00  0.00    -0.237 OA
ATOM     93  O   UNL A   1      43.757  38.511  36.463  1.00  0.00    -0.237 OA
ATOM     94  O   UNL A   1      42.823  37.189  38.322  1.00  0.00    -0.744 OA
ENDBRANCH  90  91
ENDBRANCH  58  83
ENDBRANCH  32  33
ENDBRANCH  24  27
ENDBRANCH  22  23
ENDBRANCH  21  22
ENDBRANCH  20  21
ENDBRANCH   1  20
TORSDOF 19
ENDMDL
MODEL 2
REMARK VINA RESULT:      -8.1      4.323     10.041
REMARK SMILES CC(C)(O)CCOc1ccc(C(=O)NCCCCNC(=O)c2ccc(-c3c4nc(c(-c5c(F)cc(S(=O)(=O)[O-])cc5F)c5ccc([nH]5)c(-c5c(F)cc(S(=O)(=O)[O-])cc5F)c5nc(c(-c6c(F)cc(S(=O)(=O)[O-])cc6F)c6ccc3[nH]6)C=C5)C=C4)cc2)cc1
REMARK SMILES IDX 15 1 14 2 12 3 13 4 11 6 8 7 9 8 89 9 10 10 88 11 7 12 6 13
REMARK SMILES IDX 5 14 2 15 1 16 3 17 4 18 16 20 17 21 18 22 19 23 20 24 21 26
REMARK SMILES IDX 22 27 23 28 87 29 24 30 86 31 25 32 26 33 27 34 80 35 28 36
REMARK SMILES IDX 85 37 79 38 81 39 29 40 84 41 78 42 77 43 30 45 64 46 43 47
REMARK SMILES IDX 63 48 44 49 47 50 62 51 82 52 45 53 46 54 61 56 83 57 48 58
REMARK SMILES IDX 31 59 32 60 41 61 33 62 34 63 40 64 42 65 35 66 36 67 37 68
REMARK SMILES IDX 38 69 39 70 65 71 66 72 75 73 67 74 68 75 74 76 76 77 69 78
REMARK SMILES IDX 70 79 71 80 72 81 73 82 49 83 50 84 59 85 51 86 52 87 58 88
REMARK SMILES IDX 60 89 53 90 54 91 55 92 56 93 57 94
REMARK H PARENT 14 5 4 19 19 25 81 44 47 55
REMARK Flexibility Score: inf
ROOT
ATOM      1  C   UNL A   1      32.077  28.554  27.232  1.00  0.00     0.116 C 
ENDROOT
BRANCH   1   2
ATOM      2  N   UNL A   1      31.551  28.328  25.892  1.00  0.00    -0.352 N 
ATOM      3  C   UNL A   1      31.616  27.247  25.042  1.00  0.00     0.251 C 
ATOM      4  O   UNL A   1      31.149  27.357  23.909  1.00  0.00    -0.269 OA
ATOM      5  H   UNL A   1      31.055  29.094  25.524  1.00  0.00     0.163 HD
BRANCH   3   6
ATOM      6  C   UNL A   1      32.280  25.972  25.415  1.00  0.00     0.040 A 
ATOM      7  C   UNL A   1      33.689  23.717  26.332  1.00  0.00     0.119 A 
ATOM      8  C   UNL A   1      34.352  24.727  25.630  1.00  0.00     0.047 A 
ATOM      9  C   UNL A   1      32.301  23.765  26.420  1.00  0.00     0.047 A 
ATOM     10  C   UNL A   1      33.654  25.851  25.174  1.00  0.00     0.017 A 
ATOM     11  C   UNL A   1      31.596  24.882  25.953  1.00  0.00     0.017 A 
BRANCH   7  12
ATOM     12  O   UNL A   1      34.511  22.801  26.921  1.00  0.00    -0.493 OA
BRANCH  12  13
ATOM     13  C   UNL A   1      35.364  21.991  26.111  1.00  0.00     0.232 C 
BRANCH  13  14
ATOM     14  C   UNL A   1      34.660  21.324  24.913  1.00  0.00     0.076 C 
BRANCH  14  15
ATOM     15  C   UNL A   1      33.625  20.214  25.212  1.00  0.00     0.062 C 
ATOM     16  C   UNL A   1      34.052  18.846  24.670  1.00  0.00     0.042 C 
ATOM     17  C   UNL A   1      32.270  20.572  24.581  1.00  0.00     0.042 C 
BRANCH  15  18
ATOM     18  O   UNL A   1      33.404  20.139  26.620  1.00  0.00    -0.390 OA
ATOM     19  H   UNL A   1      33.080  20.995  26.942  1.00  0.00     0.211 HD
ENDBRANCH  15  18
ENDBRANCH  14  15
ENDBRANCH  13  14
ENDBRANCH  12  13
ENDBRANCH   7  12
ENDBRANCH   3   6
ENDBRANCH   1   2
BRANCH   1  20
ATOM     20  C   UNL A   1      33.111  29.678  27.297  1.00  0.00     0.023 C 
BRANCH  20  21
ATOM     21  C   UNL A   1      32.549  31.097  27.163  1.00  0.00     0.023 C 
BRANCH  21  22
ATOM     22  C   UNL A   1      33.544  32.236  27.398  1.00  0.00     0.116 C 
BRANCH  22  23
ATOM     23  N   UNL A   1      32.921  33.524  27.673  1.00  0.00    -0.352 N 
ATOM     24  C   UNL A   1      33.269  34.453  28.630  1.00  0.00     0.251 C 
ATOM     25  H   UNL A   1      32.154  33.761  27.104  1.00  0.00     0.163 HD
ATOM     26  O   UNL A   1      32.594  35.466  28.785  1.00  0.00    -0.269 OA
BRANCH  24  27
ATOM     27  C   UNL A   1      34.432  34.191  29.507  1.00  0.00     0.039 A 
ATOM     28  C   UNL A   1      34.220  33.594  30.753  1.00  0.00     0.014 A 
ATOM     29  C   UNL A   1      35.730  34.470  29.071  1.00  0.00     0.014 A 
ATOM     30  C   UNL A   1      35.315  33.181  31.517  1.00  0.00     0.010 A 
ATOM     31  C   UNL A   1      36.819  34.011  29.809  1.00  0.00     0.010 A 
ATOM     32  C   UNL A   1      36.621  33.336  31.025  1.00  0.00    -0.014 A 
BRANCH  32  33
ATOM     33  C   UNL A   1      37.788  32.737  31.722  1.00  0.00     0.031 A 
ATOM     34  C   UNL A   1      38.487  31.536  31.150  1.00  0.00     0.074 A 
ATOM     35  C   UNL A   1      38.153  33.219  32.927  1.00  0.00     0.049 A 
ATOM     36  N   UNL A   1      39.446  30.816  31.671  1.00  0.00    -0.248 NA
ATOM     37  C   UNL A   1      38.033  31.073  29.830  1.00  0.00     0.031 C 
ATOM     38  C   UNL A   1      37.522  34.351  33.611  1.00  0.00     0.029 A 
ATOM     39  N   UNL A   1      39.129  32.808  33.801  1.00  0.00    -0.354 N 
ATOM     40  C   UNL A   1      39.704  29.807  30.752  1.00  0.00     0.074 A 
ATOM     41  C   UNL A   1      38.774  29.987  29.657  1.00  0.00     0.031 C 
ATOM     42  C   UNL A   1      38.131  34.547  34.792  1.00  0.00     0.029 A 
ATOM     43  C   UNL A   1      39.168  33.535  34.969  1.00  0.00     0.049 A 
ATOM     44  H   UNL A   1      39.743  32.063  33.610  1.00  0.00     0.167 HD
ATOM     45  C   UNL A   1      40.642  28.832  30.807  1.00  0.00     0.037 A 
ATOM     46  C   UNL A   1      39.936  33.393  36.066  1.00  0.00     0.037 A 
ATOM     47  C   UNL A   1      41.580  28.669  31.888  1.00  0.00     0.049 A 
ATOM     48  C   UNL A   1      40.955  32.288  36.114  1.00  0.00     0.074 A 
ATOM     49  C   UNL A   1      42.619  27.761  31.997  1.00  0.00     0.029 A 
ATOM     50  N   UNL A   1      41.588  29.426  33.050  1.00  0.00    -0.354 N 
ATOM     51  N   UNL A   1      41.233  31.387  35.203  1.00  0.00    -0.248 NA
ATOM     52  C   UNL A   1      41.760  32.177  37.339  1.00  0.00     0.031 C 
ATOM     53  C   UNL A   1      43.230  27.942  33.243  1.00  0.00     0.029 A 
ATOM     54  C   UNL A   1      42.595  28.986  33.896  1.00  0.00     0.049 A 
ATOM     55  H   UNL A   1      40.970  30.167  33.246  1.00  0.00     0.167 HD
ATOM     56  C   UNL A   1      42.250  30.607  35.741  1.00  0.00     0.074 A 
ATOM     57  C   UNL A   1      42.551  31.153  37.048  1.00  0.00     0.031 C 
ATOM     58  C   UNL A   1      42.875  29.532  35.199  1.00  0.00     0.037 A 
BRANCH  45  59
ATOM     59  C   UNL A   1      40.704  27.862  29.661  1.00  0.00     0.058 A 
ATOM     60  C   UNL A   1      39.797  26.797  29.552  1.00  0.00     0.135 A 
ATOM     61  C   UNL A   1      41.658  28.019  28.641  1.00  0.00     0.135 A 
ATOM     62  F   UNL A   1      38.874  26.595  30.506  1.00  0.00    -0.206 F 
ATOM     63  C   UNL A   1      39.851  25.902  28.489  1.00  0.00     0.059 A 
ATOM     64  C   UNL A   1      41.715  27.149  27.556  1.00  0.00     0.059 A 
ATOM     65  F   UNL A   1      42.549  29.022  28.698  1.00  0.00    -0.206 F 
ATOM     66  C   UNL A   1      40.817  26.085  27.497  1.00  0.00     0.060 A 
BRANCH  66  67
ATOM     67  S   UNL A   1      40.875  24.913  26.124  1.00  0.00     0.124 S 
ATOM     68  O   UNL A   1      39.457  24.628  25.929  1.00  0.00    -0.237 OA
ATOM     69  O   UNL A   1      41.514  25.694  25.072  1.00  0.00    -0.237 OA
ATOM     70  O   UNL A   1      41.670  23.810  26.654  1.00  0.00    -0.744 OA
ENDBRANCH  66  67
ENDBRANCH  45  59
BRANCH  46  71
ATOM     71  C   UNL A   1      39.769  34.325  37.212  1.00  0.00     0.058 A 
ATOM     72  C   UNL A   1      39.034  33.946  38.344  1.00  0.00     0.135 A 
ATOM     73  C   UNL A   1      40.357  35.599  37.207  1.00  0.00     0.135 A 
ATOM     74  F   UNL A   1      38.446  32.741  38.389  1.00  0.00    -0.206 F 
ATOM     75  C   UNL A   1      38.879  34.801  39.430  1.00  0.00     0.059 A 
ATOM     76  C   UNL A   1      40.234  36.464  38.290  1.00  0.00     0.059 A 
ATOM     77  F   UNL A   1      41.083  36.001  36.152  1.00  0.00    -0.206 F 
ATOM     78  C   UNL A   1      39.486  36.058  39.394  1.00  0.00     0.060 A 
BRANCH  78  79
ATOM     79  S   UNL A   1      39.332  37.136  40.835  1.00  0.00     0.124 S 
ATOM     80  O   UNL A   1      40.728  37.327  41.210  1.00  0.00    -0.237 OA
ATOM     81  O   UNL A   1      38.656  38.304  40.276  1.00  0.00    -0.237 OA
ATOM     82  O   UNL A   1      38.529  36.343  41.762  1.00  0.00    -0.744 OA
ENDBRANCH  78  79
ENDBRANCH  46  71
BRANCH  58  83
ATOM     83  C   UNL A   1      43.947  28.873  36.019  1.00  0.00     0.058 A 
ATOM     84  C   UNL A   1      45.259  29.374  36.043  1.00  0.00     0.135 A 
ATOM     85  C   UNL A   1      43.650  27.770  36.834  1.00  0.00     0.135 A 
ATOM     86  F   UNL A   1      45.595  30.421  35.272  1.00  0.00    -0.206 F 
ATOM     87  C   UNL A   1      46.242  28.797  36.839  1.00  0.00     0.059 A 
ATOM     88  C   UNL A   1      44.613  27.190  37.655  1.00  0.00     0.059 A 
ATOM     89  F   UNL A   1      42.410  27.257  36.852  1.00  0.00    -0.206 F 
ATOM     90  C   UNL A   1      45.908  27.707  37.646  1.00  0.00     0.060 A 
BRANCH  90  91
ATOM     91  S   UNL A   1      47.180  26.998  38.713  1.00  0.00     0.124 S 
ATOM     92  O   UNL A   1      48.150  28.087  38.778  1.00  0.00    -0.237 OA
ATOM     93  O   UNL A   1      46.443  26.731  39.944  1.00  0.00    -0.237 OA
ATOM     94  O   UNL A   1      47.615  25.812  37.979  1.00  0.00    -0.744 OA
ENDBRANCH  90  91
ENDBRANCH  58  83
ENDBRANCH  32  33
ENDBRANCH  24  27
ENDBRANCH  22  23
ENDBRANCH  21  22
ENDBRANCH  20  21
ENDBRANCH   1  20
TORSDOF 19
ENDMDL
MODEL 3
REMARK VINA RESULT:      -8.0      4.164      6.836
REMARK SMILES CC(C)(O)CCOc1ccc(C(=O)NCCCCNC(=O)c2ccc(-c3c4nc(c(-c5c(F)cc(S(=O)(=O)[O-])cc5F)c5ccc([nH]5)c(-c5c(F)cc(S(=O)(=O)[O-])cc5F)c5nc(c(-c6c(F)cc(S(=O)(=O)[O-])cc6F)c6ccc3[nH]6)C=C5)C=C4)cc2)cc1
REMARK SMILES IDX 15 1 14 2 12 3 13 4 11 6 8 7 9 8 89 9 10 10 88 11 7 12 6 13
REMARK SMILES IDX 5 14 2 15 1 16 3 17 4 18 16 20 17 21 18 22 19 23 20 24 21 26
REMARK SMILES IDX 22 27 23 28 87 29 24 30 86 31 25 32 26 33 27 34 80 35 28 36
REMARK SMILES IDX 85 37 79 38 81 39 29 40 84 41 78 42 77 43 30 45 64 46 43 47
REMARK SMILES IDX 63 48 44 49 47 50 62 51 82 52 45 53 46 54 61 56 83 57 48 58
REMARK SMILES IDX 31 59 32 60 41 61 33 62 34 63 40 64 42 65 35 66 36 67 37 68
REMARK SMILES IDX 38 69 39 70 65 71 66 72 75 73 67 74 68 75 74 76 76 77 69 78
REMARK SMILES IDX 70 79 71 80 72 81 73 82 49 83 50 84 59 85 51 86 52 87 58 88
REMARK SMILES IDX 60 89 53 90 54 91 55 92 56 93 57 94
REMARK H PARENT 14 5 4 19 19 25 81 44 47 55
REMARK Flexibility Score: inf
ROOT
ATOM      1  C   UNL A   1      35.854  21.934  26.451  1.00  0.00     0.116 C 
ENDROOT
BRANCH   1   2
ATOM      2  N   UNL A   1      35.117  20.971  25.642  1.00  0.00    -0.352 N 
ATOM      3  C   UNL A   1      34.136  21.122  24.688  1.00  0.00     0.251 C 
ATOM      4  O   UNL A   1      33.614  20.114  24.213  1.00  0.00    -0.269 OA
ATOM      5  H   UNL A   1      35.369  20.035  25.809  1.00  0.00     0.163 HD
BRANCH   3   6
ATOM      6  C   UNL A   1      33.637  22.451  24.253  1.00  0.00     0.040 A 
ATOM      7  C   UNL A   1      32.866  25.087  23.649  1.00  0.00     0.119 A 
ATOM      8  C   UNL A   1      32.435  24.479  24.830  1.00  0.00     0.047 A 
ATOM      9  C   UNL A   1      33.538  24.315  22.706  1.00  0.00     0.047 A 
ATOM     10  C   UNL A   1      32.818  23.168  25.134  1.00  0.00     0.017 A 
ATOM     11  C   UNL A   1      33.912  22.998  23.000  1.00  0.00     0.017 A 
BRANCH   7  12
ATOM     12  O   UNL A   1      32.625  26.429  23.580  1.00  0.00    -0.493 OA
BRANCH  12  13
ATOM     13  C   UNL A   1      31.641  27.015  24.434  1.00  0.00     0.232 C 
BRANCH  13  14
ATOM     14  C   UNL A   1      31.139  28.397  23.975  1.00  0.00     0.076 C 
BRANCH  14  15
ATOM     15  C   UNL A   1      30.164  28.448  22.775  1.00  0.00     0.062 C 
ATOM     16  C   UNL A   1      29.900  29.877  22.288  1.00  0.00     0.042 C 
ATOM     17  C   UNL A   1      28.816  27.822  23.163  1.00  0.00     0.042 C 
BRANCH  15  18
ATOM     18  O   UNL A   1      30.683  27.652  21.709  1.00  0.00    -0.390 OA
ATOM     19  H   UNL A   1      29.953  27.201  21.258  1.00  0.00     0.211 HD
ENDBRANCH  15  18
ENDBRANCH  14  15
ENDBRANCH  13  14
ENDBRANCH  12  13
ENDBRANCH   7  12
ENDBRANCH   3   6
ENDBRANCH   1   2
BRANCH   1  20
ATOM     20  C   UNL A   1      37.071  22.523  25.737  1.00  0.00     0.023 C 
BRANCH  20  21
ATOM     21  C   UNL A   1      37.431  23.959  26.127  1.00  0.00     0.023 C 
BRANCH  21  22
ATOM     22  C   UNL A   1      38.801  24.151  26.783  1.00  0.00     0.116 C 
BRANCH  22  23
ATOM     23  N   UNL A   1      39.856  24.539  25.855  1.00  0.00    -0.352 N 
ATOM     24  C   UNL A   1      40.847  25.480  26.035  1.00  0.00     0.251 C 
ATOM     25  H   UNL A   1      39.861  24.071  24.989  1.00  0.00     0.163 HD
ATOM     26  O   UNL A   1      41.623  25.745  25.123  1.00  0.00    -0.269 OA
BRANCH  24  27
ATOM     27  C   UNL A   1      40.932  26.206  27.322  1.00  0.00     0.039 A 
ATOM     28  C   UNL A   1      41.993  27.092  27.531  1.00  0.00     0.014 A 
ATOM     29  C   UNL A   1      39.932  26.064  28.288  1.00  0.00     0.014 A 
ATOM     30  C   UNL A   1      41.995  27.913  28.663  1.00  0.00     0.010 A 
ATOM     31  C   UNL A   1      39.909  26.919  29.388  1.00  0.00     0.010 A 
ATOM     32  C   UNL A   1      40.925  27.871  29.570  1.00  0.00    -0.014 A 
BRANCH  32  33
ATOM     33  C   UNL A   1      40.805  28.861  30.671  1.00  0.00     0.031 A 
ATOM     34  C   UNL A   1      41.643  28.731  31.911  1.00  0.00     0.074 A 
ATOM     35  C   UNL A   1      39.862  29.822  30.593  1.00  0.00     0.049 A 
ATOM     36  N   UNL A   1      41.596  29.431  33.015  1.00  0.00    -0.248 NA
ATOM     37  C   UNL A   1      42.652  27.660  31.919  1.00  0.00     0.031 C 
ATOM     38  C   UNL A   1      38.951  30.022  29.463  1.00  0.00     0.029 A 
ATOM     39  N   UNL A   1      39.496  30.797  31.488  1.00  0.00    -0.354 N 
ATOM     40  C   UNL A   1      42.557  28.881  33.854  1.00  0.00     0.074 A 
ATOM     41  C   UNL A   1      43.146  27.764  33.145  1.00  0.00     0.031 C 
ATOM     42  C   UNL A   1      38.140  31.059  29.728  1.00  0.00     0.029 A 
ATOM     43  C   UNL A   1      38.443  31.573  31.061  1.00  0.00     0.049 A 
ATOM     44  H   UNL A   1      39.946  30.929  32.354  1.00  0.00     0.167 HD
ATOM     45  C   UNL A   1      42.926  29.281  35.094  1.00  0.00     0.037 A 
ATOM     46  C   UNL A   1      37.782  32.571  31.677  1.00  0.00     0.037 A 
ATOM     47  C   UNL A   1      42.353  30.406  35.787  1.00  0.00     0.049 A 
ATOM     48  C   UNL A   1      38.195  32.983  33.063  1.00  0.00     0.074 A 
ATOM     49  C   UNL A   1      42.716  30.938  37.013  1.00  0.00     0.029 A 
ATOM     50  N   UNL A   1      41.291  31.167  35.321  1.00  0.00    -0.354 N 
ATOM     51  N   UNL A   1      39.155  32.497  33.813  1.00  0.00    -0.248 NA
ATOM     52  C   UNL A   1      37.434  34.073  33.690  1.00  0.00     0.031 C 
ATOM     53  C   UNL A   1      41.846  31.995  37.306  1.00  0.00     0.029 A 
ATOM     54  C   UNL A   1      40.965  32.144  36.248  1.00  0.00     0.049 A 
ATOM     55  H   UNL A   1      40.835  31.032  34.459  1.00  0.00     0.167 HD
ATOM     56  C   UNL A   1      39.118  33.226  34.995  1.00  0.00     0.074 A 
ATOM     57  C   UNL A   1      38.054  34.199  34.855  1.00  0.00     0.031 C 
ATOM     58  C   UNL A   1      39.895  33.099  36.099  1.00  0.00     0.037 A 
BRANCH  45  59
ATOM     59  C   UNL A   1      44.008  28.499  35.783  1.00  0.00     0.058 A 
ATOM     60  C   UNL A   1      45.365  28.800  35.593  1.00  0.00     0.135 A 
ATOM     61  C   UNL A   1      43.684  27.459  36.670  1.00  0.00     0.135 A 
ATOM     62  F   UNL A   1      45.728  29.777  34.746  1.00  0.00    -0.206 F 
ATOM     63  C   UNL A   1      46.367  28.079  36.234  1.00  0.00     0.059 A 
ATOM     64  C   UNL A   1      44.670  26.739  37.341  1.00  0.00     0.059 A 
ATOM     65  F   UNL A   1      42.401  27.130  36.887  1.00  0.00    -0.206 F 
ATOM     66  C   UNL A   1      46.009  27.048  37.104  1.00  0.00     0.060 A 
BRANCH  66  67
ATOM     67  S   UNL A   1      47.321  26.120  37.927  1.00  0.00     0.124 S 
ATOM     68  O   UNL A   1      46.646  24.858  38.213  1.00  0.00    -0.237 OA
ATOM     69  O   UNL A   1      48.357  26.065  36.903  1.00  0.00    -0.237 OA
ATOM     70  O   UNL A   1      47.637  26.941  39.092  1.00  0.00    -0.744 OA
ENDBRANCH  66  67
ENDBRANCH  45  59
BRANCH  46  71
ATOM     71  C   UNL A   1      36.656  33.252  30.985  1.00  0.00     0.058 A 
ATOM     72  C   UNL A   1      35.329  33.023  31.376  1.00  0.00     0.135 A 
ATOM     73  C   UNL A   1      36.885  34.157  29.938  1.00  0.00     0.135 A 
ATOM     74  F   UNL A   1      35.062  32.159  32.366  1.00  0.00    -0.206 F 
ATOM     75  C   UNL A   1      34.266  33.662  30.747  1.00  0.00     0.059 A 
ATOM     76  C   UNL A   1      35.840  34.824  29.308  1.00  0.00     0.059 A 
ATOM     77  F   UNL A   1      38.139  34.421  29.538  1.00  0.00    -0.206 F 
ATOM     78  C   UNL A   1      34.532  34.563  29.715  1.00  0.00     0.060 A 
BRANCH  78  79
ATOM     79  S   UNL A   1      33.149  35.435  28.947  1.00  0.00     0.124 S 
ATOM     80  O   UNL A   1      32.508  34.363  28.193  1.00  0.00    -0.237 OA
ATOM     81  O   UNL A   1      32.412  35.928  30.106  1.00  0.00    -0.237 OA
ATOM     82  O   UNL A   1      33.805  36.466  28.148  1.00  0.00    -0.744 OA
ENDBRANCH  78  79
ENDBRANCH  46  71
BRANCH  58  83
ATOM     83  C   UNL A   1      39.625  34.032  37.244  1.00  0.00     0.058 A 
ATOM     84  C   UNL A   1      38.930  33.602  38.386  1.00  0.00     0.135 A 
ATOM     85  C   UNL A   1      40.116  35.347  37.229  1.00  0.00     0.135 A 
ATOM     86  F   UNL A   1      38.432  32.357  38.444  1.00  0.00    -0.206 F 
ATOM     87  C   UNL A   1      38.721  34.448  39.470  1.00  0.00     0.059 A 
ATOM     88  C   UNL A   1      39.937  36.204  38.311  1.00  0.00     0.059 A 
ATOM     89  F   UNL A   1      40.792  35.804  36.163  1.00  0.00    -0.206 F 
ATOM     90  C   UNL A   1      39.233  35.747  39.425  1.00  0.00     0.060 A 
BRANCH  90  91
ATOM     91  S   UNL A   1      38.999  36.820  40.858  1.00  0.00     0.124 S 
ATOM     92  O   UNL A   1      38.065  36.037  41.661  1.00  0.00    -0.237 OA
ATOM     93  O   UNL A   1      40.353  36.932  41.390  1.00  0.00    -0.237 OA
ATOM     94  O   UNL A   1      38.455  38.046  40.279  1.00  0.00    -0.744 OA
ENDBRANCH  90  91
ENDBRANCH  58  83
ENDBRANCH  32  33
ENDBRANCH  24  27
ENDBRANCH  22  23
ENDBRANCH  21  22
ENDBRANCH  20  21
ENDBRANCH   1  20
TORSDOF 19
ENDMDL
