MODEL 1
REMARK VINA RESULT:     -12.5      0.000      0.000
REMARK SMILES Cn1c(=O)[nH]c(=O)c2c1nc(NC1CCCC1)n2CC(=O)NCCCCNC(=O)c1ccc(-c2c3nc(c(-c4c(F)cc(S(=O)(=O)[O-])cc4F)c4ccc([nH]4)c(-c4c(F)cc(S(=O)(=O)[O-])cc4F)c4nc(c(-c5c(F)cc(S(=O)(=O)[O-])cc5F)c5ccc2[nH]5)C=C4)C=C3)cc1
REMARK SMILES IDX 24 1 23 2 22 3 20 4 21 5 19 7 18 8 1 9 2 10 3 11 9 12 4 13
REMARK SMILES IDX 5 14 8 15 10 16 6 17 11 19 7 20 12 21 13 23 14 24 17 25
REMARK SMILES IDX 15 26 16 27 25 28 26 29 27 30 28 31 29 33 30 34 31 35 95 36
REMARK SMILES IDX 32 37 94 38 33 39 34 40 35 41 88 42 36 43 93 44 87 45 89 46
REMARK SMILES IDX 37 47 92 48 86 49 85 50 38 52 72 53 51 54 71 55 52 56 55 57
REMARK SMILES IDX 70 58 90 59 53 60 54 61 69 63 91 64 56 65 39 66 40 67 49 68
REMARK SMILES IDX 41 69 42 70 48 71 50 72 43 73 44 74 45 75 46 76 47 77 73 78
REMARK SMILES IDX 74 79 83 80 75 81 76 82 82 83 84 84 77 85 78 86 79 87 80 88
REMARK SMILES IDX 81 89 57 90 58 91 67 92 59 93 60 94 66 95 68 96 61 97 62 98
REMARK SMILES IDX 63 99 64 100 65 101
REMARK H PARENT 22 6 5 18 12 22 27 32 89 51 55 62
REMARK Flexibility Score: inf
ROOT
ATOM      1  C   UNL A   1      37.777  23.275  25.767  1.00  0.00     0.023 C 
ENDROOT
BRANCH   1   2
ATOM      2  C   UNL A   1      36.323  22.805  25.623  1.00  0.00     0.116 C 
BRANCH   2   3
ATOM      3  N   UNL A   1      35.897  22.777  24.237  1.00  0.00    -0.355 N 
ATOM      4  C   UNL A   1      35.052  23.632  23.587  1.00  0.00     0.240 C 
ATOM      5  O   UNL A   1      34.679  23.345  22.446  1.00  0.00    -0.273 OA
ATOM      6  H   UNL A   1      36.265  22.044  23.692  1.00  0.00     0.163 HD
BRANCH   4   7
ATOM      7  C   UNL A   1      34.583  24.910  24.252  1.00  0.00     0.226 C 
BRANCH   7   8
ATOM      8  N   UNL A   1      33.144  25.075  24.191  1.00  0.00    -0.295 N 
ATOM      9  C   UNL A   1      28.796  26.573  23.823  1.00  0.00     0.157 C 
ATOM     10  N   UNL A   1      30.167  26.712  23.383  1.00  0.00    -0.279 N 
ATOM     11  C   UNL A   1      30.507  27.716  22.484  1.00  0.00     0.329 A 
ATOM     12  C   UNL A   1      31.157  25.862  23.830  1.00  0.00     0.170 A 
ATOM     13  O   UNL A   1      29.697  28.522  22.022  1.00  0.00    -0.248 OA
ATOM     14  N   UNL A   1      31.829  27.797  22.100  1.00  0.00    -0.272 N 
ATOM     15  C   UNL A   1      32.452  25.989  23.434  1.00  0.00     0.154 A 
ATOM     16  N   UNL A   1      30.999  24.863  24.729  1.00  0.00    -0.194 NA
ATOM     17  C   UNL A   1      32.873  26.980  22.495  1.00  0.00     0.279 A 
ATOM     18  H   UNL A   1      32.056  28.520  21.472  1.00  0.00     0.175 HD
ATOM     19  C   UNL A   1      32.210  24.398  24.960  1.00  0.00     0.206 A 
ATOM     20  O   UNL A   1      34.001  27.137  22.087  1.00  0.00    -0.267 OA
BRANCH  19  21
ATOM     21  N   UNL A   1      32.566  23.434  25.835  1.00  0.00    -0.353 N 
ATOM     22  H   UNL A   1      33.055  23.694  26.649  1.00  0.00     0.163 HD
BRANCH  21  23
ATOM     23  C   UNL A   1      32.256  22.029  25.630  1.00  0.00     0.082 C 
ATOM     24  C   UNL A   1      32.178  21.602  24.168  1.00  0.00     0.025 C 
ATOM     25  C   UNL A   1      33.275  21.081  26.257  1.00  0.00     0.025 C 
ATOM     26  C   UNL A   1      32.318  20.086  24.227  1.00  0.00     0.002 C 
ATOM     27  C   UNL A   1      33.156  19.781  25.467  1.00  0.00     0.002 C 
ENDBRANCH  21  23
ENDBRANCH  19  21
ENDBRANCH   7   8
ENDBRANCH   4   7
ENDBRANCH   2   3
ENDBRANCH   1   2
BRANCH   1  28
ATOM     28  C   UNL A   1      38.804  22.162  26.018  1.00  0.00     0.023 C 
BRANCH  28  29
ATOM     29  C   UNL A   1      39.868  22.525  27.040  1.00  0.00     0.116 C 
BRANCH  29  30
ATOM     30  N   UNL A   1      41.235  22.269  26.576  1.00  0.00    -0.352 N 
ATOM     31  C   UNL A   1      42.141  23.200  26.084  1.00  0.00     0.251 C 
ATOM     32  H   UNL A   1      41.545  21.335  26.616  1.00  0.00     0.163 HD
ATOM     33  O   UNL A   1      43.064  22.863  25.353  1.00  0.00    -0.269 OA
BRANCH  31  34
ATOM     34  C   UNL A   1      41.983  24.605  26.515  1.00  0.00     0.039 A 
ATOM     35  C   UNL A   1      41.172  25.539  25.868  1.00  0.00     0.014 A 
ATOM     36  C   UNL A   1      42.651  24.945  27.684  1.00  0.00     0.014 A 
ATOM     37  C   UNL A   1      41.073  26.821  26.420  1.00  0.00     0.010 A 
ATOM     38  C   UNL A   1      42.254  26.047  28.375  1.00  0.00     0.010 A 
ATOM     39  C   UNL A   1      41.649  27.069  27.679  1.00  0.00    -0.014 A 
BRANCH  39  40
ATOM     40  C   UNL A   1      41.480  28.306  28.433  1.00  0.00     0.031 A 
ATOM     41  C   UNL A   1      42.585  29.251  28.148  1.00  0.00     0.074 A 
ATOM     42  C   UNL A   1      40.346  28.620  29.116  1.00  0.00     0.049 A 
ATOM     43  N   UNL A   1      43.600  29.484  28.909  1.00  0.00    -0.248 NA
ATOM     44  C   UNL A   1      42.747  29.782  26.780  1.00  0.00     0.031 C 
ATOM     45  C   UNL A   1      39.095  27.859  29.251  1.00  0.00     0.029 A 
ATOM     46  N   UNL A   1      40.056  29.757  29.826  1.00  0.00    -0.354 N 
ATOM     47  C   UNL A   1      44.350  30.445  28.244  1.00  0.00     0.074 A 
ATOM     48  C   UNL A   1      43.936  30.388  26.869  1.00  0.00     0.031 C 
ATOM     49  C   UNL A   1      38.123  28.639  29.789  1.00  0.00     0.029 A 
ATOM     50  C   UNL A   1      38.701  29.908  30.187  1.00  0.00     0.049 A 
ATOM     51  H   UNL A   1      40.743  30.421  30.065  1.00  0.00     0.167 HD
ATOM     52  C   UNL A   1      45.008  31.401  28.955  1.00  0.00     0.037 A 
ATOM     53  C   UNL A   1      38.135  30.991  30.807  1.00  0.00     0.037 A 
ATOM     54  C   UNL A   1      45.066  31.032  30.351  1.00  0.00     0.049 A 
ATOM     55  C   UNL A   1      39.257  31.710  31.476  1.00  0.00     0.074 A 
ATOM     56  C   UNL A   1      45.609  29.971  31.049  1.00  0.00     0.029 A 
ATOM     57  N   UNL A   1      44.108  31.581  31.173  1.00  0.00    -0.354 N 
ATOM     58  N   UNL A   1      39.945  31.186  32.458  1.00  0.00    -0.248 NA
ATOM     59  C   UNL A   1      39.955  32.704  30.674  1.00  0.00     0.031 C 
ATOM     60  C   UNL A   1      44.632  29.642  32.035  1.00  0.00     0.029 A 
ATOM     61  C   UNL A   1      43.608  30.588  31.977  1.00  0.00     0.049 A 
ATOM     62  H   UNL A   1      43.831  32.525  31.182  1.00  0.00     0.167 HD
ATOM     63  C   UNL A   1      41.270  31.436  32.129  1.00  0.00     0.074 A 
ATOM     64  C   UNL A   1      41.209  32.389  31.016  1.00  0.00     0.031 C 
ATOM     65  C   UNL A   1      42.280  30.618  32.553  1.00  0.00     0.037 A 
BRANCH  52  66
ATOM     66  C   UNL A   1      45.209  32.828  28.503  1.00  0.00     0.058 A 
ATOM     67  C   UNL A   1      46.524  33.333  28.429  1.00  0.00     0.135 A 
ATOM     68  C   UNL A   1      44.181  33.793  28.412  1.00  0.00     0.135 A 
ATOM     69  F   UNL A   1      47.579  32.506  28.510  1.00  0.00    -0.206 F 
ATOM     70  C   UNL A   1      46.798  34.697  28.345  1.00  0.00     0.059 A 
ATOM     71  C   UNL A   1      44.433  35.154  28.280  1.00  0.00     0.059 A 
ATOM     72  F   UNL A   1      42.887  33.479  28.538  1.00  0.00    -0.206 F 
ATOM     73  C   UNL A   1      45.743  35.601  28.278  1.00  0.00     0.060 A 
BRANCH  73  74
ATOM     74  S   UNL A   1      46.100  37.364  28.221  1.00  0.00     0.124 S 
ATOM     75  O   UNL A   1      46.597  37.521  26.859  1.00  0.00    -0.237 OA
ATOM     76  O   UNL A   1      44.788  37.940  28.495  1.00  0.00    -0.237 OA
ATOM     77  O   UNL A   1      47.090  37.541  29.279  1.00  0.00    -0.744 OA
ENDBRANCH  73  74
ENDBRANCH  52  66
BRANCH  53  78
ATOM     78  C   UNL A   1      36.823  31.667  30.528  1.00  0.00     0.058 A 
ATOM     79  C   UNL A   1      35.963  32.131  31.551  1.00  0.00     0.135 A 
ATOM     80  C   UNL A   1      36.529  32.146  29.237  1.00  0.00     0.135 A 
ATOM     81  F   UNL A   1      36.171  31.761  32.825  1.00  0.00    -0.206 F 
ATOM     82  C   UNL A   1      34.905  33.031  31.310  1.00  0.00     0.059 A 
ATOM     83  C   UNL A   1      35.487  33.042  28.973  1.00  0.00     0.059 A 
ATOM     84  F   UNL A   1      37.310  31.820  28.196  1.00  0.00    -0.206 F 
ATOM     85  C   UNL A   1      34.687  33.498  30.015  1.00  0.00     0.060 A 
BRANCH  85  86
ATOM     86  S   UNL A   1      33.425  34.765  29.698  1.00  0.00     0.124 S 
ATOM     87  O   UNL A   1      32.881  34.998  31.032  1.00  0.00    -0.237 OA
ATOM     88  O   UNL A   1      34.212  35.856  29.133  1.00  0.00    -0.237 OA
ATOM     89  O   UNL A   1      32.514  34.110  28.762  1.00  0.00    -0.744 OA
ENDBRANCH  85  86
ENDBRANCH  53  78
BRANCH  65  90
ATOM     90  C   UNL A   1      41.976  29.557  33.586  1.00  0.00     0.058 A 
ATOM     91  C   UNL A   1      41.623  28.223  33.305  1.00  0.00     0.135 A 
ATOM     92  C   UNL A   1      42.245  29.872  34.926  1.00  0.00     0.135 A 
ATOM     93  F   UNL A   1      41.443  27.810  32.043  1.00  0.00    -0.206 F 
ATOM     94  C   UNL A   1      41.514  27.259  34.316  1.00  0.00     0.059 A 
ATOM     95  C   UNL A   1      42.172  28.925  35.942  1.00  0.00     0.059 A 
ATOM     96  F   UNL A   1      42.649  31.110  35.254  1.00  0.00    -0.206 F 
ATOM     97  C   UNL A   1      41.792  27.622  35.634  1.00  0.00     0.060 A 
BRANCH  97  98
ATOM     98  S   UNL A   1      41.689  26.381  36.943  1.00  0.00     0.124 S 
ATOM     99  O   UNL A   1      40.428  26.725  37.593  1.00  0.00    -0.237 OA
ATOM    100  O   UNL A   1      41.696  25.129  36.194  1.00  0.00    -0.237 OA
ATOM    101  O   UNL A   1      42.887  26.626  37.743  1.00  0.00    -0.744 OA
ENDBRANCH  97  98
ENDBRANCH  65  90
ENDBRANCH  39  40
ENDBRANCH  31  34
ENDBRANCH  29  30
ENDBRANCH  28  29
ENDBRANCH   1  28
TORSDOF 17
ENDMDL
MODEL 2
REMARK VINA RESULT:     -12.1      1.530      2.166
REMARK SMILES Cn1c(=O)[nH]c(=O)c2c1nc(NC1CCCC1)n2CC(=O)NCCCCNC(=O)c1ccc(-c2c3nc(c(-c4c(F)cc(S(=O)(=O)[O-])cc4F)c4ccc([nH]4)c(-c4c(F)cc(S(=O)(=O)[O-])cc4F)c4nc(c(-c5c(F)cc(S(=O)(=O)[O-])cc5F)c5ccc2[nH]5)C=C4)C=C3)cc1
REMARK SMILES IDX 24 1 23 2 22 3 20 4 21 5 19 7 18 8 1 9 2 10 3 11 9 12 4 13
REMARK SMILES IDX 5 14 8 15 10 16 6 17 11 19 7 20 12 21 13 23 14 24 17 25
REMARK SMILES IDX 15 26 16 27 25 28 26 29 27 30 28 31 29 33 30 34 31 35 95 36
REMARK SMILES IDX 32 37 94 38 33 39 34 40 35 41 88 42 36 43 93 44 87 45 89 46
REMARK SMILES IDX 37 47 92 48 86 49 85 50 38 52 72 53 51 54 71 55 52 56 55 57
REMARK SMILES IDX 70 58 90 59 53 60 54 61 69 63 91 64 56 65 39 66 40 67 49 68
REMARK SMILES IDX 41 69 42 70 48 71 50 72 43 73 44 74 45 75 46 76 47 77 73 78
REMARK SMILES IDX 74 79 83 80 75 81 76 82 82 83 84 84 77 85 78 86 79 87 80 88
REMARK SMILES IDX 81 89 57 90 58 91 67 92 59 93 60 94 66 95 68 96 61 97 62 98
REMARK SMILES IDX 63 99 64 100 65 101
REMARK H PARENT 22 6 5 18 12 22 27 32 89 51 55 62
REMARK Flexibility Score: inf
ROOT
ATOM      1  C   UNL A   1      36.733  22.902  23.480  1.00  0.00     0.023 C 
ENDROOT
BRANCH   1   2
ATOM      2  C   UNL A   1      35.209  23.077  23.529  1.00  0.00     0.116 C 
BRANCH   2   3
ATOM      3  N   UNL A   1      34.806  24.040  24.536  1.00  0.00    -0.355 N 
ATOM      4  C   UNL A   1      34.299  25.297  24.360  1.00  0.00     0.240 C 
ATOM      5  O   UNL A   1      34.174  26.030  25.344  1.00  0.00    -0.273 OA
ATOM      6  H   UNL A   1      34.914  23.750  25.471  1.00  0.00     0.163 HD
BRANCH   4   7
ATOM      7  C   UNL A   1      33.896  25.781  22.982  1.00  0.00     0.226 C 
BRANCH   7   8
ATOM      8  N   UNL A   1      32.494  26.140  22.904  1.00  0.00    -0.295 N 
ATOM      9  C   UNL A   1      28.296  28.007  23.315  1.00  0.00     0.157 C 
ATOM     10  N   UNL A   1      29.725  28.230  23.299  1.00  0.00    -0.279 N 
ATOM     11  C   UNL A   1      30.229  29.504  23.536  1.00  0.00     0.329 A 
ATOM     12  C   UNL A   1      30.611  27.204  23.048  1.00  0.00     0.170 A 
ATOM     13  O   UNL A   1      29.521  30.486  23.765  1.00  0.00    -0.248 OA
ATOM     14  N   UNL A   1      31.600  29.654  23.505  1.00  0.00    -0.272 N 
ATOM     15  C   UNL A   1      31.957  27.397  23.042  1.00  0.00     0.154 A 
ATOM     16  N   UNL A   1      30.286  25.907  22.837  1.00  0.00    -0.194 NA
ATOM     17  C   UNL A   1      32.549  28.681  23.252  1.00  0.00     0.279 A 
ATOM     18  H   UNL A   1      31.941  30.559  23.685  1.00  0.00     0.175 HD
ATOM     19  C   UNL A   1      31.431  25.260  22.767  1.00  0.00     0.206 A 
ATOM     20  O   UNL A   1      33.733  28.926  23.243  1.00  0.00    -0.267 OA
BRANCH  19  21
ATOM     21  N   UNL A   1      31.615  23.931  22.627  1.00  0.00    -0.353 N 
ATOM     22  H   UNL A   1      32.000  23.595  21.785  1.00  0.00     0.163 HD
BRANCH  21  23
ATOM     23  C   UNL A   1      31.273  22.973  23.665  1.00  0.00     0.082 C 
ATOM     24  C   UNL A   1      32.201  21.765  23.745  1.00  0.00     0.025 C 
ATOM     25  C   UNL A   1      31.286  23.565  25.071  1.00  0.00     0.025 C 
ATOM     26  C   UNL A   1      31.937  21.199  25.134  1.00  0.00     0.002 C 
ATOM     27  C   UNL A   1      31.516  22.381  26.006  1.00  0.00     0.002 C 
ENDBRANCH  21  23
ENDBRANCH  19  21
ENDBRANCH   7   8
ENDBRANCH   4   7
ENDBRANCH   2   3
ENDBRANCH   1   2
BRANCH   1  28
ATOM     28  C   UNL A   1      37.327  22.006  24.577  1.00  0.00     0.023 C 
BRANCH  28  29
ATOM     29  C   UNL A   1      37.991  22.774  25.707  1.00  0.00     0.116 C 
BRANCH  29  30
ATOM     30  N   UNL A   1      39.066  22.026  26.367  1.00  0.00    -0.352 N 
ATOM     31  C   UNL A   1      40.231  22.545  26.917  1.00  0.00     0.251 C 
ATOM     32  H   UNL A   1      38.950  21.050  26.426  1.00  0.00     0.163 HD
ATOM     33  O   UNL A   1      41.229  21.850  27.062  1.00  0.00    -0.269 OA
BRANCH  31  34
ATOM     34  C   UNL A   1      40.209  23.951  27.372  1.00  0.00     0.039 A 
ATOM     35  C   UNL A   1      39.048  24.718  27.497  1.00  0.00     0.014 A 
ATOM     36  C   UNL A   1      41.439  24.471  27.753  1.00  0.00     0.014 A 
ATOM     37  C   UNL A   1      39.170  26.020  27.995  1.00  0.00     0.010 A 
ATOM     38  C   UNL A   1      41.472  25.570  28.553  1.00  0.00     0.010 A 
ATOM     39  C   UNL A   1      40.411  26.446  28.502  1.00  0.00    -0.014 A 
BRANCH  39  40
ATOM     40  C   UNL A   1      40.629  27.712  29.192  1.00  0.00     0.031 A 
ATOM     41  C   UNL A   1      41.691  28.499  28.523  1.00  0.00     0.074 A 
ATOM     42  C   UNL A   1      39.809  28.187  30.168  1.00  0.00     0.049 A 
ATOM     43  N   UNL A   1      42.913  28.617  28.921  1.00  0.00    -0.248 NA
ATOM     44  C   UNL A   1      41.480  28.971  27.140  1.00  0.00     0.031 C 
ATOM     45  C   UNL A   1      38.582  27.597  30.727  1.00  0.00     0.029 A 
ATOM     46  N   UNL A   1      39.887  29.368  30.859  1.00  0.00    -0.354 N 
ATOM     47  C   UNL A   1      43.524  29.457  27.999  1.00  0.00     0.074 A 
ATOM     48  C   UNL A   1      42.699  29.420  26.824  1.00  0.00     0.031 C 
ATOM     49  C   UNL A   1      37.923  28.508  31.486  1.00  0.00     0.029 A 
ATOM     50  C   UNL A   1      38.739  29.701  31.607  1.00  0.00     0.049 A 
ATOM     51  H   UNL A   1      40.686  29.943  30.834  1.00  0.00     0.167 HD
ATOM     52  C   UNL A   1      44.477  30.337  28.413  1.00  0.00     0.037 A 
ATOM     53  C   UNL A   1      38.523  30.863  32.300  1.00  0.00     0.037 A 
ATOM     54  C   UNL A   1      44.923  29.998  29.745  1.00  0.00     0.049 A 
ATOM     55  C   UNL A   1      39.873  31.447  32.547  1.00  0.00     0.074 A 
ATOM     56  C   UNL A   1      45.530  28.893  30.309  1.00  0.00     0.029 A 
ATOM     57  N   UNL A   1      44.339  30.685  30.784  1.00  0.00    -0.354 N 
ATOM     58  N   UNL A   1      40.767  30.863  33.303  1.00  0.00    -0.248 NA
ATOM     59  C   UNL A   1      40.396  32.323  31.509  1.00  0.00     0.031 C 
ATOM     60  C   UNL A   1      44.879  28.717  31.565  1.00  0.00     0.029 A 
ATOM     61  C   UNL A   1      44.004  29.785  31.763  1.00  0.00     0.049 A 
ATOM     62  H   UNL A   1      44.189  31.657  30.817  1.00  0.00     0.167 HD
ATOM     63  C   UNL A   1      41.943  30.932  32.570  1.00  0.00     0.074 A 
ATOM     64  C   UNL A   1      41.649  31.857  31.470  1.00  0.00     0.031 C 
ATOM     65  C   UNL A   1      42.934  30.000  32.714  1.00  0.00     0.037 A 
BRANCH  52  66
ATOM     66  C   UNL A   1      44.690  31.714  27.831  1.00  0.00     0.058 A 
ATOM     67  C   UNL A   1      45.906  31.987  27.170  1.00  0.00     0.135 A 
ATOM     68  C   UNL A   1      43.895  32.843  28.132  1.00  0.00     0.135 A 
ATOM     69  F   UNL A   1      46.742  30.989  26.841  1.00  0.00    -0.206 F 
ATOM     70  C   UNL A   1      46.332  33.284  26.893  1.00  0.00     0.059 A 
ATOM     71  C   UNL A   1      44.281  34.142  27.821  1.00  0.00     0.059 A 
ATOM     72  F   UNL A   1      42.751  32.756  28.820  1.00  0.00    -0.206 F 
ATOM     73  C   UNL A   1      45.514  34.357  27.229  1.00  0.00     0.060 A 
BRANCH  73  74
ATOM     74  S   UNL A   1      46.092  36.033  26.917  1.00  0.00     0.124 S 
ATOM     75  O   UNL A   1      47.016  36.238  28.026  1.00  0.00    -0.237 OA
ATOM     76  O   UNL A   1      46.697  35.895  25.597  1.00  0.00    -0.237 OA
ATOM     77  O   UNL A   1      44.867  36.825  26.960  1.00  0.00    -0.744 OA
ENDBRANCH  73  74
ENDBRANCH  52  66
BRANCH  53  78
ATOM     78  C   UNL A   1      37.276  31.697  32.394  1.00  0.00     0.058 A 
ATOM     79  C   UNL A   1      36.866  32.338  33.587  1.00  0.00     0.135 A 
ATOM     80  C   UNL A   1      36.621  32.130  31.227  1.00  0.00     0.135 A 
ATOM     81  F   UNL A   1      37.449  32.022  34.755  1.00  0.00    -0.206 F 
ATOM     82  C   UNL A   1      35.895  33.359  33.611  1.00  0.00     0.059 A 
ATOM     83  C   UNL A   1      35.656  33.144  31.224  1.00  0.00     0.059 A 
ATOM     84  F   UNL A   1      36.966  31.635  30.029  1.00  0.00    -0.206 F 
ATOM     85  C   UNL A   1      35.308  33.771  32.416  1.00  0.00     0.060 A 
BRANCH  85  86
ATOM     86  S   UNL A   1      34.160  35.178  32.395  1.00  0.00     0.124 S 
ATOM     87  O   UNL A   1      32.946  34.592  32.954  1.00  0.00    -0.237 OA
ATOM     88  O   UNL A   1      34.844  36.151  33.240  1.00  0.00    -0.237 OA
ATOM     89  O   UNL A   1      34.083  35.533  30.980  1.00  0.00    -0.744 OA
ENDBRANCH  85  86
ENDBRANCH  53  78
BRANCH  65  90
ATOM     90  C   UNL A   1      42.847  29.013  33.856  1.00  0.00     0.058 A 
ATOM     91  C   UNL A   1      43.199  29.281  35.193  1.00  0.00     0.135 A 
ATOM     92  C   UNL A   1      42.194  27.798  33.605  1.00  0.00     0.135 A 
ATOM     93  F   UNL A   1      43.739  30.457  35.540  1.00  0.00    -0.206 F 
ATOM     94  C   UNL A   1      42.939  28.368  36.223  1.00  0.00     0.059 A 
ATOM     95  C   UNL A   1      41.898  26.890  34.616  1.00  0.00     0.059 A 
ATOM     96  F   UNL A   1      41.774  27.509  32.363  1.00  0.00    -0.206 F 
ATOM     97  C   UNL A   1      42.286  27.173  35.922  1.00  0.00     0.060 A 
BRANCH  97  98
ATOM     98  S   UNL A   1      41.914  26.000  37.246  1.00  0.00     0.124 S 
ATOM     99  O   UNL A   1      42.124  24.715  36.586  1.00  0.00    -0.237 OA
ATOM    100  O   UNL A   1      42.892  26.355  38.268  1.00  0.00    -0.237 OA
ATOM    101  O   UNL A   1      40.526  26.302  37.591  1.00  0.00    -0.744 OA
ENDBRANCH  97  98
ENDBRANCH  65  90
ENDBRANCH  39  40
ENDBRANCH  31  34
ENDBRANCH  29  30
ENDBRANCH  28  29
ENDBRANCH   1  28
TORSDOF 17
ENDMDL
MODEL 3
REMARK VINA RESULT:     -12.1      1.320      2.040
REMARK SMILES Cn1c(=O)[nH]c(=O)c2c1nc(NC1CCCC1)n2CC(=O)NCCCCNC(=O)c1ccc(-c2c3nc(c(-c4c(F)cc(S(=O)(=O)[O-])cc4F)c4ccc([nH]4)c(-c4c(F)cc(S(=O)(=O)[O-])cc4F)c4nc(c(-c5c(F)cc(S(=O)(=O)[O-])cc5F)c5ccc2[nH]5)C=C4)C=C3)cc1
REMARK SMILES IDX 24 1 23 2 22 3 20 4 21 5 19 7 18 8 1 9 2 10 3 11 9 12 4 13
REMARK SMILES IDX 5 14 8 15 10 16 6 17 11 19 7 20 12 21 13 23 14 24 17 25
REMARK SMILES IDX 15 26 16 27 25 28 26 29 27 30 28 31 29 33 30 34 31 35 95 36
REMARK SMILES IDX 32 37 94 38 33 39 34 40 35 41 88 42 36 43 93 44 87 45 89 46
REMARK SMILES IDX 37 47 92 48 86 49 85 50 38 52 72 53 51 54 71 55 52 56 55 57
REMARK SMILES IDX 70 58 90 59 53 60 54 61 69 63 91 64 56 65 39 66 40 67 49 68
REMARK SMILES IDX 41 69 42 70 48 71 50 72 43 73 44 74 45 75 46 76 47 77 73 78
REMARK SMILES IDX 74 79 83 80 75 81 76 82 82 83 84 84 77 85 78 86 79 87 80 88
REMARK SMILES IDX 81 89 57 90 58 91 67 92 59 93 60 94 66 95 68 96 61 97 62 98
REMARK SMILES IDX 63 99 64 100 65 101
REMARK H PARENT 22 6 5 18 12 22 27 32 89 51 55 62
REMARK Flexibility Score: inf
ROOT
ATOM      1  C   UNL A   1      39.219  22.547  26.628  1.00  0.00     0.023 C 
ENDROOT
BRANCH   1   2
ATOM      2  C   UNL A   1      37.966  22.830  25.788  1.00  0.00     0.116 C 
BRANCH   2   3
ATOM      3  N   UNL A   1      37.415  21.619  25.212  1.00  0.00    -0.355 N 
ATOM      4  C   UNL A   1      36.201  21.037  25.449  1.00  0.00     0.240 C 
ATOM      5  O   UNL A   1      35.980  19.914  24.988  1.00  0.00    -0.273 OA
ATOM      6  H   UNL A   1      37.992  21.152  24.565  1.00  0.00     0.163 HD
BRANCH   4   7
ATOM      7  C   UNL A   1      35.144  21.757  26.261  1.00  0.00     0.226 C 
BRANCH   7   8
ATOM      8  N   UNL A   1      33.975  22.103  25.477  1.00  0.00    -0.295 N 
ATOM      9  C   UNL A   1      30.416  24.130  23.355  1.00  0.00     0.157 C 
ATOM     10  N   UNL A   1      31.769  24.265  23.850  1.00  0.00    -0.279 N 
ATOM     11  C   UNL A   1      32.418  25.491  23.764  1.00  0.00     0.329 A 
ATOM     12  C   UNL A   1      32.442  23.198  24.404  1.00  0.00     0.170 A 
ATOM     13  O   UNL A   1      31.905  26.502  23.281  1.00  0.00    -0.248 OA
ATOM     14  N   UNL A   1      33.707  25.557  24.250  1.00  0.00    -0.272 N 
ATOM     15  C   UNL A   1      33.710  23.313  24.885  1.00  0.00     0.154 A 
ATOM     16  N   UNL A   1      31.943  21.954  24.594  1.00  0.00    -0.194 NA
ATOM     17  C   UNL A   1      34.450  24.533  24.810  1.00  0.00     0.279 A 
ATOM     18  H   UNL A   1      34.149  26.434  24.193  1.00  0.00     0.175 HD
ATOM     19  C   UNL A   1      32.868  21.296  25.261  1.00  0.00     0.206 A 
ATOM     20  O   UNL A   1      35.582  24.701  25.200  1.00  0.00    -0.267 OA
BRANCH  19  21
ATOM     21  N   UNL A   1      32.799  20.034  25.733  1.00  0.00    -0.353 N 
ATOM     22  H   UNL A   1      32.977  19.878  26.689  1.00  0.00     0.163 HD
BRANCH  21  23
ATOM     23  C   UNL A   1      32.469  18.894  24.893  1.00  0.00     0.082 C 
ATOM     24  C   UNL A   1      32.874  19.045  23.431  1.00  0.00     0.025 C 
ATOM     25  C   UNL A   1      33.125  17.593  25.346  1.00  0.00     0.025 C 
ATOM     26  C   UNL A   1      32.863  17.615  22.905  1.00  0.00     0.002 C 
ATOM     27  C   UNL A   1      33.186  16.717  24.097  1.00  0.00     0.002 C 
ENDBRANCH  21  23
ENDBRANCH  19  21
ENDBRANCH   7   8
ENDBRANCH   4   7
ENDBRANCH   2   3
ENDBRANCH   1   2
BRANCH   1  28
ATOM     28  C   UNL A   1      40.031  21.315  26.202  1.00  0.00     0.023 C 
BRANCH  28  29
ATOM     29  C   UNL A   1      41.448  21.292  26.748  1.00  0.00     0.116 C 
BRANCH  29  30
ATOM     30  N   UNL A   1      42.463  21.659  25.755  1.00  0.00    -0.352 N 
ATOM     31  C   UNL A   1      42.834  22.941  25.371  1.00  0.00     0.251 C 
ATOM     32  H   UNL A   1      42.931  20.915  25.311  1.00  0.00     0.163 HD
ATOM     33  O   UNL A   1      43.357  23.152  24.284  1.00  0.00    -0.269 OA
BRANCH  31  34
ATOM     34  C   UNL A   1      42.625  24.036  26.341  1.00  0.00     0.039 A 
ATOM     35  C   UNL A   1      43.299  24.144  27.560  1.00  0.00     0.014 A 
ATOM     36  C   UNL A   1      41.746  25.030  25.934  1.00  0.00     0.014 A 
ATOM     37  C   UNL A   1      43.043  25.266  28.357  1.00  0.00     0.010 A 
ATOM     38  C   UNL A   1      41.799  26.247  26.538  1.00  0.00     0.010 A 
ATOM     39  C   UNL A   1      42.260  26.311  27.834  1.00  0.00    -0.014 A 
BRANCH  39  40
ATOM     40  C   UNL A   1      42.054  27.596  28.493  1.00  0.00     0.031 A 
ATOM     41  C   UNL A   1      43.169  28.525  28.195  1.00  0.00     0.074 A 
ATOM     42  C   UNL A   1      40.890  27.950  29.101  1.00  0.00     0.049 A 
ATOM     43  N   UNL A   1      44.148  28.814  28.983  1.00  0.00    -0.248 NA
ATOM     44  C   UNL A   1      43.393  28.963  26.803  1.00  0.00     0.031 C 
ATOM     45  C   UNL A   1      39.635  27.193  29.231  1.00  0.00     0.029 A 
ATOM     46  N   UNL A   1      40.565  29.131  29.719  1.00  0.00    -0.354 N 
ATOM     47  C   UNL A   1      44.925  29.732  28.290  1.00  0.00     0.074 A 
ATOM     48  C   UNL A   1      44.575  29.579  26.905  1.00  0.00     0.031 C 
ATOM     49  C   UNL A   1      38.638  28.002  29.670  1.00  0.00     0.029 A 
ATOM     50  C   UNL A   1      39.195  29.299  30.007  1.00  0.00     0.049 A 
ATOM     51  H   UNL A   1      41.239  29.812  29.943  1.00  0.00     0.167 HD
ATOM     52  C   UNL A   1      45.549  30.737  28.963  1.00  0.00     0.037 A 
ATOM     53  C   UNL A   1      38.600  30.418  30.525  1.00  0.00     0.037 A 
ATOM     54  C   UNL A   1      45.543  30.465  30.382  1.00  0.00     0.049 A 
ATOM     55  C   UNL A   1      39.688  31.187  31.194  1.00  0.00     0.074 A 
ATOM     56  C   UNL A   1      46.056  29.456  31.175  1.00  0.00     0.029 A 
ATOM     57  N   UNL A   1      44.548  31.062  31.121  1.00  0.00    -0.354 N 
ATOM     58  N   UNL A   1      40.332  30.735  32.239  1.00  0.00    -0.248 NA
ATOM     59  C   UNL A   1      40.420  32.128  30.358  1.00  0.00     0.031 C 
ATOM     60  C   UNL A   1      45.036  29.190  32.136  1.00  0.00     0.029 A 
ATOM     61  C   UNL A   1      44.014  30.124  31.967  1.00  0.00     0.049 A 
ATOM     62  H   UNL A   1      44.269  32.004  31.052  1.00  0.00     0.167 HD
ATOM     63  C   UNL A   1      41.669  30.969  31.955  1.00  0.00     0.074 A 
ATOM     64  C   UNL A   1      41.658  31.843  30.777  1.00  0.00     0.031 C 
ATOM     65  C   UNL A   1      42.661  30.186  32.478  1.00  0.00     0.037 A 
BRANCH  52  66
ATOM     66  C   UNL A   1      45.767  32.131  28.424  1.00  0.00     0.058 A 
ATOM     67  C   UNL A   1      47.068  32.675  28.467  1.00  0.00     0.135 A 
ATOM     68  C   UNL A   1      44.734  33.050  28.134  1.00  0.00     0.135 A 
ATOM     69  F   UNL A   1      48.126  31.893  28.739  1.00  0.00    -0.206 F 
ATOM     70  C   UNL A   1      47.316  34.036  28.306  1.00  0.00     0.059 A 
ATOM     71  C   UNL A   1      44.965  34.404  27.923  1.00  0.00     0.059 A 
ATOM     72  F   UNL A   1      43.442  32.702  28.131  1.00  0.00    -0.206 F 
ATOM     73  C   UNL A   1      46.254  34.896  28.041  1.00  0.00     0.060 A 
BRANCH  73  74
ATOM     74  S   UNL A   1      46.572  36.660  27.885  1.00  0.00     0.124 S 
ATOM     75  O   UNL A   1      45.699  37.209  28.916  1.00  0.00    -0.237 OA
ATOM     76  O   UNL A   1      48.003  36.727  28.156  1.00  0.00    -0.237 OA
ATOM     77  O   UNL A   1      46.185  36.952  26.508  1.00  0.00    -0.744 OA
ENDBRANCH  73  74
ENDBRANCH  52  66
BRANCH  53  78
ATOM     78  C   UNL A   1      37.299  31.068  30.141  1.00  0.00     0.058 A 
ATOM     79  C   UNL A   1      36.465  31.728  31.073  1.00  0.00     0.135 A 
ATOM     80  C   UNL A   1      37.000  31.315  28.789  1.00  0.00     0.135 A 
ATOM     81  F   UNL A   1      36.682  31.587  32.391  1.00  0.00    -0.206 F 
ATOM     82  C   UNL A   1      35.425  32.598  30.685  1.00  0.00     0.059 A 
ATOM     83  C   UNL A   1      35.976  32.176  28.378  1.00  0.00     0.059 A 
ATOM     84  F   UNL A   1      37.759  30.789  27.816  1.00  0.00    -0.206 F 
ATOM     85  C   UNL A   1      35.201  32.832  29.329  1.00  0.00     0.060 A 
BRANCH  85  86
ATOM     86  S   UNL A   1      33.965  34.053  28.802  1.00  0.00     0.124 S 
ATOM     87  O   UNL A   1      34.796  35.092  28.201  1.00  0.00    -0.237 OA
ATOM     88  O   UNL A   1      33.141  33.284  27.875  1.00  0.00    -0.237 OA
ATOM     89  O   UNL A   1      33.306  34.431  30.050  1.00  0.00    -0.744 OA
ENDBRANCH  85  86
ENDBRANCH  53  78
BRANCH  65  90
ATOM     90  C   UNL A   1      42.313  29.197  33.567  1.00  0.00     0.058 A 
ATOM     91  C   UNL A   1      41.951  27.851  33.360  1.00  0.00     0.135 A 
ATOM     92  C   UNL A   1      42.545  29.593  34.892  1.00  0.00     0.135 A 
ATOM     93  F   UNL A   1      41.804  27.361  32.122  1.00  0.00    -0.206 F 
ATOM     94  C   UNL A   1      41.800  26.954  34.426  1.00  0.00     0.059 A 
ATOM     95  C   UNL A   1      42.430  28.714  35.963  1.00  0.00     0.059 A 
ATOM     96  F   UNL A   1      42.954  30.845  35.153  1.00  0.00    -0.206 F 
ATOM     97  C   UNL A   1      42.042  27.398  35.726  1.00  0.00     0.060 A 
BRANCH  97  98
ATOM     98  S   UNL A   1      41.883  26.243  37.107  1.00  0.00     0.124 S 
ATOM     99  O   UNL A   1      42.001  24.950  36.442  1.00  0.00    -0.237 OA
ATOM    100  O   UNL A   1      43.002  26.619  37.965  1.00  0.00    -0.237 OA
ATOM    101  O   UNL A   1      40.561  26.542  37.653  1.00  0.00    -0.744 OA
ENDBRANCH  97  98
ENDBRANCH  65  90
ENDBRANCH  39  40
ENDBRANCH  31  34
ENDBRANCH  29  30
ENDBRANCH  28  29
ENDBRANCH   1  28
TORSDOF 17
ENDMDL
