MODEL 1
REMARK VINA RESULT:     -11.5      0.000      0.000
REMARK SMILES N#Cc1ccc(C[N@H+]2CCCC[C@H]2C(=O)NCCCCNC(=O)c2ccc(-c3c4nc(c(-c5c(F)cc(S(=O)(=O)[O-])cc5F)c5ccc([nH]5)c(-c5c(F)cc(S(=O)(=O)[O-])cc5F)c5nc(c(-c6c(F)cc(S(=O)(=O)[O-])cc6F)c6ccc3[nH]6)C=C5)C=C4)cc2)c(F)c1
REMARK SMILES IDX 18 1 17 2 16 3 14 4 15 5 13 7 8 8 9 9 10 11 12 12 11 13 7 14
REMARK SMILES IDX 6 15 3 16 4 17 92 18 5 19 90 20 91 21 2 22 1 23 19 24 20 25
REMARK SMILES IDX 21 26 22 27 23 29 24 30 25 31 89 32 26 33 88 34 27 35 28 36
REMARK SMILES IDX 29 37 82 38 30 39 87 40 81 41 83 42 31 43 86 44 80 45 79 46
REMARK SMILES IDX 32 48 66 49 45 50 65 51 46 52 49 53 64 54 84 55 47 56 48 57
REMARK SMILES IDX 63 59 85 60 50 61 33 62 34 63 43 64 35 65 36 66 42 67 44 68
REMARK SMILES IDX 37 69 38 70 39 71 40 72 41 73 67 74 68 75 77 76 69 77 70 78
REMARK SMILES IDX 76 79 78 80 71 81 72 82 73 83 74 84 75 85 51 86 52 87 61 88
REMARK SMILES IDX 53 89 54 90 60 91 62 92 55 93 56 94 57 95 58 96 59 97
REMARK H PARENT 16 6 8 10 21 28 83 47 49 58
REMARK Flexibility Score: inf
ROOT
ATOM      1  C   UNL A   1      34.838  22.396  24.701  1.00  0.00     0.023 C 
ENDROOT
BRANCH   1   2
ATOM      2  C   UNL A   1      33.998  23.226  23.727  1.00  0.00     0.116 C 
BRANCH   2   3
ATOM      3  N   UNL A   1      32.643  23.308  24.224  1.00  0.00    -0.351 N 
ATOM      4  C   UNL A   1      31.943  24.411  24.608  1.00  0.00     0.278 C 
ATOM      5  O   UNL A   1      31.038  24.220  25.424  1.00  0.00    -0.268 OA
ATOM      6  H   UNL A   1      32.162  22.452  24.293  1.00  0.00     0.163 HD
BRANCH   4   7
ATOM      7  C   UNL A   1      32.291  25.790  23.986  1.00  0.00     0.274 C 
ATOM      8  N   UNL A   1      31.324  26.868  24.318  1.00  0.00    -0.321 N 
ATOM      9  C   UNL A   1      31.268  27.194  25.744  1.00  0.00     0.263 C 
ATOM     10  H   UNL A   1      31.732  27.698  23.887  1.00  0.00     0.349 HD
ATOM     11  C   UNL A   1      32.658  27.503  26.325  1.00  0.00     0.062 C 
ATOM     12  C   UNL A   1      33.690  26.230  24.432  1.00  0.00     0.076 C 
ATOM     13  C   UNL A   1      33.730  26.492  25.931  1.00  0.00     0.012 C 
BRANCH   8  14
ATOM     14  C   UNL A   1      30.019  26.798  23.633  1.00  0.00     0.302 C 
BRANCH  14  15
ATOM     15  C   UNL A   1      29.506  28.054  22.970  1.00  0.00     0.042 A 
ATOM     16  C   UNL A   1      28.610  30.582  22.133  1.00  0.00     0.055 A 
ATOM     17  C   UNL A   1      29.918  30.171  21.854  1.00  0.00     0.020 A 
ATOM     18  C   UNL A   1      27.718  29.695  22.735  1.00  0.00     0.059 A 
ATOM     19  C   UNL A   1      30.366  28.914  22.276  1.00  0.00     0.014 A 
ATOM     20  C   UNL A   1      28.165  28.432  23.115  1.00  0.00     0.133 A 
ATOM     21  F   UNL A   1      27.303  27.608  23.729  1.00  0.00    -0.206 F 
BRANCH  16  22
ATOM     22  C   UNL A   1      28.199  31.925  21.844  1.00  0.00     0.099 C 
ATOM     23  N   UNL A   1      27.858  33.005  21.603  1.00  0.00    -0.192 NA
ENDBRANCH  16  22
ENDBRANCH  14  15
ENDBRANCH   8  14
ENDBRANCH   4   7
ENDBRANCH   2   3
ENDBRANCH   1   2
BRANCH   1  24
ATOM     24  C   UNL A   1      35.652  23.239  25.693  1.00  0.00     0.023 C 
BRANCH  24  25
ATOM     25  C   UNL A   1      37.001  23.711  25.163  1.00  0.00     0.116 C 
BRANCH  25  26
ATOM     26  N   UNL A   1      38.065  22.772  25.482  1.00  0.00    -0.352 N 
ATOM     27  C   UNL A   1      39.249  23.007  26.137  1.00  0.00     0.251 C 
ATOM     28  H   UNL A   1      37.915  21.843  25.192  1.00  0.00     0.163 HD
ATOM     29  O   UNL A   1      40.131  22.155  26.138  1.00  0.00    -0.269 OA
BRANCH  27  30
ATOM     30  C   UNL A   1      39.457  24.305  26.812  1.00  0.00     0.039 A 
ATOM     31  C   UNL A   1      38.924  24.499  28.088  1.00  0.00     0.014 A 
ATOM     32  C   UNL A   1      40.212  25.310  26.200  1.00  0.00     0.014 A 
ATOM     33  C   UNL A   1      39.215  25.674  28.782  1.00  0.00     0.010 A 
ATOM     34  C   UNL A   1      40.564  26.445  26.924  1.00  0.00     0.010 A 
ATOM     35  C   UNL A   1      40.078  26.634  28.227  1.00  0.00    -0.014 A 
BRANCH  35  36
ATOM     36  C   UNL A   1      40.520  27.819  29.007  1.00  0.00     0.031 A 
ATOM     37  C   UNL A   1      41.832  27.802  29.741  1.00  0.00     0.074 A 
ATOM     38  C   UNL A   1      39.697  28.883  29.117  1.00  0.00     0.049 A 
ATOM     39  N   UNL A   1      42.341  28.702  30.541  1.00  0.00    -0.248 NA
ATOM     40  C   UNL A   1      42.674  26.607  29.568  1.00  0.00     0.031 C 
ATOM     41  C   UNL A   1      38.383  29.003  28.480  1.00  0.00     0.029 A 
ATOM     42  N   UNL A   1      39.834  30.059  29.813  1.00  0.00    -0.354 N 
ATOM     43  C   UNL A   1      43.553  28.181  30.978  1.00  0.00     0.074 A 
ATOM     44  C   UNL A   1      43.682  26.864  30.390  1.00  0.00     0.031 C 
ATOM     45  C   UNL A   1      37.844  30.189  28.801  1.00  0.00     0.029 A 
ATOM     46  C   UNL A   1      38.744  30.893  29.709  1.00  0.00     0.049 A 
ATOM     47  H   UNL A   1      40.636  30.284  30.338  1.00  0.00     0.167 HD
ATOM     48  C   UNL A   1      44.481  28.756  31.780  1.00  0.00     0.037 A 
ATOM     49  C   UNL A   1      38.485  32.077  30.297  1.00  0.00     0.037 A 
ATOM     50  C   UNL A   1      44.343  30.069  32.354  1.00  0.00     0.049 A 
ATOM     51  C   UNL A   1      39.510  32.673  31.225  1.00  0.00     0.074 A 
ATOM     52  C   UNL A   1      45.253  30.763  33.133  1.00  0.00     0.029 A 
ATOM     53  N   UNL A   1      43.224  30.881  32.230  1.00  0.00    -0.354 N 
ATOM     54  N   UNL A   1      40.689  32.203  31.561  1.00  0.00    -0.248 NA
ATOM     55  C   UNL A   1      39.174  33.957  31.856  1.00  0.00     0.031 C 
ATOM     56  C   UNL A   1      44.656  31.960  33.539  1.00  0.00     0.029 A 
ATOM     57  C   UNL A   1      43.403  32.049  32.954  1.00  0.00     0.049 A 
ATOM     58  H   UNL A   1      42.422  30.659  31.705  1.00  0.00     0.167 HD
ATOM     59  C   UNL A   1      41.242  33.143  32.423  1.00  0.00     0.074 A 
ATOM     60  C   UNL A   1      40.279  34.217  32.543  1.00  0.00     0.031 C 
ATOM     61  C   UNL A   1      42.438  33.116  33.061  1.00  0.00     0.037 A 
BRANCH  48  62
ATOM     62  C   UNL A   1      45.725  27.967  32.097  1.00  0.00     0.058 A 
ATOM     63  C   UNL A   1      46.892  28.079  31.325  1.00  0.00     0.135 A 
ATOM     64  C   UNL A   1      45.768  27.129  33.225  1.00  0.00     0.135 A 
ATOM     65  F   UNL A   1      46.906  28.855  30.229  1.00  0.00    -0.206 F 
ATOM     66  C   UNL A   1      48.045  27.368  31.640  1.00  0.00     0.059 A 
ATOM     67  C   UNL A   1      46.920  26.436  33.579  1.00  0.00     0.059 A 
ATOM     68  F   UNL A   1      44.682  26.984  34.001  1.00  0.00    -0.206 F 
ATOM     69  C   UNL A   1      48.051  26.551  32.772  1.00  0.00     0.060 A 
BRANCH  69  70
ATOM     70  S   UNL A   1      49.561  25.648  33.171  1.00  0.00     0.124 S 
ATOM     71  O   UNL A   1      49.765  24.868  31.954  1.00  0.00    -0.237 OA
ATOM     72  O   UNL A   1      50.517  26.727  33.399  1.00  0.00    -0.237 OA
ATOM     73  O   UNL A   1      49.197  24.876  34.355  1.00  0.00    -0.744 OA
ENDBRANCH  69  70
ENDBRANCH  48  62
BRANCH  49  74
ATOM     74  C   UNL A   1      37.197  32.776  30.031  1.00  0.00     0.058 A 
ATOM     75  C   UNL A   1      37.096  33.752  29.029  1.00  0.00     0.135 A 
ATOM     76  C   UNL A   1      36.039  32.480  30.770  1.00  0.00     0.135 A 
ATOM     77  F   UNL A   1      38.174  34.080  28.301  1.00  0.00    -0.206 F 
ATOM     78  C   UNL A   1      35.901  34.418  28.777  1.00  0.00     0.059 A 
ATOM     79  C   UNL A   1      34.825  33.109  30.515  1.00  0.00     0.059 A 
ATOM     80  F   UNL A   1      36.076  31.545  31.733  1.00  0.00    -0.206 F 
ATOM     81  C   UNL A   1      34.769  34.085  29.522  1.00  0.00     0.060 A 
BRANCH  81  82
ATOM     82  S   UNL A   1      33.213  34.923  29.150  1.00  0.00     0.124 S 
ATOM     83  O   UNL A   1      32.635  34.040  28.143  1.00  0.00    -0.237 OA
ATOM     84  O   UNL A   1      32.552  34.927  30.451  1.00  0.00    -0.237 OA
ATOM     85  O   UNL A   1      33.643  36.233  28.668  1.00  0.00    -0.744 OA
ENDBRANCH  81  82
ENDBRANCH  49  74
BRANCH  61  86
ATOM     86  C   UNL A   1      42.795  34.290  33.933  1.00  0.00     0.058 A 
ATOM     87  C   UNL A   1      42.607  34.263  35.323  1.00  0.00     0.135 A 
ATOM     88  C   UNL A   1      43.418  35.422  33.380  1.00  0.00     0.135 A 
ATOM     89  F   UNL A   1      42.005  33.212  35.903  1.00  0.00    -0.206 F 
ATOM     90  C   UNL A   1      43.015  35.317  36.133  1.00  0.00     0.059 A 
ATOM     91  C   UNL A   1      43.865  36.473  34.175  1.00  0.00     0.059 A 
ATOM     92  F   UNL A   1      43.630  35.500  32.056  1.00  0.00    -0.206 F 
ATOM     93  C   UNL A   1      43.656  36.412  35.551  1.00  0.00     0.060 A 
BRANCH  93  94
ATOM     94  S   UNL A   1      44.247  37.737  36.626  1.00  0.00     0.124 S 
ATOM     95  O   UNL A   1      44.156  38.896  35.746  1.00  0.00    -0.237 OA
ATOM     96  O   UNL A   1      43.286  37.696  37.723  1.00  0.00    -0.237 OA
ATOM     97  O   UNL A   1      45.603  37.317  36.972  1.00  0.00    -0.744 OA
ENDBRANCH  93  94
ENDBRANCH  61  86
ENDBRANCH  35  36
ENDBRANCH  27  30
ENDBRANCH  25  26
ENDBRANCH  24  25
ENDBRANCH   1  24
TORSDOF 17
ENDMDL
MODEL 2
REMARK VINA RESULT:     -11.2      3.112      9.146
REMARK SMILES N#Cc1ccc(C[N@H+]2CCCC[C@H]2C(=O)NCCCCNC(=O)c2ccc(-c3c4nc(c(-c5c(F)cc(S(=O)(=O)[O-])cc5F)c5ccc([nH]5)c(-c5c(F)cc(S(=O)(=O)[O-])cc5F)c5nc(c(-c6c(F)cc(S(=O)(=O)[O-])cc6F)c6ccc3[nH]6)C=C5)C=C4)cc2)c(F)c1
REMARK SMILES IDX 18 1 17 2 16 3 14 4 15 5 13 7 8 8 9 9 10 11 12 12 11 13 7 14
REMARK SMILES IDX 6 15 3 16 4 17 92 18 5 19 90 20 91 21 2 22 1 23 19 24 20 25
REMARK SMILES IDX 21 26 22 27 23 29 24 30 25 31 89 32 26 33 88 34 27 35 28 36
REMARK SMILES IDX 29 37 82 38 30 39 87 40 81 41 83 42 31 43 86 44 80 45 79 46
REMARK SMILES IDX 32 48 66 49 45 50 65 51 46 52 49 53 64 54 84 55 47 56 48 57
REMARK SMILES IDX 63 59 85 60 50 61 33 62 34 63 43 64 35 65 36 66 42 67 44 68
REMARK SMILES IDX 37 69 38 70 39 71 40 72 41 73 67 74 68 75 77 76 69 77 70 78
REMARK SMILES IDX 76 79 78 80 71 81 72 82 73 83 74 84 75 85 51 86 52 87 61 88
REMARK SMILES IDX 53 89 54 90 60 91 62 92 55 93 56 94 57 95 58 96 59 97
REMARK H PARENT 16 6 8 10 21 28 83 47 49 58
REMARK Flexibility Score: inf
ROOT
ATOM      1  C   UNL A   1      33.506  27.070  24.969  1.00  0.00     0.023 C 
ENDROOT
BRANCH   1   2
ATOM      2  C   UNL A   1      34.368  26.003  25.648  1.00  0.00     0.116 C 
BRANCH   2   3
ATOM      3  N   UNL A   1      34.644  24.945  24.702  1.00  0.00    -0.351 N 
ATOM      4  C   UNL A   1      34.140  23.680  24.668  1.00  0.00     0.278 C 
ATOM      5  O   UNL A   1      34.842  22.833  24.112  1.00  0.00    -0.268 OA
ATOM      6  H   UNL A   1      35.280  25.170  23.985  1.00  0.00     0.163 HD
BRANCH   4   7
ATOM      7  C   UNL A   1      32.739  23.401  25.278  1.00  0.00     0.274 C 
ATOM      8  N   UNL A   1      31.901  22.474  24.475  1.00  0.00    -0.321 N 
ATOM      9  C   UNL A   1      32.451  21.121  24.369  1.00  0.00     0.263 C 
ATOM     10  H   UNL A   1      31.060  22.358  25.042  1.00  0.00     0.349 HD
ATOM     11  C   UNL A   1      32.778  20.517  25.744  1.00  0.00     0.062 C 
ATOM     12  C   UNL A   1      32.887  22.831  26.693  1.00  0.00     0.076 C 
ATOM     13  C   UNL A   1      33.546  21.459  26.665  1.00  0.00     0.012 C 
BRANCH   8  14
ATOM     14  C   UNL A   1      31.337  23.028  23.230  1.00  0.00     0.302 C 
BRANCH  14  15
ATOM     15  C   UNL A   1      31.188  24.527  23.134  1.00  0.00     0.042 A 
ATOM     16  C   UNL A   1      30.636  27.233  22.615  1.00  0.00     0.055 A 
ATOM     17  C   UNL A   1      29.971  26.565  23.648  1.00  0.00     0.020 A 
ATOM     18  C   UNL A   1      31.650  26.585  21.910  1.00  0.00     0.059 A 
ATOM     19  C   UNL A   1      30.241  25.216  23.903  1.00  0.00     0.014 A 
ATOM     20  C   UNL A   1      31.937  25.254  22.199  1.00  0.00     0.133 A 
ATOM     21  F   UNL A   1      32.887  24.635  21.482  1.00  0.00    -0.206 F 
BRANCH  16  22
ATOM     22  C   UNL A   1      30.248  28.564  22.248  1.00  0.00     0.099 C 
ATOM     23  N   UNL A   1      29.923  29.637  21.959  1.00  0.00    -0.192 NA
ENDBRANCH  16  22
ENDBRANCH  14  15
ENDBRANCH   8  14
ENDBRANCH   4   7
ENDBRANCH   2   3
ENDBRANCH   1   2
BRANCH   1  24
ATOM     24  C   UNL A   1      33.695  28.480  25.545  1.00  0.00     0.023 C 
BRANCH  24  25
ATOM     25  C   UNL A   1      33.597  28.560  27.064  1.00  0.00     0.116 C 
BRANCH  25  26
ATOM     26  N   UNL A   1      33.528  29.936  27.529  1.00  0.00    -0.352 N 
ATOM     27  C   UNL A   1      34.458  30.646  28.248  1.00  0.00     0.251 C 
ATOM     28  H   UNL A   1      32.705  30.425  27.296  1.00  0.00     0.163 HD
ATOM     29  O   UNL A   1      34.158  31.727  28.744  1.00  0.00    -0.269 OA
BRANCH  27  30
ATOM     30  C   UNL A   1      35.809  30.080  28.441  1.00  0.00     0.039 A 
ATOM     31  C   UNL A   1      36.703  30.079  27.368  1.00  0.00     0.014 A 
ATOM     32  C   UNL A   1      36.202  29.592  29.691  1.00  0.00     0.014 A 
ATOM     33  C   UNL A   1      38.018  29.657  27.571  1.00  0.00     0.010 A 
ATOM     34  C   UNL A   1      37.533  29.246  29.908  1.00  0.00     0.010 A 
ATOM     35  C   UNL A   1      38.457  29.286  28.853  1.00  0.00    -0.014 A 
BRANCH  35  36
ATOM     36  C   UNL A   1      39.886  28.978  29.122  1.00  0.00     0.031 A 
ATOM     37  C   UNL A   1      40.807  30.041  29.655  1.00  0.00     0.074 A 
ATOM     38  C   UNL A   1      40.370  27.759  28.809  1.00  0.00     0.049 A 
ATOM     39  N   UNL A   1      42.096  29.985  29.864  1.00  0.00    -0.248 NA
ATOM     40  C   UNL A   1      40.202  31.344  29.974  1.00  0.00     0.031 C 
ATOM     41  C   UNL A   1      39.583  26.655  28.251  1.00  0.00     0.029 A 
ATOM     42  N   UNL A   1      41.640  27.244  28.897  1.00  0.00    -0.354 N 
ATOM     43  C   UNL A   1      42.461  31.244  30.328  1.00  0.00     0.074 A 
ATOM     44  C   UNL A   1      41.263  32.057  30.324  1.00  0.00     0.031 C 
ATOM     45  C   UNL A   1      40.381  25.593  28.065  1.00  0.00     0.029 A 
ATOM     46  C   UNL A   1      41.747  25.952  28.435  1.00  0.00     0.049 A 
ATOM     47  H   UNL A   1      42.403  27.751  29.258  1.00  0.00     0.167 HD
ATOM     48  C   UNL A   1      43.678  31.674  30.737  1.00  0.00     0.037 A 
ATOM     49  C   UNL A   1      42.824  25.154  28.298  1.00  0.00     0.037 A 
ATOM     50  C   UNL A   1      44.861  30.852  30.741  1.00  0.00     0.049 A 
ATOM     51  C   UNL A   1      44.175  25.673  28.712  1.00  0.00     0.074 A 
ATOM     52  C   UNL A   1      46.129  31.178  31.190  1.00  0.00     0.029 A 
ATOM     53  N   UNL A   1      44.930  29.552  30.261  1.00  0.00    -0.354 N 
ATOM     54  N   UNL A   1      44.488  26.838  29.227  1.00  0.00    -0.248 NA
ATOM     55  C   UNL A   1      45.322  24.772  28.527  1.00  0.00     0.031 C 
ATOM     56  C   UNL A   1      46.979  30.103  30.915  1.00  0.00     0.029 A 
ATOM     57  C   UNL A   1      46.229  29.078  30.363  1.00  0.00     0.049 A 
ATOM     58  H   UNL A   1      44.169  29.042  29.902  1.00  0.00     0.167 HD
ATOM     59  C   UNL A   1      45.860  26.803  29.447  1.00  0.00     0.074 A 
ATOM     60  C   UNL A   1      46.316  25.494  29.028  1.00  0.00     0.031 C 
ATOM     61  C   UNL A   1      46.670  27.768  29.947  1.00  0.00     0.037 A 
BRANCH  48  62
ATOM     62  C   UNL A   1      43.802  33.101  31.203  1.00  0.00     0.058 A 
ATOM     63  C   UNL A   1      43.728  33.447  32.562  1.00  0.00     0.135 A 
ATOM     64  C   UNL A   1      44.054  34.132  30.282  1.00  0.00     0.135 A 
ATOM     65  F   UNL A   1      43.478  32.506  33.487  1.00  0.00    -0.206 F 
ATOM     66  C   UNL A   1      43.870  34.763  32.987  1.00  0.00     0.059 A 
ATOM     67  C   UNL A   1      44.233  35.450  30.687  1.00  0.00     0.059 A 
ATOM     68  F   UNL A   1      44.135  33.861  28.970  1.00  0.00    -0.206 F 
ATOM     69  C   UNL A   1      44.126  35.759  32.043  1.00  0.00     0.060 A 
BRANCH  69  70
ATOM     70  S   UNL A   1      44.320  37.458  32.617  1.00  0.00     0.124 S 
ATOM     71  O   UNL A   1      43.975  38.213  31.416  1.00  0.00    -0.237 OA
ATOM     72  O   UNL A   1      43.355  37.529  33.709  1.00  0.00    -0.237 OA
ATOM     73  O   UNL A   1      45.722  37.527  33.017  1.00  0.00    -0.744 OA
ENDBRANCH  69  70
ENDBRANCH  48  62
BRANCH  49  74
ATOM     74  C   UNL A   1      42.670  23.783  27.739  1.00  0.00     0.058 A 
ATOM     75  C   UNL A   1      42.580  22.663  28.579  1.00  0.00     0.135 A 
ATOM     76  C   UNL A   1      42.605  23.562  26.353  1.00  0.00     0.135 A 
ATOM     77  F   UNL A   1      42.647  22.817  29.910  1.00  0.00    -0.206 F 
ATOM     78  C   UNL A   1      42.445  21.376  28.069  1.00  0.00     0.059 A 
ATOM     79  C   UNL A   1      42.438  22.288  25.820  1.00  0.00     0.059 A 
ATOM     80  F   UNL A   1      42.674  24.599  25.503  1.00  0.00    -0.206 F 
ATOM     81  C   UNL A   1      42.369  21.199  26.687  1.00  0.00     0.060 A 
BRANCH  81  82
ATOM     82  S   UNL A   1      42.144  19.529  26.041  1.00  0.00     0.124 S 
ATOM     83  O   UNL A   1      40.716  19.515  25.746  1.00  0.00    -0.237 OA
ATOM     84  O   UNL A   1      43.035  19.528  24.885  1.00  0.00    -0.237 OA
ATOM     85  O   UNL A   1      42.567  18.679  27.151  1.00  0.00    -0.744 OA
ENDBRANCH  81  82
ENDBRANCH  49  74
BRANCH  61  86
ATOM     86  C   UNL A   1      48.134  27.450  30.096  1.00  0.00     0.058 A 
ATOM     87  C   UNL A   1      49.070  27.800  29.111  1.00  0.00     0.135 A 
ATOM     88  C   UNL A   1      48.617  26.867  31.280  1.00  0.00     0.135 A 
ATOM     89  F   UNL A   1      48.662  28.348  27.956  1.00  0.00    -0.206 F 
ATOM     90  C   UNL A   1      50.432  27.579  29.291  1.00  0.00     0.059 A 
ATOM     91  C   UNL A   1      49.977  26.667  31.495  1.00  0.00     0.059 A 
ATOM     92  F   UNL A   1      47.767  26.517  32.259  1.00  0.00    -0.206 F 
ATOM     93  C   UNL A   1      50.877  27.023  30.492  1.00  0.00     0.060 A 
BRANCH  93  94
ATOM     94  S   UNL A   1      52.653  26.812  30.737  1.00  0.00     0.124 S 
ATOM     95  O   UNL A   1      53.098  28.194  30.884  1.00  0.00    -0.237 OA
ATOM     96  O   UNL A   1      52.703  25.998  31.946  1.00  0.00    -0.237 OA
ATOM     97  O   UNL A   1      53.090  26.140  29.516  1.00  0.00    -0.744 OA
ENDBRANCH  93  94
ENDBRANCH  61  86
ENDBRANCH  35  36
ENDBRANCH  27  30
ENDBRANCH  25  26
ENDBRANCH  24  25
ENDBRANCH   1  24
TORSDOF 17
ENDMDL
MODEL 3
REMARK VINA RESULT:     -11.1      3.219      9.592
REMARK SMILES N#Cc1ccc(C[N@H+]2CCCC[C@H]2C(=O)NCCCCNC(=O)c2ccc(-c3c4nc(c(-c5c(F)cc(S(=O)(=O)[O-])cc5F)c5ccc([nH]5)c(-c5c(F)cc(S(=O)(=O)[O-])cc5F)c5nc(c(-c6c(F)cc(S(=O)(=O)[O-])cc6F)c6ccc3[nH]6)C=C5)C=C4)cc2)c(F)c1
REMARK SMILES IDX 18 1 17 2 16 3 14 4 15 5 13 7 8 8 9 9 10 11 12 12 11 13 7 14
REMARK SMILES IDX 6 15 3 16 4 17 92 18 5 19 90 20 91 21 2 22 1 23 19 24 20 25
REMARK SMILES IDX 21 26 22 27 23 29 24 30 25 31 89 32 26 33 88 34 27 35 28 36
REMARK SMILES IDX 29 37 82 38 30 39 87 40 81 41 83 42 31 43 86 44 80 45 79 46
REMARK SMILES IDX 32 48 66 49 45 50 65 51 46 52 49 53 64 54 84 55 47 56 48 57
REMARK SMILES IDX 63 59 85 60 50 61 33 62 34 63 43 64 35 65 36 66 42 67 44 68
REMARK SMILES IDX 37 69 38 70 39 71 40 72 41 73 67 74 68 75 77 76 69 77 70 78
REMARK SMILES IDX 76 79 78 80 71 81 72 82 73 83 74 84 75 85 51 86 52 87 61 88
REMARK SMILES IDX 53 89 54 90 60 91 62 92 55 93 56 94 57 95 58 96 59 97
REMARK H PARENT 16 6 8 10 21 28 83 47 49 58
REMARK Flexibility Score: inf
ROOT
ATOM      1  C   UNL A   1      31.667  27.623  25.475  1.00  0.00     0.023 C 
ENDROOT
BRANCH   1   2
ATOM      2  C   UNL A   1      31.067  26.251  25.162  1.00  0.00     0.116 C 
BRANCH   2   3
ATOM      3  N   UNL A   1      31.637  25.756  23.929  1.00  0.00    -0.351 N 
ATOM      4  C   UNL A   1      32.636  24.846  23.758  1.00  0.00     0.278 C 
ATOM      5  O   UNL A   1      33.275  24.935  22.707  1.00  0.00    -0.268 OA
ATOM      6  H   UNL A   1      31.251  26.125  23.102  1.00  0.00     0.163 HD
BRANCH   4   7
ATOM      7  C   UNL A   1      32.875  23.763  24.845  1.00  0.00     0.274 C 
ATOM      8  N   UNL A   1      33.465  22.502  24.327  1.00  0.00    -0.321 N 
ATOM      9  C   UNL A   1      34.810  22.662  23.770  1.00  0.00     0.263 C 
ATOM     10  H   UNL A   1      33.607  21.940  25.166  1.00  0.00     0.349 HD
ATOM     11  C   UNL A   1      35.767  23.355  24.754  1.00  0.00     0.062 C 
ATOM     12  C   UNL A   1      33.787  24.316  25.946  1.00  0.00     0.076 C 
ATOM     13  C   UNL A   1      35.183  24.601  25.410  1.00  0.00     0.012 C 
BRANCH   8  14
ATOM     14  C   UNL A   1      32.557  21.637  23.550  1.00  0.00     0.302 C 
BRANCH  14  15
ATOM     15  C   UNL A   1      32.481  20.178  23.931  1.00  0.00     0.042 A 
ATOM     16  C   UNL A   1      32.773  17.452  24.545  1.00  0.00     0.055 A 
ATOM     17  C   UNL A   1      32.764  18.406  25.568  1.00  0.00     0.020 A 
ATOM     18  C   UNL A   1      32.532  17.844  23.229  1.00  0.00     0.059 A 
ATOM     19  C   UNL A   1      32.624  19.764  25.262  1.00  0.00     0.014 A 
ATOM     20  C   UNL A   1      32.355  19.194  22.942  1.00  0.00     0.133 A 
ATOM     21  F   UNL A   1      32.165  19.555  21.664  1.00  0.00    -0.206 F 
BRANCH  16  22
ATOM     22  C   UNL A   1      33.074  16.081  24.841  1.00  0.00     0.099 C 
ATOM     23  N   UNL A   1      33.317  14.971  25.066  1.00  0.00    -0.192 NA
ENDBRANCH  16  22
ENDBRANCH  14  15
ENDBRANCH   8  14
ENDBRANCH   4   7
ENDBRANCH   2   3
ENDBRANCH   1   2
BRANCH   1  24
ATOM     24  C   UNL A   1      32.775  27.589  26.537  1.00  0.00     0.023 C 
BRANCH  24  25
ATOM     25  C   UNL A   1      34.001  28.428  26.198  1.00  0.00     0.116 C 
BRANCH  25  26
ATOM     26  N   UNL A   1      33.822  29.822  26.571  1.00  0.00    -0.352 N 
ATOM     27  C   UNL A   1      34.554  30.573  27.459  1.00  0.00     0.251 C 
ATOM     28  H   UNL A   1      33.078  30.291  26.129  1.00  0.00     0.163 HD
ATOM     29  O   UNL A   1      34.143  31.671  27.821  1.00  0.00    -0.269 OA
BRANCH  27  30
ATOM     30  C   UNL A   1      35.822  30.032  27.991  1.00  0.00     0.039 A 
ATOM     31  C   UNL A   1      36.989  30.178  27.239  1.00  0.00     0.014 A 
ATOM     32  C   UNL A   1      35.860  29.420  29.247  1.00  0.00     0.014 A 
ATOM     33  C   UNL A   1      38.211  29.779  27.784  1.00  0.00     0.010 A 
ATOM     34  C   UNL A   1      37.087  29.095  29.818  1.00  0.00     0.010 A 
ATOM     35  C   UNL A   1      38.276  29.281  29.097  1.00  0.00    -0.014 A 
BRANCH  35  36
ATOM     36  C   UNL A   1      39.580  28.990  29.750  1.00  0.00     0.031 A 
ATOM     37  C   UNL A   1      40.093  29.874  30.852  1.00  0.00     0.074 A 
ATOM     38  C   UNL A   1      40.336  27.972  29.291  1.00  0.00     0.049 A 
ATOM     39  N   UNL A   1      41.241  29.832  31.475  1.00  0.00    -0.248 NA
ATOM     40  C   UNL A   1      39.207  30.962  31.298  1.00  0.00     0.031 C 
ATOM     41  C   UNL A   1      39.962  27.066  28.202  1.00  0.00     0.029 A 
ATOM     42  N   UNL A   1      41.582  27.535  29.668  1.00  0.00    -0.354 N 
ATOM     43  C   UNL A   1      41.224  30.889  32.378  1.00  0.00     0.074 A 
ATOM     44  C   UNL A   1      39.968  31.585  32.187  1.00  0.00     0.031 C 
ATOM     45  C   UNL A   1      40.946  26.173  28.012  1.00  0.00     0.029 A 
ATOM     46  C   UNL A   1      42.046  26.475  28.924  1.00  0.00     0.049 A 
ATOM     47  H   UNL A   1      42.096  27.943  30.403  1.00  0.00     0.167 HD
ATOM     48  C   UNL A   1      42.160  31.236  33.292  1.00  0.00     0.037 A 
ATOM     49  C   UNL A   1      43.231  25.833  28.951  1.00  0.00     0.037 A 
ATOM     50  C   UNL A   1      43.403  30.532  33.476  1.00  0.00     0.049 A 
ATOM     51  C   UNL A   1      44.275  26.269  29.943  1.00  0.00     0.074 A 
ATOM     52  C   UNL A   1      44.392  30.770  34.414  1.00  0.00     0.029 A 
ATOM     53  N   UNL A   1      43.838  29.467  32.700  1.00  0.00    -0.354 N 
ATOM     54  N   UNL A   1      44.209  27.220  30.845  1.00  0.00    -0.248 NA
ATOM     55  C   UNL A   1      45.558  25.551  29.922  1.00  0.00     0.031 C 
ATOM     56  C   UNL A   1      45.455  29.899  34.159  1.00  0.00     0.029 A 
ATOM     57  C   UNL A   1      45.100  29.066  33.110  1.00  0.00     0.049 A 
ATOM     58  H   UNL A   1      43.326  29.057  31.966  1.00  0.00     0.167 HD
ATOM     59  C   UNL A   1      45.428  27.198  31.512  1.00  0.00     0.074 A 
ATOM     60  C   UNL A   1      46.207  26.128  30.924  1.00  0.00     0.031 C 
ATOM     61  C   UNL A   1      45.864  27.994  32.519  1.00  0.00     0.037 A 
BRANCH  48  62
ATOM     62  C   UNL A   1      41.888  32.437  34.160  1.00  0.00     0.058 A 
ATOM     63  C   UNL A   1      42.366  33.715  33.831  1.00  0.00     0.135 A 
ATOM     64  C   UNL A   1      41.089  32.317  35.310  1.00  0.00     0.135 A 
ATOM     65  F   UNL A   1      43.144  33.889  32.750  1.00  0.00    -0.206 F 
ATOM     66  C   UNL A   1      42.088  34.823  34.623  1.00  0.00     0.059 A 
ATOM     67  C   UNL A   1      40.770  33.417  36.099  1.00  0.00     0.059 A 
ATOM     68  F   UNL A   1      40.604  31.120  35.674  1.00  0.00    -0.206 F 
ATOM     69  C   UNL A   1      41.285  34.666  35.754  1.00  0.00     0.060 A 
BRANCH  69  70
ATOM     70  S   UNL A   1      40.926  36.119  36.762  1.00  0.00     0.124 S 
ATOM     71  O   UNL A   1      39.769  36.676  36.067  1.00  0.00    -0.237 OA
ATOM     72  O   UNL A   1      40.656  35.531  38.069  1.00  0.00    -0.237 OA
ATOM     73  O   UNL A   1      42.149  36.909  36.673  1.00  0.00    -0.744 OA
ENDBRANCH  69  70
ENDBRANCH  48  62
BRANCH  49  74
ATOM     74  C   UNL A   1      43.494  24.713  28.005  1.00  0.00     0.058 A 
ATOM     75  C   UNL A   1      43.134  23.396  28.324  1.00  0.00     0.135 A 
ATOM     76  C   UNL A   1      44.106  24.937  26.761  1.00  0.00     0.135 A 
ATOM     77  F   UNL A   1      42.556  23.126  29.505  1.00  0.00    -0.206 F 
ATOM     78  C   UNL A   1      43.383  22.339  27.454  1.00  0.00     0.059 A 
ATOM     79  C   UNL A   1      44.336  23.903  25.860  1.00  0.00     0.059 A 
ATOM     80  F   UNL A   1      44.460  26.181  26.399  1.00  0.00    -0.206 F 
ATOM     81  C   UNL A   1      43.980  22.604  26.220  1.00  0.00     0.060 A 
BRANCH  81  82
ATOM     82  S   UNL A   1      44.252  21.231  25.080  1.00  0.00     0.124 S 
ATOM     83  O   UNL A   1      44.178  21.902  23.787  1.00  0.00    -0.237 OA
ATOM     84  O   UNL A   1      45.574  20.761  25.481  1.00  0.00    -0.237 OA
ATOM     85  O   UNL A   1      43.151  20.320  25.381  1.00  0.00    -0.744 OA
ENDBRANCH  81  82
ENDBRANCH  49  74
BRANCH  61  86
ATOM     86  C   UNL A   1      47.240  27.735  33.074  1.00  0.00     0.058 A 
ATOM     87  C   UNL A   1      48.370  28.413  32.593  1.00  0.00     0.135 A 
ATOM     88  C   UNL A   1      47.414  26.863  34.163  1.00  0.00     0.135 A 
ATOM     89  F   UNL A   1      48.264  29.247  31.548  1.00  0.00    -0.206 F 
ATOM     90  C   UNL A   1      49.626  28.231  33.165  1.00  0.00     0.059 A 
ATOM     91  C   UNL A   1      48.653  26.691  34.771  1.00  0.00     0.059 A 
ATOM     92  F   UNL A   1      46.365  26.193  34.668  1.00  0.00    -0.206 F 
ATOM     93  C   UNL A   1      49.754  27.378  34.263  1.00  0.00     0.060 A 
BRANCH  93  94
ATOM     94  S   UNL A   1      51.375  27.211  35.040  1.00  0.00     0.124 S 
ATOM     95  O   UNL A   1      51.470  28.455  35.797  1.00  0.00    -0.237 OA
ATOM     96  O   UNL A   1      51.215  25.997  35.832  1.00  0.00    -0.237 OA
ATOM     97  O   UNL A   1      52.288  27.098  33.905  1.00  0.00    -0.744 OA
ENDBRANCH  93  94
ENDBRANCH  61  86
ENDBRANCH  35  36
ENDBRANCH  27  30
ENDBRANCH  25  26
ENDBRANCH  24  25
ENDBRANCH   1  24
TORSDOF 17
ENDMDL
