MODEL 1
REMARK VINA RESULT:      -9.8      0.000      0.000
REMARK SMILES C[C@@H](C(=O)NCCCCNC(=O)c1ccc(-c2c3nc(c(-c4c(F)cc(S(=O)(=O)[O-])cc4F)c4ccc([nH]4)c(-c4c(F)cc(S(=O)(=O)[O-])cc4F)c4nc(c(-c5c(F)cc(S(=O)(=O)[O-])cc5F)c5ccc2[nH]5)C=C4)C=C3)cc1)c1ccc(-c2cccc(OC(=O)NC3CC3)c2)c(F)c1
REMARK SMILES IDX 6 1 5 2 3 3 4 4 2 6 1 7 79 8 80 9 98 10 81 11 96 12 82 13
REMARK SMILES IDX 97 14 83 15 84 16 95 17 85 18 87 19 86 20 88 21 89 22 90 23
REMARK SMILES IDX 91 24 92 26 93 27 94 28 7 29 8 30 9 31 10 32 11 33 12 35
REMARK SMILES IDX 13 36 14 37 78 38 15 39 77 40 16 41 17 42 18 43 71 44 19 45
REMARK SMILES IDX 76 46 70 47 72 48 20 49 75 50 69 51 68 52 21 54 55 55 34 56
REMARK SMILES IDX 54 57 35 58 38 59 53 60 73 61 36 62 37 63 52 65 74 66 39 67
REMARK SMILES IDX 22 68 23 69 32 70 24 71 25 72 31 73 33 74 26 75 27 76 28 77
REMARK SMILES IDX 29 78 30 79 56 80 57 81 66 82 58 83 59 84 65 85 67 86 60 87
REMARK SMILES IDX 61 88 62 89 63 90 64 91 40 92 41 93 50 94 42 95 43 96 49 97
REMARK SMILES IDX 51 98 44 99 45 100 46 101 47 102 48 103
REMARK H PARENT 5 5 91 25 10 34 72 53 38 64
REMARK Flexibility Score: inf
ROOT
ATOM      1  C   UNL A   1      35.050  35.007  32.275  1.00  0.00     0.116 C 
ENDROOT
BRANCH   1   2
ATOM      2  N   UNL A   1      36.467  34.905  32.002  1.00  0.00    -0.356 N 
ATOM      3  C   UNL A   1      37.426  34.184  32.648  1.00  0.00     0.227 C 
ATOM      4  O   UNL A   1      38.593  34.369  32.299  1.00  0.00    -0.274 OA
ATOM      5  H   UNL A   1      36.785  35.434  31.236  1.00  0.00     0.163 HD
BRANCH   3   6
ATOM      6  C   UNL A   1      37.020  33.155  33.715  1.00  0.00     0.105 C 
ATOM      7  C   UNL A   1      36.663  33.791  35.066  1.00  0.00     0.023 C 
BRANCH   6   8
ATOM      8  C   UNL A   1      38.107  32.106  33.907  1.00  0.00    -0.033 A 
ATOM      9  C   UNL A   1      39.144  32.316  34.829  1.00  0.00     0.005 A 
ATOM     10  C   UNL A   1      38.085  30.909  33.179  1.00  0.00     0.044 A 
ATOM     11  C   UNL A   1      40.169  31.377  34.969  1.00  0.00     0.012 A 
ATOM     12  C   UNL A   1      39.110  29.986  33.317  1.00  0.00     0.131 A 
ATOM     13  C   UNL A   1      40.183  30.211  34.189  1.00  0.00     0.018 A 
ATOM     14  F   UNL A   1      39.070  28.877  32.562  1.00  0.00    -0.206 F 
BRANCH  13  15
ATOM     15  C   UNL A   1      41.335  29.308  34.199  1.00  0.00    -0.012 A 
ATOM     16  C   UNL A   1      42.443  29.496  33.363  1.00  0.00     0.009 A 
ATOM     17  C   UNL A   1      41.320  28.208  35.072  1.00  0.00     0.056 A 
ATOM     18  C   UNL A   1      43.519  28.605  33.407  1.00  0.00     0.004 A 
ATOM     19  C   UNL A   1      42.387  27.321  35.111  1.00  0.00     0.133 A 
ATOM     20  C   UNL A   1      43.491  27.517  34.280  1.00  0.00     0.047 A 
BRANCH  19  21
ATOM     21  O   UNL A   1      42.446  26.191  35.962  1.00  0.00    -0.410 OA
BRANCH  21  22
ATOM     22  C   UNL A   1      41.598  25.086  35.923  1.00  0.00     0.412 C 
ATOM     23  O   UNL A   1      40.421  25.055  36.272  1.00  0.00    -0.224 OA
ATOM     24  N   UNL A   1      42.190  23.947  35.448  1.00  0.00    -0.318 N 
ATOM     25  H   UNL A   1      41.622  23.142  35.466  1.00  0.00     0.167 HD
BRANCH  24  26
ATOM     26  C   UNL A   1      43.502  23.748  34.933  1.00  0.00     0.085 C 
ATOM     27  C   UNL A   1      44.258  22.453  34.869  1.00  0.00     0.027 C 
ATOM     28  C   UNL A   1      43.654  23.019  33.622  1.00  0.00     0.027 C 
ENDBRANCH  24  26
ENDBRANCH  21  22
ENDBRANCH  19  21
ENDBRANCH  13  15
ENDBRANCH   6   8
ENDBRANCH   3   6
ENDBRANCH   1   2
BRANCH   1  29
ATOM     29  C   UNL A   1      34.275  33.936  31.507  1.00  0.00     0.023 C 
BRANCH  29  30
ATOM     30  C   UNL A   1      34.445  34.009  29.988  1.00  0.00     0.023 C 
BRANCH  30  31
ATOM     31  C   UNL A   1      35.158  32.815  29.368  1.00  0.00     0.116 C 
BRANCH  31  32
ATOM     32  N   UNL A   1      34.238  31.879  28.738  1.00  0.00    -0.352 N 
ATOM     33  C   UNL A   1      34.503  30.632  28.223  1.00  0.00     0.251 C 
ATOM     34  H   UNL A   1      33.302  32.178  28.670  1.00  0.00     0.163 HD
ATOM     35  O   UNL A   1      33.645  30.031  27.586  1.00  0.00    -0.269 OA
BRANCH  33  36
ATOM     36  C   UNL A   1      35.844  30.045  28.420  1.00  0.00     0.039 A 
ATOM     37  C   UNL A   1      36.740  30.033  27.350  1.00  0.00     0.014 A 
ATOM     38  C   UNL A   1      36.230  29.565  29.675  1.00  0.00     0.014 A 
ATOM     39  C   UNL A   1      38.054  29.609  27.560  1.00  0.00     0.010 A 
ATOM     40  C   UNL A   1      37.557  29.215  29.899  1.00  0.00     0.010 A 
ATOM     41  C   UNL A   1      38.485  29.242  28.846  1.00  0.00    -0.014 A 
BRANCH  41  42
ATOM     42  C   UNL A   1      39.907  28.912  29.121  1.00  0.00     0.031 A 
ATOM     43  C   UNL A   1      40.839  29.970  29.642  1.00  0.00     0.074 A 
ATOM     44  C   UNL A   1      40.375  27.683  28.820  1.00  0.00     0.049 A 
ATOM     45  N   UNL A   1      42.129  29.905  29.848  1.00  0.00    -0.248 NA
ATOM     46  C   UNL A   1      40.249  31.284  29.948  1.00  0.00     0.031 C 
ATOM     47  C   UNL A   1      39.577  26.587  28.264  1.00  0.00     0.029 A 
ATOM     48  N   UNL A   1      41.637  27.154  28.917  1.00  0.00    -0.354 N 
ATOM     49  C   UNL A   1      42.509  31.168  30.286  1.00  0.00     0.074 A 
ATOM     50  C   UNL A   1      41.321  31.993  30.277  1.00  0.00     0.031 C 
ATOM     51  C   UNL A   1      40.365  25.516  28.081  1.00  0.00     0.029 A 
ATOM     52  C   UNL A   1      41.732  25.860  28.457  1.00  0.00     0.049 A 
ATOM     53  H   UNL A   1      42.404  27.653  29.281  1.00  0.00     0.167 HD
ATOM     54  C   UNL A   1      43.733  31.592  30.675  1.00  0.00     0.037 A 
ATOM     55  C   UNL A   1      42.803  25.050  28.329  1.00  0.00     0.037 A 
ATOM     56  C   UNL A   1      44.904  30.755  30.705  1.00  0.00     0.049 A 
ATOM     57  C   UNL A   1      44.156  25.554  28.754  1.00  0.00     0.074 A 
ATOM     58  C   UNL A   1      46.172  31.069  31.159  1.00  0.00     0.029 A 
ATOM     59  N   UNL A   1      44.956  29.445  30.250  1.00  0.00    -0.354 N 
ATOM     60  N   UNL A   1      44.480  26.724  29.251  1.00  0.00    -0.248 NA
ATOM     61  C   UNL A   1      45.290  24.632  28.601  1.00  0.00     0.031 C 
ATOM     62  C   UNL A   1      47.007  29.973  30.920  1.00  0.00     0.029 A 
ATOM     63  C   UNL A   1      46.245  28.952  30.377  1.00  0.00     0.049 A 
ATOM     64  H   UNL A   1      44.190  28.941  29.890  1.00  0.00     0.167 HD
ATOM     65  C   UNL A   1      45.849  26.668  29.493  1.00  0.00     0.074 A 
ATOM     66  C   UNL A   1      46.289  25.346  29.103  1.00  0.00     0.031 C 
ATOM     67  C   UNL A   1      46.667  27.627  29.992  1.00  0.00     0.037 A 
BRANCH  54  68
ATOM     68  C   UNL A   1      43.882  33.029  31.099  1.00  0.00     0.058 A 
ATOM     69  C   UNL A   1      43.583  33.452  32.404  1.00  0.00     0.135 A 
ATOM     70  C   UNL A   1      44.388  33.983  30.202  1.00  0.00     0.135 A 
ATOM     71  F   UNL A   1      43.081  32.586  33.298  1.00  0.00    -0.206 F 
ATOM     72  C   UNL A   1      43.762  34.775  32.797  1.00  0.00     0.059 A 
ATOM     73  C   UNL A   1      44.605  35.304  30.583  1.00  0.00     0.059 A 
ATOM     74  F   UNL A   1      44.689  33.634  28.941  1.00  0.00    -0.206 F 
ATOM     75  C   UNL A   1      44.278  35.693  31.881  1.00  0.00     0.060 A 
BRANCH  75  76
ATOM     76  S   UNL A   1      44.523  37.398  32.418  1.00  0.00     0.124 S 
ATOM     77  O   UNL A   1      43.818  38.136  31.375  1.00  0.00    -0.237 OA
ATOM     78  O   UNL A   1      43.893  37.403  33.734  1.00  0.00    -0.237 OA
ATOM     79  O   UNL A   1      45.975  37.550  32.420  1.00  0.00    -0.744 OA
ENDBRANCH  75  76
ENDBRANCH  54  68
BRANCH  55  80
ATOM     80  C   UNL A   1      42.640  23.682  27.764  1.00  0.00     0.058 A 
ATOM     81  C   UNL A   1      42.589  23.471  26.378  1.00  0.00     0.135 A 
ATOM     82  C   UNL A   1      42.528  22.558  28.598  1.00  0.00     0.135 A 
ATOM     83  F   UNL A   1      42.684  24.512  25.538  1.00  0.00    -0.206 F 
ATOM     84  C   UNL A   1      42.410  22.201  25.839  1.00  0.00     0.059 A 
ATOM     85  C   UNL A   1      42.379  21.275  28.084  1.00  0.00     0.059 A 
ATOM     86  F   UNL A   1      42.586  22.701  29.932  1.00  0.00    -0.206 F 
ATOM     87  C   UNL A   1      42.308  21.108  26.701  1.00  0.00     0.060 A 
BRANCH  87  88
ATOM     88  S   UNL A   1      42.109  19.460  25.990  1.00  0.00     0.124 S 
ATOM     89  O   UNL A   1      40.680  19.435  25.702  1.00  0.00    -0.237 OA
ATOM     90  O   UNL A   1      42.993  19.520  24.830  1.00  0.00    -0.237 OA
ATOM     91  O   UNL A   1      42.553  18.575  27.062  1.00  0.00    -0.744 OA
ENDBRANCH  87  88
ENDBRANCH  55  80
BRANCH  67  92
ATOM     92  C   UNL A   1      48.120  27.282  30.176  1.00  0.00     0.058 A 
ATOM     93  C   UNL A   1      49.081  27.591  29.202  1.00  0.00     0.135 A 
ATOM     94  C   UNL A   1      48.566  26.710  31.380  1.00  0.00     0.135 A 
ATOM     95  F   UNL A   1      48.708  28.130  28.031  1.00  0.00    -0.206 F 
ATOM     96  C   UNL A   1      50.433  27.335  29.409  1.00  0.00     0.059 A 
ATOM     97  C   UNL A   1      49.917  26.475  31.620  1.00  0.00     0.059 A 
ATOM     98  F   UNL A   1      47.690  26.403  32.348  1.00  0.00    -0.206 F 
ATOM     99  C   UNL A   1      50.842  26.786  30.626  1.00  0.00     0.060 A 
BRANCH  99 100
ATOM    100  S   UNL A   1      52.606  26.521  30.904  1.00  0.00     0.124 S 
ATOM    101  O   UNL A   1      53.006  27.793  31.497  1.00  0.00    -0.237 OA
ATOM    102  O   UNL A   1      52.609  25.373  31.806  1.00  0.00    -0.237 OA
ATOM    103  O   UNL A   1      53.127  26.262  29.565  1.00  0.00    -0.744 OA
ENDBRANCH  99 100
ENDBRANCH  67  92
ENDBRANCH  41  42
ENDBRANCH  33  36
ENDBRANCH  31  32
ENDBRANCH  30  31
ENDBRANCH  29  30
ENDBRANCH   1  29
TORSDOF 19
ENDMDL
MODEL 2
REMARK VINA RESULT:      -9.7      4.891     12.332
REMARK SMILES C[C@@H](C(=O)NCCCCNC(=O)c1ccc(-c2c3nc(c(-c4c(F)cc(S(=O)(=O)[O-])cc4F)c4ccc([nH]4)c(-c4c(F)cc(S(=O)(=O)[O-])cc4F)c4nc(c(-c5c(F)cc(S(=O)(=O)[O-])cc5F)c5ccc2[nH]5)C=C4)C=C3)cc1)c1ccc(-c2cccc(OC(=O)NC3CC3)c2)c(F)c1
REMARK SMILES IDX 6 1 5 2 3 3 4 4 2 6 1 7 79 8 80 9 98 10 81 11 96 12 82 13
REMARK SMILES IDX 97 14 83 15 84 16 95 17 85 18 87 19 86 20 88 21 89 22 90 23
REMARK SMILES IDX 91 24 92 26 93 27 94 28 7 29 8 30 9 31 10 32 11 33 12 35
REMARK SMILES IDX 13 36 14 37 78 38 15 39 77 40 16 41 17 42 18 43 71 44 19 45
REMARK SMILES IDX 76 46 70 47 72 48 20 49 75 50 69 51 68 52 21 54 55 55 34 56
REMARK SMILES IDX 54 57 35 58 38 59 53 60 73 61 36 62 37 63 52 65 74 66 39 67
REMARK SMILES IDX 22 68 23 69 32 70 24 71 25 72 31 73 33 74 26 75 27 76 28 77
REMARK SMILES IDX 29 78 30 79 56 80 57 81 66 82 58 83 59 84 65 85 67 86 60 87
REMARK SMILES IDX 61 88 62 89 63 90 64 91 40 92 41 93 50 94 42 95 43 96 49 97
REMARK SMILES IDX 51 98 44 99 45 100 46 101 47 102 48 103
REMARK H PARENT 5 5 91 25 10 34 72 53 38 64
REMARK Flexibility Score: inf
ROOT
ATOM      1  C   UNL A   1      37.415  21.143  25.693  1.00  0.00     0.116 C 
ENDROOT
BRANCH   1   2
ATOM      2  N   UNL A   1      36.185  20.846  24.992  1.00  0.00    -0.356 N 
ATOM      3  C   UNL A   1      34.900  21.152  25.326  1.00  0.00     0.227 C 
ATOM      4  O   UNL A   1      34.011  20.669  24.623  1.00  0.00    -0.274 OA
ATOM      5  H   UNL A   1      36.293  20.349  24.150  1.00  0.00     0.163 HD
BRANCH   3   6
ATOM      6  C   UNL A   1      34.621  22.108  26.496  1.00  0.00     0.105 C 
ATOM      7  C   UNL A   1      33.790  21.469  27.617  1.00  0.00     0.023 C 
BRANCH   6   8
ATOM      8  C   UNL A   1      33.945  23.384  26.013  1.00  0.00    -0.033 A 
ATOM      9  C   UNL A   1      34.668  24.342  25.286  1.00  0.00     0.005 A 
ATOM     10  C   UNL A   1      32.587  23.618  26.272  1.00  0.00     0.044 A 
ATOM     11  C   UNL A   1      34.061  25.536  24.887  1.00  0.00     0.012 A 
ATOM     12  C   UNL A   1      31.995  24.808  25.880  1.00  0.00     0.131 A 
ATOM     13  C   UNL A   1      32.721  25.800  25.208  1.00  0.00     0.018 A 
ATOM     14  F   UNL A   1      30.705  25.007  26.194  1.00  0.00    -0.206 F 
BRANCH  13  15
ATOM     15  C   UNL A   1      32.126  27.112  24.950  1.00  0.00    -0.012 A 
ATOM     16  C   UNL A   1      31.637  27.481  23.690  1.00  0.00     0.009 A 
ATOM     17  C   UNL A   1      32.057  28.038  26.004  1.00  0.00     0.056 A 
ATOM     18  C   UNL A   1      31.081  28.747  23.492  1.00  0.00     0.004 A 
ATOM     19  C   UNL A   1      31.507  29.297  25.805  1.00  0.00     0.133 A 
ATOM     20  C   UNL A   1      31.017  29.656  24.549  1.00  0.00     0.047 A 
BRANCH  19  21
ATOM     21  O   UNL A   1      31.402  30.283  26.815  1.00  0.00    -0.410 OA
BRANCH  21  22
ATOM     22  C   UNL A   1      31.732  31.631  26.687  1.00  0.00     0.412 C 
ATOM     23  O   UNL A   1      31.036  32.510  26.187  1.00  0.00    -0.224 OA
ATOM     24  N   UNL A   1      32.970  31.950  27.177  1.00  0.00    -0.318 N 
ATOM     25  H   UNL A   1      33.243  32.887  27.045  1.00  0.00     0.167 HD
BRANCH  24  26
ATOM     26  C   UNL A   1      33.923  31.132  27.847  1.00  0.00     0.085 C 
ATOM     27  C   UNL A   1      34.992  30.289  27.215  1.00  0.00     0.027 C 
ATOM     28  C   UNL A   1      35.362  31.582  27.872  1.00  0.00     0.027 C 
ENDBRANCH  24  26
ENDBRANCH  21  22
ENDBRANCH  19  21
ENDBRANCH  13  15
ENDBRANCH   6   8
ENDBRANCH   3   6
ENDBRANCH   1   2
BRANCH   1  29
ATOM     29  C   UNL A   1      38.065  22.406  25.128  1.00  0.00     0.023 C 
BRANCH  29  30
ATOM     30  C   UNL A   1      38.179  23.555  26.134  1.00  0.00     0.023 C 
BRANCH  30  31
ATOM     31  C   UNL A   1      39.458  23.556  26.959  1.00  0.00     0.116 C 
BRANCH  31  32
ATOM     32  N   UNL A   1      40.638  23.857  26.162  1.00  0.00    -0.352 N 
ATOM     33  C   UNL A   1      41.392  25.006  26.147  1.00  0.00     0.251 C 
ATOM     34  H   UNL A   1      40.936  23.144  25.552  1.00  0.00     0.163 HD
ATOM     35  O   UNL A   1      42.269  25.160  25.303  1.00  0.00    -0.269 OA
BRANCH  33  36
ATOM     36  C   UNL A   1      41.108  26.064  27.138  1.00  0.00     0.039 A 
ATOM     37  C   UNL A   1      40.158  25.821  28.132  1.00  0.00     0.014 A 
ATOM     38  C   UNL A   1      41.822  27.265  27.117  1.00  0.00     0.014 A 
ATOM     39  C   UNL A   1      39.981  26.755  29.155  1.00  0.00     0.010 A 
ATOM     40  C   UNL A   1      41.698  28.158  28.175  1.00  0.00     0.010 A 
ATOM     41  C   UNL A   1      40.782  27.908  29.210  1.00  0.00    -0.014 A 
BRANCH  41  42
ATOM     42  C   UNL A   1      40.703  28.852  30.355  1.00  0.00     0.031 A 
ATOM     43  C   UNL A   1      41.576  28.648  31.561  1.00  0.00     0.074 A 
ATOM     44  C   UNL A   1      39.783  29.839  30.341  1.00  0.00     0.049 A 
ATOM     45  N   UNL A   1      41.582  29.300  32.695  1.00  0.00    -0.248 NA
ATOM     46  C   UNL A   1      42.555  27.550  31.496  1.00  0.00     0.031 C 
ATOM     47  C   UNL A   1      38.846  30.107  29.246  1.00  0.00     0.029 A 
ATOM     48  N   UNL A   1      39.468  30.787  31.282  1.00  0.00    -0.354 N 
ATOM     49  C   UNL A   1      42.546  28.683  33.483  1.00  0.00     0.074 A 
ATOM     50  C   UNL A   1      43.075  27.577  32.715  1.00  0.00     0.031 C 
ATOM     51  C   UNL A   1      38.073  31.153  29.574  1.00  0.00     0.029 A 
ATOM     52  C   UNL A   1      38.420  31.602  30.919  1.00  0.00     0.049 A 
ATOM     53  H   UNL A   1      39.947  30.876  32.138  1.00  0.00     0.167 HD
ATOM     54  C   UNL A   1      42.961  29.019  34.727  1.00  0.00     0.037 A 
ATOM     55  C   UNL A   1      37.793  32.581  31.600  1.00  0.00     0.037 A 
ATOM     56  C   UNL A   1      42.445  30.138  35.472  1.00  0.00     0.049 A 
ATOM     57  C   UNL A   1      38.264  32.924  32.988  1.00  0.00     0.074 A 
ATOM     58  C   UNL A   1      42.856  30.610  36.705  1.00  0.00     0.029 A 
ATOM     59  N   UNL A   1      41.397  30.951  35.062  1.00  0.00    -0.354 N 
ATOM     60  N   UNL A   1      39.238  32.387  33.683  1.00  0.00    -0.248 NA
ATOM     61  C   UNL A   1      37.553  34.004  33.687  1.00  0.00     0.031 C 
ATOM     62  C   UNL A   1      42.017  31.666  37.072  1.00  0.00     0.029 A 
ATOM     63  C   UNL A   1      41.124  31.896  36.038  1.00  0.00     0.049 A 
ATOM     64  H   UNL A   1      40.920  30.869  34.205  1.00  0.00     0.167 HD
ATOM     65  C   UNL A   1      39.272  33.080  34.888  1.00  0.00     0.074 A 
ATOM     66  C   UNL A   1      38.232  34.085  34.822  1.00  0.00     0.031 C 
ATOM     67  C   UNL A   1      40.090  32.898  35.955  1.00  0.00     0.037 A 
BRANCH  54  68
ATOM     68  C   UNL A   1      44.023  28.170  35.372  1.00  0.00     0.058 A 
ATOM     69  C   UNL A   1      45.391  28.434  35.199  1.00  0.00     0.135 A 
ATOM     70  C   UNL A   1      43.663  27.114  36.225  1.00  0.00     0.135 A 
ATOM     71  F   UNL A   1      45.791  29.422  34.383  1.00  0.00    -0.206 F 
ATOM     72  C   UNL A   1      46.364  27.668  35.833  1.00  0.00     0.059 A 
ATOM     73  C   UNL A   1      44.620  26.354  36.893  1.00  0.00     0.059 A 
ATOM     74  F   UNL A   1      42.370  26.816  36.425  1.00  0.00    -0.206 F 
ATOM     75  C   UNL A   1      45.969  26.633  36.682  1.00  0.00     0.060 A 
BRANCH  75  76
ATOM     76  S   UNL A   1      47.246  25.666  37.511  1.00  0.00     0.124 S 
ATOM     77  O   UNL A   1      46.450  24.641  38.178  1.00  0.00    -0.237 OA
ATOM     78  O   UNL A   1      48.063  25.205  36.393  1.00  0.00    -0.237 OA
ATOM     79  O   UNL A   1      47.888  26.634  38.395  1.00  0.00    -0.744 OA
ENDBRANCH  75  76
ENDBRANCH  54  68
BRANCH  55  80
ATOM     80  C   UNL A   1      36.645  33.302  30.983  1.00  0.00     0.058 A 
ATOM     81  C   UNL A   1      36.847  34.267  29.983  1.00  0.00     0.135 A 
ATOM     82  C   UNL A   1      35.325  33.046  31.383  1.00  0.00     0.135 A 
ATOM     83  F   UNL A   1      38.091  34.554  29.571  1.00  0.00    -0.206 F 
ATOM     84  C   UNL A   1      35.785  34.966  29.419  1.00  0.00     0.059 A 
ATOM     85  C   UNL A   1      34.243  33.710  30.813  1.00  0.00     0.059 A 
ATOM     86  F   UNL A   1      35.074  32.123  32.325  1.00  0.00    -0.206 F 
ATOM     87  C   UNL A   1      34.485  34.679  29.840  1.00  0.00     0.060 A 
BRANCH  87  88
ATOM     88  S   UNL A   1      33.112  35.570  29.078  1.00  0.00     0.124 S 
ATOM     89  O   UNL A   1      32.478  34.518  28.293  1.00  0.00    -0.237 OA
ATOM     90  O   UNL A   1      32.367  36.036  30.243  1.00  0.00    -0.237 OA
ATOM     91  O   UNL A   1      33.778  36.618  28.309  1.00  0.00    -0.744 OA
ENDBRANCH  87  88
ENDBRANCH  55  80
BRANCH  67  92
ATOM     92  C   UNL A   1      39.921  33.820  37.132  1.00  0.00     0.058 A 
ATOM     93  C   UNL A   1      40.504  35.096  37.160  1.00  0.00     0.135 A 
ATOM     94  C   UNL A   1      39.097  33.452  38.209  1.00  0.00     0.135 A 
ATOM     95  F   UNL A   1      41.308  35.494  36.162  1.00  0.00    -0.206 F 
ATOM     96  C   UNL A   1      40.285  35.972  38.219  1.00  0.00     0.059 A 
ATOM     97  C   UNL A   1      38.838  34.324  39.262  1.00  0.00     0.059 A 
ATOM     98  F   UNL A   1      38.508  32.246  38.228  1.00  0.00    -0.206 F 
ATOM     99  C   UNL A   1      39.442  35.579  39.261  1.00  0.00     0.060 A 
BRANCH  99 100
ATOM    100  S   UNL A   1      39.116  36.751  40.594  1.00  0.00     0.124 S 
ATOM    101  O   UNL A   1      37.920  36.180  41.205  1.00  0.00    -0.237 OA
ATOM    102  O   UNL A   1      40.337  36.664  41.390  1.00  0.00    -0.237 OA
ATOM    103  O   UNL A   1      38.918  38.018  39.895  1.00  0.00    -0.744 OA
ENDBRANCH  99 100
ENDBRANCH  67  92
ENDBRANCH  41  42
ENDBRANCH  33  36
ENDBRANCH  31  32
ENDBRANCH  30  31
ENDBRANCH  29  30
ENDBRANCH   1  29
TORSDOF 19
ENDMDL
MODEL 3
REMARK VINA RESULT:      -9.6      3.530     11.054
REMARK SMILES C[C@@H](C(=O)NCCCCNC(=O)c1ccc(-c2c3nc(c(-c4c(F)cc(S(=O)(=O)[O-])cc4F)c4ccc([nH]4)c(-c4c(F)cc(S(=O)(=O)[O-])cc4F)c4nc(c(-c5c(F)cc(S(=O)(=O)[O-])cc5F)c5ccc2[nH]5)C=C4)C=C3)cc1)c1ccc(-c2cccc(OC(=O)NC3CC3)c2)c(F)c1
REMARK SMILES IDX 6 1 5 2 3 3 4 4 2 6 1 7 79 8 80 9 98 10 81 11 96 12 82 13
REMARK SMILES IDX 97 14 83 15 84 16 95 17 85 18 87 19 86 20 88 21 89 22 90 23
REMARK SMILES IDX 91 24 92 26 93 27 94 28 7 29 8 30 9 31 10 32 11 33 12 35
REMARK SMILES IDX 13 36 14 37 78 38 15 39 77 40 16 41 17 42 18 43 71 44 19 45
REMARK SMILES IDX 76 46 70 47 72 48 20 49 75 50 69 51 68 52 21 54 55 55 34 56
REMARK SMILES IDX 54 57 35 58 38 59 53 60 73 61 36 62 37 63 52 65 74 66 39 67
REMARK SMILES IDX 22 68 23 69 32 70 24 71 25 72 31 73 33 74 26 75 27 76 28 77
REMARK SMILES IDX 29 78 30 79 56 80 57 81 66 82 58 83 59 84 65 85 67 86 60 87
REMARK SMILES IDX 61 88 62 89 63 90 64 91 40 92 41 93 50 94 42 95 43 96 49 97
REMARK SMILES IDX 51 98 44 99 45 100 46 101 47 102 48 103
REMARK H PARENT 5 5 91 25 10 34 72 53 38 64
REMARK Flexibility Score: inf
ROOT
ATOM      1  C   UNL A   1      43.617  23.912  25.466  1.00  0.00     0.116 C 
ENDROOT
BRANCH   1   2
ATOM      2  N   UNL A   1      44.802  23.728  26.274  1.00  0.00    -0.356 N 
ATOM      3  C   UNL A   1      46.009  24.356  26.202  1.00  0.00     0.227 C 
ATOM      4  O   UNL A   1      46.907  23.924  26.926  1.00  0.00    -0.274 OA
ATOM      5  H   UNL A   1      44.725  23.048  26.981  1.00  0.00     0.163 HD
BRANCH   3   6
ATOM      6  C   UNL A   1      46.180  25.580  25.290  1.00  0.00     0.105 C 
ATOM      7  C   UNL A   1      47.604  25.731  24.737  1.00  0.00     0.023 C 
BRANCH   6   8
ATOM      8  C   UNL A   1      45.764  26.859  26.004  1.00  0.00    -0.033 A 
ATOM      9  C   UNL A   1      44.415  27.243  26.049  1.00  0.00     0.005 A 
ATOM     10  C   UNL A   1      46.716  27.667  26.640  1.00  0.00     0.044 A 
ATOM     11  C   UNL A   1      44.039  28.442  26.660  1.00  0.00     0.012 A 
ATOM     12  C   UNL A   1      46.336  28.859  27.237  1.00  0.00     0.131 A 
ATOM     13  C   UNL A   1      45.002  29.285  27.236  1.00  0.00     0.018 A 
ATOM     14  F   UNL A   1      47.291  29.622  27.791  1.00  0.00    -0.206 F 
BRANCH  13  15
ATOM     15  C   UNL A   1      44.645  30.619  27.722  1.00  0.00    -0.012 A 
ATOM     16  C   UNL A   1      44.177  30.844  29.022  1.00  0.00     0.009 A 
ATOM     17  C   UNL A   1      44.767  31.709  26.844  1.00  0.00     0.056 A 
ATOM     18  C   UNL A   1      43.846  32.136  29.440  1.00  0.00     0.004 A 
ATOM     19  C   UNL A   1      44.434  32.991  27.258  1.00  0.00     0.133 A 
ATOM     20  C   UNL A   1      43.973  33.210  28.557  1.00  0.00     0.047 A 
BRANCH  19  21
ATOM     21  O   UNL A   1      44.528  34.138  26.435  1.00  0.00    -0.410 OA
BRANCH  21  22
ATOM     22  C   UNL A   1      43.634  34.509  25.433  1.00  0.00     0.412 C 
ATOM     23  O   UNL A   1      43.438  33.921  24.373  1.00  0.00    -0.224 OA
ATOM     24  N   UNL A   1      42.937  35.655  25.705  1.00  0.00    -0.318 N 
ATOM     25  H   UNL A   1      42.340  35.963  24.984  1.00  0.00     0.167 HD
BRANCH  24  26
ATOM     26  C   UNL A   1      42.943  36.470  26.872  1.00  0.00     0.085 C 
ATOM     27  C   UNL A   1      41.999  37.591  27.194  1.00  0.00     0.027 C 
ATOM     28  C   UNL A   1      41.847  36.274  27.888  1.00  0.00     0.027 C 
ENDBRANCH  24  26
ENDBRANCH  21  22
ENDBRANCH  19  21
ENDBRANCH  13  15
ENDBRANCH   6   8
ENDBRANCH   3   6
ENDBRANCH   1   2
BRANCH   1  29
ATOM     29  C   UNL A   1      43.047  22.561  25.030  1.00  0.00     0.023 C 
BRANCH  29  30
ATOM     30  C   UNL A   1      42.685  21.630  26.190  1.00  0.00     0.023 C 
BRANCH  30  31
ATOM     31  C   UNL A   1      41.442  22.036  26.969  1.00  0.00     0.116 C 
BRANCH  31  32
ATOM     32  N   UNL A   1      40.244  22.052  26.142  1.00  0.00    -0.352 N 
ATOM     33  C   UNL A   1      39.277  23.025  26.053  1.00  0.00     0.251 C 
ATOM     34  H   UNL A   1      40.107  21.261  25.571  1.00  0.00     0.163 HD
ATOM     35  O   UNL A   1      38.247  22.818  25.420  1.00  0.00    -0.269 OA
BRANCH  33  36
ATOM     36  C   UNL A   1      39.482  24.307  26.758  1.00  0.00     0.039 A 
ATOM     37  C   UNL A   1      38.919  24.481  28.022  1.00  0.00     0.014 A 
ATOM     38  C   UNL A   1      40.279  25.306  26.191  1.00  0.00     0.014 A 
ATOM     39  C   UNL A   1      39.220  25.631  28.756  1.00  0.00     0.010 A 
ATOM     40  C   UNL A   1      40.638  26.413  26.952  1.00  0.00     0.010 A 
ATOM     41  C   UNL A   1      40.119  26.583  28.246  1.00  0.00    -0.014 A 
BRANCH  41  42
ATOM     42  C   UNL A   1      40.556  27.748  29.058  1.00  0.00     0.031 A 
ATOM     43  C   UNL A   1      41.847  27.690  29.826  1.00  0.00     0.074 A 
ATOM     44  C   UNL A   1      39.746  28.821  29.170  1.00  0.00     0.049 A 
ATOM     45  N   UNL A   1      42.347  28.559  30.665  1.00  0.00    -0.248 NA
ATOM     46  C   UNL A   1      42.674  26.484  29.647  1.00  0.00     0.031 C 
ATOM     47  C   UNL A   1      38.447  28.973  28.511  1.00  0.00     0.029 A 
ATOM     48  N   UNL A   1      39.884  29.978  29.895  1.00  0.00    -0.354 N 
ATOM     49  C   UNL A   1      43.532  28.000  31.129  1.00  0.00     0.074 A 
ATOM     50  C   UNL A   1      43.656  26.698  30.511  1.00  0.00     0.031 C 
ATOM     51  C   UNL A   1      37.915  30.157  28.852  1.00  0.00     0.029 A 
ATOM     52  C   UNL A   1      38.807  30.829  29.791  1.00  0.00     0.049 A 
ATOM     53  H   UNL A   1      40.680  30.182  30.438  1.00  0.00     0.167 HD
ATOM     54  C   UNL A   1      44.439  28.533  31.980  1.00  0.00     0.037 A 
ATOM     55  C   UNL A   1      38.553  32.003  30.403  1.00  0.00     0.037 A 
ATOM     56  C   UNL A   1      44.318  29.841  32.570  1.00  0.00     0.049 A 
ATOM     57  C   UNL A   1      39.572  32.565  31.358  1.00  0.00     0.074 A 
ATOM     58  C   UNL A   1      45.222  30.504  33.381  1.00  0.00     0.029 A 
ATOM     59  N   UNL A   1      43.222  30.679  32.427  1.00  0.00    -0.354 N 
ATOM     60  N   UNL A   1      40.730  32.064  31.716  1.00  0.00    -0.248 NA
ATOM     61  C   UNL A   1      39.253  33.851  31.994  1.00  0.00     0.031 C 
ATOM     62  C   UNL A   1      44.647  31.714  33.780  1.00  0.00     0.029 A 
ATOM     63  C   UNL A   1      43.411  31.836  33.166  1.00  0.00     0.049 A 
ATOM     64  H   UNL A   1      42.427  30.482  31.880  1.00  0.00     0.167 HD
ATOM     65  C   UNL A   1      41.287  32.983  32.598  1.00  0.00     0.074 A 
ATOM     66  C   UNL A   1      40.347  34.079  32.707  1.00  0.00     0.031 C 
ATOM     67  C   UNL A   1      42.470  32.924  33.259  1.00  0.00     0.037 A 
BRANCH  54  68
ATOM     68  C   UNL A   1      45.646  27.707  32.336  1.00  0.00     0.058 A 
ATOM     69  C   UNL A   1      46.867  27.847  31.657  1.00  0.00     0.135 A 
ATOM     70  C   UNL A   1      45.596  26.806  33.412  1.00  0.00     0.135 A 
ATOM     71  F   UNL A   1      46.968  28.683  30.611  1.00  0.00    -0.206 F 
ATOM     72  C   UNL A   1      47.989  27.109  32.020  1.00  0.00     0.059 A 
ATOM     73  C   UNL A   1      46.714  26.080  33.812  1.00  0.00     0.059 A 
ATOM     74  F   UNL A   1      44.454  26.631  34.094  1.00  0.00    -0.206 F 
ATOM     75  C   UNL A   1      47.904  26.230  33.102  1.00  0.00     0.060 A 
BRANCH  75  76
ATOM     76  S   UNL A   1      49.376  25.298  33.569  1.00  0.00     0.124 S 
ATOM     77  O   UNL A   1      48.862  24.465  34.652  1.00  0.00    -0.237 OA
ATOM     78  O   UNL A   1      49.706  24.596  32.333  1.00  0.00    -0.237 OA
ATOM     79  O   UNL A   1      50.323  26.333  33.972  1.00  0.00    -0.744 OA
ENDBRANCH  75  76
ENDBRANCH  54  68
BRANCH  55  80
ATOM     80  C   UNL A   1      37.276  32.722  30.139  1.00  0.00     0.058 A 
ATOM     81  C   UNL A   1      36.140  32.496  30.931  1.00  0.00     0.135 A 
ATOM     82  C   UNL A   1      37.164  33.645  29.087  1.00  0.00     0.135 A 
ATOM     83  F   UNL A   1      36.193  31.618  31.944  1.00  0.00    -0.206 F 
ATOM     84  C   UNL A   1      34.934  33.142  30.677  1.00  0.00     0.059 A 
ATOM     85  C   UNL A   1      35.978  34.325  28.832  1.00  0.00     0.059 A 
ATOM     86  F   UNL A   1      38.224  33.909  28.308  1.00  0.00    -0.206 F 
ATOM     87  C   UNL A   1      34.863  34.056  29.625  1.00  0.00     0.060 A 
BRANCH  87  88
ATOM     88  S   UNL A   1      33.301  34.912  29.326  1.00  0.00     0.124 S 
ATOM     89  O   UNL A   1      33.762  36.186  28.789  1.00  0.00    -0.237 OA
ATOM     90  O   UNL A   1      32.642  34.019  28.376  1.00  0.00    -0.237 OA
ATOM     91  O   UNL A   1      32.690  34.968  30.650  1.00  0.00    -0.744 OA
ENDBRANCH  87  88
ENDBRANCH  55  80
BRANCH  67  92
ATOM     92  C   UNL A   1      42.838  34.087  34.140  1.00  0.00     0.058 A 
ATOM     93  C   UNL A   1      42.595  34.071  35.522  1.00  0.00     0.135 A 
ATOM     94  C   UNL A   1      43.518  35.195  33.606  1.00  0.00     0.135 A 
ATOM     95  F   UNL A   1      41.941  33.042  36.082  1.00  0.00    -0.206 F 
ATOM     96  C   UNL A   1      43.004  35.118  36.343  1.00  0.00     0.059 A 
ATOM     97  C   UNL A   1      43.963  36.237  34.413  1.00  0.00     0.059 A 
ATOM     98  F   UNL A   1      43.783  35.256  32.292  1.00  0.00    -0.206 F 
ATOM     99  C   UNL A   1      43.697  36.192  35.780  1.00  0.00     0.060 A 
BRANCH  99 100
ATOM    100  S   UNL A   1      44.277  37.510  36.868  1.00  0.00     0.124 S 
ATOM    101  O   UNL A   1      45.515  36.941  37.389  1.00  0.00    -0.237 OA
ATOM    102  O   UNL A   1      44.433  38.630  35.944  1.00  0.00    -0.237 OA
ATOM    103  O   UNL A   1      43.195  37.652  37.839  1.00  0.00    -0.744 OA
ENDBRANCH  99 100
ENDBRANCH  67  92
ENDBRANCH  41  42
ENDBRANCH  33  36
ENDBRANCH  31  32
ENDBRANCH  30  31
ENDBRANCH  29  30
ENDBRANCH   1  29
TORSDOF 19
ENDMDL
