MODEL 1
REMARK VINA RESULT:     -13.7      0.000      0.000
REMARK SMILES NC(=O)c1c(-c2ccc(Cl)cc2)csc1NC(=O)[C@H]1[C@@H](C(=O)NCCCCNC(=O)c2ccc(-c3c4nc(c(-c5c(F)cc(S(=O)(=O)[O-])cc5F)c5ccc([nH]5)c(-c5c(F)cc(S(=O)(=O)[O-])cc5F)c5nc(c(-c6c(F)cc(S(=O)(=O)[O-])cc6F)c6ccc3[nH]6)C=C5)C=C4)cc2)[C@@H]2CC[C@H]1O2
REMARK SMILES IDX 25 1 24 2 23 3 21 4 22 5 20 7 19 8 100 9 97 10 99 11 101 12
REMARK SMILES IDX 98 13 17 14 16 15 18 17 15 18 4 19 5 20 13 21 14 22 2 23
REMARK SMILES IDX 1 24 3 27 6 28 7 29 12 30 8 31 11 32 9 33 10 34 26 35 27 36
REMARK SMILES IDX 28 37 29 38 30 40 31 41 32 42 96 43 33 44 95 45 34 46 35 47
REMARK SMILES IDX 36 48 89 49 37 50 94 51 88 52 90 53 38 54 93 55 87 56 86 57
REMARK SMILES IDX 39 59 73 60 52 61 72 62 53 63 56 64 71 65 91 66 54 67 55 68
REMARK SMILES IDX 70 70 92 71 57 72 40 73 41 74 50 75 42 76 43 77 49 78 51 79
REMARK SMILES IDX 44 80 45 81 46 82 47 83 48 84 74 85 75 86 84 87 76 88 77 89
REMARK SMILES IDX 83 90 85 91 78 92 79 93 80 94 81 95 82 96 58 97 59 98 68 99
REMARK SMILES IDX 60 100 61 101 67 102 69 103 62 104 63 105 64 106 65 107
REMARK SMILES IDX 66 108
REMARK H PARENT 23 6 16 16 1 25 1 26 28 39 90 58 56 69
REMARK Flexibility Score: inf
ROOT
ATOM      1  C   UNL A   1      39.128  21.596  25.780  1.00  0.00     0.023 C 
ENDROOT
BRANCH   1   2
ATOM      2  C   UNL A   1      37.742  21.194  25.260  1.00  0.00     0.116 C 
BRANCH   2   3
ATOM      3  N   UNL A   1      36.686  21.720  26.108  1.00  0.00    -0.356 N 
ATOM      4  C   UNL A   1      35.337  21.728  26.089  1.00  0.00     0.226 C 
ATOM      5  O   UNL A   1      34.821  22.343  27.035  1.00  0.00    -0.275 OA
ATOM      6  H   UNL A   1      37.047  22.190  26.895  1.00  0.00     0.163 HD
BRANCH   4   7
ATOM      7  C   UNL A   1      34.399  21.147  25.039  1.00  0.00     0.122 C 
ATOM      8  C   UNL A   1      34.340  21.964  23.723  1.00  0.00     0.123 C 
ATOM      9  C   UNL A   1      32.840  22.151  23.508  1.00  0.00     0.132 C 
ATOM     10  C   UNL A   1      32.916  20.869  25.267  1.00  0.00     0.132 C 
ATOM     11  C   UNL A   1      32.230  20.859  22.964  1.00  0.00     0.035 C 
ATOM     12  O   UNL A   1      32.311  22.108  24.861  1.00  0.00    -0.373 OA
ATOM     13  C   UNL A   1      32.338  19.939  24.183  1.00  0.00     0.035 C 
BRANCH   8  14
ATOM     14  C   UNL A   1      35.226  23.189  23.472  1.00  0.00     0.231 C 
ATOM     15  N   UNL A   1      35.054  24.428  23.994  1.00  0.00    -0.317 N 
ATOM     16  H   UNL A   1      35.889  24.944  24.064  1.00  0.00     0.170 HD
ATOM     17  O   UNL A   1      36.253  23.011  22.796  1.00  0.00    -0.274 OA
BRANCH  15  18
ATOM     18  C   UNL A   1      33.948  25.107  24.444  1.00  0.00     0.108 A 
ATOM     19  C   UNL A   1      32.952  25.678  23.665  1.00  0.00     0.082 A 
ATOM     20  C   UNL A   1      31.918  26.241  24.504  1.00  0.00     0.007 A 
ATOM     21  C   UNL A   1      32.162  26.025  25.845  1.00  0.00     0.076 A 
ATOM     22  S   UNL A   1      33.539  25.060  26.083  1.00  0.00    -0.125 S 
BRANCH  19  23
ATOM     23  C   UNL A   1      33.035  25.684  22.206  1.00  0.00     0.252 C 
ATOM     24  N   UNL A   1      32.036  25.042  21.538  1.00  0.00    -0.365 N 
ATOM     25  H   UNL A   1      32.041  25.015  20.554  1.00  0.00     0.159 HD
ATOM     26  H   UNL A   1      31.308  24.607  22.038  1.00  0.00     0.159 HD
ATOM     27  O   UNL A   1      33.928  26.264  21.596  1.00  0.00    -0.269 OA
ENDBRANCH  19  23
BRANCH  20  28
ATOM     28  C   UNL A   1      30.673  26.868  24.103  1.00  0.00    -0.017 A 
ATOM     29  C   UNL A   1      29.462  26.190  24.247  1.00  0.00     0.010 A 
ATOM     30  C   UNL A   1      30.693  28.155  23.550  1.00  0.00     0.010 A 
ATOM     31  C   UNL A   1      28.281  26.808  23.841  1.00  0.00     0.021 A 
ATOM     32  C   UNL A   1      29.502  28.773  23.164  1.00  0.00     0.021 A 
ATOM     33  C   UNL A   1      28.298  28.098  23.320  1.00  0.00     0.041 A 
ATOM     34  Cl  UNL A   1      26.818  28.841  22.862  1.00  0.00    -0.084 Cl
ENDBRANCH  20  28
ENDBRANCH  15  18
ENDBRANCH   8  14
ENDBRANCH   4   7
ENDBRANCH   2   3
ENDBRANCH   1   2
BRANCH   1  35
ATOM     35  C   UNL A   1      39.180  22.947  26.520  1.00  0.00     0.023 C 
BRANCH  35  36
ATOM     36  C   UNL A   1      40.576  23.475  26.875  1.00  0.00     0.116 C 
BRANCH  36  37
ATOM     37  N   UNL A   1      41.163  24.307  25.831  1.00  0.00    -0.352 N 
ATOM     38  C   UNL A   1      41.580  25.621  25.902  1.00  0.00     0.251 C 
ATOM     39  H   UNL A   1      41.276  23.872  24.956  1.00  0.00     0.163 HD
ATOM     40  O   UNL A   1      41.968  26.203  24.896  1.00  0.00    -0.269 OA
BRANCH  38  41
ATOM     41  C   UNL A   1      41.584  26.307  27.209  1.00  0.00     0.039 A 
ATOM     42  C   UNL A   1      42.559  27.243  27.537  1.00  0.00     0.014 A 
ATOM     43  C   UNL A   1      40.578  26.011  28.122  1.00  0.00     0.014 A 
ATOM     44  C   UNL A   1      42.463  27.939  28.753  1.00  0.00     0.010 A 
ATOM     45  C   UNL A   1      40.433  26.764  29.290  1.00  0.00     0.010 A 
ATOM     46  C   UNL A   1      41.360  27.763  29.619  1.00  0.00    -0.014 A 
BRANCH  46  47
ATOM     47  C   UNL A   1      41.124  28.681  30.786  1.00  0.00     0.031 A 
ATOM     48  C   UNL A   1      41.931  28.603  32.069  1.00  0.00     0.074 A 
ATOM     49  C   UNL A   1      40.080  29.543  30.740  1.00  0.00     0.049 A 
ATOM     50  N   UNL A   1      41.795  29.302  33.173  1.00  0.00    -0.248 NA
ATOM     51  C   UNL A   1      42.988  27.583  32.151  1.00  0.00     0.031 C 
ATOM     52  C   UNL A   1      39.107  29.638  29.646  1.00  0.00     0.029 A 
ATOM     53  N   UNL A   1      39.654  30.501  31.630  1.00  0.00    -0.354 N 
ATOM     54  C   UNL A   1      42.700  28.771  34.088  1.00  0.00     0.074 A 
ATOM     55  C   UNL A   1      43.355  27.666  33.425  1.00  0.00     0.031 C 
ATOM     56  C   UNL A   1      38.247  30.636  29.898  1.00  0.00     0.029 A 
ATOM     57  C   UNL A   1      38.570  31.228  31.191  1.00  0.00     0.049 A 
ATOM     58  H   UNL A   1      40.085  30.652  32.503  1.00  0.00     0.167 HD
ATOM     59  C   UNL A   1      42.983  29.181  35.352  1.00  0.00     0.037 A 
ATOM     60  C   UNL A   1      37.907  32.261  31.749  1.00  0.00     0.037 A 
ATOM     61  C   UNL A   1      42.417  30.353  35.975  1.00  0.00     0.049 A 
ATOM     62  C   UNL A   1      38.346  32.794  33.083  1.00  0.00     0.074 A 
ATOM     63  C   UNL A   1      42.773  30.940  37.179  1.00  0.00     0.029 A 
ATOM     64  N   UNL A   1      41.395  31.124  35.447  1.00  0.00    -0.354 N 
ATOM     65  N   UNL A   1      39.297  32.355  33.871  1.00  0.00    -0.248 NA
ATOM     66  C   UNL A   1      37.633  33.972  33.600  1.00  0.00     0.031 C 
ATOM     67  C   UNL A   1      41.944  32.045  37.396  1.00  0.00     0.029 A 
ATOM     68  C   UNL A   1      41.103  32.173  36.305  1.00  0.00     0.049 A 
ATOM     69  H   UNL A   1      40.942  30.952  34.590  1.00  0.00     0.167 HD
ATOM     70  C   UNL A   1      39.313  33.218  34.961  1.00  0.00     0.074 A 
ATOM     71  C   UNL A   1      38.293  34.215  34.724  1.00  0.00     0.031 C 
ATOM     72  C   UNL A   1      40.104  33.180  36.061  1.00  0.00     0.037 A 
BRANCH  59  73
ATOM     73  C   UNL A   1      43.997  28.407  36.160  1.00  0.00     0.058 A 
ATOM     74  C   UNL A   1      45.330  28.831  36.271  1.00  0.00     0.135 A 
ATOM     75  C   UNL A   1      43.596  27.310  36.946  1.00  0.00     0.135 A 
ATOM     76  F   UNL A   1      45.771  29.872  35.546  1.00  0.00    -0.206 F 
ATOM     77  C   UNL A   1      46.230  28.194  37.121  1.00  0.00     0.059 A 
ATOM     78  C   UNL A   1      44.473  26.677  37.824  1.00  0.00     0.059 A 
ATOM     79  F   UNL A   1      42.330  26.867  36.892  1.00  0.00    -0.206 F 
ATOM     80  C   UNL A   1      45.790  27.124  37.902  1.00  0.00     0.060 A 
BRANCH  80  81
ATOM     81  S   UNL A   1      46.957  26.357  39.046  1.00  0.00     0.124 S 
ATOM     82  O   UNL A   1      48.057  27.315  39.029  1.00  0.00    -0.237 OA
ATOM     83  O   UNL A   1      46.188  26.300  40.286  1.00  0.00    -0.237 OA
ATOM     84  O   UNL A   1      47.241  25.064  38.430  1.00  0.00    -0.744 OA
ENDBRANCH  80  81
ENDBRANCH  59  73
BRANCH  60  85
ATOM     85  C   UNL A   1      36.774  32.900  31.024  1.00  0.00     0.058 A 
ATOM     86  C   UNL A   1      37.009  33.737  29.923  1.00  0.00     0.135 A 
ATOM     87  C   UNL A   1      35.444  32.701  31.423  1.00  0.00     0.135 A 
ATOM     88  F   UNL A   1      38.265  33.958  29.504  1.00  0.00    -0.206 F 
ATOM     89  C   UNL A   1      35.970  34.387  29.266  1.00  0.00     0.059 A 
ATOM     90  C   UNL A   1      34.385  33.316  30.763  1.00  0.00     0.059 A 
ATOM     91  F   UNL A   1      35.164  31.886  32.452  1.00  0.00    -0.206 F 
ATOM     92  C   UNL A   1      34.660  34.174  29.697  1.00  0.00     0.060 A 
BRANCH  92  93
ATOM     93  S   UNL A   1      33.315  35.007  28.829  1.00  0.00     0.124 S 
ATOM     94  O   UNL A   1      32.923  33.993  27.856  1.00  0.00    -0.237 OA
ATOM     95  O   UNL A   1      32.363  35.260  29.907  1.00  0.00    -0.237 OA
ATOM     96  O   UNL A   1      33.959  36.196  28.280  1.00  0.00    -0.744 OA
ENDBRANCH  92  93
ENDBRANCH  60  85
BRANCH  72  97
ATOM     97  C   UNL A   1      39.936  34.275  37.078  1.00  0.00     0.058 A 
ATOM     98  C   UNL A   1      39.176  34.091  38.242  1.00  0.00     0.135 A 
ATOM     99  C   UNL A   1      40.577  35.511  36.902  1.00  0.00     0.135 A 
ATOM    100  F   UNL A   1      38.537  32.930  38.457  1.00  0.00    -0.206 F 
ATOM    101  C   UNL A   1      39.036  35.104  39.187  1.00  0.00     0.059 A 
ATOM    102  C   UNL A   1      40.473  36.529  37.844  1.00  0.00     0.059 A 
ATOM    103  F   UNL A   1      41.323  35.736  35.808  1.00  0.00    -0.206 F 
ATOM    104  C   UNL A   1      39.689  36.321  38.978  1.00  0.00     0.060 A 
BRANCH 104 105
ATOM    105  S   UNL A   1      39.521  37.618  40.222  1.00  0.00     0.124 S 
ATOM    106  O   UNL A   1      39.006  36.868  41.362  1.00  0.00    -0.237 OA
ATOM    107  O   UNL A   1      40.890  38.109  40.352  1.00  0.00    -0.237 OA
ATOM    108  O   UNL A   1      38.582  38.554  39.610  1.00  0.00    -0.744 OA
ENDBRANCH 104 105
ENDBRANCH  72  97
ENDBRANCH  46  47
ENDBRANCH  38  41
ENDBRANCH  36  37
ENDBRANCH  35  36
ENDBRANCH   1  35
TORSDOF 18
ENDMDL
MODEL 2
REMARK VINA RESULT:     -13.3      6.489     11.908
REMARK SMILES NC(=O)c1c(-c2ccc(Cl)cc2)csc1NC(=O)[C@H]1[C@@H](C(=O)NCCCCNC(=O)c2ccc(-c3c4nc(c(-c5c(F)cc(S(=O)(=O)[O-])cc5F)c5ccc([nH]5)c(-c5c(F)cc(S(=O)(=O)[O-])cc5F)c5nc(c(-c6c(F)cc(S(=O)(=O)[O-])cc6F)c6ccc3[nH]6)C=C5)C=C4)cc2)[C@@H]2CC[C@H]1O2
REMARK SMILES IDX 25 1 24 2 23 3 21 4 22 5 20 7 19 8 100 9 97 10 99 11 101 12
REMARK SMILES IDX 98 13 17 14 16 15 18 17 15 18 4 19 5 20 13 21 14 22 2 23
REMARK SMILES IDX 1 24 3 27 6 28 7 29 12 30 8 31 11 32 9 33 10 34 26 35 27 36
REMARK SMILES IDX 28 37 29 38 30 40 31 41 32 42 96 43 33 44 95 45 34 46 35 47
REMARK SMILES IDX 36 48 89 49 37 50 94 51 88 52 90 53 38 54 93 55 87 56 86 57
REMARK SMILES IDX 39 59 73 60 52 61 72 62 53 63 56 64 71 65 91 66 54 67 55 68
REMARK SMILES IDX 70 70 92 71 57 72 40 73 41 74 50 75 42 76 43 77 49 78 51 79
REMARK SMILES IDX 44 80 45 81 46 82 47 83 48 84 74 85 75 86 84 87 76 88 77 89
REMARK SMILES IDX 83 90 85 91 78 92 79 93 80 94 81 95 82 96 58 97 59 98 68 99
REMARK SMILES IDX 60 100 61 101 67 102 69 103 62 104 63 105 64 106 65 107
REMARK SMILES IDX 66 108
REMARK H PARENT 23 6 16 16 1 25 1 26 28 39 90 58 56 69
REMARK Flexibility Score: inf
ROOT
ATOM      1  C   UNL A   1      34.127  30.391  27.634  1.00  0.00     0.023 C 
ENDROOT
BRANCH   1   2
ATOM      2  C   UNL A   1      33.100  30.284  26.499  1.00  0.00     0.116 C 
BRANCH   2   3
ATOM      3  N   UNL A   1      33.636  29.545  25.370  1.00  0.00    -0.356 N 
ATOM      4  C   UNL A   1      33.142  28.713  24.430  1.00  0.00     0.226 C 
ATOM      5  O   UNL A   1      33.996  28.270  23.647  1.00  0.00    -0.275 OA
ATOM      6  H   UNL A   1      34.605  29.687  25.264  1.00  0.00     0.163 HD
BRANCH   4   7
ATOM      7  C   UNL A   1      31.713  28.211  24.262  1.00  0.00     0.122 C 
ATOM      8  C   UNL A   1      31.257  27.221  25.364  1.00  0.00     0.123 C 
ATOM      9  C   UNL A   1      30.694  26.054  24.557  1.00  0.00     0.132 C 
ATOM     10  C   UNL A   1      31.187  27.509  23.014  1.00  0.00     0.132 C 
ATOM     11  C   UNL A   1      29.306  26.412  24.028  1.00  0.00     0.035 C 
ATOM     12  O   UNL A   1      31.445  26.127  23.314  1.00  0.00    -0.373 OA
ATOM     13  C   UNL A   1      29.647  27.479  22.984  1.00  0.00     0.035 C 
BRANCH   8  14
ATOM     14  C   UNL A   1      32.137  26.863  26.566  1.00  0.00     0.231 C 
ATOM     15  N   UNL A   1      33.220  26.050  26.557  1.00  0.00    -0.317 N 
ATOM     16  H   UNL A   1      33.870  26.252  27.269  1.00  0.00     0.170 HD
ATOM     17  O   UNL A   1      31.888  27.441  27.637  1.00  0.00    -0.274 OA
BRANCH  15  18
ATOM     18  C   UNL A   1      33.595  25.000  25.753  1.00  0.00     0.108 A 
ATOM     19  C   UNL A   1      33.196  23.677  25.878  1.00  0.00     0.082 A 
ATOM     20  C   UNL A   1      33.744  22.884  24.800  1.00  0.00     0.007 A 
ATOM     21  C   UNL A   1      34.472  23.647  23.911  1.00  0.00     0.076 A 
ATOM     22  S   UNL A   1      34.396  25.300  24.295  1.00  0.00    -0.125 S 
BRANCH  19  23
ATOM     23  C   UNL A   1      32.359  23.235  26.990  1.00  0.00     0.252 C 
ATOM     24  N   UNL A   1      32.918  22.341  27.854  1.00  0.00    -0.365 N 
ATOM     25  H   UNL A   1      32.399  22.010  28.622  1.00  0.00     0.159 HD
ATOM     26  H   UNL A   1      33.840  22.027  27.710  1.00  0.00     0.159 HD
ATOM     27  O   UNL A   1      31.225  23.665  27.177  1.00  0.00    -0.269 OA
ENDBRANCH  19  23
BRANCH  20  28
ATOM     28  C   UNL A   1      33.524  21.479  24.514  1.00  0.00    -0.017 A 
ATOM     29  C   UNL A   1      32.361  21.064  23.864  1.00  0.00     0.010 A 
ATOM     30  C   UNL A   1      34.479  20.534  24.910  1.00  0.00     0.010 A 
ATOM     31  C   UNL A   1      32.167  19.707  23.612  1.00  0.00     0.021 A 
ATOM     32  C   UNL A   1      34.284  19.179  24.636  1.00  0.00     0.021 A 
ATOM     33  C   UNL A   1      33.129  18.772  23.979  1.00  0.00     0.041 A 
ATOM     34  Cl  UNL A   1      32.871  17.112  23.622  1.00  0.00    -0.084 Cl
ENDBRANCH  20  28
ENDBRANCH  15  18
ENDBRANCH   8  14
ENDBRANCH   4   7
ENDBRANCH   2   3
ENDBRANCH   1   2
BRANCH   1  35
ATOM     35  C   UNL A   1      34.651  31.813  27.909  1.00  0.00     0.023 C 
BRANCH  35  36
ATOM     36  C   UNL A   1      35.814  31.929  28.903  1.00  0.00     0.116 C 
BRANCH  36  37
ATOM     37  N   UNL A   1      35.646  31.099  30.090  1.00  0.00    -0.352 N 
ATOM     38  C   UNL A   1      36.548  30.236  30.679  1.00  0.00     0.251 C 
ATOM     39  H   UNL A   1      34.769  31.162  30.531  1.00  0.00     0.163 HD
ATOM     40  O   UNL A   1      36.209  29.538  31.628  1.00  0.00    -0.269 OA
BRANCH  38  41
ATOM     41  C   UNL A   1      37.935  30.186  30.174  1.00  0.00     0.039 A 
ATOM     42  C   UNL A   1      39.023  30.393  31.014  1.00  0.00     0.014 A 
ATOM     43  C   UNL A   1      38.145  29.914  28.828  1.00  0.00     0.014 A 
ATOM     44  C   UNL A   1      40.323  30.238  30.506  1.00  0.00     0.010 A 
ATOM     45  C   UNL A   1      39.434  29.674  28.343  1.00  0.00     0.010 A 
ATOM     46  C   UNL A   1      40.551  29.806  29.179  1.00  0.00    -0.014 A 
BRANCH  46  47
ATOM     47  C   UNL A   1      41.919  29.396  28.711  1.00  0.00     0.031 A 
ATOM     48  C   UNL A   1      43.068  30.379  28.572  1.00  0.00     0.074 A 
ATOM     49  C   UNL A   1      42.112  28.123  28.291  1.00  0.00     0.049 A 
ATOM     50  N   UNL A   1      44.286  30.165  28.129  1.00  0.00    -0.248 NA
ATOM     51  C   UNL A   1      42.813  31.784  28.921  1.00  0.00     0.031 C 
ATOM     52  C   UNL A   1      41.075  27.091  28.209  1.00  0.00     0.029 A 
ATOM     53  N   UNL A   1      43.243  27.476  27.850  1.00  0.00    -0.354 N 
ATOM     54  C   UNL A   1      44.914  31.408  28.092  1.00  0.00     0.074 A 
ATOM     55  C   UNL A   1      43.932  32.378  28.522  1.00  0.00     0.031 C 
ATOM     56  C   UNL A   1      41.625  25.933  27.814  1.00  0.00     0.029 A 
ATOM     57  C   UNL A   1      43.047  26.142  27.565  1.00  0.00     0.049 A 
ATOM     58  H   UNL A   1      44.113  27.925  27.746  1.00  0.00     0.167 HD
ATOM     59  C   UNL A   1      46.196  31.712  27.762  1.00  0.00     0.037 A 
ATOM     60  C   UNL A   1      43.903  25.184  27.160  1.00  0.00     0.037 A 
ATOM     61  C   UNL A   1      47.210  30.736  27.446  1.00  0.00     0.049 A 
ATOM     62  C   UNL A   1      45.353  25.520  26.953  1.00  0.00     0.074 A 
ATOM     63  C   UNL A   1      48.570  30.939  27.268  1.00  0.00     0.029 A 
ATOM     64  N   UNL A   1      46.989  29.380  27.273  1.00  0.00    -0.354 N 
ATOM     65  N   UNL A   1      45.949  26.682  27.056  1.00  0.00    -0.248 NA
ATOM     66  C   UNL A   1      46.251  24.414  26.589  1.00  0.00     0.031 C 
ATOM     67  C   UNL A   1      49.164  29.713  26.957  1.00  0.00     0.029 A 
ATOM     68  C   UNL A   1      48.183  28.738  26.983  1.00  0.00     0.049 A 
ATOM     69  H   UNL A   1      46.112  28.937  27.344  1.00  0.00     0.167 HD
ATOM     70  C   UNL A   1      47.295  26.442  26.797  1.00  0.00     0.074 A 
ATOM     71  C   UNL A   1      47.429  25.023  26.551  1.00  0.00     0.031 C 
ATOM     72  C   UNL A   1      48.322  27.323  26.761  1.00  0.00     0.037 A 
BRANCH  59  73
ATOM     73  C   UNL A   1      46.628  33.158  27.772  1.00  0.00     0.058 A 
ATOM     74  C   UNL A   1      46.349  34.020  26.699  1.00  0.00     0.135 A 
ATOM     75  C   UNL A   1      47.200  33.724  28.927  1.00  0.00     0.135 A 
ATOM     76  F   UNL A   1      45.804  33.538  25.571  1.00  0.00    -0.206 F 
ATOM     77  C   UNL A   1      46.628  35.382  26.764  1.00  0.00     0.059 A 
ATOM     78  C   UNL A   1      47.460  35.090  29.025  1.00  0.00     0.059 A 
ATOM     79  F   UNL A   1      47.477  32.953  29.991  1.00  0.00    -0.206 F 
ATOM     80  C   UNL A   1      47.175  35.910  27.935  1.00  0.00     0.060 A 
BRANCH  80  81
ATOM     81  S   UNL A   1      47.466  37.690  28.022  1.00  0.00     0.124 S 
ATOM     82  O   UNL A   1      48.075  37.823  29.342  1.00  0.00    -0.237 OA
ATOM     83  O   UNL A   1      48.357  37.917  26.889  1.00  0.00    -0.237 OA
ATOM     84  O   UNL A   1      46.129  38.261  27.887  1.00  0.00    -0.744 OA
ENDBRANCH  80  81
ENDBRANCH  59  73
BRANCH  60  85
ATOM     85  C   UNL A   1      43.425  23.788  26.964  1.00  0.00     0.058 A 
ATOM     86  C   UNL A   1      43.201  23.281  25.675  1.00  0.00     0.135 A 
ATOM     87  C   UNL A   1      43.169  22.942  28.053  1.00  0.00     0.135 A 
ATOM     88  F   UNL A   1      43.433  24.052  24.601  1.00  0.00    -0.206 F 
ATOM     89  C   UNL A   1      42.703  21.999  25.471  1.00  0.00     0.059 A 
ATOM     90  C   UNL A   1      42.698  21.645  27.875  1.00  0.00     0.059 A 
ATOM     91  F   UNL A   1      43.394  23.369  29.305  1.00  0.00    -0.206 F 
ATOM     92  C   UNL A   1      42.450  21.189  26.579  1.00  0.00     0.060 A 
BRANCH  92  93
ATOM     93  S   UNL A   1      41.819  19.520  26.307  1.00  0.00     0.124 S 
ATOM     94  O   UNL A   1      40.387  19.764  26.189  1.00  0.00    -0.237 OA
ATOM     95  O   UNL A   1      42.505  19.127  25.080  1.00  0.00    -0.237 OA
ATOM     96  O   UNL A   1      42.242  18.805  27.508  1.00  0.00    -0.744 OA
ENDBRANCH  92  93
ENDBRANCH  60  85
BRANCH  72  97
ATOM     97  C   UNL A   1      49.698  26.779  26.494  1.00  0.00     0.058 A 
ATOM     98  C   UNL A   1      50.486  26.228  27.516  1.00  0.00     0.135 A 
ATOM     99  C   UNL A   1      50.218  26.772  25.190  1.00  0.00     0.135 A 
ATOM    100  F   UNL A   1      50.039  26.215  28.782  1.00  0.00    -0.206 F 
ATOM    101  C   UNL A   1      51.753  25.713  27.259  1.00  0.00     0.059 A 
ATOM    102  C   UNL A   1      51.470  26.239  24.905  1.00  0.00     0.059 A 
ATOM    103  F   UNL A   1      49.501  27.280  24.174  1.00  0.00    -0.206 F 
ATOM    104  C   UNL A   1      52.237  25.723  25.948  1.00  0.00     0.060 A 
BRANCH 104 105
ATOM    105  S   UNL A   1      53.872  25.029  25.623  1.00  0.00     0.124 S 
ATOM    106  O   UNL A   1      54.600  25.416  26.826  1.00  0.00    -0.237 OA
ATOM    107  O   UNL A   1      53.586  23.604  25.485  1.00  0.00    -0.237 OA
ATOM    108  O   UNL A   1      54.287  25.701  24.395  1.00  0.00    -0.744 OA
ENDBRANCH 104 105
ENDBRANCH  72  97
ENDBRANCH  46  47
ENDBRANCH  38  41
ENDBRANCH  36  37
ENDBRANCH  35  36
ENDBRANCH   1  35
TORSDOF 18
ENDMDL
MODEL 3
REMARK VINA RESULT:     -12.9      6.367     11.528
REMARK SMILES NC(=O)c1c(-c2ccc(Cl)cc2)csc1NC(=O)[C@H]1[C@@H](C(=O)NCCCCNC(=O)c2ccc(-c3c4nc(c(-c5c(F)cc(S(=O)(=O)[O-])cc5F)c5ccc([nH]5)c(-c5c(F)cc(S(=O)(=O)[O-])cc5F)c5nc(c(-c6c(F)cc(S(=O)(=O)[O-])cc6F)c6ccc3[nH]6)C=C5)C=C4)cc2)[C@@H]2CC[C@H]1O2
REMARK SMILES IDX 25 1 24 2 23 3 21 4 22 5 20 7 19 8 100 9 97 10 99 11 101 12
REMARK SMILES IDX 98 13 17 14 16 15 18 17 15 18 4 19 5 20 13 21 14 22 2 23
REMARK SMILES IDX 1 24 3 27 6 28 7 29 12 30 8 31 11 32 9 33 10 34 26 35 27 36
REMARK SMILES IDX 28 37 29 38 30 40 31 41 32 42 96 43 33 44 95 45 34 46 35 47
REMARK SMILES IDX 36 48 89 49 37 50 94 51 88 52 90 53 38 54 93 55 87 56 86 57
REMARK SMILES IDX 39 59 73 60 52 61 72 62 53 63 56 64 71 65 91 66 54 67 55 68
REMARK SMILES IDX 70 70 92 71 57 72 40 73 41 74 50 75 42 76 43 77 49 78 51 79
REMARK SMILES IDX 44 80 45 81 46 82 47 83 48 84 74 85 75 86 84 87 76 88 77 89
REMARK SMILES IDX 83 90 85 91 78 92 79 93 80 94 81 95 82 96 58 97 59 98 68 99
REMARK SMILES IDX 60 100 61 101 67 102 69 103 62 104 63 105 64 106 65 107
REMARK SMILES IDX 66 108
REMARK H PARENT 23 6 16 16 1 25 1 26 28 39 90 58 56 69
REMARK Flexibility Score: inf
ROOT
ATOM      1  C   UNL A   1      33.030  31.190  27.229  1.00  0.00     0.023 C 
ENDROOT
BRANCH   1   2
ATOM      2  C   UNL A   1      32.186  30.350  26.262  1.00  0.00     0.116 C 
BRANCH   2   3
ATOM      3  N   UNL A   1      31.857  29.057  26.835  1.00  0.00    -0.356 N 
ATOM      4  C   UNL A   1      31.401  27.875  26.369  1.00  0.00     0.226 C 
ATOM      5  O   UNL A   1      31.227  27.018  27.249  1.00  0.00    -0.275 OA
ATOM      6  H   UNL A   1      32.004  29.037  27.809  1.00  0.00     0.163 HD
BRANCH   4   7
ATOM      7  C   UNL A   1      31.019  27.500  24.943  1.00  0.00     0.122 C 
ATOM      8  C   UNL A   1      32.205  26.996  24.082  1.00  0.00     0.123 C 
ATOM      9  C   UNL A   1      32.091  27.846  22.819  1.00  0.00     0.132 C 
ATOM     10  C   UNL A   1      30.333  28.442  23.958  1.00  0.00     0.132 C 
ATOM     11  C   UNL A   1      30.965  27.312  21.935  1.00  0.00     0.035 C 
ATOM     12  O   UNL A   1      31.453  29.060  23.302  1.00  0.00    -0.373 OA
ATOM     13  C   UNL A   1      29.731  27.677  22.764  1.00  0.00     0.035 C 
BRANCH   8  14
ATOM     14  C   UNL A   1      33.613  26.801  24.652  1.00  0.00     0.231 C 
ATOM     15  N   UNL A   1      34.234  25.618  24.880  1.00  0.00    -0.317 N 
ATOM     16  H   UNL A   1      35.216  25.676  24.849  1.00  0.00     0.170 HD
ATOM     17  O   UNL A   1      34.290  27.825  24.845  1.00  0.00    -0.274 OA
BRANCH  15  18
ATOM     18  C   UNL A   1      33.765  24.353  25.144  1.00  0.00     0.108 A 
ATOM     19  C   UNL A   1      34.015  23.206  24.405  1.00  0.00     0.082 A 
ATOM     20  C   UNL A   1      33.409  22.057  25.040  1.00  0.00     0.007 A 
ATOM     21  C   UNL A   1      32.787  22.387  26.226  1.00  0.00     0.076 A 
ATOM     22  S   UNL A   1      33.034  24.018  26.630  1.00  0.00    -0.125 S 
BRANCH  19  23
ATOM     23  C   UNL A   1      34.775  23.253  23.158  1.00  0.00     0.252 C 
ATOM     24  N   UNL A   1      36.113  23.015  23.251  1.00  0.00    -0.365 N 
ATOM     25  H   UNL A   1      36.673  23.033  22.442  1.00  0.00     0.159 HD
ATOM     26  H   UNL A   1      36.520  22.822  24.127  1.00  0.00     0.159 HD
ATOM     27  O   UNL A   1      34.247  23.457  22.068  1.00  0.00    -0.269 OA
ENDBRANCH  19  23
BRANCH  20  28
ATOM     28  C   UNL A   1      33.482  20.665  24.641  1.00  0.00    -0.017 A 
ATOM     29  C   UNL A   1      32.443  20.084  23.911  1.00  0.00     0.010 A 
ATOM     30  C   UNL A   1      34.594  19.896  25.008  1.00  0.00     0.010 A 
ATOM     31  C   UNL A   1      32.529  18.740  23.552  1.00  0.00     0.021 A 
ATOM     32  C   UNL A   1      34.679  18.555  24.626  1.00  0.00     0.021 A 
ATOM     33  C   UNL A   1      33.648  17.985  23.890  1.00  0.00     0.041 A 
ATOM     34  Cl  UNL A   1      33.734  16.341  23.400  1.00  0.00    -0.084 Cl
ENDBRANCH  20  28
ENDBRANCH  15  18
ENDBRANCH   8  14
ENDBRANCH   4   7
ENDBRANCH   2   3
ENDBRANCH   1   2
BRANCH   1  35
ATOM     35  C   UNL A   1      34.432  30.626  27.531  1.00  0.00     0.023 C 
BRANCH  35  36
ATOM     36  C   UNL A   1      35.411  31.576  28.234  1.00  0.00     0.116 C 
BRANCH  36  37
ATOM     37  N   UNL A   1      35.372  31.473  29.689  1.00  0.00    -0.352 N 
ATOM     38  C   UNL A   1      36.220  30.785  30.532  1.00  0.00     0.251 C 
ATOM     39  H   UNL A   1      34.640  31.962  30.129  1.00  0.00     0.163 HD
ATOM     40  O   UNL A   1      35.988  30.728  31.734  1.00  0.00    -0.269 OA
BRANCH  38  41
ATOM     41  C   UNL A   1      37.429  30.145  29.975  1.00  0.00     0.039 A 
ATOM     42  C   UNL A   1      37.748  30.241  28.625  1.00  0.00     0.014 A 
ATOM     43  C   UNL A   1      38.267  29.442  30.833  1.00  0.00     0.014 A 
ATOM     44  C   UNL A   1      38.959  29.698  28.164  1.00  0.00     0.010 A 
ATOM     45  C   UNL A   1      39.509  28.979  30.393  1.00  0.00     0.010 A 
ATOM     46  C   UNL A   1      39.893  29.120  29.052  1.00  0.00    -0.014 A 
BRANCH  46  47
ATOM     47  C   UNL A   1      41.287  28.771  28.607  1.00  0.00     0.031 A 
ATOM     48  C   UNL A   1      41.662  27.397  28.083  1.00  0.00     0.074 A 
ATOM     49  C   UNL A   1      42.275  29.681  28.780  1.00  0.00     0.049 A 
ATOM     50  N   UNL A   1      42.840  26.949  27.715  1.00  0.00    -0.248 NA
ATOM     51  C   UNL A   1      40.601  26.380  28.009  1.00  0.00     0.031 C 
ATOM     52  C   UNL A   1      42.118  30.993  29.415  1.00  0.00     0.029 A 
ATOM     53  N   UNL A   1      43.608  29.646  28.444  1.00  0.00    -0.354 N 
ATOM     54  C   UNL A   1      42.672  25.596  27.425  1.00  0.00     0.074 A 
ATOM     55  C   UNL A   1      41.286  25.286  27.696  1.00  0.00     0.031 C 
ATOM     56  C   UNL A   1      43.283  31.657  29.363  1.00  0.00     0.029 A 
ATOM     57  C   UNL A   1      44.288  30.809  28.734  1.00  0.00     0.049 A 
ATOM     58  H   UNL A   1      44.039  28.861  28.034  1.00  0.00     0.167 HD
ATOM     59  C   UNL A   1      43.577  24.702  26.949  1.00  0.00     0.037 A 
ATOM     60  C   UNL A   1      45.568  31.169  28.517  1.00  0.00     0.037 A 
ATOM     61  C   UNL A   1      44.929  25.034  26.567  1.00  0.00     0.049 A 
ATOM     62  C   UNL A   1      46.508  30.209  27.844  1.00  0.00     0.074 A 
ATOM     63  C   UNL A   1      45.856  24.235  25.917  1.00  0.00     0.029 A 
ATOM     64  N   UNL A   1      45.542  26.257  26.781  1.00  0.00    -0.354 N 
ATOM     65  N   UNL A   1      46.285  28.976  27.458  1.00  0.00    -0.248 NA
ATOM     66  C   UNL A   1      47.869  30.689  27.564  1.00  0.00     0.031 C 
ATOM     67  C   UNL A   1      47.041  24.963  25.769  1.00  0.00     0.029 A 
ATOM     68  C   UNL A   1      46.837  26.230  26.285  1.00  0.00     0.049 A 
ATOM     69  H   UNL A   1      45.122  27.031  27.222  1.00  0.00     0.167 HD
ATOM     70  C   UNL A   1      47.468  28.546  26.865  1.00  0.00     0.074 A 
ATOM     71  C   UNL A   1      48.396  29.653  26.926  1.00  0.00     0.031 C 
ATOM     72  C   UNL A   1      47.754  27.338  26.324  1.00  0.00     0.037 A 
BRANCH  59  73
ATOM     73  C   UNL A   1      43.149  23.269  26.746  1.00  0.00     0.058 A 
ATOM     74  C   UNL A   1      42.994  22.721  25.463  1.00  0.00     0.135 A 
ATOM     75  C   UNL A   1      43.031  22.396  27.844  1.00  0.00     0.135 A 
ATOM     76  F   UNL A   1      43.094  23.503  24.377  1.00  0.00    -0.206 F 
ATOM     77  C   UNL A   1      42.729  21.367  25.275  1.00  0.00     0.059 A 
ATOM     78  C   UNL A   1      42.795  21.033  27.677  1.00  0.00     0.059 A 
ATOM     79  F   UNL A   1      43.182  22.860  29.095  1.00  0.00    -0.206 F 
ATOM     80  C   UNL A   1      42.641  20.528  26.388  1.00  0.00     0.060 A 
BRANCH  80  81
ATOM     81  S   UNL A   1      42.364  18.765  26.116  1.00  0.00     0.124 S 
ATOM     82  O   UNL A   1      40.952  18.743  25.748  1.00  0.00    -0.237 OA
ATOM     83  O   UNL A   1      43.302  18.463  25.039  1.00  0.00    -0.237 OA
ATOM     84  O   UNL A   1      42.686  18.166  27.408  1.00  0.00    -0.744 OA
ENDBRANCH  80  81
ENDBRANCH  59  73
BRANCH  60  85
ATOM     85  C   UNL A   1      46.037  32.528  28.900  1.00  0.00     0.058 A 
ATOM     86  C   UNL A   1      45.961  33.595  27.992  1.00  0.00     0.135 A 
ATOM     87  C   UNL A   1      46.581  32.786  30.168  1.00  0.00     0.135 A 
ATOM     88  F   UNL A   1      45.448  33.398  26.767  1.00  0.00    -0.206 F 
ATOM     89  C   UNL A   1      46.443  34.860  28.310  1.00  0.00     0.059 A 
ATOM     90  C   UNL A   1      47.043  34.050  30.520  1.00  0.00     0.059 A 
ATOM     91  F   UNL A   1      46.649  31.806  31.082  1.00  0.00    -0.206 F 
ATOM     92  C   UNL A   1      46.987  35.077  29.577  1.00  0.00     0.060 A 
BRANCH  92  93
ATOM     93  S   UNL A   1      47.595  36.725  29.989  1.00  0.00     0.124 S 
ATOM     94  O   UNL A   1      48.570  36.424  31.031  1.00  0.00    -0.237 OA
ATOM     95  O   UNL A   1      48.142  37.181  28.715  1.00  0.00    -0.237 OA
ATOM     96  O   UNL A   1      46.392  37.423  30.431  1.00  0.00    -0.744 OA
ENDBRANCH  92  93
ENDBRANCH  60  85
BRANCH  72  97
ATOM     97  C   UNL A   1      49.114  27.156  25.707  1.00  0.00     0.058 A 
ATOM     98  C   UNL A   1      49.330  27.332  24.332  1.00  0.00     0.135 A 
ATOM     99  C   UNL A   1      50.221  26.839  26.510  1.00  0.00     0.135 A 
ATOM    100  F   UNL A   1      48.305  27.630  23.519  1.00  0.00    -0.206 F 
ATOM    101  C   UNL A   1      50.594  27.176  23.770  1.00  0.00     0.059 A 
ATOM    102  C   UNL A   1      51.497  26.704  25.974  1.00  0.00     0.059 A 
ATOM    103  F   UNL A   1      50.069  26.668  27.833  1.00  0.00    -0.206 F 
ATOM    104  C   UNL A   1      51.672  26.861  24.600  1.00  0.00     0.060 A 
BRANCH 104 105
ATOM    105  S   UNL A   1      53.311  26.686  23.863  1.00  0.00     0.124 S 
ATOM    106  O   UNL A   1      53.079  27.182  22.510  1.00  0.00    -0.237 OA
ATOM    107  O   UNL A   1      54.133  27.537  24.718  1.00  0.00    -0.237 OA
ATOM    108  O   UNL A   1      53.579  25.255  23.969  1.00  0.00    -0.744 OA
ENDBRANCH 104 105
ENDBRANCH  72  97
ENDBRANCH  46  47
ENDBRANCH  38  41
ENDBRANCH  36  37
ENDBRANCH  35  36
ENDBRANCH   1  35
TORSDOF 18
ENDMDL
