MODEL 1
REMARK VINA RESULT:     -11.5      0.000      0.000
REMARK SMILES CC1=C(C(=O)NCCCCNC(=O)c2ccc(-c3c4nc(c(-c5c(F)cc(S(=O)(=O)[O-])cc5F)c5ccc([nH]5)c(-c5c(F)cc(S(=O)(=O)[O-])cc5F)c5nc(c(-c6c(F)cc(S(=O)(=O)[O-])cc6F)c6ccc3[nH]6)C=C5)C=C4)cc2)N2C(=O)[C@H](NC(=O)c3cc(C(F)(F)F)nn3C)[C@@H]2SC1
REMARK SMILES IDX 8 1 7 2 6 3 4 4 5 5 3 7 1 8 2 9 99 10 80 11 98 12 81 13
REMARK SMILES IDX 97 14 82 15 83 16 84 17 85 18 86 20 87 21 88 22 95 23 89 24
REMARK SMILES IDX 94 25 96 26 90 27 91 28 92 29 93 30 9 31 10 32 11 33 12 34
REMARK SMILES IDX 13 36 14 37 15 38 79 39 16 40 78 41 17 42 18 43 19 44 72 45
REMARK SMILES IDX 20 46 77 47 71 48 73 49 21 50 76 51 70 52 69 53 22 55 56 56
REMARK SMILES IDX 35 57 55 58 36 59 39 60 54 61 74 62 37 63 38 64 53 66 75 67
REMARK SMILES IDX 40 68 23 69 24 70 33 71 25 72 26 73 32 74 34 75 27 76 28 77
REMARK SMILES IDX 29 78 30 79 31 80 57 81 58 82 67 83 59 84 60 85 66 86 68 87
REMARK SMILES IDX 61 88 62 89 63 90 64 91 65 92 41 93 42 94 51 95 43 96 44 97
REMARK SMILES IDX 50 98 52 99 45 100 46 101 47 102 48 103 49 104
REMARK H PARENT 6 6 84 19 11 35 73 54 39 65
REMARK Flexibility Score: inf
ROOT
ATOM      1  C   UNL A   1      39.374  22.852  26.420  1.00  0.00     0.023 C 
ENDROOT
BRANCH   1   2
ATOM      2  C   UNL A   1      37.965  23.459  26.422  1.00  0.00     0.116 C 
BRANCH   2   3
ATOM      3  N   UNL A   1      37.550  23.673  25.055  1.00  0.00    -0.351 N 
ATOM      4  C   UNL A   1      36.709  22.985  24.243  1.00  0.00     0.268 C 
ATOM      5  O   UNL A   1      36.799  23.191  23.029  1.00  0.00    -0.268 OA
ATOM      6  H   UNL A   1      37.953  24.466  24.633  1.00  0.00     0.163 HD
BRANCH   4   7
ATOM      7  C   UNL A   1      35.620  22.049  24.727  1.00  0.00     0.110 C 
ATOM      8  C   UNL A   1      36.802  19.804  24.579  1.00  0.00     0.043 C 
ATOM      9  C   UNL A   1      35.639  20.700  24.885  1.00  0.00    -0.034 C 
ATOM     10  C   UNL A   1      34.445  19.861  25.340  1.00  0.00     0.104 C 
ATOM     11  N   UNL A   1      34.408  22.666  24.818  1.00  0.00    -0.290 N 
ATOM     12  S   UNL A   1      32.902  20.739  25.694  1.00  0.00    -0.129 SA
ATOM     13  C   UNL A   1      33.912  23.907  24.967  1.00  0.00     0.253 C 
ATOM     14  C   UNL A   1      33.185  22.011  24.436  1.00  0.00     0.181 C 
ATOM     15  O   UNL A   1      34.398  24.965  25.302  1.00  0.00    -0.272 OA
ATOM     16  C   UNL A   1      32.480  23.386  24.626  1.00  0.00     0.206 C 
BRANCH  16  17
ATOM     17  N   UNL A   1      31.468  23.465  25.705  1.00  0.00    -0.336 N 
ATOM     18  C   UNL A   1      30.650  24.515  26.034  1.00  0.00     0.270 C 
ATOM     19  H   UNL A   1      31.370  22.657  26.259  1.00  0.00     0.164 HD
ATOM     20  O   UNL A   1      29.898  24.393  26.998  1.00  0.00    -0.268 OA
BRANCH  18  21
ATOM     21  C   UNL A   1      30.742  25.732  25.268  1.00  0.00     0.126 A 
ATOM     22  C   UNL A   1      30.209  26.077  24.038  1.00  0.00     0.069 A 
ATOM     23  N   UNL A   1      31.392  26.863  25.695  1.00  0.00    -0.262 N 
ATOM     24  C   UNL A   1      30.650  27.401  23.768  1.00  0.00     0.167 A 
ATOM     25  N   UNL A   1      31.375  27.871  24.799  1.00  0.00    -0.168 NA
ATOM     26  C   UNL A   1      32.129  27.058  26.923  1.00  0.00     0.174 C 
BRANCH  24  27
ATOM     27  C   UNL A   1      30.383  28.208  22.524  1.00  0.00     0.435 C 
ATOM     28  F   UNL A   1      30.664  27.523  21.383  1.00  0.00    -0.164 F 
ATOM     29  F   UNL A   1      29.091  28.622  22.434  1.00  0.00    -0.164 F 
ATOM     30  F   UNL A   1      31.148  29.337  22.489  1.00  0.00    -0.164 F 
ENDBRANCH  24  27
ENDBRANCH  18  21
ENDBRANCH  16  17
ENDBRANCH   4   7
ENDBRANCH   2   3
ENDBRANCH   1   2
BRANCH   1  31
ATOM     31  C   UNL A   1      39.481  21.439  25.859  1.00  0.00     0.023 C 
BRANCH  31  32
ATOM     32  C   UNL A   1      39.974  20.409  26.858  1.00  0.00     0.116 C 
BRANCH  32  33
ATOM     33  N   UNL A   1      40.869  19.416  26.277  1.00  0.00    -0.352 N 
ATOM     34  C   UNL A   1      42.182  19.573  25.900  1.00  0.00     0.251 C 
ATOM     35  H   UNL A   1      40.485  18.520  26.138  1.00  0.00     0.163 HD
ATOM     36  O   UNL A   1      42.784  18.659  25.346  1.00  0.00    -0.269 OA
BRANCH  34  37
ATOM     37  C   UNL A   1      42.830  20.879  26.128  1.00  0.00     0.039 A 
ATOM     38  C   UNL A   1      43.067  21.717  25.038  1.00  0.00     0.014 A 
ATOM     39  C   UNL A   1      43.112  21.305  27.429  1.00  0.00     0.014 A 
ATOM     40  C   UNL A   1      43.519  23.018  25.262  1.00  0.00     0.010 A 
ATOM     41  C   UNL A   1      43.469  22.626  27.653  1.00  0.00     0.010 A 
ATOM     42  C   UNL A   1      43.682  23.495  26.573  1.00  0.00    -0.014 A 
BRANCH  42  43
ATOM     43  C   UNL A   1      44.099  24.892  26.844  1.00  0.00     0.031 A 
ATOM     44  C   UNL A   1      45.541  25.283  26.669  1.00  0.00     0.074 A 
ATOM     45  C   UNL A   1      43.203  25.781  27.317  1.00  0.00     0.049 A 
ATOM     46  N   UNL A   1      46.128  26.419  26.938  1.00  0.00    -0.248 NA
ATOM     47  C   UNL A   1      46.453  24.245  26.156  1.00  0.00     0.031 C 
ATOM     48  C   UNL A   1      41.790  25.503  27.587  1.00  0.00     0.029 A 
ATOM     49  N   UNL A   1      43.351  27.100  27.668  1.00  0.00    -0.354 N 
ATOM     50  C   UNL A   1      47.474  26.227  26.650  1.00  0.00     0.074 A 
ATOM     51  C   UNL A   1      47.628  24.847  26.245  1.00  0.00     0.031 C 
ATOM     52  C   UNL A   1      41.198  26.621  28.035  1.00  0.00     0.029 A 
ATOM     53  C   UNL A   1      42.192  27.686  28.119  1.00  0.00     0.049 A 
ATOM     54  H   UNL A   1      44.208  27.580  27.602  1.00  0.00     0.167 HD
ATOM     55  C   UNL A   1      48.485  27.126  26.689  1.00  0.00     0.037 A 
ATOM     56  C   UNL A   1      41.961  28.941  28.552  1.00  0.00     0.037 A 
ATOM     57  C   UNL A   1      48.315  28.506  27.052  1.00  0.00     0.049 A 
ATOM     58  C   UNL A   1      43.096  29.929  28.562  1.00  0.00     0.074 A 
ATOM     59  C   UNL A   1      49.259  29.517  27.062  1.00  0.00     0.029 A 
ATOM     60  N   UNL A   1      47.117  29.073  27.461  1.00  0.00    -0.354 N 
ATOM     61  N   UNL A   1      44.351  29.747  28.226  1.00  0.00    -0.248 NA
ATOM     62  C   UNL A   1      42.784  31.296  29.003  1.00  0.00     0.031 C 
ATOM     63  C   UNL A   1      48.640  30.688  27.511  1.00  0.00     0.029 A 
ATOM     64  C   UNL A   1      47.300  30.417  27.737  1.00  0.00     0.049 A 
ATOM     65  H   UNL A   1      46.262  28.592  27.542  1.00  0.00     0.167 HD
ATOM     66  C   UNL A   1      44.970  30.982  28.384  1.00  0.00     0.074 A 
ATOM     67  C   UNL A   1      43.950  31.905  28.838  1.00  0.00     0.031 C 
ATOM     68  C   UNL A   1      46.266  31.321  28.173  1.00  0.00     0.037 A 
BRANCH  55  69
ATOM     69  C   UNL A   1      49.858  26.643  26.313  1.00  0.00     0.058 A 
ATOM     70  C   UNL A   1      50.718  26.064  27.262  1.00  0.00     0.135 A 
ATOM     71  C   UNL A   1      50.313  26.737  24.988  1.00  0.00     0.135 A 
ATOM     72  F   UNL A   1      50.342  25.968  28.547  1.00  0.00    -0.206 F 
ATOM     73  C   UNL A   1      51.992  25.625  26.916  1.00  0.00     0.059 A 
ATOM     74  C   UNL A   1      51.572  26.277  24.615  1.00  0.00     0.059 A 
ATOM     75  F   UNL A   1      49.533  27.284  24.043  1.00  0.00    -0.206 F 
ATOM     76  C   UNL A   1      52.411  25.737  25.590  1.00  0.00     0.060 A 
BRANCH  76  77
ATOM     77  S   UNL A   1      54.065  25.158  25.158  1.00  0.00     0.124 S 
ATOM     78  O   UNL A   1      53.822  23.740  24.915  1.00  0.00    -0.237 OA
ATOM     79  O   UNL A   1      54.378  25.960  23.980  1.00  0.00    -0.237 OA
ATOM     80  O   UNL A   1      54.853  25.466  26.348  1.00  0.00    -0.744 OA
ENDBRANCH  76  77
ENDBRANCH  55  69
BRANCH  56  81
ATOM     81  C   UNL A   1      40.594  29.343  28.980  1.00  0.00     0.058 A 
ATOM     82  C   UNL A   1      39.568  29.517  28.040  1.00  0.00     0.135 A 
ATOM     83  C   UNL A   1      40.284  29.556  30.332  1.00  0.00     0.135 A 
ATOM     84  F   UNL A   1      39.815  29.329  26.734  1.00  0.00    -0.206 F 
ATOM     85  C   UNL A   1      38.288  29.908  28.419  1.00  0.00     0.059 A 
ATOM     86  C   UNL A   1      39.005  29.924  30.739  1.00  0.00     0.059 A 
ATOM     87  F   UNL A   1      41.225  29.385  31.273  1.00  0.00    -0.206 F 
ATOM     88  C   UNL A   1      38.016  30.109  29.774  1.00  0.00     0.060 A 
BRANCH  88  89
ATOM     89  S   UNL A   1      36.340  30.576  30.261  1.00  0.00     0.124 S 
ATOM     90  O   UNL A   1      35.966  29.462  31.125  1.00  0.00    -0.237 OA
ATOM     91  O   UNL A   1      36.561  31.856  30.929  1.00  0.00    -0.237 OA
ATOM     92  O   UNL A   1      35.632  30.656  28.988  1.00  0.00    -0.744 OA
ENDBRANCH  88  89
ENDBRANCH  56  81
BRANCH  68  93
ATOM     93  C   UNL A   1      46.648  32.759  28.390  1.00  0.00     0.058 A 
ATOM     94  C   UNL A   1      47.192  33.202  29.605  1.00  0.00     0.135 A 
ATOM     95  C   UNL A   1      46.524  33.689  27.346  1.00  0.00     0.135 A 
ATOM     96  F   UNL A   1      47.327  32.353  30.635  1.00  0.00    -0.206 F 
ATOM     97  C   UNL A   1      47.581  34.525  29.785  1.00  0.00     0.059 A 
ATOM     98  C   UNL A   1      46.930  35.011  27.495  1.00  0.00     0.059 A 
ATOM     99  F   UNL A   1      46.020  33.312  26.160  1.00  0.00    -0.206 F 
ATOM    100  C   UNL A   1      47.448  35.422  28.722  1.00  0.00     0.060 A 
BRANCH 100 101
ATOM    101  S   UNL A   1      47.993  37.127  28.954  1.00  0.00     0.124 S 
ATOM    102  O   UNL A   1      49.432  36.953  29.126  1.00  0.00    -0.237 OA
ATOM    103  O   UNL A   1      47.575  37.763  27.709  1.00  0.00    -0.237 OA
ATOM    104  O   UNL A   1      47.266  37.556  30.145  1.00  0.00    -0.744 OA
ENDBRANCH 100 101
ENDBRANCH  68  93
ENDBRANCH  42  43
ENDBRANCH  34  37
ENDBRANCH  32  33
ENDBRANCH  31  32
ENDBRANCH   1  31
TORSDOF 17
ENDMDL
MODEL 2
REMARK VINA RESULT:     -11.0      7.465     16.760
REMARK SMILES CC1=C(C(=O)NCCCCNC(=O)c2ccc(-c3c4nc(c(-c5c(F)cc(S(=O)(=O)[O-])cc5F)c5ccc([nH]5)c(-c5c(F)cc(S(=O)(=O)[O-])cc5F)c5nc(c(-c6c(F)cc(S(=O)(=O)[O-])cc6F)c6ccc3[nH]6)C=C5)C=C4)cc2)N2C(=O)[C@H](NC(=O)c3cc(C(F)(F)F)nn3C)[C@@H]2SC1
REMARK SMILES IDX 8 1 7 2 6 3 4 4 5 5 3 7 1 8 2 9 99 10 80 11 98 12 81 13
REMARK SMILES IDX 97 14 82 15 83 16 84 17 85 18 86 20 87 21 88 22 95 23 89 24
REMARK SMILES IDX 94 25 96 26 90 27 91 28 92 29 93 30 9 31 10 32 11 33 12 34
REMARK SMILES IDX 13 36 14 37 15 38 79 39 16 40 78 41 17 42 18 43 19 44 72 45
REMARK SMILES IDX 20 46 77 47 71 48 73 49 21 50 76 51 70 52 69 53 22 55 56 56
REMARK SMILES IDX 35 57 55 58 36 59 39 60 54 61 74 62 37 63 38 64 53 66 75 67
REMARK SMILES IDX 40 68 23 69 24 70 33 71 25 72 26 73 32 74 34 75 27 76 28 77
REMARK SMILES IDX 29 78 30 79 31 80 57 81 58 82 67 83 59 84 60 85 66 86 68 87
REMARK SMILES IDX 61 88 62 89 63 90 64 91 65 92 41 93 42 94 51 95 43 96 44 97
REMARK SMILES IDX 50 98 52 99 45 100 46 101 47 102 48 103 49 104
REMARK H PARENT 6 6 84 19 11 35 73 54 39 65
REMARK Flexibility Score: inf
ROOT
ATOM      1  C   UNL A   1      45.997  40.295  26.638  1.00  0.00     0.023 C 
ENDROOT
BRANCH   1   2
ATOM      2  C   UNL A   1      45.931  40.781  25.184  1.00  0.00     0.116 C 
BRANCH   2   3
ATOM      3  N   UNL A   1      44.842  41.723  25.060  1.00  0.00    -0.351 N 
ATOM      4  C   UNL A   1      44.690  42.840  24.305  1.00  0.00     0.268 C 
ATOM      5  O   UNL A   1      43.809  43.636  24.643  1.00  0.00    -0.268 OA
ATOM      6  H   UNL A   1      44.065  41.515  25.627  1.00  0.00     0.163 HD
BRANCH   4   7
ATOM      7  C   UNL A   1      45.468  43.137  23.039  1.00  0.00     0.110 C 
ATOM      8  C   UNL A   1      47.730  43.792  23.996  1.00  0.00     0.043 C 
ATOM      9  C   UNL A   1      46.758  43.533  22.883  1.00  0.00    -0.034 C 
ATOM     10  C   UNL A   1      47.414  43.848  21.539  1.00  0.00     0.104 C 
ATOM     11  N   UNL A   1      44.666  43.189  21.938  1.00  0.00    -0.290 N 
ATOM     12  S   UNL A   1      46.391  43.673  20.057  1.00  0.00    -0.129 SA
ATOM     13  C   UNL A   1      43.475  42.720  21.530  1.00  0.00     0.253 C 
ATOM     14  C   UNL A   1      44.862  44.161  20.895  1.00  0.00     0.181 C 
ATOM     15  O   UNL A   1      42.732  41.856  21.944  1.00  0.00    -0.272 OA
ATOM     16  C   UNL A   1      43.515  43.667  20.290  1.00  0.00     0.206 C 
BRANCH  16  17
ATOM     17  N   UNL A   1      43.587  43.021  18.959  1.00  0.00    -0.336 N 
ATOM     18  C   UNL A   1      43.354  43.575  17.727  1.00  0.00     0.270 C 
ATOM     19  H   UNL A   1      43.835  42.068  18.959  1.00  0.00     0.164 HD
ATOM     20  O   UNL A   1      43.430  42.852  16.736  1.00  0.00    -0.268 OA
BRANCH  18  21
ATOM     21  C   UNL A   1      42.983  44.965  17.651  1.00  0.00     0.126 A 
ATOM     22  C   UNL A   1      43.710  46.084  17.281  1.00  0.00     0.069 A 
ATOM     23  N   UNL A   1      41.721  45.439  17.908  1.00  0.00    -0.262 N 
ATOM     24  C   UNL A   1      42.834  47.194  17.419  1.00  0.00     0.167 A 
ATOM     25  N   UNL A   1      41.612  46.780  17.804  1.00  0.00    -0.168 NA
ATOM     26  C   UNL A   1      40.558  44.695  18.337  1.00  0.00     0.174 C 
BRANCH  24  27
ATOM     27  C   UNL A   1      43.168  48.645  17.192  1.00  0.00     0.435 C 
ATOM     28  F   UNL A   1      44.476  48.839  16.875  1.00  0.00    -0.164 F 
ATOM     29  F   UNL A   1      42.428  49.204  16.198  1.00  0.00    -0.164 F 
ATOM     30  F   UNL A   1      42.931  49.392  18.308  1.00  0.00    -0.164 F 
ENDBRANCH  24  27
ENDBRANCH  18  21
ENDBRANCH  16  17
ENDBRANCH   4   7
ENDBRANCH   2   3
ENDBRANCH   1   2
BRANCH   1  31
ATOM     31  C   UNL A   1      45.068  39.138  26.987  1.00  0.00     0.023 C 
BRANCH  31  32
ATOM     32  C   UNL A   1      45.566  38.261  28.120  1.00  0.00     0.116 C 
BRANCH  32  33
ATOM     33  N   UNL A   1      47.020  38.178  28.198  1.00  0.00    -0.352 N 
ATOM     34  C   UNL A   1      47.807  37.051  28.221  1.00  0.00     0.251 C 
ATOM     35  H   UNL A   1      47.498  39.038  28.239  1.00  0.00     0.163 HD
ATOM     36  O   UNL A   1      49.020  37.143  28.373  1.00  0.00    -0.269 OA
BRANCH  34  37
ATOM     37  C   UNL A   1      47.153  35.732  28.112  1.00  0.00     0.039 A 
ATOM     38  C   UNL A   1      46.654  35.324  26.875  1.00  0.00     0.014 A 
ATOM     39  C   UNL A   1      47.125  34.871  29.212  1.00  0.00     0.014 A 
ATOM     40  C   UNL A   1      46.192  34.016  26.723  1.00  0.00     0.010 A 
ATOM     41  C   UNL A   1      46.755  33.546  29.033  1.00  0.00     0.010 A 
ATOM     42  C   UNL A   1      46.278  33.106  27.788  1.00  0.00    -0.014 A 
BRANCH  42  43
ATOM     43  C   UNL A   1      45.856  31.693  27.639  1.00  0.00     0.031 A 
ATOM     44  C   UNL A   1      44.461  31.290  28.034  1.00  0.00     0.074 A 
ATOM     45  C   UNL A   1      46.742  30.766  27.223  1.00  0.00     0.049 A 
ATOM     46  N   UNL A   1      43.923  30.100  28.068  1.00  0.00    -0.248 NA
ATOM     47  C   UNL A   1      43.563  32.367  28.486  1.00  0.00     0.031 C 
ATOM     48  C   UNL A   1      48.141  31.025  26.870  1.00  0.00     0.029 A 
ATOM     49  N   UNL A   1      46.602  29.414  27.038  1.00  0.00    -0.354 N 
ATOM     50  C   UNL A   1      42.637  30.281  28.564  1.00  0.00     0.074 A 
ATOM     51  C   UNL A   1      42.496  31.686  28.875  1.00  0.00     0.031 C 
ATOM     52  C   UNL A   1      48.719  29.876  26.488  1.00  0.00     0.029 A 
ATOM     53  C   UNL A   1      47.748  28.792  26.601  1.00  0.00     0.049 A 
ATOM     54  H   UNL A   1      45.758  28.933  27.204  1.00  0.00     0.167 HD
ATOM     55  C   UNL A   1      41.652  29.365  28.717  1.00  0.00     0.037 A 
ATOM     56  C   UNL A   1      47.986  27.496  26.326  1.00  0.00     0.037 A 
ATOM     57  C   UNL A   1      41.788  27.978  28.365  1.00  0.00     0.049 A 
ATOM     58  C   UNL A   1      46.868  26.500  26.479  1.00  0.00     0.074 A 
ATOM     59  C   UNL A   1      40.833  26.978  28.418  1.00  0.00     0.029 A 
ATOM     60  N   UNL A   1      42.951  27.395  27.884  1.00  0.00    -0.354 N 
ATOM     61  N   UNL A   1      45.637  26.699  26.888  1.00  0.00    -0.248 NA
ATOM     62  C   UNL A   1      47.165  25.105  26.126  1.00  0.00     0.031 C 
ATOM     63  C   UNL A   1      41.428  25.783  28.003  1.00  0.00     0.029 A 
ATOM     64  C   UNL A   1      42.742  26.047  27.648  1.00  0.00     0.049 A 
ATOM     65  H   UNL A   1      43.800  27.869  27.732  1.00  0.00     0.167 HD
ATOM     66  C   UNL A   1      45.006  25.463  26.813  1.00  0.00     0.074 A 
ATOM     67  C   UNL A   1      45.987  24.524  26.310  1.00  0.00     0.031 C 
ATOM     68  C   UNL A   1      43.730  25.134  27.131  1.00  0.00     0.037 A 
BRANCH  55  69
ATOM     69  C   UNL A   1      40.340  29.843  29.274  1.00  0.00     0.058 A 
ATOM     70  C   UNL A   1      40.200  30.191  30.628  1.00  0.00     0.135 A 
ATOM     71  C   UNL A   1      39.216  29.978  28.444  1.00  0.00     0.135 A 
ATOM     72  F   UNL A   1      41.238  30.062  31.470  1.00  0.00    -0.206 F 
ATOM     73  C   UNL A   1      38.984  30.625  31.144  1.00  0.00     0.059 A 
ATOM     74  C   UNL A   1      37.998  30.438  28.934  1.00  0.00     0.059 A 
ATOM     75  F   UNL A   1      39.294  29.656  27.143  1.00  0.00    -0.206 F 
ATOM     76  C   UNL A   1      37.888  30.744  30.290  1.00  0.00     0.060 A 
BRANCH  76  77
ATOM     77  S   UNL A   1      36.319  31.313  30.977  1.00  0.00     0.124 S 
ATOM     78  O   UNL A   1      36.741  32.491  31.727  1.00  0.00    -0.237 OA
ATOM     79  O   UNL A   1      35.529  31.573  29.778  1.00  0.00    -0.237 OA
ATOM     80  O   UNL A   1      35.872  30.181  31.784  1.00  0.00    -0.744 OA
ENDBRANCH  76  77
ENDBRANCH  55  69
BRANCH  56  81
ATOM     81  C   UNL A   1      49.328  27.068  25.845  1.00  0.00     0.058 A 
ATOM     82  C   UNL A   1      49.618  27.018  24.473  1.00  0.00     0.135 A 
ATOM     83  C   UNL A   1      50.345  26.708  26.741  1.00  0.00     0.135 A 
ATOM     84  F   UNL A   1      48.677  27.349  23.576  1.00  0.00    -0.206 F 
ATOM     85  C   UNL A   1      50.861  26.606  24.004  1.00  0.00     0.059 A 
ATOM     86  C   UNL A   1      51.605  26.316  26.298  1.00  0.00     0.059 A 
ATOM     87  F   UNL A   1      50.124  26.757  28.064  1.00  0.00    -0.206 F 
ATOM     88  C   UNL A   1      51.850  26.257  24.927  1.00  0.00     0.060 A 
BRANCH  88  89
ATOM     89  S   UNL A   1      53.475  25.763  24.310  1.00  0.00     0.124 S 
ATOM     90  O   UNL A   1      53.353  26.069  22.889  1.00  0.00    -0.237 OA
ATOM     91  O   UNL A   1      54.369  26.629  25.075  1.00  0.00    -0.237 OA
ATOM     92  O   UNL A   1      53.545  24.346  24.649  1.00  0.00    -0.744 OA
ENDBRANCH  88  89
ENDBRANCH  56  81
BRANCH  68  93
ATOM     93  C   UNL A   1      43.306  23.709  26.906  1.00  0.00     0.058 A 
ATOM     94  C   UNL A   1      43.108  23.194  25.616  1.00  0.00     0.135 A 
ATOM     95  C   UNL A   1      43.156  22.836  27.995  1.00  0.00     0.135 A 
ATOM     96  F   UNL A   1      43.234  23.990  24.543  1.00  0.00    -0.206 F 
ATOM     97  C   UNL A   1      42.754  21.864  25.415  1.00  0.00     0.059 A 
ATOM     98  C   UNL A   1      42.829  21.496  27.815  1.00  0.00     0.059 A 
ATOM     99  F   UNL A   1      43.346  23.277  29.248  1.00  0.00    -0.206 F 
ATOM    100  C   UNL A   1      42.619  21.022  26.521  1.00  0.00     0.060 A 
BRANCH 100 101
ATOM    101  S   UNL A   1      42.200  19.289  26.244  1.00  0.00     0.124 S 
ATOM    102  O   UNL A   1      42.987  18.984  25.053  1.00  0.00    -0.237 OA
ATOM    103  O   UNL A   1      42.649  18.655  27.480  1.00  0.00    -0.237 OA
ATOM    104  O   UNL A   1      40.753  19.316  26.051  1.00  0.00    -0.744 OA
ENDBRANCH 100 101
ENDBRANCH  68  93
ENDBRANCH  42  43
ENDBRANCH  34  37
ENDBRANCH  32  33
ENDBRANCH  31  32
ENDBRANCH   1  31
TORSDOF 17
ENDMDL
MODEL 3
REMARK VINA RESULT:     -10.9      5.951      8.191
REMARK SMILES CC1=C(C(=O)NCCCCNC(=O)c2ccc(-c3c4nc(c(-c5c(F)cc(S(=O)(=O)[O-])cc5F)c5ccc([nH]5)c(-c5c(F)cc(S(=O)(=O)[O-])cc5F)c5nc(c(-c6c(F)cc(S(=O)(=O)[O-])cc6F)c6ccc3[nH]6)C=C5)C=C4)cc2)N2C(=O)[C@H](NC(=O)c3cc(C(F)(F)F)nn3C)[C@@H]2SC1
REMARK SMILES IDX 8 1 7 2 6 3 4 4 5 5 3 7 1 8 2 9 99 10 80 11 98 12 81 13
REMARK SMILES IDX 97 14 82 15 83 16 84 17 85 18 86 20 87 21 88 22 95 23 89 24
REMARK SMILES IDX 94 25 96 26 90 27 91 28 92 29 93 30 9 31 10 32 11 33 12 34
REMARK SMILES IDX 13 36 14 37 15 38 79 39 16 40 78 41 17 42 18 43 19 44 72 45
REMARK SMILES IDX 20 46 77 47 71 48 73 49 21 50 76 51 70 52 69 53 22 55 56 56
REMARK SMILES IDX 35 57 55 58 36 59 39 60 54 61 74 62 37 63 38 64 53 66 75 67
REMARK SMILES IDX 40 68 23 69 24 70 33 71 25 72 26 73 32 74 34 75 27 76 28 77
REMARK SMILES IDX 29 78 30 79 31 80 57 81 58 82 67 83 59 84 60 85 66 86 68 87
REMARK SMILES IDX 61 88 62 89 63 90 64 91 65 92 41 93 42 94 51 95 43 96 44 97
REMARK SMILES IDX 50 98 52 99 45 100 46 101 47 102 48 103 49 104
REMARK H PARENT 6 6 84 19 11 35 73 54 39 65
REMARK Flexibility Score: inf
ROOT
ATOM      1  C   UNL A   1      39.072  24.608  26.866  1.00  0.00     0.023 C 
ENDROOT
BRANCH   1   2
ATOM      2  C   UNL A   1      37.953  23.623  26.505  1.00  0.00     0.116 C 
BRANCH   2   3
ATOM      3  N   UNL A   1      37.608  23.802  25.113  1.00  0.00    -0.351 N 
ATOM      4  C   UNL A   1      36.832  23.077  24.270  1.00  0.00     0.268 C 
ATOM      5  O   UNL A   1      36.984  23.264  23.058  1.00  0.00    -0.268 OA
ATOM      6  H   UNL A   1      38.012  24.599  24.700  1.00  0.00     0.163 HD
BRANCH   4   7
ATOM      7  C   UNL A   1      35.744  22.118  24.710  1.00  0.00     0.110 C 
ATOM      8  C   UNL A   1      36.943  19.887  24.503  1.00  0.00     0.043 C 
ATOM      9  C   UNL A   1      35.771  20.765  24.825  1.00  0.00    -0.034 C 
ATOM     10  C   UNL A   1      34.577  19.905  25.238  1.00  0.00     0.104 C 
ATOM     11  N   UNL A   1      34.527  22.725  24.807  1.00  0.00    -0.290 N 
ATOM     12  S   UNL A   1      33.025  20.761  25.603  1.00  0.00    -0.129 SA
ATOM     13  C   UNL A   1      34.021  23.957  24.991  1.00  0.00     0.253 C 
ATOM     14  C   UNL A   1      33.313  22.075  24.391  1.00  0.00     0.181 C 
ATOM     15  O   UNL A   1      34.497  25.006  25.366  1.00  0.00    -0.272 OA
ATOM     16  C   UNL A   1      32.597  23.439  24.617  1.00  0.00     0.206 C 
BRANCH  16  17
ATOM     17  N   UNL A   1      31.572  23.476  25.686  1.00  0.00    -0.336 N 
ATOM     18  C   UNL A   1      30.901  24.560  26.189  1.00  0.00     0.270 C 
ATOM     19  H   UNL A   1      31.343  22.607  26.090  1.00  0.00     0.164 HD
ATOM     20  O   UNL A   1      30.109  24.384  27.111  1.00  0.00    -0.268 OA
BRANCH  18  21
ATOM     21  C   UNL A   1      31.189  25.865  25.649  1.00  0.00     0.126 A 
ATOM     22  C   UNL A   1      32.083  26.842  26.054  1.00  0.00     0.069 A 
ATOM     23  N   UNL A   1      30.605  26.375  24.516  1.00  0.00    -0.262 N 
ATOM     24  C   UNL A   1      31.916  27.932  25.157  1.00  0.00     0.167 A 
ATOM     25  N   UNL A   1      31.005  27.628  24.215  1.00  0.00    -0.168 NA
ATOM     26  C   UNL A   1      29.591  25.767  23.684  1.00  0.00     0.174 C 
BRANCH  24  27
ATOM     27  C   UNL A   1      32.621  29.262  25.209  1.00  0.00     0.435 C 
ATOM     28  F   UNL A   1      33.225  29.583  24.034  1.00  0.00    -0.164 F 
ATOM     29  F   UNL A   1      31.785  30.287  25.522  1.00  0.00    -0.164 F 
ATOM     30  F   UNL A   1      33.602  29.269  26.157  1.00  0.00    -0.164 F 
ENDBRANCH  24  27
ENDBRANCH  18  21
ENDBRANCH  16  17
ENDBRANCH   4   7
ENDBRANCH   2   3
ENDBRANCH   1   2
BRANCH   1  31
ATOM     31  C   UNL A   1      40.488  24.136  26.557  1.00  0.00     0.023 C 
BRANCH  31  32
ATOM     32  C   UNL A   1      41.314  25.129  25.761  1.00  0.00     0.116 C 
BRANCH  32  33
ATOM     33  N   UNL A   1      42.753  24.939  25.906  1.00  0.00    -0.352 N 
ATOM     34  C   UNL A   1      43.610  25.572  26.775  1.00  0.00     0.251 C 
ATOM     35  H   UNL A   1      43.161  24.273  25.306  1.00  0.00     0.163 HD
ATOM     36  O   UNL A   1      44.817  25.362  26.721  1.00  0.00    -0.269 OA
BRANCH  34  37
ATOM     37  C   UNL A   1      43.052  26.545  27.734  1.00  0.00     0.039 A 
ATOM     38  C   UNL A   1      42.224  26.087  28.758  1.00  0.00     0.014 A 
ATOM     39  C   UNL A   1      43.427  27.889  27.668  1.00  0.00     0.014 A 
ATOM     40  C   UNL A   1      41.832  26.969  29.766  1.00  0.00     0.010 A 
ATOM     41  C   UNL A   1      43.116  28.738  28.720  1.00  0.00     0.010 A 
ATOM     42  C   UNL A   1      42.310  28.289  29.777  1.00  0.00    -0.014 A 
BRANCH  42  43
ATOM     43  C   UNL A   1      41.965  29.231  30.869  1.00  0.00     0.031 A 
ATOM     44  C   UNL A   1      42.787  29.240  32.129  1.00  0.00     0.074 A 
ATOM     45  C   UNL A   1      40.876  30.019  30.758  1.00  0.00     0.049 A 
ATOM     46  N   UNL A   1      42.602  29.916  33.231  1.00  0.00    -0.248 NA
ATOM     47  C   UNL A   1      43.954  28.341  32.166  1.00  0.00     0.031 C 
ATOM     48  C   UNL A   1      39.965  30.054  29.611  1.00  0.00     0.029 A 
ATOM     49  N   UNL A   1      40.342  30.933  31.630  1.00  0.00    -0.354 N 
ATOM     50  C   UNL A   1      43.610  29.509  34.097  1.00  0.00     0.074 A 
ATOM     51  C   UNL A   1      44.367  28.482  33.415  1.00  0.00     0.031 C 
ATOM     52  C   UNL A   1      39.003  30.962  29.839  1.00  0.00     0.029 A 
ATOM     53  C   UNL A   1      39.205  31.548  31.161  1.00  0.00     0.049 A 
ATOM     54  H   UNL A   1      40.737  31.131  32.511  1.00  0.00     0.167 HD
ATOM     55  C   UNL A   1      43.899  29.970  35.337  1.00  0.00     0.037 A 
ATOM     56  C   UNL A   1      38.415  32.477  31.734  1.00  0.00     0.037 A 
ATOM     57  C   UNL A   1      43.167  31.020  35.990  1.00  0.00     0.049 A 
ATOM     58  C   UNL A   1      38.772  32.992  33.102  1.00  0.00     0.074 A 
ATOM     59  C   UNL A   1      43.415  31.608  37.218  1.00  0.00     0.029 A 
ATOM     60  N   UNL A   1      42.047  31.648  35.465  1.00  0.00    -0.354 N 
ATOM     61  N   UNL A   1      39.767  32.642  33.882  1.00  0.00    -0.248 NA
ATOM     62  C   UNL A   1      37.904  34.035  33.668  1.00  0.00     0.031 C 
ATOM     63  C   UNL A   1      42.424  32.567  37.450  1.00  0.00     0.029 A 
ATOM     64  C   UNL A   1      41.585  32.608  36.348  1.00  0.00     0.049 A 
ATOM     65  H   UNL A   1      41.641  31.442  34.591  1.00  0.00     0.167 HD
ATOM     66  C   UNL A   1      39.663  33.441  35.015  1.00  0.00     0.074 A 
ATOM     67  C   UNL A   1      38.514  34.300  34.815  1.00  0.00     0.031 C 
ATOM     68  C   UNL A   1      40.448  33.464  36.121  1.00  0.00     0.037 A 
BRANCH  55  69
ATOM     69  C   UNL A   1      45.065  29.349  36.054  1.00  0.00     0.058 A 
ATOM     70  C   UNL A   1      46.379  29.805  35.853  1.00  0.00     0.135 A 
ATOM     71  C   UNL A   1      44.868  28.303  36.970  1.00  0.00     0.135 A 
ATOM     72  F   UNL A   1      46.626  30.789  34.974  1.00  0.00    -0.206 F 
ATOM     73  C   UNL A   1      47.458  29.225  36.511  1.00  0.00     0.059 A 
ATOM     74  C   UNL A   1      45.930  27.729  37.661  1.00  0.00     0.059 A 
ATOM     75  F   UNL A   1      43.634  27.828  37.198  1.00  0.00    -0.206 F 
ATOM     76  C   UNL A   1      47.224  28.186  37.412  1.00  0.00     0.060 A 
BRANCH  76  77
ATOM     77  S   UNL A   1      48.636  27.448  38.259  1.00  0.00     0.124 S 
ATOM     78  O   UNL A   1      48.165  27.421  39.640  1.00  0.00    -0.237 OA
ATOM     79  O   UNL A   1      48.751  26.150  37.602  1.00  0.00    -0.237 OA
ATOM     80  O   UNL A   1      49.724  28.384  37.985  1.00  0.00    -0.744 OA
ENDBRANCH  76  77
ENDBRANCH  55  69
BRANCH  56  81
ATOM     81  C   UNL A   1      37.231  33.004  31.004  1.00  0.00     0.058 A 
ATOM     82  C   UNL A   1      35.935  32.587  31.341  1.00  0.00     0.135 A 
ATOM     83  C   UNL A   1      37.368  33.934  29.963  1.00  0.00     0.135 A 
ATOM     84  F   UNL A   1      35.751  31.695  32.326  1.00  0.00    -0.206 F 
ATOM     85  C   UNL A   1      34.816  33.056  30.659  1.00  0.00     0.059 A 
ATOM     86  C   UNL A   1      36.264  34.438  29.282  1.00  0.00     0.059 A 
ATOM     87  F   UNL A   1      38.586  34.379  29.615  1.00  0.00    -0.206 F 
ATOM     88  C   UNL A   1      34.992  33.983  29.630  1.00  0.00     0.060 A 
BRANCH  88  89
ATOM     89  S   UNL A   1      33.531  34.620  28.778  1.00  0.00     0.124 S 
ATOM     90  O   UNL A   1      33.198  33.506  27.898  1.00  0.00    -0.237 OA
ATOM     91  O   UNL A   1      32.610  34.857  29.886  1.00  0.00    -0.237 OA
ATOM     92  O   UNL A   1      34.027  35.822  28.117  1.00  0.00    -0.744 OA
ENDBRANCH  88  89
ENDBRANCH  56  81
BRANCH  68  93
ATOM     93  C   UNL A   1      40.118  34.475  37.183  1.00  0.00     0.058 A 
ATOM     94  C   UNL A   1      39.310  34.151  38.283  1.00  0.00     0.135 A 
ATOM     95  C   UNL A   1      40.668  35.765  37.126  1.00  0.00     0.135 A 
ATOM     96  F   UNL A   1      38.756  32.933  38.380  1.00  0.00    -0.206 F 
ATOM     97  C   UNL A   1      39.042  35.081  39.283  1.00  0.00     0.059 A 
ATOM     98  C   UNL A   1      40.435  36.702  38.128  1.00  0.00     0.059 A 
ATOM     99  F   UNL A   1      41.457  36.120  36.100  1.00  0.00    -0.206 F 
ATOM    100  C   UNL A   1      39.611  36.353  39.197  1.00  0.00     0.060 A 
BRANCH 100 101
ATOM    101  S   UNL A   1      39.289  37.537  40.520  1.00  0.00     0.124 S 
ATOM    102  O   UNL A   1      38.201  38.325  39.949  1.00  0.00    -0.237 OA
ATOM    103  O   UNL A   1      38.925  36.669  41.637  1.00  0.00    -0.237 OA
ATOM    104  O   UNL A   1      40.561  38.237  40.667  1.00  0.00    -0.744 OA
ENDBRANCH 100 101
ENDBRANCH  68  93
ENDBRANCH  42  43
ENDBRANCH  34  37
ENDBRANCH  32  33
ENDBRANCH  31  32
ENDBRANCH   1  31
TORSDOF 17
ENDMDL
