MODEL 1
REMARK VINA RESULT:     -11.3      0.000      0.000
REMARK SMILES O=C(NCCCCNC(=O)[C@]1(CCc2cccnc2)C[C@H]2CC[C@@H]1O2)c1ccc(-c2c3nc(c(-c4c(F)cc(S(=O)(=O)[O-])cc4F)c4ccc([nH]4)c(-c4c(F)cc(S(=O)(=O)[O-])cc4F)c4nc(c(-c5c(F)cc(S(=O)(=O)[O-])cc5F)c5ccc2[nH]5)C=C4)C=C3)cc1
REMARK SMILES IDX 5 1 4 2 3 3 1 4 2 5 26 7 27 8 91 9 28 10 90 11 29 12 30 13
REMARK SMILES IDX 31 14 84 15 32 16 89 17 83 18 85 19 33 20 88 21 82 22 81 23
REMARK SMILES IDX 34 25 68 26 47 27 67 28 48 29 51 30 66 31 86 32 49 33 50 34
REMARK SMILES IDX 65 36 87 37 52 38 35 39 36 40 45 41 37 42 38 43 44 44 46 45
REMARK SMILES IDX 39 46 40 47 41 48 42 49 43 50 69 51 70 52 79 53 71 54 72 55
REMARK SMILES IDX 78 56 80 57 73 58 74 59 75 60 76 61 77 62 53 63 54 64 63 65
REMARK SMILES IDX 55 66 56 67 62 68 64 69 57 70 58 71 59 72 60 73 61 74 6 75
REMARK SMILES IDX 7 76 8 77 9 78 10 80 11 81 20 82 24 83 21 84 23 85 25 86
REMARK SMILES IDX 22 87 12 88 13 89 14 90 15 91 19 92 16 93 18 94 17 95
REMARK H PARENT 3 6 85 24 51 35 8 79
REMARK Flexibility Score: inf
ROOT
ATOM      1  C   UNL A   1      32.224  28.429  26.255  1.00  0.00     0.023 C 
ENDROOT
BRANCH   1   2
ATOM      2  C   UNL A   1      33.394  28.645  27.201  1.00  0.00     0.116 C 
BRANCH   2   3
ATOM      3  N   UNL A   1      33.486  30.030  27.646  1.00  0.00    -0.352 N 
ATOM      4  O   UNL A   1      34.263  31.800  28.784  1.00  0.00    -0.269 OA
ATOM      5  C   UNL A   1      34.501  30.691  28.307  1.00  0.00     0.251 C 
ATOM      6  H   UNL A   1      32.697  30.583  27.441  1.00  0.00     0.163 HD
BRANCH   5   7
ATOM      7  C   UNL A   1      35.866  30.109  28.448  1.00  0.00     0.039 A 
ATOM      8  C   UNL A   1      36.794  30.163  27.409  1.00  0.00     0.014 A 
ATOM      9  C   UNL A   1      36.270  29.588  29.688  1.00  0.00     0.014 A 
ATOM     10  C   UNL A   1      38.066  29.617  27.566  1.00  0.00     0.010 A 
ATOM     11  C   UNL A   1      37.587  29.137  29.880  1.00  0.00     0.010 A 
ATOM     12  C   UNL A   1      38.500  29.153  28.820  1.00  0.00    -0.014 A 
BRANCH  12  13
ATOM     13  C   UNL A   1      39.950  28.859  29.000  1.00  0.00     0.031 A 
ATOM     14  C   UNL A   1      40.554  27.538  28.613  1.00  0.00     0.074 A 
ATOM     15  C   UNL A   1      40.736  29.846  29.481  1.00  0.00     0.049 A 
ATOM     16  N   UNL A   1      41.809  27.167  28.662  1.00  0.00    -0.248 NA
ATOM     17  C   UNL A   1      39.641  26.497  28.120  1.00  0.00     0.031 C 
ATOM     18  C   UNL A   1      40.254  31.158  29.931  1.00  0.00     0.029 A 
ATOM     19  N   UNL A   1      42.095  29.926  29.647  1.00  0.00    -0.354 N 
ATOM     20  C   UNL A   1      41.840  25.851  28.214  1.00  0.00     0.074 A 
ATOM     21  C   UNL A   1      40.471  25.479  27.923  1.00  0.00     0.031 C 
ATOM     22  C   UNL A   1      41.300  31.929  30.252  1.00  0.00     0.029 A 
ATOM     23  C   UNL A   1      42.522  31.151  30.108  1.00  0.00     0.049 A 
ATOM     24  H   UNL A   1      42.707  29.180  29.454  1.00  0.00     0.167 HD
ATOM     25  C   UNL A   1      42.914  25.038  28.052  1.00  0.00     0.037 A 
ATOM     26  C   UNL A   1      43.757  31.600  30.401  1.00  0.00     0.037 A 
ATOM     27  C   UNL A   1      44.275  25.423  28.343  1.00  0.00     0.049 A 
ATOM     28  C   UNL A   1      44.924  30.677  30.206  1.00  0.00     0.074 A 
ATOM     29  C   UNL A   1      45.430  24.672  28.207  1.00  0.00     0.029 A 
ATOM     30  N   UNL A   1      44.666  26.666  28.823  1.00  0.00    -0.354 N 
ATOM     31  N   UNL A   1      44.930  29.442  29.766  1.00  0.00    -0.248 NA
ATOM     32  C   UNL A   1      46.250  31.204  30.551  1.00  0.00     0.031 C 
ATOM     33  C   UNL A   1      46.515  25.446  28.637  1.00  0.00     0.029 A 
ATOM     34  C   UNL A   1      46.042  26.697  28.998  1.00  0.00     0.049 A 
ATOM     35  H   UNL A   1      44.056  27.415  29.013  1.00  0.00     0.167 HD
ATOM     36  C   UNL A   1      46.259  29.042  29.782  1.00  0.00     0.074 A 
ATOM     37  C   UNL A   1      47.032  30.181  30.237  1.00  0.00     0.031 C 
ATOM     38  C   UNL A   1      46.793  27.836  29.463  1.00  0.00     0.037 A 
BRANCH  25  39
ATOM     39  C   UNL A   1      42.671  23.643  27.539  1.00  0.00     0.058 A 
ATOM     40  C   UNL A   1      42.756  23.338  26.172  1.00  0.00     0.135 A 
ATOM     41  C   UNL A   1      42.426  22.584  28.429  1.00  0.00     0.135 A 
ATOM     42  F   UNL A   1      42.976  24.313  25.275  1.00  0.00    -0.206 F 
ATOM     43  C   UNL A   1      42.593  22.038  25.703  1.00  0.00     0.059 A 
ATOM     44  C   UNL A   1      42.283  21.272  27.985  1.00  0.00     0.059 A 
ATOM     45  F   UNL A   1      42.336  22.816  29.748  1.00  0.00    -0.206 F 
ATOM     46  C   UNL A   1      42.361  21.009  26.618  1.00  0.00     0.060 A 
BRANCH  46  47
ATOM     47  S   UNL A   1      42.188  19.324  25.991  1.00  0.00     0.124 S 
ATOM     48  O   UNL A   1      43.037  19.370  24.799  1.00  0.00    -0.237 OA
ATOM     49  O   UNL A   1      42.682  18.523  27.091  1.00  0.00    -0.237 OA
ATOM     50  O   UNL A   1      40.751  19.209  25.723  1.00  0.00    -0.744 OA
ENDBRANCH  46  47
ENDBRANCH  25  39
BRANCH  26  51
ATOM     51  C   UNL A   1      43.941  32.974  30.939  1.00  0.00     0.058 A 
ATOM     52  C   UNL A   1      44.152  34.070  30.091  1.00  0.00     0.135 A 
ATOM     53  C   UNL A   1      43.899  33.218  32.321  1.00  0.00     0.135 A 
ATOM     54  F   UNL A   1      44.204  33.891  28.762  1.00  0.00    -0.206 F 
ATOM     55  C   UNL A   1      44.339  35.355  30.593  1.00  0.00     0.059 A 
ATOM     56  C   UNL A   1      44.049  34.496  32.845  1.00  0.00     0.059 A 
ATOM     57  F   UNL A   1      43.678  32.206  33.177  1.00  0.00    -0.206 F 
ATOM     58  C   UNL A   1      44.285  35.557  31.974  1.00  0.00     0.060 A 
BRANCH  58  59
ATOM     59  S   UNL A   1      44.492  37.229  32.620  1.00  0.00     0.124 S 
ATOM     60  O   UNL A   1      45.819  37.149  33.220  1.00  0.00    -0.237 OA
ATOM     61  O   UNL A   1      44.384  38.044  31.414  1.00  0.00    -0.237 OA
ATOM     62  O   UNL A   1      43.381  37.365  33.558  1.00  0.00    -0.744 OA
ENDBRANCH  58  59
ENDBRANCH  26  51
BRANCH  38  63
ATOM     63  C   UNL A   1      48.285  27.705  29.589  1.00  0.00     0.058 A 
ATOM     64  C   UNL A   1      49.135  27.916  28.493  1.00  0.00     0.135 A 
ATOM     65  C   UNL A   1      48.870  27.362  30.818  1.00  0.00     0.135 A 
ATOM     66  F   UNL A   1      48.625  28.237  27.293  1.00  0.00    -0.206 F 
ATOM     67  C   UNL A   1      50.513  27.748  28.599  1.00  0.00     0.059 A 
ATOM     68  C   UNL A   1      50.247  27.217  30.954  1.00  0.00     0.059 A 
ATOM     69  F   UNL A   1      48.101  27.159  31.901  1.00  0.00    -0.206 F 
ATOM     70  C   UNL A   1      51.058  27.392  29.834  1.00  0.00     0.060 A 
BRANCH  70  71
ATOM     71  S   UNL A   1      52.844  27.171  29.960  1.00  0.00     0.124 S 
ATOM     72  O   UNL A   1      53.238  28.376  30.682  1.00  0.00    -0.237 OA
ATOM     73  O   UNL A   1      52.955  25.921  30.706  1.00  0.00    -0.237 OA
ATOM     74  O   UNL A   1      53.277  27.104  28.568  1.00  0.00    -0.744 OA
ENDBRANCH  70  71
ENDBRANCH  38  63
ENDBRANCH  12  13
ENDBRANCH   5   7
ENDBRANCH   2   3
ENDBRANCH   1   2
BRANCH   1  75
ATOM     75  C   UNL A   1      32.387  28.882  24.804  1.00  0.00     0.023 C 
BRANCH  75  76
ATOM     76  C   UNL A   1      33.677  28.600  23.974  1.00  0.00     0.116 C 
BRANCH  76  77
ATOM     77  N   UNL A   1      33.750  27.668  22.833  1.00  0.00    -0.356 N 
ATOM     78  C   UNL A   1      33.470  26.358  22.513  1.00  0.00     0.228 C 
ATOM     79  H   UNL A   1      34.116  28.132  22.046  1.00  0.00     0.163 HD
ATOM     80  O   UNL A   1      33.481  26.102  21.303  1.00  0.00    -0.274 OA
BRANCH  78  81
ATOM     81  C   UNL A   1      33.156  25.258  23.531  1.00  0.00     0.078 C 
ATOM     82  C   UNL A   1      33.001  23.802  23.001  1.00  0.00     0.051 C 
ATOM     83  C   UNL A   1      31.673  25.562  23.915  1.00  0.00     0.134 C 
ATOM     84  C   UNL A   1      31.552  23.468  23.346  1.00  0.00     0.120 C 
ATOM     85  C   UNL A   1      31.189  24.924  25.204  1.00  0.00     0.036 C 
ATOM     86  O   UNL A   1      30.928  24.710  22.982  1.00  0.00    -0.374 OA
ATOM     87  C   UNL A   1      31.293  23.437  24.863  1.00  0.00     0.035 C 
BRANCH  81  88
ATOM     88  C   UNL A   1      34.238  25.224  24.600  1.00  0.00     0.024 C 
BRANCH  88  89
ATOM     89  C   UNL A   1      34.802  23.841  25.082  1.00  0.00     0.038 C 
BRANCH  89  90
ATOM     90  C   UNL A   1      36.221  23.309  25.259  1.00  0.00    -0.030 A 
ATOM     91  C   UNL A   1      37.270  23.803  26.035  1.00  0.00     0.007 A 
ATOM     92  C   UNL A   1      36.498  22.059  24.696  1.00  0.00     0.114 A 
ATOM     93  C   UNL A   1      38.462  23.099  26.237  1.00  0.00     0.020 A 
ATOM     94  N   UNL A   1      37.639  21.339  24.857  1.00  0.00    -0.264 NA
ATOM     95  C   UNL A   1      38.598  21.874  25.634  1.00  0.00     0.111 A 
ENDBRANCH  89  90
ENDBRANCH  88  89
ENDBRANCH  81  88
ENDBRANCH  78  81
ENDBRANCH  76  77
ENDBRANCH  75  76
ENDBRANCH   1  75
TORSDOF 17
ENDMDL
MODEL 2
REMARK VINA RESULT:     -11.3      1.347      2.307
REMARK SMILES O=C(NCCCCNC(=O)[C@]1(CCc2cccnc2)C[C@H]2CC[C@@H]1O2)c1ccc(-c2c3nc(c(-c4c(F)cc(S(=O)(=O)[O-])cc4F)c4ccc([nH]4)c(-c4c(F)cc(S(=O)(=O)[O-])cc4F)c4nc(c(-c5c(F)cc(S(=O)(=O)[O-])cc5F)c5ccc2[nH]5)C=C4)C=C3)cc1
REMARK SMILES IDX 5 1 4 2 3 3 1 4 2 5 26 7 27 8 91 9 28 10 90 11 29 12 30 13
REMARK SMILES IDX 31 14 84 15 32 16 89 17 83 18 85 19 33 20 88 21 82 22 81 23
REMARK SMILES IDX 34 25 68 26 47 27 67 28 48 29 51 30 66 31 86 32 49 33 50 34
REMARK SMILES IDX 65 36 87 37 52 38 35 39 36 40 45 41 37 42 38 43 44 44 46 45
REMARK SMILES IDX 39 46 40 47 41 48 42 49 43 50 69 51 70 52 79 53 71 54 72 55
REMARK SMILES IDX 78 56 80 57 73 58 74 59 75 60 76 61 77 62 53 63 54 64 63 65
REMARK SMILES IDX 55 66 56 67 62 68 64 69 57 70 58 71 59 72 60 73 61 74 6 75
REMARK SMILES IDX 7 76 8 77 9 78 10 80 11 81 20 82 24 83 21 84 23 85 25 86
REMARK SMILES IDX 22 87 12 88 13 89 14 90 15 91 19 92 16 93 18 94 17 95
REMARK H PARENT 3 6 85 24 51 35 8 79
REMARK Flexibility Score: inf
ROOT
ATOM      1  C   UNL A   1      32.021  28.431  26.617  1.00  0.00     0.023 C 
ENDROOT
BRANCH   1   2
ATOM      2  C   UNL A   1      33.383  28.734  27.221  1.00  0.00     0.116 C 
BRANCH   2   3
ATOM      3  N   UNL A   1      33.485  30.118  27.665  1.00  0.00    -0.352 N 
ATOM      4  O   UNL A   1      34.274  31.882  28.805  1.00  0.00    -0.269 OA
ATOM      5  C   UNL A   1      34.504  30.770  28.329  1.00  0.00     0.251 C 
ATOM      6  H   UNL A   1      32.701  30.678  27.458  1.00  0.00     0.163 HD
BRANCH   5   7
ATOM      7  C   UNL A   1      35.863  30.177  28.474  1.00  0.00     0.039 A 
ATOM      8  C   UNL A   1      36.796  30.224  27.439  1.00  0.00     0.014 A 
ATOM      9  C   UNL A   1      36.258  29.650  29.715  1.00  0.00     0.014 A 
ATOM     10  C   UNL A   1      38.063  29.668  27.601  1.00  0.00     0.010 A 
ATOM     11  C   UNL A   1      37.570  29.187  29.912  1.00  0.00     0.010 A 
ATOM     12  C   UNL A   1      38.488  29.198  28.855  1.00  0.00    -0.014 A 
BRANCH  12  13
ATOM     13  C   UNL A   1      39.934  28.891  29.041  1.00  0.00     0.031 A 
ATOM     14  C   UNL A   1      40.529  27.566  28.653  1.00  0.00     0.074 A 
ATOM     15  C   UNL A   1      40.726  29.870  29.528  1.00  0.00     0.049 A 
ATOM     16  N   UNL A   1      41.781  27.184  28.707  1.00  0.00    -0.248 NA
ATOM     17  C   UNL A   1      39.609  26.534  28.154  1.00  0.00     0.031 C 
ATOM     18  C   UNL A   1      40.253  31.185  29.978  1.00  0.00     0.029 A 
ATOM     19  N   UNL A   1      42.086  29.938  29.699  1.00  0.00    -0.354 N 
ATOM     20  C   UNL A   1      41.802  25.870  28.255  1.00  0.00     0.074 A 
ATOM     21  C   UNL A   1      40.431  25.509  27.958  1.00  0.00     0.031 C 
ATOM     22  C   UNL A   1      41.305  31.947  30.306  1.00  0.00     0.029 A 
ATOM     23  C   UNL A   1      42.521  31.158  30.165  1.00  0.00     0.049 A 
ATOM     24  H   UNL A   1      42.692  29.187  29.508  1.00  0.00     0.167 HD
ATOM     25  C   UNL A   1      42.870  25.047  28.096  1.00  0.00     0.037 A 
ATOM     26  C   UNL A   1      43.758  31.596  30.465  1.00  0.00     0.037 A 
ATOM     27  C   UNL A   1      44.232  25.420  28.394  1.00  0.00     0.049 A 
ATOM     28  C   UNL A   1      44.919  30.664  30.273  1.00  0.00     0.074 A 
ATOM     29  C   UNL A   1      45.382  24.660  28.261  1.00  0.00     0.029 A 
ATOM     30  N   UNL A   1      44.633  26.659  28.879  1.00  0.00    -0.354 N 
ATOM     31  N   UNL A   1      44.916  29.430  29.829  1.00  0.00    -0.248 NA
ATOM     32  C   UNL A   1      46.247  31.179  30.624  1.00  0.00     0.031 C 
ATOM     33  C   UNL A   1      46.471  25.424  28.697  1.00  0.00     0.029 A 
ATOM     34  C   UNL A   1      46.007  26.678  29.059  1.00  0.00     0.049 A 
ATOM     35  H   UNL A   1      44.028  27.413  29.067  1.00  0.00     0.167 HD
ATOM     36  C   UNL A   1      46.241  29.019  29.850  1.00  0.00     0.074 A 
ATOM     37  C   UNL A   1      47.022  30.151  30.311  1.00  0.00     0.031 C 
ATOM     38  C   UNL A   1      46.766  27.809  29.530  1.00  0.00     0.037 A 
BRANCH  25  39
ATOM     39  C   UNL A   1      42.617  23.656  27.579  1.00  0.00     0.058 A 
ATOM     40  C   UNL A   1      42.613  23.373  26.204  1.00  0.00     0.135 A 
ATOM     41  C   UNL A   1      42.454  22.579  28.466  1.00  0.00     0.135 A 
ATOM     42  F   UNL A   1      42.753  24.365  25.310  1.00  0.00    -0.206 F 
ATOM     43  C   UNL A   1      42.442  22.077  25.726  1.00  0.00     0.059 A 
ATOM     44  C   UNL A   1      42.305  21.271  28.012  1.00  0.00     0.059 A 
ATOM     45  F   UNL A   1      42.452  22.790  29.792  1.00  0.00    -0.206 F 
ATOM     46  C   UNL A   1      42.292  21.030  26.639  1.00  0.00     0.060 A 
BRANCH  46  47
ATOM     47  S   UNL A   1      42.107  19.352  25.998  1.00  0.00     0.124 S 
ATOM     48  O   UNL A   1      40.663  19.290  25.760  1.00  0.00    -0.237 OA
ATOM     49  O   UNL A   1      42.944  19.369  24.816  1.00  0.00    -0.237 OA
ATOM     50  O   UNL A   1      42.589  18.513  27.100  1.00  0.00    -0.744 OA
ENDBRANCH  46  47
ENDBRANCH  25  39
BRANCH  26  51
ATOM     51  C   UNL A   1      43.952  32.968  31.007  1.00  0.00     0.058 A 
ATOM     52  C   UNL A   1      43.937  33.219  32.386  1.00  0.00     0.135 A 
ATOM     53  C   UNL A   1      44.167  34.057  30.147  1.00  0.00     0.135 A 
ATOM     54  F   UNL A   1      43.732  32.213  33.249  1.00  0.00    -0.206 F 
ATOM     55  C   UNL A   1      44.104  34.504  32.894  1.00  0.00     0.059 A 
ATOM     56  C   UNL A   1      44.370  35.344  30.631  1.00  0.00     0.059 A 
ATOM     57  F   UNL A   1      44.212  33.868  28.818  1.00  0.00    -0.206 F 
ATOM     58  C   UNL A   1      44.320  35.561  32.007  1.00  0.00     0.060 A 
BRANCH  58  59
ATOM     59  S   UNL A   1      44.572  37.220  32.671  1.00  0.00     0.124 S 
ATOM     60  O   UNL A   1      44.567  38.025  31.455  1.00  0.00    -0.237 OA
ATOM     61  O   UNL A   1      43.418  37.381  33.549  1.00  0.00    -0.237 OA
ATOM     62  O   UNL A   1      45.858  37.115  33.355  1.00  0.00    -0.744 OA
ENDBRANCH  58  59
ENDBRANCH  26  51
BRANCH  38  63
ATOM     63  C   UNL A   1      48.256  27.666  29.663  1.00  0.00     0.058 A 
ATOM     64  C   UNL A   1      49.121  27.975  28.601  1.00  0.00     0.135 A 
ATOM     65  C   UNL A   1      48.826  27.210  30.862  1.00  0.00     0.135 A 
ATOM     66  F   UNL A   1      48.625  28.405  27.429  1.00  0.00    -0.206 F 
ATOM     67  C   UNL A   1      50.496  27.796  28.708  1.00  0.00     0.059 A 
ATOM     68  C   UNL A   1      50.201  27.052  31.001  1.00  0.00     0.059 A 
ATOM     69  F   UNL A   1      48.044  26.910  31.911  1.00  0.00    -0.206 F 
ATOM     70  C   UNL A   1      51.026  27.328  29.911  1.00  0.00     0.060 A 
BRANCH  70  71
ATOM     71  S   UNL A   1      52.811  27.094  30.039  1.00  0.00     0.124 S 
ATOM     72  O   UNL A   1      53.185  26.928  28.639  1.00  0.00    -0.237 OA
ATOM     73  O   UNL A   1      53.247  28.337  30.669  1.00  0.00    -0.237 OA
ATOM     74  O   UNL A   1      52.938  25.901  30.869  1.00  0.00    -0.744 OA
ENDBRANCH  70  71
ENDBRANCH  38  63
ENDBRANCH  12  13
ENDBRANCH   5   7
ENDBRANCH   2   3
ENDBRANCH   1   2
BRANCH   1  75
ATOM     75  C   UNL A   1      31.881  28.509  25.097  1.00  0.00     0.023 C 
BRANCH  75  76
ATOM     76  C   UNL A   1      31.650  27.250  24.207  1.00  0.00     0.116 C 
BRANCH  76  77
ATOM     77  N   UNL A   1      32.601  26.754  23.195  1.00  0.00    -0.356 N 
ATOM     78  C   UNL A   1      33.317  25.622  22.875  1.00  0.00     0.228 C 
ATOM     79  H   UNL A   1      32.782  27.460  22.533  1.00  0.00     0.163 HD
ATOM     80  O   UNL A   1      33.812  25.619  21.743  1.00  0.00    -0.274 OA
BRANCH  78  81
ATOM     81  C   UNL A   1      33.515  24.423  23.806  1.00  0.00     0.078 C 
ATOM     82  C   UNL A   1      32.424  24.153  24.885  1.00  0.00     0.051 C 
ATOM     83  C   UNL A   1      34.687  24.893  24.725  1.00  0.00     0.134 C 
ATOM     84  C   UNL A   1      33.192  24.317  26.193  1.00  0.00     0.120 C 
ATOM     85  C   UNL A   1      35.409  23.791  25.478  1.00  0.00     0.036 C 
ATOM     86  O   UNL A   1      33.975  25.477  25.866  1.00  0.00    -0.374 OA
ATOM     87  C   UNL A   1      34.292  23.256  26.375  1.00  0.00     0.035 C 
BRANCH  81  88
ATOM     88  C   UNL A   1      33.643  23.149  22.983  1.00  0.00     0.024 C 
BRANCH  88  89
ATOM     89  C   UNL A   1      32.452  22.126  22.956  1.00  0.00     0.038 C 
BRANCH  89  90
ATOM     90  C   UNL A   1      32.333  20.668  23.389  1.00  0.00    -0.030 A 
ATOM     91  C   UNL A   1      32.364  19.503  22.623  1.00  0.00     0.007 A 
ATOM     92  C   UNL A   1      32.348  20.420  24.765  1.00  0.00     0.114 A 
ATOM     93  C   UNL A   1      32.426  18.225  23.187  1.00  0.00     0.020 A 
ATOM     94  N   UNL A   1      32.402  19.200  25.361  1.00  0.00    -0.264 NA
ATOM     95  C   UNL A   1      32.447  18.123  24.556  1.00  0.00     0.111 A 
ENDBRANCH  89  90
ENDBRANCH  88  89
ENDBRANCH  81  88
ENDBRANCH  78  81
ENDBRANCH  76  77
ENDBRANCH  75  76
ENDBRANCH   1  75
TORSDOF 17
ENDMDL
MODEL 3
REMARK VINA RESULT:     -11.0      3.139      9.341
REMARK SMILES O=C(NCCCCNC(=O)[C@]1(CCc2cccnc2)C[C@H]2CC[C@@H]1O2)c1ccc(-c2c3nc(c(-c4c(F)cc(S(=O)(=O)[O-])cc4F)c4ccc([nH]4)c(-c4c(F)cc(S(=O)(=O)[O-])cc4F)c4nc(c(-c5c(F)cc(S(=O)(=O)[O-])cc5F)c5ccc2[nH]5)C=C4)C=C3)cc1
REMARK SMILES IDX 5 1 4 2 3 3 1 4 2 5 26 7 27 8 91 9 28 10 90 11 29 12 30 13
REMARK SMILES IDX 31 14 84 15 32 16 89 17 83 18 85 19 33 20 88 21 82 22 81 23
REMARK SMILES IDX 34 25 68 26 47 27 67 28 48 29 51 30 66 31 86 32 49 33 50 34
REMARK SMILES IDX 65 36 87 37 52 38 35 39 36 40 45 41 37 42 38 43 44 44 46 45
REMARK SMILES IDX 39 46 40 47 41 48 42 49 43 50 69 51 70 52 79 53 71 54 72 55
REMARK SMILES IDX 78 56 80 57 73 58 74 59 75 60 76 61 77 62 53 63 54 64 63 65
REMARK SMILES IDX 55 66 56 67 62 68 64 69 57 70 58 71 59 72 60 73 61 74 6 75
REMARK SMILES IDX 7 76 8 77 9 78 10 80 11 81 20 82 24 83 21 84 23 85 25 86
REMARK SMILES IDX 22 87 12 88 13 89 14 90 15 91 19 92 16 93 18 94 17 95
REMARK H PARENT 3 6 85 24 51 35 8 79
REMARK Flexibility Score: inf
ROOT
ATOM      1  C   UNL A   1      36.421  22.983  23.755  1.00  0.00     0.023 C 
ENDROOT
BRANCH   1   2
ATOM      2  C   UNL A   1      37.108  23.505  25.007  1.00  0.00     0.116 C 
BRANCH   2   3
ATOM      3  N   UNL A   1      38.223  22.657  25.409  1.00  0.00    -0.352 N 
ATOM      4  O   UNL A   1      40.284  22.135  26.124  1.00  0.00    -0.269 OA
ATOM      5  C   UNL A   1      39.377  22.967  26.098  1.00  0.00     0.251 C 
ATOM      6  H   UNL A   1      38.138  21.711  25.148  1.00  0.00     0.163 HD
BRANCH   5   7
ATOM      7  C   UNL A   1      39.550  24.263  26.814  1.00  0.00     0.039 A 
ATOM      8  C   UNL A   1      39.074  24.452  28.110  1.00  0.00     0.014 A 
ATOM      9  C   UNL A   1      40.302  25.288  26.215  1.00  0.00     0.014 A 
ATOM     10  C   UNL A   1      39.253  25.670  28.761  1.00  0.00     0.010 A 
ATOM     11  C   UNL A   1      40.576  26.476  26.913  1.00  0.00     0.010 A 
ATOM     12  C   UNL A   1      40.057  26.675  28.198  1.00  0.00    -0.014 A 
BRANCH  12  13
ATOM     13  C   UNL A   1      40.453  27.827  29.057  1.00  0.00     0.031 A 
ATOM     14  C   UNL A   1      39.556  29.014  29.270  1.00  0.00     0.074 A 
ATOM     15  C   UNL A   1      41.641  27.754  29.694  1.00  0.00     0.049 A 
ATOM     16  N   UNL A   1      39.749  30.058  30.037  1.00  0.00    -0.248 NA
ATOM     17  C   UNL A   1      38.288  29.044  28.528  1.00  0.00     0.031 C 
ATOM     18  C   UNL A   1      42.616  26.669  29.531  1.00  0.00     0.029 A 
ATOM     19  N   UNL A   1      42.224  28.577  30.625  1.00  0.00    -0.354 N 
ATOM     20  C   UNL A   1      38.636  30.873  29.867  1.00  0.00     0.074 A 
ATOM     21  C   UNL A   1      37.782  30.213  28.901  1.00  0.00     0.031 C 
ATOM     22  C   UNL A   1      43.636  26.856  30.379  1.00  0.00     0.029 A 
ATOM     23  C   UNL A   1      43.431  28.109  31.094  1.00  0.00     0.049 A 
ATOM     24  H   UNL A   1      41.818  29.420  30.930  1.00  0.00     0.167 HD
ATOM     25  C   UNL A   1      38.353  32.055  30.470  1.00  0.00     0.037 A 
ATOM     26  C   UNL A   1      44.293  28.633  31.985  1.00  0.00     0.037 A 
ATOM     27  C   UNL A   1      39.212  32.700  31.434  1.00  0.00     0.049 A 
ATOM     28  C   UNL A   1      43.948  29.939  32.639  1.00  0.00     0.074 A 
ATOM     29  C   UNL A   1      39.011  33.896  32.104  1.00  0.00     0.029 A 
ATOM     30  N   UNL A   1      40.434  32.205  31.871  1.00  0.00    -0.354 N 
ATOM     31  N   UNL A   1      42.881  30.684  32.474  1.00  0.00    -0.248 NA
ATOM     32  C   UNL A   1      44.922  30.479  33.594  1.00  0.00     0.031 C 
ATOM     33  C   UNL A   1      40.123  34.140  32.918  1.00  0.00     0.029 A 
ATOM     34  C   UNL A   1      40.999  33.074  32.791  1.00  0.00     0.049 A 
ATOM     35  H   UNL A   1      40.840  31.359  31.570  1.00  0.00     0.167 HD
ATOM     36  C   UNL A   1      43.055  31.783  33.303  1.00  0.00     0.074 A 
ATOM     37  C   UNL A   1      44.312  31.584  34.000  1.00  0.00     0.031 C 
ATOM     38  C   UNL A   1      42.256  32.866  33.465  1.00  0.00     0.037 A 
BRANCH  25  39
ATOM     39  C   UNL A   1      37.061  32.739  30.109  1.00  0.00     0.058 A 
ATOM     40  C   UNL A   1      35.883  32.515  30.838  1.00  0.00     0.135 A 
ATOM     41  C   UNL A   1      37.016  33.686  29.071  1.00  0.00     0.135 A 
ATOM     42  F   UNL A   1      35.864  31.613  31.833  1.00  0.00    -0.206 F 
ATOM     43  C   UNL A   1      34.703  33.194  30.545  1.00  0.00     0.059 A 
ATOM     44  C   UNL A   1      35.853  34.393  28.776  1.00  0.00     0.059 A 
ATOM     45  F   UNL A   1      38.112  33.941  28.342  1.00  0.00    -0.206 F 
ATOM     46  C   UNL A   1      34.699  34.135  29.513  1.00  0.00     0.060 A 
BRANCH  46  47
ATOM     47  S   UNL A   1      33.167  35.029  29.173  1.00  0.00     0.124 S 
ATOM     48  O   UNL A   1      32.576  34.201  28.119  1.00  0.00    -0.237 OA
ATOM     49  O   UNL A   1      32.492  35.002  30.454  1.00  0.00    -0.237 OA
ATOM     50  O   UNL A   1      33.635  36.348  28.735  1.00  0.00    -0.744 OA
ENDBRANCH  46  47
ENDBRANCH  25  39
BRANCH  26  51
ATOM     51  C   UNL A   1      45.573  27.937  32.282  1.00  0.00     0.058 A 
ATOM     52  C   UNL A   1      46.738  28.201  31.547  1.00  0.00     0.135 A 
ATOM     53  C   UNL A   1      45.656  26.995  33.320  1.00  0.00     0.135 A 
ATOM     54  F   UNL A   1      46.711  29.090  30.543  1.00  0.00    -0.206 F 
ATOM     55  C   UNL A   1      47.933  27.540  31.814  1.00  0.00     0.059 A 
ATOM     56  C   UNL A   1      46.846  26.346  33.628  1.00  0.00     0.059 A 
ATOM     57  F   UNL A   1      44.575  26.721  34.069  1.00  0.00    -0.206 F 
ATOM     58  C   UNL A   1      47.976  26.613  32.858  1.00  0.00     0.060 A 
BRANCH  58  59
ATOM     59  S   UNL A   1      49.537  25.783  33.224  1.00  0.00     0.124 S 
ATOM     60  O   UNL A   1      50.049  26.596  34.321  1.00  0.00    -0.237 OA
ATOM     61  O   UNL A   1      49.097  24.437  33.577  1.00  0.00    -0.237 OA
ATOM     62  O   UNL A   1      50.272  25.883  31.966  1.00  0.00    -0.744 OA
ENDBRANCH  58  59
ENDBRANCH  26  51
BRANCH  38  63
ATOM     63  C   UNL A   1      42.723  33.907  34.444  1.00  0.00     0.058 A 
ATOM     64  C   UNL A   1      43.520  34.990  34.039  1.00  0.00     0.135 A 
ATOM     65  C   UNL A   1      42.375  33.819  35.801  1.00  0.00     0.135 A 
ATOM     66  F   UNL A   1      43.889  35.114  32.754  1.00  0.00    -0.206 F 
ATOM     67  C   UNL A   1      43.992  35.927  34.953  1.00  0.00     0.059 A 
ATOM     68  C   UNL A   1      42.811  34.761  36.727  1.00  0.00     0.059 A 
ATOM     69  F   UNL A   1      41.607  32.809  36.238  1.00  0.00    -0.206 F 
ATOM     70  C   UNL A   1      43.636  35.800  36.297  1.00  0.00     0.060 A 
BRANCH  70  71
ATOM     71  S   UNL A   1      44.258  37.016  37.476  1.00  0.00     0.124 S 
ATOM     72  O   UNL A   1      44.925  37.966  36.592  1.00  0.00    -0.237 OA
ATOM     73  O   UNL A   1      43.032  37.494  38.110  1.00  0.00    -0.237 OA
ATOM     74  O   UNL A   1      45.138  36.235  38.337  1.00  0.00    -0.744 OA
ENDBRANCH  70  71
ENDBRANCH  38  63
ENDBRANCH  12  13
ENDBRANCH   5   7
ENDBRANCH   2   3
ENDBRANCH   1   2
BRANCH   1  75
ATOM     75  C   UNL A   1      35.123  22.196  23.929  1.00  0.00     0.023 C 
BRANCH  75  76
ATOM     76  C   UNL A   1      33.782  22.623  23.257  1.00  0.00     0.116 C 
BRANCH  76  77
ATOM     77  N   UNL A   1      33.619  23.809  22.395  1.00  0.00    -0.356 N 
ATOM     78  C   UNL A   1      33.271  25.139  22.475  1.00  0.00     0.228 C 
ATOM     79  H   UNL A   1      33.826  23.574  21.462  1.00  0.00     0.163 HD
ATOM     80  O   UNL A   1      33.527  25.807  21.467  1.00  0.00    -0.274 OA
BRANCH  78  81
ATOM     81  C   UNL A   1      32.620  25.799  23.693  1.00  0.00     0.078 C 
ATOM     82  C   UNL A   1      32.636  25.015  25.039  1.00  0.00     0.051 C 
ATOM     83  C   UNL A   1      31.098  25.718  23.354  1.00  0.00     0.134 C 
ATOM     84  C   UNL A   1      31.151  24.803  25.325  1.00  0.00     0.120 C 
ATOM     85  C   UNL A   1      30.202  26.651  24.147  1.00  0.00     0.036 C 
ATOM     86  O   UNL A   1      30.700  24.465  24.003  1.00  0.00    -0.374 OA
ATOM     87  C   UNL A   1      30.398  26.122  25.568  1.00  0.00     0.035 C 
BRANCH  81  88
ATOM     88  C   UNL A   1      33.280  27.144  23.962  1.00  0.00     0.024 C 
BRANCH  88  89
ATOM     89  C   UNL A   1      33.845  27.454  25.393  1.00  0.00     0.038 C 
BRANCH  89  90
ATOM     90  C   UNL A   1      33.772  28.688  26.288  1.00  0.00    -0.030 A 
ATOM     91  C   UNL A   1      34.776  29.323  27.018  1.00  0.00     0.007 A 
ATOM     92  C   UNL A   1      32.569  29.402  26.273  1.00  0.00     0.114 A 
ATOM     93  C   UNL A   1      34.591  30.558  27.648  1.00  0.00     0.020 A 
ATOM     94  N   UNL A   1      32.338  30.600  26.873  1.00  0.00    -0.264 NA
ATOM     95  C   UNL A   1      33.361  31.158  27.545  1.00  0.00     0.111 A 
ENDBRANCH  89  90
ENDBRANCH  88  89
ENDBRANCH  81  88
ENDBRANCH  78  81
ENDBRANCH  76  77
ENDBRANCH  75  76
ENDBRANCH   1  75
TORSDOF 17
ENDMDL
