MODEL 1
REMARK VINA RESULT:     -11.2      0.000      0.000
REMARK SMILES CC(C)C[C@H](NS(=O)(=O)N1C[C@@H](C)C[C@H](C)C1)C(=O)NCCCCNC(=O)c1ccc(-c2c3nc(c(-c4c(F)cc(S(=O)(=O)[O-])cc4F)c4ccc([nH]4)c(-c4c(F)cc(S(=O)(=O)[O-])cc4F)c4nc(c(-c5c(F)cc(S(=O)(=O)[O-])cc5F)c5ccc2[nH]5)C=C4)C=C3)cc1
REMARK SMILES IDX 22 1 21 2 20 3 18 4 19 5 5 7 4 8 2 9 1 10 3 11 6 12 7 14
REMARK SMILES IDX 8 15 9 16 10 17 11 18 17 19 12 20 15 21 13 22 14 23 16 24
REMARK SMILES IDX 23 25 24 26 25 27 26 28 27 30 28 31 29 32 93 33 30 34 92 35
REMARK SMILES IDX 31 36 32 37 33 38 86 39 34 40 91 41 85 42 87 43 35 44 90 45
REMARK SMILES IDX 84 46 83 47 36 49 70 50 49 51 69 52 50 53 53 54 68 55 88 56
REMARK SMILES IDX 51 57 52 58 67 60 89 61 54 62 37 63 38 64 47 65 39 66 40 67
REMARK SMILES IDX 46 68 48 69 41 70 42 71 43 72 44 73 45 74 71 75 72 76 81 77
REMARK SMILES IDX 73 78 74 79 80 80 82 81 75 82 76 83 77 84 78 85 79 86 55 87
REMARK SMILES IDX 56 88 65 89 57 90 58 91 64 92 66 93 59 94 60 95 61 96 62 97
REMARK SMILES IDX 63 98
REMARK H PARENT 20 6 6 13 25 29 87 48 53 59
REMARK Flexibility Score: inf
ROOT
ATOM      1  C   UNL A   1      34.094  27.952  25.990  1.00  0.00     0.023 C 
ENDROOT
BRANCH   1   2
ATOM      2  C   UNL A   1      32.972  27.066  26.500  1.00  0.00     0.116 C 
BRANCH   2   3
ATOM      3  N   UNL A   1      31.702  27.407  25.908  1.00  0.00    -0.355 N 
ATOM      4  C   UNL A   1      30.925  26.704  25.047  1.00  0.00     0.238 C 
ATOM      5  O   UNL A   1      29.845  27.215  24.728  1.00  0.00    -0.273 OA
ATOM      6  H   UNL A   1      31.344  28.286  26.171  1.00  0.00     0.163 HD
BRANCH   4   7
ATOM      7  C   UNL A   1      31.322  25.324  24.518  1.00  0.00     0.160 C 
BRANCH   7   8
ATOM      8  C   UNL A   1      31.538  25.329  22.984  1.00  0.00     0.033 C 
BRANCH   8   9
ATOM      9  C   UNL A   1      32.968  25.309  22.402  1.00  0.00    -0.015 C 
ATOM     10  C   UNL A   1      33.234  26.499  21.471  1.00  0.00     0.007 C 
ATOM     11  C   UNL A   1      34.010  25.378  23.533  1.00  0.00     0.007 C 
ENDBRANCH   8   9
ENDBRANCH   7   8
BRANCH   7  12
ATOM     12  N   UNL A   1      30.583  24.194  25.092  1.00  0.00    -0.190 NA
ATOM     13  H   UNL A   1      30.649  23.453  24.395  1.00  0.00     0.143 HD
BRANCH  12  14
ATOM     14  S   UNL A   1      30.890  23.454  26.537  1.00  0.00     0.280 S 
ATOM     15  O   UNL A   1      31.460  24.495  27.357  1.00  0.00    -0.195 OA
ATOM     16  O   UNL A   1      29.712  22.744  26.963  1.00  0.00    -0.195 OA
BRANCH  14  17
ATOM     17  N   UNL A   1      32.078  22.362  26.179  1.00  0.00    -0.188 NA
ATOM     18  C   UNL A   1      31.896  21.193  25.316  1.00  0.00     0.106 C 
ATOM     19  C   UNL A   1      33.417  22.480  26.744  1.00  0.00     0.106 C 
ATOM     20  C   UNL A   1      32.909  21.187  24.154  1.00  0.00     0.001 C 
ATOM     21  C   UNL A   1      34.334  22.877  25.598  1.00  0.00     0.001 C 
ATOM     22  C   UNL A   1      32.274  21.713  22.866  1.00  0.00     0.009 C 
ATOM     23  C   UNL A   1      34.287  21.826  24.470  1.00  0.00     0.009 C 
ATOM     24  C   UNL A   1      35.759  23.079  26.112  1.00  0.00     0.009 C 
ENDBRANCH  14  17
ENDBRANCH  12  14
ENDBRANCH   7  12
ENDBRANCH   4   7
ENDBRANCH   2   3
ENDBRANCH   1   2
BRANCH   1  25
ATOM     25  C   UNL A   1      34.295  29.234  26.796  1.00  0.00     0.023 C 
BRANCH  25  26
ATOM     26  C   UNL A   1      35.573  29.283  27.626  1.00  0.00     0.116 C 
BRANCH  26  27
ATOM     27  N   UNL A   1      35.337  29.648  29.018  1.00  0.00    -0.352 N 
ATOM     28  C   UNL A   1      36.260  29.856  30.013  1.00  0.00     0.251 C 
ATOM     29  H   UNL A   1      34.394  29.761  29.279  1.00  0.00     0.163 HD
ATOM     30  O   UNL A   1      35.911  30.066  31.167  1.00  0.00    -0.269 OA
BRANCH  28  31
ATOM     31  C   UNL A   1      37.682  29.772  29.650  1.00  0.00     0.039 A 
ATOM     32  C   UNL A   1      38.615  29.505  30.652  1.00  0.00     0.014 A 
ATOM     33  C   UNL A   1      38.051  29.807  28.304  1.00  0.00     0.014 A 
ATOM     34  C   UNL A   1      39.924  29.203  30.289  1.00  0.00     0.010 A 
ATOM     35  C   UNL A   1      39.331  29.414  27.944  1.00  0.00     0.010 A 
ATOM     36  C   UNL A   1      40.281  29.113  28.933  1.00  0.00    -0.014 A 
BRANCH  36  37
ATOM     37  C   UNL A   1      41.651  28.713  28.530  1.00  0.00     0.031 A 
ATOM     38  C   UNL A   1      42.740  29.749  28.479  1.00  0.00     0.074 A 
ATOM     39  C   UNL A   1      41.898  27.439  28.165  1.00  0.00     0.049 A 
ATOM     40  N   UNL A   1      43.988  29.614  28.117  1.00  0.00    -0.248 NA
ATOM     41  C   UNL A   1      42.369  31.125  28.852  1.00  0.00     0.031 C 
ATOM     42  C   UNL A   1      40.907  26.361  28.126  1.00  0.00     0.029 A 
ATOM     43  N   UNL A   1      43.058  26.834  27.755  1.00  0.00    -0.354 N 
ATOM     44  C   UNL A   1      44.545  30.884  28.208  1.00  0.00     0.074 A 
ATOM     45  C   UNL A   1      43.485  31.787  28.593  1.00  0.00     0.031 C 
ATOM     46  C   UNL A   1      41.509  25.221  27.751  1.00  0.00     0.029 A 
ATOM     47  C   UNL A   1      42.917  25.494  27.480  1.00  0.00     0.049 A 
ATOM     48  H   UNL A   1      43.913  27.314  27.666  1.00  0.00     0.167 HD
ATOM     49  C   UNL A   1      45.832  31.257  28.017  1.00  0.00     0.037 A 
ATOM     50  C   UNL A   1      43.821  24.590  27.054  1.00  0.00     0.037 A 
ATOM     51  C   UNL A   1      46.883  30.342  27.657  1.00  0.00     0.049 A 
ATOM     52  C   UNL A   1      45.244  25.032  26.836  1.00  0.00     0.074 A 
ATOM     53  C   UNL A   1      48.232  30.605  27.499  1.00  0.00     0.029 A 
ATOM     54  N   UNL A   1      46.703  28.992  27.393  1.00  0.00    -0.354 N 
ATOM     55  N   UNL A   1      45.771  26.223  27.001  1.00  0.00    -0.248 NA
ATOM     56  C   UNL A   1      46.195  24.011  26.380  1.00  0.00     0.031 C 
ATOM     57  C   UNL A   1      48.857  29.427  27.080  1.00  0.00     0.029 A 
ATOM     58  C   UNL A   1      47.911  28.414  27.043  1.00  0.00     0.049 A 
ATOM     59  H   UNL A   1      45.843  28.515  27.447  1.00  0.00     0.167 HD
ATOM     60  C   UNL A   1      47.123  26.085  26.701  1.00  0.00     0.074 A 
ATOM     61  C   UNL A   1      47.332  24.693  26.357  1.00  0.00     0.031 C 
ATOM     62  C   UNL A   1      48.102  27.023  26.710  1.00  0.00     0.037 A 
BRANCH  49  63
ATOM     63  C   UNL A   1      46.171  32.712  28.188  1.00  0.00     0.058 A 
ATOM     64  C   UNL A   1      46.611  33.231  29.417  1.00  0.00     0.135 A 
ATOM     65  C   UNL A   1      46.083  33.595  27.100  1.00  0.00     0.135 A 
ATOM     66  F   UNL A   1      46.695  32.437  30.496  1.00  0.00    -0.206 F 
ATOM     67  C   UNL A   1      46.925  34.577  29.567  1.00  0.00     0.059 A 
ATOM     68  C   UNL A   1      46.426  34.939  27.219  1.00  0.00     0.059 A 
ATOM     69  F   UNL A   1      45.663  33.156  25.904  1.00  0.00    -0.206 F 
ATOM     70  C   UNL A   1      46.831  35.424  28.461  1.00  0.00     0.060 A 
BRANCH  70  71
ATOM     71  S   UNL A   1      47.257  37.165  28.672  1.00  0.00     0.124 S 
ATOM     72  O   UNL A   1      46.967  37.365  30.089  1.00  0.00    -0.237 OA
ATOM     73  O   UNL A   1      48.670  37.185  28.307  1.00  0.00    -0.237 OA
ATOM     74  O   UNL A   1      46.362  37.850  27.745  1.00  0.00    -0.744 OA
ENDBRANCH  70  71
ENDBRANCH  49  63
BRANCH  50  75
ATOM     75  C   UNL A   1      43.416  23.174  26.830  1.00  0.00     0.058 A 
ATOM     76  C   UNL A   1      43.164  22.314  27.911  1.00  0.00     0.135 A 
ATOM     77  C   UNL A   1      43.270  22.652  25.536  1.00  0.00     0.135 A 
ATOM     78  F   UNL A   1      43.296  22.762  29.168  1.00  0.00    -0.206 F 
ATOM     79  C   UNL A   1      42.802  20.985  27.718  1.00  0.00     0.059 A 
ATOM     80  C   UNL A   1      42.879  21.334  25.316  1.00  0.00     0.059 A 
ATOM     81  F   UNL A   1      43.481  23.435  24.466  1.00  0.00    -0.206 F 
ATOM     82  C   UNL A   1      42.659  20.505  26.415  1.00  0.00     0.060 A 
BRANCH  82  83
ATOM     83  S   UNL A   1      42.147  18.790  26.177  1.00  0.00     0.124 S 
ATOM     84  O   UNL A   1      40.775  18.954  25.711  1.00  0.00    -0.237 OA
ATOM     85  O   UNL A   1      43.108  18.321  25.183  1.00  0.00    -0.237 OA
ATOM     86  O   UNL A   1      42.297  18.207  27.507  1.00  0.00    -0.744 OA
ENDBRANCH  82  83
ENDBRANCH  50  75
BRANCH  62  87
ATOM     87  C   UNL A   1      49.499  26.573  26.380  1.00  0.00     0.058 A 
ATOM     88  C   UNL A   1      50.352  26.028  27.353  1.00  0.00     0.135 A 
ATOM     89  C   UNL A   1      49.968  26.635  25.058  1.00  0.00     0.135 A 
ATOM     90  F   UNL A   1      49.956  25.951  28.634  1.00  0.00    -0.206 F 
ATOM     91  C   UNL A   1      51.631  25.585  27.030  1.00  0.00     0.059 A 
ATOM     92  C   UNL A   1      51.229  26.166  24.707  1.00  0.00     0.059 A 
ATOM     93  F   UNL A   1      49.188  27.136  24.086  1.00  0.00    -0.206 F 
ATOM     94  C   UNL A   1      52.058  25.654  25.703  1.00  0.00     0.060 A 
BRANCH  94  95
ATOM     95  S   UNL A   1      53.706  25.042  25.293  1.00  0.00     0.124 S 
ATOM     96  O   UNL A   1      54.004  25.790  24.077  1.00  0.00    -0.237 OA
ATOM     97  O   UNL A   1      54.478  25.416  26.474  1.00  0.00    -0.237 OA
ATOM     98  O   UNL A   1      53.502  23.607  25.113  1.00  0.00    -0.744 OA
ENDBRANCH  94  95
ENDBRANCH  62  87
ENDBRANCH  36  37
ENDBRANCH  28  31
ENDBRANCH  26  27
ENDBRANCH  25  26
ENDBRANCH   1  25
TORSDOF 19
ENDMDL
MODEL 2
REMARK VINA RESULT:     -11.1      2.094      8.608
REMARK SMILES CC(C)C[C@H](NS(=O)(=O)N1C[C@@H](C)C[C@H](C)C1)C(=O)NCCCCNC(=O)c1ccc(-c2c3nc(c(-c4c(F)cc(S(=O)(=O)[O-])cc4F)c4ccc([nH]4)c(-c4c(F)cc(S(=O)(=O)[O-])cc4F)c4nc(c(-c5c(F)cc(S(=O)(=O)[O-])cc5F)c5ccc2[nH]5)C=C4)C=C3)cc1
REMARK SMILES IDX 22 1 21 2 20 3 18 4 19 5 5 7 4 8 2 9 1 10 3 11 6 12 7 14
REMARK SMILES IDX 8 15 9 16 10 17 11 18 17 19 12 20 15 21 13 22 14 23 16 24
REMARK SMILES IDX 23 25 24 26 25 27 26 28 27 30 28 31 29 32 93 33 30 34 92 35
REMARK SMILES IDX 31 36 32 37 33 38 86 39 34 40 91 41 85 42 87 43 35 44 90 45
REMARK SMILES IDX 84 46 83 47 36 49 70 50 49 51 69 52 50 53 53 54 68 55 88 56
REMARK SMILES IDX 51 57 52 58 67 60 89 61 54 62 37 63 38 64 47 65 39 66 40 67
REMARK SMILES IDX 46 68 48 69 41 70 42 71 43 72 44 73 45 74 71 75 72 76 81 77
REMARK SMILES IDX 73 78 74 79 80 80 82 81 75 82 76 83 77 84 78 85 79 86 55 87
REMARK SMILES IDX 56 88 65 89 57 90 58 91 64 92 66 93 59 94 60 95 61 96 62 97
REMARK SMILES IDX 63 98
REMARK H PARENT 20 6 6 13 25 29 87 48 53 59
REMARK Flexibility Score: inf
ROOT
ATOM      1  C   UNL A   1      37.531  21.919  24.817  1.00  0.00     0.023 C 
ENDROOT
BRANCH   1   2
ATOM      2  C   UNL A   1      36.015  21.849  24.771  1.00  0.00     0.116 C 
BRANCH   2   3
ATOM      3  N   UNL A   1      35.465  22.696  23.741  1.00  0.00    -0.355 N 
ATOM      4  C   UNL A   1      34.173  22.960  23.427  1.00  0.00     0.238 C 
ATOM      5  O   UNL A   1      33.976  23.772  22.515  1.00  0.00    -0.273 OA
ATOM      6  H   UNL A   1      36.133  23.154  23.180  1.00  0.00     0.163 HD
BRANCH   4   7
ATOM      7  C   UNL A   1      32.998  22.331  24.178  1.00  0.00     0.160 C 
BRANCH   7   8
ATOM      8  C   UNL A   1      32.395  21.126  23.414  1.00  0.00     0.033 C 
BRANCH   8   9
ATOM      9  C   UNL A   1      32.216  19.767  24.124  1.00  0.00    -0.015 C 
ATOM     10  C   UNL A   1      32.528  18.583  23.201  1.00  0.00     0.007 C 
ATOM     11  C   UNL A   1      33.165  19.662  25.331  1.00  0.00     0.007 C 
ENDBRANCH   8   9
ENDBRANCH   7   8
BRANCH   7  12
ATOM     12  N   UNL A   1      32.060  23.281  24.788  1.00  0.00    -0.190 NA
ATOM     13  H   UNL A   1      31.161  22.801  24.790  1.00  0.00     0.143 HD
BRANCH  12  14
ATOM     14  S   UNL A   1      32.189  23.961  26.288  1.00  0.00     0.280 S 
ATOM     15  O   UNL A   1      31.218  23.253  27.086  1.00  0.00    -0.195 OA
ATOM     16  O   UNL A   1      33.576  23.995  26.674  1.00  0.00    -0.195 OA
BRANCH  14  17
ATOM     17  N   UNL A   1      31.654  25.510  26.068  1.00  0.00    -0.188 NA
ATOM     18  C   UNL A   1      32.504  26.700  26.148  1.00  0.00     0.106 C 
ATOM     19  C   UNL A   1      30.250  25.801  25.804  1.00  0.00     0.106 C 
ATOM     20  C   UNL A   1      32.423  27.539  24.858  1.00  0.00     0.001 C 
ATOM     21  C   UNL A   1      30.170  26.256  24.356  1.00  0.00     0.001 C 
ATOM     22  C   UNL A   1      33.617  27.262  23.943  1.00  0.00     0.009 C 
ATOM     23  C   UNL A   1      31.058  27.496  24.122  1.00  0.00     0.009 C 
ATOM     24  C   UNL A   1      28.717  26.531  23.971  1.00  0.00     0.009 C 
ENDBRANCH  14  17
ENDBRANCH  12  14
ENDBRANCH   7  12
ENDBRANCH   4   7
ENDBRANCH   2   3
ENDBRANCH   1   2
BRANCH   1  25
ATOM     25  C   UNL A   1      38.201  20.644  25.325  1.00  0.00     0.023 C 
BRANCH  25  26
ATOM     26  C   UNL A   1      39.547  20.849  26.009  1.00  0.00     0.116 C 
BRANCH  26  27
ATOM     27  N   UNL A   1      40.372  19.646  26.021  1.00  0.00    -0.352 N 
ATOM     28  C   UNL A   1      41.733  19.547  26.169  1.00  0.00     0.251 C 
ATOM     29  H   UNL A   1      39.891  18.794  25.910  1.00  0.00     0.163 HD
ATOM     30  O   UNL A   1      42.305  18.470  26.063  1.00  0.00    -0.269 OA
BRANCH  28  31
ATOM     31  C   UNL A   1      42.483  20.787  26.414  1.00  0.00     0.039 A 
ATOM     32  C   UNL A   1      42.876  21.560  25.322  1.00  0.00     0.014 A 
ATOM     33  C   UNL A   1      42.651  21.241  27.724  1.00  0.00     0.014 A 
ATOM     34  C   UNL A   1      43.385  22.836  25.548  1.00  0.00     0.010 A 
ATOM     35  C   UNL A   1      43.068  22.547  27.938  1.00  0.00     0.010 A 
ATOM     36  C   UNL A   1      43.443  23.354  26.853  1.00  0.00    -0.014 A 
BRANCH  36  37
ATOM     37  C   UNL A   1      43.906  24.741  27.102  1.00  0.00     0.031 A 
ATOM     38  C   UNL A   1      45.357  25.083  26.910  1.00  0.00     0.074 A 
ATOM     39  C   UNL A   1      43.035  25.669  27.546  1.00  0.00     0.049 A 
ATOM     40  N   UNL A   1      45.968  26.221  27.111  1.00  0.00    -0.248 NA
ATOM     41  C   UNL A   1      46.245  23.996  26.464  1.00  0.00     0.031 C 
ATOM     42  C   UNL A   1      41.614  25.436  27.819  1.00  0.00     0.029 A 
ATOM     43  N   UNL A   1      43.215  26.994  27.850  1.00  0.00    -0.354 N 
ATOM     44  C   UNL A   1      47.308  25.983  26.829  1.00  0.00     0.074 A 
ATOM     45  C   UNL A   1      47.433  24.580  26.509  1.00  0.00     0.031 C 
ATOM     46  C   UNL A   1      41.045  26.588  28.212  1.00  0.00     0.029 A 
ATOM     47  C   UNL A   1      42.068  27.629  28.264  1.00  0.00     0.049 A 
ATOM     48  H   UNL A   1      44.085  27.449  27.779  1.00  0.00     0.167 HD
ATOM     49  C   UNL A   1      48.336  26.863  26.809  1.00  0.00     0.037 A 
ATOM     50  C   UNL A   1      41.865  28.905  28.646  1.00  0.00     0.037 A 
ATOM     51  C   UNL A   1      48.193  28.263  27.107  1.00  0.00     0.049 A 
ATOM     52  C   UNL A   1      43.028  29.862  28.629  1.00  0.00     0.074 A 
ATOM     53  C   UNL A   1      49.158  29.254  27.056  1.00  0.00     0.029 A 
ATOM     54  N   UNL A   1      47.015  28.871  27.516  1.00  0.00    -0.354 N 
ATOM     55  N   UNL A   1      44.274  29.638  28.284  1.00  0.00    -0.248 NA
ATOM     56  C   UNL A   1      42.757  31.244  29.044  1.00  0.00     0.031 C 
ATOM     57  C   UNL A   1      48.577  30.448  27.494  1.00  0.00     0.029 A 
ATOM     58  C   UNL A   1      47.235  30.217  27.752  1.00  0.00     0.049 A 
ATOM     59  H   UNL A   1      46.150  28.412  27.622  1.00  0.00     0.167 HD
ATOM     60  C   UNL A   1      44.929  30.860  28.411  1.00  0.00     0.074 A 
ATOM     61  C   UNL A   1      43.936  31.819  28.850  1.00  0.00     0.031 C 
ATOM     62  C   UNL A   1      46.231  31.160  28.182  1.00  0.00     0.037 A 
BRANCH  49  63
ATOM     63  C   UNL A   1      49.700  26.336  26.459  1.00  0.00     0.058 A 
ATOM     64  C   UNL A   1      50.172  26.318  25.136  1.00  0.00     0.135 A 
ATOM     65  C   UNL A   1      50.562  25.870  27.466  1.00  0.00     0.135 A 
ATOM     66  F   UNL A   1      49.385  26.732  24.131  1.00  0.00    -0.206 F 
ATOM     67  C   UNL A   1      51.436  25.832  24.821  1.00  0.00     0.059 A 
ATOM     68  C   UNL A   1      51.844  25.412  27.177  1.00  0.00     0.059 A 
ATOM     69  F   UNL A   1      50.162  25.859  28.747  1.00  0.00    -0.206 F 
ATOM     70  C   UNL A   1      52.266  25.382  25.850  1.00  0.00     0.060 A 
BRANCH  70  71
ATOM     71  S   UNL A   1      53.909  24.769  25.423  1.00  0.00     0.124 S 
ATOM     72  O   UNL A   1      54.253  25.624  24.290  1.00  0.00    -0.237 OA
ATOM     73  O   UNL A   1      54.659  25.012  26.650  1.00  0.00    -0.237 OA
ATOM     74  O   UNL A   1      53.676  23.365  25.101  1.00  0.00    -0.744 OA
ENDBRANCH  70  71
ENDBRANCH  49  63
BRANCH  50  75
ATOM     75  C   UNL A   1      40.505  29.358  29.053  1.00  0.00     0.058 A 
ATOM     76  C   UNL A   1      40.184  29.556  30.404  1.00  0.00     0.135 A 
ATOM     77  C   UNL A   1      39.503  29.604  28.102  1.00  0.00     0.135 A 
ATOM     78  F   UNL A   1      41.104  29.329  31.353  1.00  0.00    -0.206 F 
ATOM     79  C   UNL A   1      38.914  29.962  30.801  1.00  0.00     0.059 A 
ATOM     80  C   UNL A   1      38.234  30.040  28.471  1.00  0.00     0.059 A 
ATOM     81  F   UNL A   1      39.762  29.447  26.795  1.00  0.00    -0.206 F 
ATOM     82  C   UNL A   1      37.945  30.205  29.825  1.00  0.00     0.060 A 
BRANCH  82  83
ATOM     83  S   UNL A   1      36.313  30.772  30.349  1.00  0.00     0.124 S 
ATOM     84  O   UNL A   1      36.601  32.132  30.792  1.00  0.00    -0.237 OA
ATOM     85  O   UNL A   1      35.539  30.651  29.118  1.00  0.00    -0.237 OA
ATOM     86  O   UNL A   1      35.952  29.829  31.403  1.00  0.00    -0.744 OA
ENDBRANCH  82  83
ENDBRANCH  50  75
BRANCH  62  87
ATOM     87  C   UNL A   1      46.656  32.593  28.360  1.00  0.00     0.058 A 
ATOM     88  C   UNL A   1      47.209  33.058  29.563  1.00  0.00     0.135 A 
ATOM     89  C   UNL A   1      46.561  33.497  27.290  1.00  0.00     0.135 A 
ATOM     90  F   UNL A   1      47.317  32.238  30.621  1.00  0.00    -0.206 F 
ATOM     91  C   UNL A   1      47.629  34.377  29.707  1.00  0.00     0.059 A 
ATOM     92  C   UNL A   1      47.006  34.809  27.400  1.00  0.00     0.059 A 
ATOM     93  F   UNL A   1      46.050  33.100  26.112  1.00  0.00    -0.206 F 
ATOM     94  C   UNL A   1      47.528  35.244  28.617  1.00  0.00     0.060 A 
BRANCH  94  95
ATOM     95  S   UNL A   1      48.110  36.941  28.806  1.00  0.00     0.124 S 
ATOM     96  O   UNL A   1      48.433  37.297  27.429  1.00  0.00    -0.237 OA
ATOM     97  O   UNL A   1      46.942  37.607  29.376  1.00  0.00    -0.237 OA
ATOM     98  O   UNL A   1      49.252  36.811  29.706  1.00  0.00    -0.744 OA
ENDBRANCH  94  95
ENDBRANCH  62  87
ENDBRANCH  36  37
ENDBRANCH  28  31
ENDBRANCH  26  27
ENDBRANCH  25  26
ENDBRANCH   1  25
TORSDOF 19
ENDMDL
MODEL 3
REMARK VINA RESULT:     -11.1      1.552      2.444
REMARK SMILES CC(C)C[C@H](NS(=O)(=O)N1C[C@@H](C)C[C@H](C)C1)C(=O)NCCCCNC(=O)c1ccc(-c2c3nc(c(-c4c(F)cc(S(=O)(=O)[O-])cc4F)c4ccc([nH]4)c(-c4c(F)cc(S(=O)(=O)[O-])cc4F)c4nc(c(-c5c(F)cc(S(=O)(=O)[O-])cc5F)c5ccc2[nH]5)C=C4)C=C3)cc1
REMARK SMILES IDX 22 1 21 2 20 3 18 4 19 5 5 7 4 8 2 9 1 10 3 11 6 12 7 14
REMARK SMILES IDX 8 15 9 16 10 17 11 18 17 19 12 20 15 21 13 22 14 23 16 24
REMARK SMILES IDX 23 25 24 26 25 27 26 28 27 30 28 31 29 32 93 33 30 34 92 35
REMARK SMILES IDX 31 36 32 37 33 38 86 39 34 40 91 41 85 42 87 43 35 44 90 45
REMARK SMILES IDX 84 46 83 47 36 49 70 50 49 51 69 52 50 53 53 54 68 55 88 56
REMARK SMILES IDX 51 57 52 58 67 60 89 61 54 62 37 63 38 64 47 65 39 66 40 67
REMARK SMILES IDX 46 68 48 69 41 70 42 71 43 72 44 73 45 74 71 75 72 76 81 77
REMARK SMILES IDX 73 78 74 79 80 80 82 81 75 82 76 83 77 84 78 85 79 86 55 87
REMARK SMILES IDX 56 88 65 89 57 90 58 91 64 92 66 93 59 94 60 95 61 96 62 97
REMARK SMILES IDX 63 98
REMARK H PARENT 20 6 6 13 25 29 87 48 53 59
REMARK Flexibility Score: inf
ROOT
ATOM      1  C   UNL A   1      32.898  30.306  27.086  1.00  0.00     0.023 C 
ENDROOT
BRANCH   1   2
ATOM      2  C   UNL A   1      32.145  29.686  25.922  1.00  0.00     0.116 C 
BRANCH   2   3
ATOM      3  N   UNL A   1      32.986  29.516  24.763  1.00  0.00    -0.355 N 
ATOM      4  C   UNL A   1      32.688  29.023  23.535  1.00  0.00     0.238 C 
ATOM      5  O   UNL A   1      33.597  29.032  22.696  1.00  0.00    -0.273 OA
ATOM      6  H   UNL A   1      33.921  29.802  24.883  1.00  0.00     0.163 HD
BRANCH   4   7
ATOM      7  C   UNL A   1      31.291  28.518  23.167  1.00  0.00     0.160 C 
BRANCH   7   8
ATOM      8  C   UNL A   1      30.223  29.635  23.264  1.00  0.00     0.033 C 
BRANCH   8   9
ATOM      9  C   UNL A   1      29.059  29.684  22.251  1.00  0.00    -0.015 C 
ATOM     10  C   UNL A   1      27.750  29.146  22.842  1.00  0.00     0.007 C 
ATOM     11  C   UNL A   1      28.793  31.134  21.808  1.00  0.00     0.007 C 
ENDBRANCH   8   9
ENDBRANCH   7   8
BRANCH   7  12
ATOM     12  N   UNL A   1      30.939  27.198  23.702  1.00  0.00    -0.190 NA
ATOM     13  H   UNL A   1      29.927  27.132  23.600  1.00  0.00     0.143 HD
BRANCH  12  14
ATOM     14  S   UNL A   1      31.521  25.741  23.183  1.00  0.00     0.280 S 
ATOM     15  O   UNL A   1      30.509  24.791  23.577  1.00  0.00    -0.195 OA
ATOM     16  O   UNL A   1      31.925  25.858  21.806  1.00  0.00    -0.195 OA
BRANCH  14  17
ATOM     17  N   UNL A   1      32.861  25.493  24.119  1.00  0.00    -0.188 NA
ATOM     18  C   UNL A   1      32.903  25.680  25.571  1.00  0.00     0.106 C 
ATOM     19  C   UNL A   1      34.135  25.091  23.536  1.00  0.00     0.106 C 
ATOM     20  C   UNL A   1      33.379  24.402  26.291  1.00  0.00     0.001 C 
ATOM     21  C   UNL A   1      34.368  23.651  23.960  1.00  0.00     0.001 C 
ATOM     22  C   UNL A   1      32.195  23.610  26.848  1.00  0.00     0.009 C 
ATOM     23  C   UNL A   1      34.388  23.530  25.498  1.00  0.00     0.009 C 
ATOM     24  C   UNL A   1      35.663  23.124  23.344  1.00  0.00     0.009 C 
ENDBRANCH  14  17
ENDBRANCH  12  14
ENDBRANCH   7  12
ENDBRANCH   4   7
ENDBRANCH   2   3
ENDBRANCH   1   2
BRANCH   1  25
ATOM     25  C   UNL A   1      34.417  30.286  26.929  1.00  0.00     0.023 C 
BRANCH  25  26
ATOM     26  C   UNL A   1      35.176  29.615  28.068  1.00  0.00     0.116 C 
BRANCH  26  27
ATOM     27  N   UNL A   1      35.345  30.479  29.231  1.00  0.00    -0.352 N 
ATOM     28  C   UNL A   1      36.472  30.675  29.991  1.00  0.00     0.251 C 
ATOM     29  H   UNL A   1      34.549  30.987  29.507  1.00  0.00     0.163 HD
ATOM     30  O   UNL A   1      36.441  31.362  31.004  1.00  0.00    -0.269 OA
BRANCH  28  31
ATOM     31  C   UNL A   1      37.704  29.993  29.570  1.00  0.00     0.039 A 
ATOM     32  C   UNL A   1      38.047  30.002  28.218  1.00  0.00     0.014 A 
ATOM     33  C   UNL A   1      38.577  29.491  30.538  1.00  0.00     0.014 A 
ATOM     34  C   UNL A   1      39.312  29.560  27.841  1.00  0.00     0.010 A 
ATOM     35  C   UNL A   1      39.867  29.141  30.168  1.00  0.00     0.010 A 
ATOM     36  C   UNL A   1      40.245  29.168  28.816  1.00  0.00    -0.014 A 
BRANCH  36  37
ATOM     37  C   UNL A   1      41.623  28.772  28.437  1.00  0.00     0.031 A 
ATOM     38  C   UNL A   1      42.707  29.812  28.393  1.00  0.00     0.074 A 
ATOM     39  C   UNL A   1      41.881  27.496  28.087  1.00  0.00     0.049 A 
ATOM     40  N   UNL A   1      43.961  29.680  28.051  1.00  0.00    -0.248 NA
ATOM     41  C   UNL A   1      42.324  31.189  28.749  1.00  0.00     0.031 C 
ATOM     42  C   UNL A   1      40.895  26.412  28.043  1.00  0.00     0.029 A 
ATOM     43  N   UNL A   1      43.050  26.892  27.699  1.00  0.00    -0.354 N 
ATOM     44  C   UNL A   1      44.511  30.953  28.138  1.00  0.00     0.074 A 
ATOM     45  C   UNL A   1      43.441  31.854  28.500  1.00  0.00     0.031 C 
ATOM     46  C   UNL A   1      41.508  25.271  27.686  1.00  0.00     0.029 A 
ATOM     47  C   UNL A   1      42.919  25.550  27.434  1.00  0.00     0.049 A 
ATOM     48  H   UNL A   1      43.904  27.376  27.618  1.00  0.00     0.167 HD
ATOM     49  C   UNL A   1      45.798  31.331  27.963  1.00  0.00     0.037 A 
ATOM     50  C   UNL A   1      43.833  24.646  27.029  1.00  0.00     0.037 A 
ATOM     51  C   UNL A   1      46.858  30.419  27.626  1.00  0.00     0.049 A 
ATOM     52  C   UNL A   1      45.257  25.094  26.827  1.00  0.00     0.074 A 
ATOM     53  C   UNL A   1      48.209  30.686  27.486  1.00  0.00     0.029 A 
ATOM     54  N   UNL A   1      46.689  29.065  27.371  1.00  0.00    -0.354 N 
ATOM     55  N   UNL A   1      45.777  26.288  26.990  1.00  0.00    -0.248 NA
ATOM     56  C   UNL A   1      46.220  24.073  26.394  1.00  0.00     0.031 C 
ATOM     57  C   UNL A   1      48.845  29.508  27.086  1.00  0.00     0.029 A 
ATOM     58  C   UNL A   1      47.905  28.490  27.044  1.00  0.00     0.049 A 
ATOM     59  H   UNL A   1      45.831  28.585  27.417  1.00  0.00     0.167 HD
ATOM     60  C   UNL A   1      47.133  26.154  26.711  1.00  0.00     0.074 A 
ATOM     61  C   UNL A   1      47.353  24.760  26.382  1.00  0.00     0.031 C 
ATOM     62  C   UNL A   1      48.107  27.097  26.726  1.00  0.00     0.037 A 
BRANCH  49  63
ATOM     63  C   UNL A   1      46.128  32.789  28.127  1.00  0.00     0.058 A 
ATOM     64  C   UNL A   1      46.020  33.699  27.062  1.00  0.00     0.135 A 
ATOM     65  C   UNL A   1      46.528  33.291  29.376  1.00  0.00     0.135 A 
ATOM     66  F   UNL A   1      45.661  33.271  25.841  1.00  0.00    -0.206 F 
ATOM     67  C   UNL A   1      46.324  35.046  27.222  1.00  0.00     0.059 A 
ATOM     68  C   UNL A   1      46.804  34.642  29.567  1.00  0.00     0.059 A 
ATOM     69  F   UNL A   1      46.654  32.467  30.428  1.00  0.00    -0.206 F 
ATOM     70  C   UNL A   1      46.714  35.509  28.480  1.00  0.00     0.060 A 
BRANCH  70  71
ATOM     71  S   UNL A   1      47.090  37.263  28.672  1.00  0.00     0.124 S 
ATOM     72  O   UNL A   1      45.804  37.788  29.123  1.00  0.00    -0.237 OA
ATOM     73  O   UNL A   1      48.152  37.245  29.673  1.00  0.00    -0.237 OA
ATOM     74  O   UNL A   1      47.500  37.673  27.333  1.00  0.00    -0.744 OA
ENDBRANCH  70  71
ENDBRANCH  49  63
BRANCH  50  75
ATOM     75  C   UNL A   1      43.438  23.226  26.811  1.00  0.00     0.058 A 
ATOM     76  C   UNL A   1      43.209  22.365  27.895  1.00  0.00     0.135 A 
ATOM     77  C   UNL A   1      43.279  22.703  25.519  1.00  0.00     0.135 A 
ATOM     78  F   UNL A   1      43.354  22.815  29.151  1.00  0.00    -0.206 F 
ATOM     79  C   UNL A   1      42.857  21.033  27.708  1.00  0.00     0.059 A 
ATOM     80  C   UNL A   1      42.898  21.381  25.305  1.00  0.00     0.059 A 
ATOM     81  F   UNL A   1      43.469  23.487  24.446  1.00  0.00    -0.206 F 
ATOM     82  C   UNL A   1      42.700  20.550  26.408  1.00  0.00     0.060 A 
BRANCH  82  83
ATOM     83  S   UNL A   1      42.202  18.830  26.177  1.00  0.00     0.124 S 
ATOM     84  O   UNL A   1      42.413  18.281  27.512  1.00  0.00    -0.237 OA
ATOM     85  O   UNL A   1      40.812  18.970  25.756  1.00  0.00    -0.237 OA
ATOM     86  O   UNL A   1      43.117  18.351  25.146  1.00  0.00    -0.744 OA
ENDBRANCH  82  83
ENDBRANCH  50  75
BRANCH  62  87
ATOM     87  C   UNL A   1      49.511  26.651  26.421  1.00  0.00     0.058 A 
ATOM     88  C   UNL A   1      50.303  25.990  27.372  1.00  0.00     0.135 A 
ATOM     89  C   UNL A   1      50.049  26.838  25.137  1.00  0.00     0.135 A 
ATOM     90  F   UNL A   1      49.841  25.790  28.617  1.00  0.00    -0.206 F 
ATOM     91  C   UNL A   1      51.589  25.552  27.068  1.00  0.00     0.059 A 
ATOM     92  C   UNL A   1      51.317  26.379  24.801  1.00  0.00     0.059 A 
ATOM     93  F   UNL A   1      49.329  27.454  24.185  1.00  0.00    -0.206 F 
ATOM     94  C   UNL A   1      52.085  25.747  25.778  1.00  0.00     0.060 A 
BRANCH  94  95
ATOM     95  S   UNL A   1      53.740  25.143  25.389  1.00  0.00     0.124 S 
ATOM     96  O   UNL A   1      53.559  23.699  25.493  1.00  0.00    -0.237 OA
ATOM     97  O   UNL A   1      53.949  25.660  24.039  1.00  0.00    -0.237 OA
ATOM     98  O   UNL A   1      54.576  25.747  26.422  1.00  0.00    -0.744 OA
ENDBRANCH  94  95
ENDBRANCH  62  87
ENDBRANCH  36  37
ENDBRANCH  28  31
ENDBRANCH  26  27
ENDBRANCH  25  26
ENDBRANCH   1  25
TORSDOF 19
ENDMDL
