MODEL 1
REMARK VINA RESULT:     -12.1      0.000      0.000
REMARK SMILES NS(=O)(=O)c1ccc(NS(=O)(=O)c2cccc(C(=O)NCCCCNC(=O)c3ccc(-c4c5nc(c(-c6c(F)cc(S(=O)(=O)[O-])cc6F)c6ccc([nH]6)c(-c6c(F)cc(S(=O)(=O)[O-])cc6F)c6nc(c(-c7c(F)cc(S(=O)(=O)[O-])cc7F)c7ccc4[nH]7)C=C6)C=C5)cc3)c2)cc1
REMARK SMILES IDX 21 1 20 2 18 3 19 4 17 6 13 7 14 8 94 9 15 10 16 11 10 12
REMARK SMILES IDX 11 13 12 14 9 15 8 17 5 18 6 19 96 20 7 21 95 22 2 23 3 24
REMARK SMILES IDX 4 25 1 26 22 29 23 30 24 31 25 32 26 33 27 35 28 36 29 37
REMARK SMILES IDX 93 38 30 39 92 40 31 41 32 42 33 43 86 44 34 45 91 46 85 47
REMARK SMILES IDX 87 48 35 49 90 50 84 51 83 52 36 54 70 55 49 56 69 57 50 58
REMARK SMILES IDX 53 59 68 60 88 61 51 62 52 63 67 65 89 66 54 67 37 68 38 69
REMARK SMILES IDX 47 70 39 71 40 72 46 73 48 74 41 75 42 76 43 77 44 78 45 79
REMARK SMILES IDX 71 80 72 81 81 82 73 83 74 84 80 85 82 86 75 87 76 88 77 89
REMARK SMILES IDX 78 90 79 91 55 92 56 93 65 94 57 95 58 96 64 97 66 98 59 99
REMARK SMILES IDX 60 100 61 101 62 102 63 103
REMARK H PARENT 20 5 9 16 1 27 1 28 25 34 87 53 53 64
REMARK Flexibility Score: inf
ROOT
ATOM      1  C   UNL A   1      39.005  22.248  26.536  1.00  0.00     0.116 C 
ENDROOT
BRANCH   1   2
ATOM      2  N   UNL A   1      38.457  22.747  25.290  1.00  0.00    -0.352 N 
ATOM      3  C   UNL A   1      37.167  22.827  24.814  1.00  0.00     0.251 C 
ATOM      4  O   UNL A   1      36.990  23.343  23.711  1.00  0.00    -0.269 OA
ATOM      5  H   UNL A   1      39.135  23.096  24.667  1.00  0.00     0.163 HD
BRANCH   3   6
ATOM      6  C   UNL A   1      35.991  22.240  25.525  1.00  0.00     0.041 A 
ATOM      7  C   UNL A   1      34.140  20.712  25.678  1.00  0.00     0.088 A 
ATOM      8  C   UNL A   1      33.533  21.489  26.668  1.00  0.00     0.022 A 
ATOM      9  C   UNL A   1      35.425  21.005  25.214  1.00  0.00     0.036 A 
ATOM     10  C   UNL A   1      34.174  22.641  27.110  1.00  0.00     0.002 A 
ATOM     11  C   UNL A   1      35.372  23.037  26.508  1.00  0.00     0.014 A 
BRANCH   7  12
ATOM     12  S   UNL A   1      33.122  19.602  24.721  1.00  0.00     0.261 S 
ATOM     13  O   UNL A   1      32.041  19.139  25.563  1.00  0.00    -0.201 OA
ATOM     14  O   UNL A   1      34.022  18.678  24.064  1.00  0.00    -0.201 OA
BRANCH  12  15
ATOM     15  N   UNL A   1      32.459  20.555  23.508  1.00  0.00    -0.280 N 
ATOM     16  H   UNL A   1      31.925  20.085  22.826  1.00  0.00     0.180 HD
BRANCH  15  17
ATOM     17  C   UNL A   1      32.580  21.972  23.349  1.00  0.00     0.049 A 
ATOM     18  C   UNL A   1      32.373  24.644  22.491  1.00  0.00     0.082 A 
ATOM     19  C   UNL A   1      33.527  23.910  22.221  1.00  0.00     0.024 A 
ATOM     20  C   UNL A   1      31.357  24.085  23.267  1.00  0.00     0.024 A 
ATOM     21  C   UNL A   1      33.636  22.592  22.678  1.00  0.00     0.028 A 
ATOM     22  C   UNL A   1      31.459  22.748  23.678  1.00  0.00     0.028 A 
BRANCH  18  23
ATOM     23  S   UNL A   1      32.147  26.228  21.729  1.00  0.00     0.238 S 
ATOM     24  O   UNL A   1      33.436  26.881  21.630  1.00  0.00    -0.207 OA
ATOM     25  O   UNL A   1      30.994  26.854  22.317  1.00  0.00    -0.207 OA
BRANCH  23  26
ATOM     26  N   UNL A   1      31.740  25.831  20.146  1.00  0.00    -0.225 NA
ATOM     27  H   UNL A   1      32.235  24.983  19.870  1.00  0.00     0.137 HD
ATOM     28  H   UNL A   1      32.004  26.597  19.525  1.00  0.00     0.137 HD
ENDBRANCH  23  26
ENDBRANCH  18  23
ENDBRANCH  15  17
ENDBRANCH  12  15
ENDBRANCH   7  12
ENDBRANCH   3   6
ENDBRANCH   1   2
BRANCH   1  29
ATOM     29  C   UNL A   1      40.434  21.740  26.451  1.00  0.00     0.023 C 
BRANCH  29  30
ATOM     30  C   UNL A   1      41.379  22.116  27.576  1.00  0.00     0.023 C 
BRANCH  30  31
ATOM     31  C   UNL A   1      42.473  23.104  27.210  1.00  0.00     0.116 C 
BRANCH  31  32
ATOM     32  N   UNL A   1      42.142  23.967  26.084  1.00  0.00    -0.352 N 
ATOM     33  C   UNL A   1      41.775  25.295  26.073  1.00  0.00     0.251 C 
ATOM     34  H   UNL A   1      42.189  23.538  25.200  1.00  0.00     0.163 HD
ATOM     35  O   UNL A   1      41.466  25.830  25.012  1.00  0.00    -0.269 OA
BRANCH  33  36
ATOM     36  C   UNL A   1      41.702  26.049  27.343  1.00  0.00     0.039 A 
ATOM     37  C   UNL A   1      42.682  27.006  27.617  1.00  0.00     0.014 A 
ATOM     38  C   UNL A   1      40.642  25.859  28.230  1.00  0.00     0.014 A 
ATOM     39  C   UNL A   1      42.541  27.839  28.729  1.00  0.00     0.010 A 
ATOM     40  C   UNL A   1      40.447  26.756  29.274  1.00  0.00     0.010 A 
ATOM     41  C   UNL A   1      41.394  27.756  29.535  1.00  0.00    -0.014 A 
BRANCH  41  42
ATOM     42  C   UNL A   1      41.162  28.701  30.658  1.00  0.00     0.031 A 
ATOM     43  C   UNL A   1      41.995  28.599  31.908  1.00  0.00     0.074 A 
ATOM     44  C   UNL A   1      40.151  29.590  30.590  1.00  0.00     0.049 A 
ATOM     45  N   UNL A   1      41.887  29.263  33.029  1.00  0.00    -0.248 NA
ATOM     46  C   UNL A   1      43.068  27.591  31.911  1.00  0.00     0.031 C 
ATOM     47  C   UNL A   1      39.226  29.740  29.463  1.00  0.00     0.029 A 
ATOM     48  N   UNL A   1      39.722  30.530  31.493  1.00  0.00    -0.354 N 
ATOM     49  C   UNL A   1      42.855  28.735  33.877  1.00  0.00     0.074 A 
ATOM     50  C   UNL A   1      43.503  27.659  33.161  1.00  0.00     0.031 C 
ATOM     51  C   UNL A   1      38.360  30.731  29.730  1.00  0.00     0.029 A 
ATOM     52  C   UNL A   1      38.644  31.266  31.058  1.00  0.00     0.049 A 
ATOM     53  H   UNL A   1      40.147  30.665  32.371  1.00  0.00     0.167 HD
ATOM     54  C   UNL A   1      43.194  29.129  35.126  1.00  0.00     0.037 A 
ATOM     55  C   UNL A   1      37.962  32.257  31.662  1.00  0.00     0.037 A 
ATOM     56  C   UNL A   1      42.581  30.234  35.815  1.00  0.00     0.049 A 
ATOM     57  C   UNL A   1      38.387  32.710  33.031  1.00  0.00     0.074 A 
ATOM     58  C   UNL A   1      42.901  30.761  37.053  1.00  0.00     0.029 A 
ATOM     59  N   UNL A   1      41.527  30.987  35.319  1.00  0.00    -0.354 N 
ATOM     60  N   UNL A   1      39.348  32.242  33.792  1.00  0.00    -0.248 NA
ATOM     61  C   UNL A   1      37.645  33.832  33.622  1.00  0.00     0.031 C 
ATOM     62  C   UNL A   1      42.023  31.817  37.319  1.00  0.00     0.029 A 
ATOM     63  C   UNL A   1      41.179  31.970  36.230  1.00  0.00     0.049 A 
ATOM     64  H   UNL A   1      41.092  30.844  34.448  1.00  0.00     0.167 HD
ATOM     65  C   UNL A   1      39.341  33.026  34.940  1.00  0.00     0.074 A 
ATOM     66  C   UNL A   1      38.288  34.007  34.769  1.00  0.00     0.031 C 
ATOM     67  C   UNL A   1      40.134  32.943  36.036  1.00  0.00     0.037 A 
BRANCH  54  68
ATOM     68  C   UNL A   1      44.293  28.371  35.818  1.00  0.00     0.058 A 
ATOM     69  C   UNL A   1      44.015  27.282  36.659  1.00  0.00     0.135 A 
ATOM     70  C   UNL A   1      45.637  28.723  35.623  1.00  0.00     0.135 A 
ATOM     71  F   UNL A   1      42.746  26.914  36.894  1.00  0.00    -0.206 F 
ATOM     72  C   UNL A   1      45.030  26.590  37.313  1.00  0.00     0.059 A 
ATOM     73  C   UNL A   1      46.670  28.029  36.246  1.00  0.00     0.059 A 
ATOM     74  F   UNL A   1      45.958  29.757  34.830  1.00  0.00    -0.206 F 
ATOM     75  C   UNL A   1      46.354  26.974  37.102  1.00  0.00     0.060 A 
BRANCH  75  76
ATOM     76  S   UNL A   1      47.661  26.070  37.959  1.00  0.00     0.124 S 
ATOM     77  O   UNL A   1      47.009  24.787  38.208  1.00  0.00    -0.237 OA
ATOM     78  O   UNL A   1      48.732  26.053  36.967  1.00  0.00    -0.237 OA
ATOM     79  O   UNL A   1      47.919  26.885  39.142  1.00  0.00    -0.744 OA
ENDBRANCH  75  76
ENDBRANCH  54  68
BRANCH  55  80
ATOM     80  C   UNL A   1      36.829  32.917  30.959  1.00  0.00     0.058 A 
ATOM     81  C   UNL A   1      37.064  33.856  29.945  1.00  0.00     0.135 A 
ATOM     82  C   UNL A   1      35.496  32.609  31.271  1.00  0.00     0.135 A 
ATOM     83  F   UNL A   1      38.322  34.185  29.615  1.00  0.00    -0.206 F 
ATOM     84  C   UNL A   1      36.019  34.481  29.274  1.00  0.00     0.059 A 
ATOM     85  C   UNL A   1      34.433  33.205  30.599  1.00  0.00     0.059 A 
ATOM     86  F   UNL A   1      35.220  31.701  32.220  1.00  0.00    -0.206 F 
ATOM     87  C   UNL A   1      34.705  34.148  29.608  1.00  0.00     0.060 A 
BRANCH  87  88
ATOM     88  S   UNL A   1      33.353  34.920  28.692  1.00  0.00     0.124 S 
ATOM     89  O   UNL A   1      34.020  36.078  28.106  1.00  0.00    -0.237 OA
ATOM     90  O   UNL A   1      32.969  33.864  27.761  1.00  0.00    -0.237 OA
ATOM     91  O   UNL A   1      32.372  35.214  29.732  1.00  0.00    -0.744 OA
ENDBRANCH  87  88
ENDBRANCH  55  80
BRANCH  67  92
ATOM     92  C   UNL A   1      39.916  33.957  37.122  1.00  0.00     0.058 A 
ATOM     93  C   UNL A   1      39.059  33.703  38.203  1.00  0.00     0.135 A 
ATOM     94  C   UNL A   1      40.611  35.175  37.104  1.00  0.00     0.135 A 
ATOM     95  F   UNL A   1      38.368  32.554  38.262  1.00  0.00    -0.206 F 
ATOM     96  C   UNL A   1      38.881  34.633  39.220  1.00  0.00     0.059 A 
ATOM     97  C   UNL A   1      40.467  36.112  38.123  1.00  0.00     0.059 A 
ATOM     98  F   UNL A   1      41.452  35.461  36.096  1.00  0.00    -0.206 F 
ATOM     99  C   UNL A   1      39.590  35.836  39.172  1.00  0.00     0.060 A 
BRANCH  99 100
ATOM    100  S   UNL A   1      39.376  37.025  40.513  1.00  0.00     0.124 S 
ATOM    101  O   UNL A   1      38.637  38.091  39.845  1.00  0.00    -0.237 OA
ATOM    102  O   UNL A   1      38.626  36.254  41.500  1.00  0.00    -0.237 OA
ATOM    103  O   UNL A   1      40.747  37.353  40.896  1.00  0.00    -0.744 OA
ENDBRANCH  99 100
ENDBRANCH  67  92
ENDBRANCH  41  42
ENDBRANCH  33  36
ENDBRANCH  31  32
ENDBRANCH  30  31
ENDBRANCH  29  30
ENDBRANCH   1  29
TORSDOF 19
ENDMDL
MODEL 2
REMARK VINA RESULT:     -11.9      1.751      2.791
REMARK SMILES NS(=O)(=O)c1ccc(NS(=O)(=O)c2cccc(C(=O)NCCCCNC(=O)c3ccc(-c4c5nc(c(-c6c(F)cc(S(=O)(=O)[O-])cc6F)c6ccc([nH]6)c(-c6c(F)cc(S(=O)(=O)[O-])cc6F)c6nc(c(-c7c(F)cc(S(=O)(=O)[O-])cc7F)c7ccc4[nH]7)C=C6)C=C5)cc3)c2)cc1
REMARK SMILES IDX 21 1 20 2 18 3 19 4 17 6 13 7 14 8 94 9 15 10 16 11 10 12
REMARK SMILES IDX 11 13 12 14 9 15 8 17 5 18 6 19 96 20 7 21 95 22 2 23 3 24
REMARK SMILES IDX 4 25 1 26 22 29 23 30 24 31 25 32 26 33 27 35 28 36 29 37
REMARK SMILES IDX 93 38 30 39 92 40 31 41 32 42 33 43 86 44 34 45 91 46 85 47
REMARK SMILES IDX 87 48 35 49 90 50 84 51 83 52 36 54 70 55 49 56 69 57 50 58
REMARK SMILES IDX 53 59 68 60 88 61 51 62 52 63 67 65 89 66 54 67 37 68 38 69
REMARK SMILES IDX 47 70 39 71 40 72 46 73 48 74 41 75 42 76 43 77 44 78 45 79
REMARK SMILES IDX 71 80 72 81 81 82 73 83 74 84 80 85 82 86 75 87 76 88 77 89
REMARK SMILES IDX 78 90 79 91 55 92 56 93 65 94 57 95 58 96 64 97 66 98 59 99
REMARK SMILES IDX 60 100 61 101 62 102 63 103
REMARK H PARENT 20 5 9 16 1 27 1 28 25 34 87 53 53 64
REMARK Flexibility Score: inf
ROOT
ATOM      1  C   UNL A   1      37.473  21.639  25.225  1.00  0.00     0.116 C 
ENDROOT
BRANCH   1   2
ATOM      2  N   UNL A   1      36.411  21.547  26.208  1.00  0.00    -0.352 N 
ATOM      3  C   UNL A   1      35.039  21.615  26.095  1.00  0.00     0.251 C 
ATOM      4  O   UNL A   1      34.370  21.463  27.116  1.00  0.00    -0.269 OA
ATOM      5  H   UNL A   1      36.729  21.408  27.129  1.00  0.00     0.163 HD
BRANCH   3   6
ATOM      6  C   UNL A   1      34.335  21.952  24.822  1.00  0.00     0.041 A 
ATOM      7  C   UNL A   1      33.578  23.512  23.155  1.00  0.00     0.088 A 
ATOM      8  C   UNL A   1      32.620  22.607  22.690  1.00  0.00     0.022 A 
ATOM      9  C   UNL A   1      34.523  23.137  24.113  1.00  0.00     0.036 A 
ATOM     10  C   UNL A   1      32.535  21.351  23.280  1.00  0.00     0.002 A 
ATOM     11  C   UNL A   1      33.356  21.045  24.370  1.00  0.00     0.014 A 
BRANCH   7  12
ATOM     12  S   UNL A   1      33.337  25.250  22.831  1.00  0.00     0.261 S 
ATOM     13  O   UNL A   1      33.665  25.502  21.444  1.00  0.00    -0.201 OA
ATOM     14  O   UNL A   1      33.989  25.966  23.906  1.00  0.00    -0.201 OA
BRANCH  12  15
ATOM     15  N   UNL A   1      31.689  25.506  23.025  1.00  0.00    -0.280 N 
ATOM     16  H   UNL A   1      31.125  24.700  23.069  1.00  0.00     0.180 HD
BRANCH  15  17
ATOM     17  C   UNL A   1      31.009  26.759  23.135  1.00  0.00     0.049 A 
ATOM     18  C   UNL A   1      29.328  28.987  22.774  1.00  0.00     0.082 A 
ATOM     19  C   UNL A   1      30.676  29.065  22.426  1.00  0.00     0.024 A 
ATOM     20  C   UNL A   1      28.831  27.837  23.387  1.00  0.00     0.024 A 
ATOM     21  C   UNL A   1      31.513  27.964  22.638  1.00  0.00     0.028 A 
ATOM     22  C   UNL A   1      29.670  26.724  23.549  1.00  0.00     0.028 A 
BRANCH  18  23
ATOM     23  S   UNL A   1      28.229  30.297  22.306  1.00  0.00     0.238 S 
ATOM     24  O   UNL A   1      27.142  30.351  23.263  1.00  0.00    -0.207 OA
ATOM     25  O   UNL A   1      28.019  30.228  20.885  1.00  0.00    -0.207 OA
BRANCH  23  26
ATOM     26  N   UNL A   1      29.139  31.680  22.605  1.00  0.00    -0.225 NA
ATOM     27  H   UNL A   1      29.758  31.857  21.813  1.00  0.00     0.137 HD
ATOM     28  H   UNL A   1      29.697  31.543  23.449  1.00  0.00     0.137 HD
ENDBRANCH  23  26
ENDBRANCH  18  23
ENDBRANCH  15  17
ENDBRANCH  12  15
ENDBRANCH   7  12
ENDBRANCH   3   6
ENDBRANCH   1   2
BRANCH   1  29
ATOM     29  C   UNL A   1      38.872  21.772  25.802  1.00  0.00     0.023 C 
BRANCH  29  30
ATOM     30  C   UNL A   1      39.105  22.865  26.826  1.00  0.00     0.023 C 
BRANCH  30  31
ATOM     31  C   UNL A   1      40.555  23.263  27.041  1.00  0.00     0.116 C 
BRANCH  31  32
ATOM     32  N   UNL A   1      41.101  24.110  25.989  1.00  0.00    -0.352 N 
ATOM     33  C   UNL A   1      41.493  25.430  26.037  1.00  0.00     0.251 C 
ATOM     34  H   UNL A   1      41.206  23.675  25.113  1.00  0.00     0.163 HD
ATOM     35  O   UNL A   1      41.867  25.990  25.011  1.00  0.00    -0.269 OA
BRANCH  33  36
ATOM     36  C   UNL A   1      41.409  26.176  27.312  1.00  0.00     0.039 A 
ATOM     37  C   UNL A   1      42.490  26.969  27.702  1.00  0.00     0.014 A 
ATOM     38  C   UNL A   1      40.249  26.142  28.087  1.00  0.00     0.014 A 
ATOM     39  C   UNL A   1      42.367  27.805  28.815  1.00  0.00     0.010 A 
ATOM     40  C   UNL A   1      40.090  27.049  29.128  1.00  0.00     0.010 A 
ATOM     41  C   UNL A   1      41.146  27.891  29.503  1.00  0.00    -0.014 A 
BRANCH  41  42
ATOM     42  C   UNL A   1      40.949  28.850  30.620  1.00  0.00     0.031 A 
ATOM     43  C   UNL A   1      41.792  28.739  31.863  1.00  0.00     0.074 A 
ATOM     44  C   UNL A   1      39.959  29.763  30.555  1.00  0.00     0.049 A 
ATOM     45  N   UNL A   1      41.712  29.415  32.979  1.00  0.00    -0.248 NA
ATOM     46  C   UNL A   1      42.841  27.705  31.864  1.00  0.00     0.031 C 
ATOM     47  C   UNL A   1      39.026  29.926  29.436  1.00  0.00     0.029 A 
ATOM     48  N   UNL A   1      39.562  30.721  31.454  1.00  0.00    -0.354 N 
ATOM     49  C   UNL A   1      42.676  28.871  33.821  1.00  0.00     0.074 A 
ATOM     50  C   UNL A   1      43.290  27.773  33.107  1.00  0.00     0.031 C 
ATOM     51  C   UNL A   1      38.187  30.940  29.704  1.00  0.00     0.029 A 
ATOM     52  C   UNL A   1      38.497  31.479  31.025  1.00  0.00     0.049 A 
ATOM     53  H   UNL A   1      39.999  30.853  32.326  1.00  0.00     0.167 HD
ATOM     54  C   UNL A   1      43.038  29.268  35.064  1.00  0.00     0.037 A 
ATOM     55  C   UNL A   1      37.846  32.492  31.627  1.00  0.00     0.037 A 
ATOM     56  C   UNL A   1      42.459  30.392  35.749  1.00  0.00     0.049 A 
ATOM     57  C   UNL A   1      38.296  32.946  32.987  1.00  0.00     0.074 A 
ATOM     58  C   UNL A   1      42.805  30.922  36.979  1.00  0.00     0.029 A 
ATOM     59  N   UNL A   1      41.418  31.166  35.257  1.00  0.00    -0.354 N 
ATOM     60  N   UNL A   1      39.254  32.461  33.742  1.00  0.00    -0.248 NA
ATOM     61  C   UNL A   1      37.588  34.090  33.576  1.00  0.00     0.031 C 
ATOM     62  C   UNL A   1      41.955  32.001  37.244  1.00  0.00     0.029 A 
ATOM     63  C   UNL A   1      41.104  32.165  36.163  1.00  0.00     0.049 A 
ATOM     64  H   UNL A   1      40.970  31.026  34.392  1.00  0.00     0.167 HD
ATOM     65  C   UNL A   1      39.278  33.255  34.883  1.00  0.00     0.074 A 
ATOM     66  C   UNL A   1      38.247  34.259  34.714  1.00  0.00     0.031 C 
ATOM     67  C   UNL A   1      40.081  33.162  35.972  1.00  0.00     0.037 A 
BRANCH  54  68
ATOM     68  C   UNL A   1      44.125  28.488  35.750  1.00  0.00     0.058 A 
ATOM     69  C   UNL A   1      43.831  27.403  36.591  1.00  0.00     0.135 A 
ATOM     70  C   UNL A   1      45.475  28.817  35.551  1.00  0.00     0.135 A 
ATOM     71  F   UNL A   1      42.556  27.058  36.830  1.00  0.00    -0.206 F 
ATOM     72  C   UNL A   1      44.835  26.693  37.240  1.00  0.00     0.059 A 
ATOM     73  C   UNL A   1      46.498  28.103  36.169  1.00  0.00     0.059 A 
ATOM     74  F   UNL A   1      45.811  29.845  34.758  1.00  0.00    -0.206 F 
ATOM     75  C   UNL A   1      46.166  27.053  37.025  1.00  0.00     0.060 A 
BRANCH  75  76
ATOM     76  S   UNL A   1      47.459  26.124  37.876  1.00  0.00     0.124 S 
ATOM     77  O   UNL A   1      48.180  25.536  36.751  1.00  0.00    -0.237 OA
ATOM     78  O   UNL A   1      48.169  27.171  38.605  1.00  0.00    -0.237 OA
ATOM     79  O   UNL A   1      46.712  25.183  38.705  1.00  0.00    -0.744 OA
ENDBRANCH  75  76
ENDBRANCH  54  68
BRANCH  55  80
ATOM     80  C   UNL A   1      36.722  33.172  30.930  1.00  0.00     0.058 A 
ATOM     81  C   UNL A   1      36.970  34.125  29.931  1.00  0.00     0.135 A 
ATOM     82  C   UNL A   1      35.385  32.873  31.233  1.00  0.00     0.135 A 
ATOM     83  F   UNL A   1      38.232  34.446  29.609  1.00  0.00    -0.206 F 
ATOM     84  C   UNL A   1      35.933  34.769  29.265  1.00  0.00     0.059 A 
ATOM     85  C   UNL A   1      34.330  33.490  30.567  1.00  0.00     0.059 A 
ATOM     86  F   UNL A   1      35.097  31.954  32.167  1.00  0.00    -0.206 F 
ATOM     87  C   UNL A   1      34.615  34.444  29.590  1.00  0.00     0.060 A 
BRANCH  87  88
ATOM     88  S   UNL A   1      33.274  35.243  28.682  1.00  0.00     0.124 S 
ATOM     89  O   UNL A   1      32.644  34.103  28.026  1.00  0.00    -0.237 OA
ATOM     90  O   UNL A   1      32.506  35.869  29.753  1.00  0.00    -0.237 OA
ATOM     91  O   UNL A   1      33.975  36.172  27.801  1.00  0.00    -0.744 OA
ENDBRANCH  87  88
ENDBRANCH  55  80
BRANCH  67  92
ATOM     92  C   UNL A   1      39.899  34.189  37.051  1.00  0.00     0.058 A 
ATOM     93  C   UNL A   1      40.566  35.423  37.011  1.00  0.00     0.135 A 
ATOM     94  C   UNL A   1      39.008  33.956  38.110  1.00  0.00     0.135 A 
ATOM     95  F   UNL A   1      41.433  35.691  36.022  1.00  0.00    -0.206 F 
ATOM     96  C   UNL A   1      40.374  36.383  37.998  1.00  0.00     0.059 A 
ATOM     97  C   UNL A   1      38.781  34.911  39.096  1.00  0.00     0.059 A 
ATOM     98  F   UNL A   1      38.336  32.796  38.186  1.00  0.00    -0.206 F 
ATOM     99  C   UNL A   1      39.479  36.117  39.038  1.00  0.00     0.060 A 
BRANCH  99 100
ATOM    100  S   UNL A   1      39.212  37.382  40.298  1.00  0.00     0.124 S 
ATOM    101  O   UNL A   1      38.654  36.594  41.391  1.00  0.00    -0.237 OA
ATOM    102  O   UNL A   1      40.560  37.901  40.512  1.00  0.00    -0.237 OA
ATOM    103  O   UNL A   1      38.287  38.311  39.654  1.00  0.00    -0.744 OA
ENDBRANCH  99 100
ENDBRANCH  67  92
ENDBRANCH  41  42
ENDBRANCH  33  36
ENDBRANCH  31  32
ENDBRANCH  30  31
ENDBRANCH  29  30
ENDBRANCH   1  29
TORSDOF 19
ENDMDL
MODEL 3
REMARK VINA RESULT:     -11.8      6.289     11.656
REMARK SMILES NS(=O)(=O)c1ccc(NS(=O)(=O)c2cccc(C(=O)NCCCCNC(=O)c3ccc(-c4c5nc(c(-c6c(F)cc(S(=O)(=O)[O-])cc6F)c6ccc([nH]6)c(-c6c(F)cc(S(=O)(=O)[O-])cc6F)c6nc(c(-c7c(F)cc(S(=O)(=O)[O-])cc7F)c7ccc4[nH]7)C=C6)C=C5)cc3)c2)cc1
REMARK SMILES IDX 21 1 20 2 18 3 19 4 17 6 13 7 14 8 94 9 15 10 16 11 10 12
REMARK SMILES IDX 11 13 12 14 9 15 8 17 5 18 6 19 96 20 7 21 95 22 2 23 3 24
REMARK SMILES IDX 4 25 1 26 22 29 23 30 24 31 25 32 26 33 27 35 28 36 29 37
REMARK SMILES IDX 93 38 30 39 92 40 31 41 32 42 33 43 86 44 34 45 91 46 85 47
REMARK SMILES IDX 87 48 35 49 90 50 84 51 83 52 36 54 70 55 49 56 69 57 50 58
REMARK SMILES IDX 53 59 68 60 88 61 51 62 52 63 67 65 89 66 54 67 37 68 38 69
REMARK SMILES IDX 47 70 39 71 40 72 46 73 48 74 41 75 42 76 43 77 44 78 45 79
REMARK SMILES IDX 71 80 72 81 81 82 73 83 74 84 80 85 82 86 75 87 76 88 77 89
REMARK SMILES IDX 78 90 79 91 55 92 56 93 65 94 57 95 58 96 64 97 66 98 59 99
REMARK SMILES IDX 60 100 61 101 62 102 63 103
REMARK H PARENT 20 5 9 16 1 27 1 28 25 34 87 53 53 64
REMARK Flexibility Score: inf
ROOT
ATOM      1  C   UNL A   1      33.351  29.860  26.815  1.00  0.00     0.116 C 
ENDROOT
BRANCH   1   2
ATOM      2  N   UNL A   1      33.743  29.515  25.462  1.00  0.00    -0.352 N 
ATOM      3  C   UNL A   1      33.725  28.323  24.770  1.00  0.00     0.251 C 
ATOM      4  O   UNL A   1      34.091  28.334  23.595  1.00  0.00    -0.269 OA
ATOM      5  H   UNL A   1      34.086  30.275  24.939  1.00  0.00     0.163 HD
BRANCH   3   6
ATOM      6  C   UNL A   1      33.373  27.014  25.397  1.00  0.00     0.041 A 
ATOM      7  C   UNL A   1      33.297  24.610  25.408  1.00  0.00     0.088 A 
ATOM      8  C   UNL A   1      32.287  24.610  26.374  1.00  0.00     0.022 A 
ATOM      9  C   UNL A   1      33.936  25.794  25.029  1.00  0.00     0.036 A 
ATOM     10  C   UNL A   1      31.833  25.824  26.876  1.00  0.00     0.002 A 
ATOM     11  C   UNL A   1      32.340  27.019  26.355  1.00  0.00     0.014 A 
BRANCH   7  12
ATOM     12  S   UNL A   1      33.484  23.171  24.370  1.00  0.00     0.261 S 
ATOM     13  O   UNL A   1      33.049  22.012  25.119  1.00  0.00    -0.201 OA
ATOM     14  O   UNL A   1      34.809  23.247  23.792  1.00  0.00    -0.201 OA
BRANCH  12  15
ATOM     15  N   UNL A   1      32.405  23.403  23.104  1.00  0.00    -0.280 N 
ATOM     16  H   UNL A   1      32.248  22.628  22.517  1.00  0.00     0.180 HD
BRANCH  15  17
ATOM     17  C   UNL A   1      31.685  24.596  22.781  1.00  0.00     0.049 A 
ATOM     18  C   UNL A   1      30.770  27.247  22.551  1.00  0.00     0.082 A 
ATOM     19  C   UNL A   1      30.093  26.343  23.367  1.00  0.00     0.024 A 
ATOM     20  C   UNL A   1      31.847  26.817  21.775  1.00  0.00     0.024 A 
ATOM     21  C   UNL A   1      30.535  25.017  23.452  1.00  0.00     0.028 A 
ATOM     22  C   UNL A   1      32.308  25.499  21.906  1.00  0.00     0.028 A 
BRANCH  18  23
ATOM     23  S   UNL A   1      30.345  28.967  22.613  1.00  0.00     0.238 S 
ATOM     24  O   UNL A   1      30.310  29.384  24.000  1.00  0.00    -0.207 OA
ATOM     25  O   UNL A   1      29.260  29.200  21.697  1.00  0.00    -0.207 OA
BRANCH  23  26
ATOM     26  N   UNL A   1      31.706  29.716  21.968  1.00  0.00    -0.225 NA
ATOM     27  H   UNL A   1      32.052  30.415  22.626  1.00  0.00     0.137 HD
ATOM     28  H   UNL A   1      31.459  30.170  21.088  1.00  0.00     0.137 HD
ENDBRANCH  23  26
ENDBRANCH  18  23
ENDBRANCH  15  17
ENDBRANCH  12  15
ENDBRANCH   7  12
ENDBRANCH   3   6
ENDBRANCH   1   2
BRANCH   1  29
ATOM     29  C   UNL A   1      34.492  29.936  27.814  1.00  0.00     0.023 C 
BRANCH  29  30
ATOM     30  C   UNL A   1      35.497  31.058  27.645  1.00  0.00     0.023 C 
BRANCH  30  31
ATOM     31  C   UNL A   1      35.802  31.859  28.900  1.00  0.00     0.116 C 
BRANCH  31  32
ATOM     32  N   UNL A   1      35.633  31.111  30.138  1.00  0.00    -0.352 N 
ATOM     33  C   UNL A   1      36.536  30.327  30.822  1.00  0.00     0.251 C 
ATOM     34  H   UNL A   1      34.740  31.174  30.547  1.00  0.00     0.163 HD
ATOM     35  O   UNL A   1      36.174  29.717  31.824  1.00  0.00    -0.269 OA
BRANCH  33  36
ATOM     36  C   UNL A   1      37.919  30.185  30.316  1.00  0.00     0.039 A 
ATOM     37  C   UNL A   1      38.979  30.232  31.224  1.00  0.00     0.014 A 
ATOM     38  C   UNL A   1      38.165  29.946  28.963  1.00  0.00     0.014 A 
ATOM     39  C   UNL A   1      40.273  29.939  30.789  1.00  0.00     0.010 A 
ATOM     40  C   UNL A   1      39.433  29.551  28.554  1.00  0.00     0.010 A 
ATOM     41  C   UNL A   1      40.501  29.542  29.461  1.00  0.00    -0.014 A 
BRANCH  41  42
ATOM     42  C   UNL A   1      41.847  29.117  28.996  1.00  0.00     0.031 A 
ATOM     43  C   UNL A   1      42.962  30.125  28.905  1.00  0.00     0.074 A 
ATOM     44  C   UNL A   1      42.043  27.851  28.576  1.00  0.00     0.049 A 
ATOM     45  N   UNL A   1      44.173  29.976  28.437  1.00  0.00    -0.248 NA
ATOM     46  C   UNL A   1      42.663  31.491  29.367  1.00  0.00     0.031 C 
ATOM     47  C   UNL A   1      41.024  26.798  28.547  1.00  0.00     0.029 A 
ATOM     48  N   UNL A   1      43.165  27.235  28.081  1.00  0.00    -0.354 N 
ATOM     49  C   UNL A   1      44.769  31.229  28.521  1.00  0.00     0.074 A 
ATOM     50  C   UNL A   1      43.768  32.139  29.033  1.00  0.00     0.031 C 
ATOM     51  C   UNL A   1      41.575  25.663  28.087  1.00  0.00     0.029 A 
ATOM     52  C   UNL A   1      42.975  25.912  27.758  1.00  0.00     0.049 A 
ATOM     53  H   UNL A   1      44.027  27.698  27.967  1.00  0.00     0.167 HD
ATOM     54  C   UNL A   1      46.042  31.585  28.229  1.00  0.00     0.037 A 
ATOM     55  C   UNL A   1      43.831  25.003  27.253  1.00  0.00     0.037 A 
ATOM     56  C   UNL A   1      47.048  30.666  27.769  1.00  0.00     0.049 A 
ATOM     57  C   UNL A   1      45.253  25.410  26.980  1.00  0.00     0.074 A 
ATOM     58  C   UNL A   1      48.386  30.910  27.514  1.00  0.00     0.029 A 
ATOM     59  N   UNL A   1      46.828  29.322  27.505  1.00  0.00    -0.354 N 
ATOM     60  N   UNL A   1      45.815  26.585  27.128  1.00  0.00    -0.248 NA
ATOM     61  C   UNL A   1      46.160  24.367  26.482  1.00  0.00     0.031 C 
ATOM     62  C   UNL A   1      48.970  29.720  27.070  1.00  0.00     0.029 A 
ATOM     63  C   UNL A   1      48.004  28.726  27.082  1.00  0.00     0.049 A 
ATOM     64  H   UNL A   1      45.964  28.861  27.604  1.00  0.00     0.167 HD
ATOM     65  C   UNL A   1      47.147  26.418  26.764  1.00  0.00     0.074 A 
ATOM     66  C   UNL A   1      47.308  25.025  26.401  1.00  0.00     0.031 C 
ATOM     67  C   UNL A   1      48.146  27.334  26.734  1.00  0.00     0.037 A 
BRANCH  54  68
ATOM     68  C   UNL A   1      46.418  33.029  28.418  1.00  0.00     0.058 A 
ATOM     69  C   UNL A   1      46.907  33.505  29.645  1.00  0.00     0.135 A 
ATOM     70  C   UNL A   1      46.307  33.942  27.358  1.00  0.00     0.135 A 
ATOM     71  F   UNL A   1      47.016  32.678  30.697  1.00  0.00    -0.206 F 
ATOM     72  C   UNL A   1      47.239  34.843  29.827  1.00  0.00     0.059 A 
ATOM     73  C   UNL A   1      46.659  35.280  27.509  1.00  0.00     0.059 A 
ATOM     74  F   UNL A   1      45.844  33.540  26.165  1.00  0.00    -0.206 F 
ATOM     75  C   UNL A   1      47.108  35.724  28.753  1.00  0.00     0.060 A 
BRANCH  75  76
ATOM     76  S   UNL A   1      47.539  37.459  29.002  1.00  0.00     0.124 S 
ATOM     77  O   UNL A   1      48.879  37.510  28.425  1.00  0.00    -0.237 OA
ATOM     78  O   UNL A   1      46.498  38.152  28.249  1.00  0.00    -0.237 OA
ATOM     79  O   UNL A   1      47.473  37.620  30.452  1.00  0.00    -0.744 OA
ENDBRANCH  75  76
ENDBRANCH  54  68
BRANCH  55  80
ATOM     80  C   UNL A   1      43.377  23.608  27.010  1.00  0.00     0.058 A 
ATOM     81  C   UNL A   1      43.142  22.734  28.081  1.00  0.00     0.135 A 
ATOM     82  C   UNL A   1      43.154  23.128  25.711  1.00  0.00     0.135 A 
ATOM     83  F   UNL A   1      43.345  23.147  29.341  1.00  0.00    -0.206 F 
ATOM     84  C   UNL A   1      42.714  21.427  27.875  1.00  0.00     0.059 A 
ATOM     85  C   UNL A   1      42.706  21.830  25.479  1.00  0.00     0.059 A 
ATOM     86  F   UNL A   1      43.346  23.932  24.654  1.00  0.00    -0.206 F 
ATOM     87  C   UNL A   1      42.498  20.984  26.569  1.00  0.00     0.060 A 
BRANCH  87  88
ATOM     88  S   UNL A   1      41.887  19.304  26.311  1.00  0.00     0.124 S 
ATOM     89  O   UNL A   1      42.580  18.925  25.085  1.00  0.00    -0.237 OA
ATOM     90  O   UNL A   1      42.325  18.627  27.528  1.00  0.00    -0.237 OA
ATOM     91  O   UNL A   1      40.444  19.489  26.192  1.00  0.00    -0.744 OA
ENDBRANCH  87  88
ENDBRANCH  55  80
BRANCH  67  92
ATOM     92  C   UNL A   1      49.508  26.854  26.324  1.00  0.00     0.058 A 
ATOM     93  C   UNL A   1      50.397  26.287  27.250  1.00  0.00     0.135 A 
ATOM     94  C   UNL A   1      49.908  26.917  24.981  1.00  0.00     0.135 A 
ATOM     95  F   UNL A   1      50.063  26.210  28.548  1.00  0.00    -0.206 F 
ATOM     96  C   UNL A   1      51.647  25.819  26.861  1.00  0.00     0.059 A 
ATOM     97  C   UNL A   1      51.144  26.432  24.564  1.00  0.00     0.059 A 
ATOM     98  F   UNL A   1      49.088  27.440  24.054  1.00  0.00    -0.206 F 
ATOM     99  C   UNL A   1      52.012  25.896  25.515  1.00  0.00     0.060 A 
BRANCH  99 100
ATOM    100  S   UNL A   1      53.624  25.257  25.014  1.00  0.00     0.124 S 
ATOM    101  O   UNL A   1      54.507  25.900  25.981  1.00  0.00    -0.237 OA
ATOM    102  O   UNL A   1      53.453  23.815  25.172  1.00  0.00    -0.237 OA
ATOM    103  O   UNL A   1      53.757  25.717  23.635  1.00  0.00    -0.744 OA
ENDBRANCH  99 100
ENDBRANCH  67  92
ENDBRANCH  41  42
ENDBRANCH  33  36
ENDBRANCH  31  32
ENDBRANCH  30  31
ENDBRANCH  29  30
ENDBRANCH   1  29
TORSDOF 19
ENDMDL
