MODEL 1
REMARK VINA RESULT:     -11.3      0.000      0.000
REMARK SMILES CCOC(=O)NC(=O)C[N@H+]1CC[C@@H](C(=O)NCCCCNC(=O)c2ccc(-c3c4nc(c(-c5c(F)cc(S(=O)(=O)[O-])cc5F)c5ccc([nH]5)c(-c5c(F)cc(S(=O)(=O)[O-])cc5F)c5nc(c(-c6c(F)cc(S(=O)(=O)[O-])cc6F)c6ccc3[nH]6)C=C5)C=C4)cc2)[C@@H]1C
REMARK SMILES IDX 18 1 17 2 16 3 14 4 15 5 13 7 10 8 11 9 90 10 12 12 91 13
REMARK SMILES IDX 9 14 7 15 4 16 5 17 6 18 8 20 3 21 2 22 1 23 19 24 20 25
REMARK SMILES IDX 21 26 22 27 23 29 24 30 25 31 89 32 26 33 88 34 27 35 28 36
REMARK SMILES IDX 29 37 82 38 30 39 87 40 81 41 83 42 31 43 86 44 80 45 79 46
REMARK SMILES IDX 32 48 66 49 45 50 65 51 46 52 49 53 64 54 84 55 47 56 48 57
REMARK SMILES IDX 63 59 85 60 50 61 33 62 34 63 43 64 35 65 36 66 42 67 44 68
REMARK SMILES IDX 37 69 38 70 39 71 40 72 41 73 67 74 68 75 77 76 69 77 70 78
REMARK SMILES IDX 76 79 78 80 71 81 72 82 73 83 74 84 75 85 51 86 52 87 61 88
REMARK SMILES IDX 53 89 54 90 60 91 62 92 55 93 56 94 57 95 58 96 59 97
REMARK H PARENT 16 6 10 11 6 19 21 28 83 47 49 58
REMARK Flexibility Score: inf
ROOT
ATOM      1  C   UNL A   1      38.734  23.261  26.395  1.00  0.00     0.023 C 
ENDROOT
BRANCH   1   2
ATOM      2  C   UNL A   1      37.633  22.393  25.788  1.00  0.00     0.116 C 
BRANCH   2   3
ATOM      3  N   UNL A   1      37.479  22.663  24.375  1.00  0.00    -0.356 N 
ATOM      4  C   UNL A   1      36.373  22.976  23.654  1.00  0.00     0.229 C 
ATOM      5  O   UNL A   1      36.512  23.104  22.434  1.00  0.00    -0.275 OA
ATOM      6  H   UNL A   1      38.312  22.611  23.852  1.00  0.00     0.163 HD
BRANCH   4   7
ATOM      7  C   UNL A   1      35.011  23.214  24.284  1.00  0.00     0.142 C 
ATOM      8  N   UNL A   1      32.904  24.353  23.859  1.00  0.00    -0.324 N 
ATOM      9  C   UNL A   1      32.671  22.955  24.292  1.00  0.00     0.263 C 
ATOM     10  C   UNL A   1      34.358  24.583  24.041  1.00  0.00     0.194 C 
ATOM     11  H   UNL A   1      32.440  25.084  24.396  1.00  0.00     0.348 HD
ATOM     12  C   UNL A   1      33.941  22.207  23.912  1.00  0.00     0.081 C 
ATOM     13  C   UNL A   1      34.558  25.469  25.278  1.00  0.00     0.076 C 
BRANCH   8  14
ATOM     14  C   UNL A   1      32.318  24.516  22.503  1.00  0.00     0.364 C 
BRANCH  14  15
ATOM     15  C   UNL A   1      32.859  25.614  21.598  1.00  0.00     0.284 C 
ATOM     16  C   UNL A   1      32.138  27.670  22.841  1.00  0.00     0.414 C 
ATOM     17  O   UNL A   1      32.195  28.893  22.845  1.00  0.00    -0.224 OA
ATOM     18  N   UNL A   1      32.874  26.936  21.944  1.00  0.00    -0.256 N 
ATOM     19  H   UNL A   1      33.545  27.467  21.456  1.00  0.00     0.176 HD
ATOM     20  O   UNL A   1      33.228  25.322  20.452  1.00  0.00    -0.268 OA
BRANCH  16  21
ATOM     21  O   UNL A   1      31.336  26.929  23.633  1.00  0.00    -0.450 OA
BRANCH  21  22
ATOM     22  C   UNL A   1      31.036  27.472  24.922  1.00  0.00     0.231 C 
ATOM     23  C   UNL A   1      30.785  26.385  25.951  1.00  0.00     0.049 C 
ENDBRANCH  21  22
ENDBRANCH  16  21
ENDBRANCH  14  15
ENDBRANCH   8  14
ENDBRANCH   4   7
ENDBRANCH   2   3
ENDBRANCH   1   2
BRANCH   1  24
ATOM     24  C   UNL A   1      39.943  22.488  26.899  1.00  0.00     0.023 C 
BRANCH  24  25
ATOM     25  C   UNL A   1      41.230  23.295  26.963  1.00  0.00     0.116 C 
BRANCH  25  26
ATOM     26  N   UNL A   1      41.383  24.286  25.903  1.00  0.00    -0.352 N 
ATOM     27  C   UNL A   1      41.492  25.654  26.046  1.00  0.00     0.251 C 
ATOM     28  H   UNL A   1      41.413  23.940  24.982  1.00  0.00     0.163 HD
ATOM     29  O   UNL A   1      41.553  26.395  25.071  1.00  0.00    -0.269 OA
BRANCH  27  30
ATOM     30  C   UNL A   1      41.472  26.213  27.413  1.00  0.00     0.039 A 
ATOM     31  C   UNL A   1      42.548  26.991  27.840  1.00  0.00     0.014 A 
ATOM     32  C   UNL A   1      40.327  26.083  28.205  1.00  0.00     0.014 A 
ATOM     33  C   UNL A   1      42.434  27.725  29.022  1.00  0.00     0.010 A 
ATOM     34  C   UNL A   1      40.179  26.892  29.324  1.00  0.00     0.010 A 
ATOM     35  C   UNL A   1      41.226  27.728  29.741  1.00  0.00    -0.014 A 
BRANCH  35  36
ATOM     36  C   UNL A   1      41.032  28.602  30.928  1.00  0.00     0.031 A 
ATOM     37  C   UNL A   1      39.968  29.667  30.903  1.00  0.00     0.074 A 
ATOM     38  C   UNL A   1      41.850  28.484  31.994  1.00  0.00     0.049 A 
ATOM     39  N   UNL A   1      39.701  30.588  31.793  1.00  0.00    -0.248 NA
ATOM     40  C   UNL A   1      39.111  29.724  29.707  1.00  0.00     0.031 C 
ATOM     41  C   UNL A   1      42.948  27.522  32.121  1.00  0.00     0.029 A 
ATOM     42  N   UNL A   1      41.892  29.185  33.175  1.00  0.00    -0.354 N 
ATOM     43  C   UNL A   1      38.652  31.330  31.264  1.00  0.00     0.074 A 
ATOM     44  C   UNL A   1      38.380  30.802  29.946  1.00  0.00     0.031 C 
ATOM     45  C   UNL A   1      43.531  27.671  33.322  1.00  0.00     0.029 A 
ATOM     46  C   UNL A   1      42.885  28.770  34.032  1.00  0.00     0.049 A 
ATOM     47  H   UNL A   1      41.269  29.916  33.387  1.00  0.00     0.167 HD
ATOM     48  C   UNL A   1      37.955  32.338  31.837  1.00  0.00     0.037 A 
ATOM     49  C   UNL A   1      43.239  29.228  35.250  1.00  0.00     0.037 A 
ATOM     50  C   UNL A   1      38.215  32.846  33.158  1.00  0.00     0.049 A 
ATOM     51  C   UNL A   1      42.469  30.377  35.849  1.00  0.00     0.074 A 
ATOM     52  C   UNL A   1      37.543  33.843  33.843  1.00  0.00     0.029 A 
ATOM     53  N   UNL A   1      39.223  32.395  33.997  1.00  0.00    -0.354 N 
ATOM     54  N   UNL A   1      41.446  31.033  35.354  1.00  0.00    -0.248 NA
ATOM     55  C   UNL A   1      42.901  30.849  37.173  1.00  0.00     0.031 C 
ATOM     56  C   UNL A   1      38.172  34.025  35.078  1.00  0.00     0.029 A 
ATOM     57  C   UNL A   1      39.201  33.104  35.186  1.00  0.00     0.049 A 
ATOM     58  H   UNL A   1      39.860  31.676  33.780  1.00  0.00     0.167 HD
ATOM     59  C   UNL A   1      41.090  31.967  36.322  1.00  0.00     0.074 A 
ATOM     60  C   UNL A   1      41.999  31.784  37.434  1.00  0.00     0.031 C 
ATOM     61  C   UNL A   1      40.100  32.893  36.293  1.00  0.00     0.037 A 
BRANCH  48  62
ATOM     62  C   UNL A   1      36.826  32.943  31.049  1.00  0.00     0.058 A 
ATOM     63  C   UNL A   1      35.485  32.670  31.363  1.00  0.00     0.135 A 
ATOM     64  C   UNL A   1      37.082  33.842  30.001  1.00  0.00     0.135 A 
ATOM     65  F   UNL A   1      35.183  31.802  32.343  1.00  0.00    -0.206 F 
ATOM     66  C   UNL A   1      34.438  33.248  30.655  1.00  0.00     0.059 A 
ATOM     67  C   UNL A   1      36.049  34.456  29.298  1.00  0.00     0.059 A 
ATOM     68  F   UNL A   1      38.345  34.136  29.655  1.00  0.00    -0.206 F 
ATOM     69  C   UNL A   1      34.731  34.145  29.626  1.00  0.00     0.060 A 
BRANCH  69  70
ATOM     70  S   UNL A   1      33.358  34.905  28.736  1.00  0.00     0.124 S 
ATOM     71  O   UNL A   1      32.395  35.117  29.811  1.00  0.00    -0.237 OA
ATOM     72  O   UNL A   1      33.972  36.112  28.190  1.00  0.00    -0.237 OA
ATOM     73  O   UNL A   1      32.987  33.893  27.752  1.00  0.00    -0.744 OA
ENDBRANCH  69  70
ENDBRANCH  48  62
BRANCH  49  74
ATOM     74  C   UNL A   1      44.365  28.603  35.997  1.00  0.00     0.058 A 
ATOM     75  C   UNL A   1      45.682  29.063  35.834  1.00  0.00     0.135 A 
ATOM     76  C   UNL A   1      44.159  27.518  36.863  1.00  0.00     0.135 A 
ATOM     77  F   UNL A   1      45.934  30.095  35.013  1.00  0.00    -0.206 F 
ATOM     78  C   UNL A   1      46.756  28.449  36.470  1.00  0.00     0.059 A 
ATOM     79  C   UNL A   1      45.214  26.906  37.535  1.00  0.00     0.059 A 
ATOM     80  F   UNL A   1      42.920  27.048  37.070  1.00  0.00    -0.206 F 
ATOM     81  C   UNL A   1      46.511  27.367  37.317  1.00  0.00     0.060 A 
BRANCH  81  82
ATOM     82  S   UNL A   1      47.911  26.581  38.145  1.00  0.00     0.124 S 
ATOM     83  O   UNL A   1      47.416  26.468  39.511  1.00  0.00    -0.237 OA
ATOM     84  O   UNL A   1      48.039  25.328  37.406  1.00  0.00    -0.237 OA
ATOM     85  O   UNL A   1      48.997  27.534  37.943  1.00  0.00    -0.744 OA
ENDBRANCH  81  82
ENDBRANCH  49  74
BRANCH  61  86
ATOM     86  C   UNL A   1      39.911  33.750  37.515  1.00  0.00     0.058 A 
ATOM     87  C   UNL A   1      40.596  34.962  37.682  1.00  0.00     0.135 A 
ATOM     88  C   UNL A   1      38.981  33.380  38.500  1.00  0.00     0.135 A 
ATOM     89  F   UNL A   1      41.501  35.359  36.773  1.00  0.00    -0.206 F 
ATOM     90  C   UNL A   1      40.382  35.770  38.795  1.00  0.00     0.059 A 
ATOM     91  C   UNL A   1      38.728  34.187  39.606  1.00  0.00     0.059 A 
ATOM     92  F   UNL A   1      38.291  32.235  38.384  1.00  0.00    -0.206 F 
ATOM     93  C   UNL A   1      39.441  35.375  39.749  1.00  0.00     0.060 A 
BRANCH  93  94
ATOM     94  S   UNL A   1      39.140  36.456  41.163  1.00  0.00     0.124 S 
ATOM     95  O   UNL A   1      40.438  36.438  41.829  1.00  0.00    -0.237 OA
ATOM     96  O   UNL A   1      38.775  37.715  40.520  1.00  0.00    -0.237 OA
ATOM     97  O   UNL A   1      38.057  35.788  41.878  1.00  0.00    -0.744 OA
ENDBRANCH  93  94
ENDBRANCH  61  86
ENDBRANCH  35  36
ENDBRANCH  27  30
ENDBRANCH  25  26
ENDBRANCH  24  25
ENDBRANCH   1  24
TORSDOF 18
ENDMDL
MODEL 2
REMARK VINA RESULT:     -11.1      2.589      8.685
REMARK SMILES CCOC(=O)NC(=O)C[N@H+]1CC[C@@H](C(=O)NCCCCNC(=O)c2ccc(-c3c4nc(c(-c5c(F)cc(S(=O)(=O)[O-])cc5F)c5ccc([nH]5)c(-c5c(F)cc(S(=O)(=O)[O-])cc5F)c5nc(c(-c6c(F)cc(S(=O)(=O)[O-])cc6F)c6ccc3[nH]6)C=C5)C=C4)cc2)[C@@H]1C
REMARK SMILES IDX 18 1 17 2 16 3 14 4 15 5 13 7 10 8 11 9 90 10 12 12 91 13
REMARK SMILES IDX 9 14 7 15 4 16 5 17 6 18 8 20 3 21 2 22 1 23 19 24 20 25
REMARK SMILES IDX 21 26 22 27 23 29 24 30 25 31 89 32 26 33 88 34 27 35 28 36
REMARK SMILES IDX 29 37 82 38 30 39 87 40 81 41 83 42 31 43 86 44 80 45 79 46
REMARK SMILES IDX 32 48 66 49 45 50 65 51 46 52 49 53 64 54 84 55 47 56 48 57
REMARK SMILES IDX 63 59 85 60 50 61 33 62 34 63 43 64 35 65 36 66 42 67 44 68
REMARK SMILES IDX 37 69 38 70 39 71 40 72 41 73 67 74 68 75 77 76 69 77 70 78
REMARK SMILES IDX 76 79 78 80 71 81 72 82 73 83 74 84 75 85 51 86 52 87 61 88
REMARK SMILES IDX 53 89 54 90 60 91 62 92 55 93 56 94 57 95 58 96 59 97
REMARK H PARENT 16 6 10 11 6 19 21 28 83 47 49 58
REMARK Flexibility Score: inf
ROOT
ATOM      1  C   UNL A   1      34.891  30.469  27.639  1.00  0.00     0.023 C 
ENDROOT
BRANCH   1   2
ATOM      2  C   UNL A   1      34.425  29.076  27.216  1.00  0.00     0.116 C 
BRANCH   2   3
ATOM      3  N   UNL A   1      33.137  28.762  27.794  1.00  0.00    -0.356 N 
ATOM      4  C   UNL A   1      32.114  28.015  27.308  1.00  0.00     0.229 C 
ATOM      5  O   UNL A   1      31.087  27.952  27.992  1.00  0.00    -0.275 OA
ATOM      6  H   UNL A   1      32.978  29.152  28.683  1.00  0.00     0.163 HD
BRANCH   4   7
ATOM      7  C   UNL A   1      32.198  27.236  26.006  1.00  0.00     0.142 C 
ATOM      8  N   UNL A   1      31.744  25.029  25.091  1.00  0.00    -0.324 N 
ATOM      9  C   UNL A   1      31.177  26.088  24.223  1.00  0.00     0.263 C 
ATOM     10  C   UNL A   1      32.554  25.745  26.106  1.00  0.00     0.194 C 
ATOM     11  H   UNL A   1      32.379  24.364  24.650  1.00  0.00     0.348 HD
ATOM     12  C   UNL A   1      30.950  27.276  25.146  1.00  0.00     0.081 C 
ATOM     13  C   UNL A   1      34.038  25.553  25.765  1.00  0.00     0.076 C 
BRANCH   8  14
ATOM     14  C   UNL A   1      30.625  24.164  25.549  1.00  0.00     0.364 C 
BRANCH  14  15
ATOM     15  C   UNL A   1      30.920  23.046  26.538  1.00  0.00     0.284 C 
ATOM     16  C   UNL A   1      32.147  21.415  25.082  1.00  0.00     0.414 C 
ATOM     17  O   UNL A   1      32.742  20.345  25.080  1.00  0.00    -0.224 OA
ATOM     18  N   UNL A   1      31.742  21.991  26.260  1.00  0.00    -0.256 N 
ATOM     19  H   UNL A   1      32.119  21.559  27.061  1.00  0.00     0.176 HD
ATOM     20  O   UNL A   1      30.326  23.033  27.626  1.00  0.00    -0.268 OA
BRANCH  16  21
ATOM     21  O   UNL A   1      31.776  22.097  23.979  1.00  0.00    -0.450 OA
BRANCH  21  22
ATOM     22  C   UNL A   1      32.676  22.050  22.868  1.00  0.00     0.231 C 
ATOM     23  C   UNL A   1      33.865  22.975  23.062  1.00  0.00     0.049 C 
ENDBRANCH  21  22
ENDBRANCH  16  21
ENDBRANCH  14  15
ENDBRANCH   8  14
ENDBRANCH   4   7
ENDBRANCH   2   3
ENDBRANCH   1   2
BRANCH   1  24
ATOM     24  C   UNL A   1      33.774  31.489  27.792  1.00  0.00     0.023 C 
BRANCH  24  25
ATOM     25  C   UNL A   1      34.108  32.878  27.270  1.00  0.00     0.116 C 
BRANCH  25  26
ATOM     26  N   UNL A   1      33.207  33.933  27.720  1.00  0.00    -0.352 N 
ATOM     27  C   UNL A   1      33.285  34.657  28.892  1.00  0.00     0.251 C 
ATOM     28  H   UNL A   1      32.458  34.154  27.120  1.00  0.00     0.163 HD
ATOM     29  O   UNL A   1      32.428  35.480  29.192  1.00  0.00    -0.269 OA
BRANCH  27  30
ATOM     30  C   UNL A   1      34.406  34.371  29.811  1.00  0.00     0.039 A 
ATOM     31  C   UNL A   1      34.142  33.709  31.011  1.00  0.00     0.014 A 
ATOM     32  C   UNL A   1      35.720  34.629  29.413  1.00  0.00     0.014 A 
ATOM     33  C   UNL A   1      35.207  33.213  31.766  1.00  0.00     0.010 A 
ATOM     34  C   UNL A   1      36.769  34.046  30.113  1.00  0.00     0.010 A 
ATOM     35  C   UNL A   1      36.525  33.326  31.292  1.00  0.00    -0.014 A 
BRANCH  35  36
ATOM     36  C   UNL A   1      37.664  32.692  32.007  1.00  0.00     0.031 A 
ATOM     37  C   UNL A   1      38.328  31.475  31.421  1.00  0.00     0.074 A 
ATOM     38  C   UNL A   1      38.054  33.166  33.208  1.00  0.00     0.049 A 
ATOM     39  N   UNL A   1      39.269  30.723  31.930  1.00  0.00    -0.248 NA
ATOM     40  C   UNL A   1      37.850  31.026  30.102  1.00  0.00     0.031 C 
ATOM     41  C   UNL A   1      37.460  34.311  33.905  1.00  0.00     0.029 A 
ATOM     42  N   UNL A   1      39.040  32.740  34.064  1.00  0.00    -0.354 N 
ATOM     43  C   UNL A   1      39.492  29.717  30.998  1.00  0.00     0.074 A 
ATOM     44  C   UNL A   1      38.539  29.909  29.928  1.00  0.00     0.031 C 
ATOM     45  C   UNL A   1      38.114  34.514  35.061  1.00  0.00     0.029 A 
ATOM     46  C   UNL A   1      39.140  33.488  35.215  1.00  0.00     0.049 A 
ATOM     47  H   UNL A   1      39.621  31.969  33.872  1.00  0.00     0.167 HD
ATOM     48  C   UNL A   1      40.429  28.740  31.014  1.00  0.00     0.037 A 
ATOM     49  C   UNL A   1      39.959  33.357  36.277  1.00  0.00     0.037 A 
ATOM     50  C   UNL A   1      41.391  28.566  32.070  1.00  0.00     0.049 A 
ATOM     51  C   UNL A   1      40.968  32.238  36.286  1.00  0.00     0.074 A 
ATOM     52  C   UNL A   1      42.404  27.628  32.163  1.00  0.00     0.029 A 
ATOM     53  N   UNL A   1      41.464  29.348  33.212  1.00  0.00    -0.354 N 
ATOM     54  N   UNL A   1      41.199  31.326  35.371  1.00  0.00    -0.248 NA
ATOM     55  C   UNL A   1      41.831  32.128  37.471  1.00  0.00     0.031 C 
ATOM     56  C   UNL A   1      43.061  27.814  33.383  1.00  0.00     0.029 A 
ATOM     57  C   UNL A   1      42.494  28.903  34.024  1.00  0.00     0.049 A 
ATOM     58  H   UNL A   1      40.872  30.108  33.417  1.00  0.00     0.167 HD
ATOM     59  C   UNL A   1      42.256  30.562  35.854  1.00  0.00     0.074 A 
ATOM     60  C   UNL A   1      42.627  31.123  37.135  1.00  0.00     0.031 C 
ATOM     61  C   UNL A   1      42.865  29.490  35.288  1.00  0.00     0.037 A 
BRANCH  48  62
ATOM     62  C   UNL A   1      40.478  27.799  29.841  1.00  0.00     0.058 A 
ATOM     63  C   UNL A   1      41.478  27.901  28.861  1.00  0.00     0.135 A 
ATOM     64  C   UNL A   1      39.546  26.755  29.719  1.00  0.00     0.135 A 
ATOM     65  F   UNL A   1      42.382  28.893  28.918  1.00  0.00    -0.206 F 
ATOM     66  C   UNL A   1      41.542  27.017  27.791  1.00  0.00     0.059 A 
ATOM     67  C   UNL A   1      39.610  25.839  28.673  1.00  0.00     0.059 A 
ATOM     68  F   UNL A   1      38.566  26.613  30.626  1.00  0.00    -0.206 F 
ATOM     69  C   UNL A   1      40.606  25.985  27.709  1.00  0.00     0.060 A 
BRANCH  69  70
ATOM     70  S   UNL A   1      40.723  24.831  26.326  1.00  0.00     0.124 S 
ATOM     71  O   UNL A   1      41.287  25.681  25.283  1.00  0.00    -0.237 OA
ATOM     72  O   UNL A   1      41.613  23.802  26.854  1.00  0.00    -0.237 OA
ATOM     73  O   UNL A   1      39.340  24.412  26.114  1.00  0.00    -0.744 OA
ENDBRANCH  69  70
ENDBRANCH  48  62
BRANCH  49  74
ATOM     74  C   UNL A   1      39.878  34.308  37.420  1.00  0.00     0.058 A 
ATOM     75  C   UNL A   1      39.049  34.043  38.521  1.00  0.00     0.135 A 
ATOM     76  C   UNL A   1      40.597  35.514  37.424  1.00  0.00     0.135 A 
ATOM     77  F   UNL A   1      38.335  32.907  38.564  1.00  0.00    -0.206 F 
ATOM     78  C   UNL A   1      38.907  34.951  39.567  1.00  0.00     0.059 A 
ATOM     79  C   UNL A   1      40.496  36.424  38.473  1.00  0.00     0.059 A 
ATOM     80  F   UNL A   1      41.418  35.811  36.405  1.00  0.00    -0.206 F 
ATOM     81  C   UNL A   1      39.633  36.141  39.530  1.00  0.00     0.060 A 
BRANCH  81  82
ATOM     82  S   UNL A   1      39.448  37.311  40.895  1.00  0.00     0.124 S 
ATOM     83  O   UNL A   1      38.907  36.453  41.942  1.00  0.00    -0.237 OA
ATOM     84  O   UNL A   1      40.819  37.771  41.090  1.00  0.00    -0.237 OA
ATOM     85  O   UNL A   1      38.529  38.309  40.358  1.00  0.00    -0.744 OA
ENDBRANCH  81  82
ENDBRANCH  49  74
BRANCH  61  86
ATOM     86  C   UNL A   1      44.028  28.881  36.022  1.00  0.00     0.058 A 
ATOM     87  C   UNL A   1      43.879  27.746  36.833  1.00  0.00     0.135 A 
ATOM     88  C   UNL A   1      45.320  29.406  35.858  1.00  0.00     0.135 A 
ATOM     89  F   UNL A   1      42.664  27.209  37.029  1.00  0.00    -0.206 F 
ATOM     90  C   UNL A   1      44.968  27.163  37.473  1.00  0.00     0.059 A 
ATOM     91  C   UNL A   1      46.429  28.821  36.463  1.00  0.00     0.059 A 
ATOM     92  F   UNL A   1      45.520  30.484  35.084  1.00  0.00    -0.206 F 
ATOM     93  C   UNL A   1      46.240  27.706  37.277  1.00  0.00     0.060 A 
BRANCH  93  94
ATOM     94  S   UNL A   1      47.650  26.910  38.077  1.00  0.00     0.124 S 
ATOM     95  O   UNL A   1      47.609  25.577  37.487  1.00  0.00    -0.237 OA
ATOM     96  O   UNL A   1      48.764  27.756  37.657  1.00  0.00    -0.237 OA
ATOM     97  O   UNL A   1      47.320  26.980  39.497  1.00  0.00    -0.744 OA
ENDBRANCH  93  94
ENDBRANCH  61  86
ENDBRANCH  35  36
ENDBRANCH  27  30
ENDBRANCH  25  26
ENDBRANCH  24  25
ENDBRANCH   1  24
TORSDOF 18
ENDMDL
MODEL 3
REMARK VINA RESULT:     -11.0      1.153      8.382
REMARK SMILES CCOC(=O)NC(=O)C[N@H+]1CC[C@@H](C(=O)NCCCCNC(=O)c2ccc(-c3c4nc(c(-c5c(F)cc(S(=O)(=O)[O-])cc5F)c5ccc([nH]5)c(-c5c(F)cc(S(=O)(=O)[O-])cc5F)c5nc(c(-c6c(F)cc(S(=O)(=O)[O-])cc6F)c6ccc3[nH]6)C=C5)C=C4)cc2)[C@@H]1C
REMARK SMILES IDX 18 1 17 2 16 3 14 4 15 5 13 7 10 8 11 9 90 10 12 12 91 13
REMARK SMILES IDX 9 14 7 15 4 16 5 17 6 18 8 20 3 21 2 22 1 23 19 24 20 25
REMARK SMILES IDX 21 26 22 27 23 29 24 30 25 31 89 32 26 33 88 34 27 35 28 36
REMARK SMILES IDX 29 37 82 38 30 39 87 40 81 41 83 42 31 43 86 44 80 45 79 46
REMARK SMILES IDX 32 48 66 49 45 50 65 51 46 52 49 53 64 54 84 55 47 56 48 57
REMARK SMILES IDX 63 59 85 60 50 61 33 62 34 63 43 64 35 65 36 66 42 67 44 68
REMARK SMILES IDX 37 69 38 70 39 71 40 72 41 73 67 74 68 75 77 76 69 77 70 78
REMARK SMILES IDX 76 79 78 80 71 81 72 82 73 83 74 84 75 85 51 86 52 87 61 88
REMARK SMILES IDX 53 89 54 90 60 91 62 92 55 93 56 94 57 95 58 96 59 97
REMARK H PARENT 16 6 10 11 6 19 21 28 83 47 49 58
REMARK Flexibility Score: inf
ROOT
ATOM      1  C   UNL A   1      39.687  21.655  26.135  1.00  0.00     0.023 C 
ENDROOT
BRANCH   1   2
ATOM      2  C   UNL A   1      38.349  22.316  25.805  1.00  0.00     0.116 C 
BRANCH   2   3
ATOM      3  N   UNL A   1      37.289  21.334  25.728  1.00  0.00    -0.356 N 
ATOM      4  C   UNL A   1      35.947  21.496  25.617  1.00  0.00     0.229 C 
ATOM      5  O   UNL A   1      35.253  20.474  25.627  1.00  0.00    -0.275 OA
ATOM      6  H   UNL A   1      37.592  20.398  25.761  1.00  0.00     0.163 HD
BRANCH   4   7
ATOM      7  C   UNL A   1      35.285  22.852  25.439  1.00  0.00     0.142 C 
ATOM      8  N   UNL A   1      33.148  23.849  24.843  1.00  0.00    -0.324 N 
ATOM      9  C   UNL A   1      33.694  24.467  26.074  1.00  0.00     0.263 C 
ATOM     10  C   UNL A   1      34.230  22.974  24.329  1.00  0.00     0.194 C 
ATOM     11  H   UNL A   1      32.916  24.479  24.076  1.00  0.00     0.348 HD
ATOM     12  C   UNL A   1      34.607  23.408  26.676  1.00  0.00     0.081 C 
ATOM     13  C   UNL A   1      34.859  23.650  23.103  1.00  0.00     0.076 C 
BRANCH   8  14
ATOM     14  C   UNL A   1      31.835  23.239  25.180  1.00  0.00     0.364 C 
BRANCH  14  15
ATOM     15  C   UNL A   1      30.838  24.051  25.995  1.00  0.00     0.284 C 
ATOM     16  C   UNL A   1      30.001  25.670  24.273  1.00  0.00     0.414 C 
ATOM     17  O   UNL A   1      29.205  26.579  24.075  1.00  0.00    -0.224 OA
ATOM     18  N   UNL A   1      29.976  24.958  25.445  1.00  0.00    -0.256 N 
ATOM     19  H   UNL A   1      29.180  25.134  25.998  1.00  0.00     0.176 HD
ATOM     20  O   UNL A   1      30.856  23.959  27.231  1.00  0.00    -0.268 OA
BRANCH  16  21
ATOM     21  O   UNL A   1      30.995  25.314  23.433  1.00  0.00    -0.450 OA
BRANCH  21  22
ATOM     22  C   UNL A   1      31.496  26.340  22.569  1.00  0.00     0.231 C 
ATOM     23  C   UNL A   1      32.453  25.787  21.529  1.00  0.00     0.049 C 
ENDBRANCH  21  22
ENDBRANCH  16  21
ENDBRANCH  14  15
ENDBRANCH   8  14
ENDBRANCH   4   7
ENDBRANCH   2   3
ENDBRANCH   1   2
BRANCH   1  24
ATOM     24  C   UNL A   1      40.346  22.164  27.407  1.00  0.00     0.023 C 
BRANCH  24  25
ATOM     25  C   UNL A   1      41.613  22.976  27.183  1.00  0.00     0.116 C 
BRANCH  25  26
ATOM     26  N   UNL A   1      41.572  23.864  26.026  1.00  0.00    -0.352 N 
ATOM     27  C   UNL A   1      41.515  25.243  26.031  1.00  0.00     0.251 C 
ATOM     28  H   UNL A   1      41.587  23.431  25.142  1.00  0.00     0.163 HD
ATOM     29  O   UNL A   1      41.421  25.881  24.989  1.00  0.00    -0.269 OA
BRANCH  27  30
ATOM     30  C   UNL A   1      41.511  25.933  27.337  1.00  0.00     0.039 A 
ATOM     31  C   UNL A   1      42.575  26.776  27.659  1.00  0.00     0.014 A 
ATOM     32  C   UNL A   1      40.388  25.853  28.166  1.00  0.00     0.014 A 
ATOM     33  C   UNL A   1      42.467  27.619  28.766  1.00  0.00     0.010 A 
ATOM     34  C   UNL A   1      40.243  26.764  29.204  1.00  0.00     0.010 A 
ATOM     35  C   UNL A   1      41.276  27.663  29.512  1.00  0.00    -0.014 A 
BRANCH  35  36
ATOM     36  C   UNL A   1      41.084  28.644  30.612  1.00  0.00     0.031 A 
ATOM     37  C   UNL A   1      41.961  28.575  31.833  1.00  0.00     0.074 A 
ATOM     38  C   UNL A   1      40.084  29.547  30.544  1.00  0.00     0.049 A 
ATOM     39  N   UNL A   1      41.895  29.274  32.937  1.00  0.00    -0.248 NA
ATOM     40  C   UNL A   1      43.036  27.569  31.826  1.00  0.00     0.031 C 
ATOM     41  C   UNL A   1      39.136  29.683  29.434  1.00  0.00     0.029 A 
ATOM     42  N   UNL A   1      39.689  30.518  31.432  1.00  0.00    -0.354 N 
ATOM     43  C   UNL A   1      42.913  28.791  33.750  1.00  0.00     0.074 A 
ATOM     44  C   UNL A   1      43.534  27.692  33.047  1.00  0.00     0.031 C 
ATOM     45  C   UNL A   1      38.295  30.699  29.693  1.00  0.00     0.029 A 
ATOM     46  C   UNL A   1      38.608  31.254  31.006  1.00  0.00     0.049 A 
ATOM     47  H   UNL A   1      40.139  30.671  32.293  1.00  0.00     0.167 HD
ATOM     48  C   UNL A   1      43.317  29.244  34.960  1.00  0.00     0.037 A 
ATOM     49  C   UNL A   1      37.940  32.258  31.608  1.00  0.00     0.037 A 
ATOM     50  C   UNL A   1      42.710  30.353  35.647  1.00  0.00     0.049 A 
ATOM     51  C   UNL A   1      38.388  32.718  32.972  1.00  0.00     0.074 A 
ATOM     52  C   UNL A   1      43.069  30.911  36.862  1.00  0.00     0.029 A 
ATOM     53  N   UNL A   1      41.624  31.077  35.179  1.00  0.00    -0.354 N 
ATOM     54  N   UNL A   1      39.386  32.282  33.704  1.00  0.00    -0.248 NA
ATOM     55  C   UNL A   1      37.620  33.807  33.593  1.00  0.00     0.031 C 
ATOM     56  C   UNL A   1      42.171  31.943  37.150  1.00  0.00     0.029 A 
ATOM     57  C   UNL A   1      41.289  32.065  36.089  1.00  0.00     0.049 A 
ATOM     58  H   UNL A   1      41.160  30.913  34.327  1.00  0.00     0.167 HD
ATOM     59  C   UNL A   1      39.388  33.068  34.851  1.00  0.00     0.074 A 
ATOM     60  C   UNL A   1      38.300  34.013  34.712  1.00  0.00     0.031 C 
ATOM     61  C   UNL A   1      40.215  33.014  35.924  1.00  0.00     0.037 A 
BRANCH  48  62
ATOM     62  C   UNL A   1      44.488  28.556  35.608  1.00  0.00     0.058 A 
ATOM     63  C   UNL A   1      44.306  27.483  36.495  1.00  0.00     0.135 A 
ATOM     64  C   UNL A   1      45.804  28.939  35.304  1.00  0.00     0.135 A 
ATOM     65  F   UNL A   1      43.068  27.088  36.835  1.00  0.00    -0.206 F 
ATOM     66  C   UNL A   1      45.386  26.826  37.074  1.00  0.00     0.059 A 
ATOM     67  C   UNL A   1      46.901  28.277  35.849  1.00  0.00     0.059 A 
ATOM     68  F   UNL A   1      46.035  29.962  34.466  1.00  0.00    -0.206 F 
ATOM     69  C   UNL A   1      46.681  27.228  36.741  1.00  0.00     0.060 A 
BRANCH  69  70
ATOM     70  S   UNL A   1      48.069  26.346  37.483  1.00  0.00     0.124 S 
ATOM     71  O   UNL A   1      48.558  25.567  36.351  1.00  0.00    -0.237 OA
ATOM     72  O   UNL A   1      48.933  27.438  37.921  1.00  0.00    -0.237 OA
ATOM     73  O   UNL A   1      47.448  25.574  38.555  1.00  0.00    -0.744 OA
ENDBRANCH  69  70
ENDBRANCH  48  62
BRANCH  49  74
ATOM     74  C   UNL A   1      36.784  32.912  30.934  1.00  0.00     0.058 A 
ATOM     75  C   UNL A   1      36.983  33.819  29.881  1.00  0.00     0.135 A 
ATOM     76  C   UNL A   1      35.463  32.672  31.344  1.00  0.00     0.135 A 
ATOM     77  F   UNL A   1      38.226  34.088  29.454  1.00  0.00    -0.206 F 
ATOM     78  C   UNL A   1      35.920  34.492  29.284  1.00  0.00     0.059 A 
ATOM     79  C   UNL A   1      34.382  33.310  30.742  1.00  0.00     0.059 A 
ATOM     80  F   UNL A   1      35.213  31.801  32.334  1.00  0.00    -0.206 F 
ATOM     81  C   UNL A   1      34.623  34.232  29.726  1.00  0.00     0.060 A 
BRANCH  81  82
ATOM     82  S   UNL A   1      33.250  35.105  28.941  1.00  0.00     0.124 S 
ATOM     83  O   UNL A   1      32.418  35.436  30.091  1.00  0.00    -0.237 OA
ATOM     84  O   UNL A   1      33.928  36.227  28.298  1.00  0.00    -0.237 OA
ATOM     85  O   UNL A   1      32.698  34.108  28.028  1.00  0.00    -0.744 OA
ENDBRANCH  81  82
ENDBRANCH  49  74
BRANCH  61  86
ATOM     86  C   UNL A   1      40.013  34.031  37.013  1.00  0.00     0.058 A 
ATOM     87  C   UNL A   1      40.559  35.321  36.931  1.00  0.00     0.135 A 
ATOM     88  C   UNL A   1      39.206  33.729  38.122  1.00  0.00     0.135 A 
ATOM     89  F   UNL A   1      41.343  35.659  35.895  1.00  0.00    -0.206 F 
ATOM     90  C   UNL A   1      40.329  36.271  37.922  1.00  0.00     0.059 A 
ATOM     91  C   UNL A   1      38.937  34.673  39.109  1.00  0.00     0.059 A 
ATOM     92  F   UNL A   1      38.650  32.513  38.243  1.00  0.00    -0.206 F 
ATOM     93  C   UNL A   1      39.512  35.937  39.005  1.00  0.00     0.060 A 
BRANCH  93  94
ATOM     94  S   UNL A   1      39.186  37.195  40.259  1.00  0.00     0.124 S 
ATOM     95  O   UNL A   1      40.537  37.610  40.618  1.00  0.00    -0.237 OA
ATOM     96  O   UNL A   1      38.396  38.174  39.518  1.00  0.00    -0.237 OA
ATOM     97  O   UNL A   1      38.457  36.465  41.291  1.00  0.00    -0.744 OA
ENDBRANCH  93  94
ENDBRANCH  61  86
ENDBRANCH  35  36
ENDBRANCH  27  30
ENDBRANCH  25  26
ENDBRANCH  24  25
ENDBRANCH   1  24
TORSDOF 18
ENDMDL
