MODEL 1
REMARK VINA RESULT:     -12.0      0.000      0.000
REMARK SMILES Cc1csc(NC(=O)[C@@H]2CC=CC[C@H]2C(=O)NCCCCNC(=O)c2ccc(-c3c4nc(c(-c5c(F)cc(S(=O)(=O)[O-])cc5F)c5ccc([nH]5)c(-c5c(F)cc(S(=O)(=O)[O-])cc5F)c5nc(c(-c6c(F)cc(S(=O)(=O)[O-])cc6F)c6ccc3[nH]6)C=C5)C=C4)cc2)n1
REMARK SMILES IDX 20 1 19 2 18 3 17 4 15 5 16 6 14 8 9 9 10 10 11 11 13 12
REMARK SMILES IDX 12 13 7 14 6 15 8 17 5 18 1 19 2 20 3 21 91 22 4 23 21 24
REMARK SMILES IDX 22 25 23 26 24 28 25 29 26 30 90 31 27 32 89 33 28 34 29 35
REMARK SMILES IDX 30 36 83 37 31 38 88 39 82 40 84 41 32 42 87 43 81 44 80 45
REMARK SMILES IDX 33 47 67 48 46 49 66 50 47 51 50 52 65 53 85 54 48 55 49 56
REMARK SMILES IDX 64 58 86 59 51 60 34 61 35 62 44 63 36 64 37 65 43 66 45 67
REMARK SMILES IDX 38 68 39 69 40 70 41 71 42 72 68 73 69 74 78 75 70 76 71 77
REMARK SMILES IDX 77 78 79 79 72 80 73 81 74 82 75 83 76 84 52 85 53 86 62 87
REMARK SMILES IDX 54 88 55 89 61 90 63 91 56 92 57 93 58 94 59 95 60 96
REMARK H PARENT 17 7 6 16 22 27 84 46 50 57
REMARK Flexibility Score: inf
ROOT
ATOM      1  C   UNL A   1      37.435  23.133  25.743  1.00  0.00     0.023 C 
ENDROOT
BRANCH   1   2
ATOM      2  C   UNL A   1      36.439  23.662  24.710  1.00  0.00     0.023 C 
BRANCH   2   3
ATOM      3  C   UNL A   1      35.124  24.155  25.309  1.00  0.00     0.116 C 
BRANCH   3   4
ATOM      4  N   UNL A   1      34.803  23.442  26.530  1.00  0.00    -0.356 N 
ATOM      5  C   UNL A   1      33.747  22.638  26.838  1.00  0.00     0.224 C 
ATOM      6  O   UNL A   1      33.774  22.041  27.918  1.00  0.00    -0.275 OA
ATOM      7  H   UNL A   1      35.456  23.557  27.259  1.00  0.00     0.163 HD
BRANCH   5   8
ATOM      8  C   UNL A   1      32.635  22.363  25.828  1.00  0.00     0.095 C 
ATOM      9  C   UNL A   1      31.963  23.642  25.230  1.00  0.00     0.095 C 
ATOM     10  C   UNL A   1      31.245  23.308  23.924  1.00  0.00     0.041 C 
ATOM     11  C   UNL A   1      31.882  22.317  23.010  1.00  0.00    -0.030 C 
ATOM     12  C   UNL A   1      33.209  21.314  24.844  1.00  0.00     0.041 C 
ATOM     13  C   UNL A   1      32.768  21.414  23.424  1.00  0.00    -0.030 C 
BRANCH   9  14
ATOM     14  C   UNL A   1      31.156  24.356  26.352  1.00  0.00     0.230 C 
ATOM     15  N   UNL A   1      30.937  25.677  26.549  1.00  0.00    -0.302 N 
ATOM     16  H   UNL A   1      30.473  25.883  27.392  1.00  0.00     0.172 HD
ATOM     17  O   UNL A   1      30.686  23.658  27.267  1.00  0.00    -0.274 OA
BRANCH  15  18
ATOM     18  C   UNL A   1      31.239  26.770  25.805  1.00  0.00     0.189 A 
ATOM     19  C   UNL A   1      30.279  29.347  23.541  1.00  0.00     0.068 C 
ATOM     20  C   UNL A   1      31.067  28.547  24.511  1.00  0.00     0.051 A 
ATOM     21  C   UNL A   1      32.188  28.912  25.229  1.00  0.00     0.092 A 
ATOM     22  N   UNL A   1      30.605  27.283  24.794  1.00  0.00    -0.225 NA
ATOM     23  S   UNL A   1      32.610  27.647  26.323  1.00  0.00    -0.105 S 
ENDBRANCH  15  18
ENDBRANCH   9  14
ENDBRANCH   5   8
ENDBRANCH   3   4
ENDBRANCH   2   3
ENDBRANCH   1   2
BRANCH   1  24
ATOM     24  C   UNL A   1      38.356  24.186  26.348  1.00  0.00     0.116 C 
BRANCH  24  25
ATOM     25  N   UNL A   1      39.766  23.868  26.187  1.00  0.00    -0.352 N 
ATOM     26  C   UNL A   1      40.859  24.529  26.700  1.00  0.00     0.251 C 
ATOM     27  H   UNL A   1      39.966  23.075  25.638  1.00  0.00     0.163 HD
ATOM     28  O   UNL A   1      41.990  24.211  26.363  1.00  0.00    -0.269 OA
BRANCH  26  29
ATOM     29  C   UNL A   1      40.639  25.654  27.634  1.00  0.00     0.039 A 
ATOM     30  C   UNL A   1      39.613  25.557  28.576  1.00  0.00     0.014 A 
ATOM     31  C   UNL A   1      41.476  26.772  27.607  1.00  0.00     0.014 A 
ATOM     32  C   UNL A   1      39.473  26.555  29.541  1.00  0.00     0.010 A 
ATOM     33  C   UNL A   1      41.379  27.729  28.612  1.00  0.00     0.010 A 
ATOM     34  C   UNL A   1      40.380  27.628  29.592  1.00  0.00    -0.014 A 
BRANCH  34  35
ATOM     35  C   UNL A   1      40.308  28.646  30.671  1.00  0.00     0.031 A 
ATOM     36  C   UNL A   1      41.184  28.519  31.887  1.00  0.00     0.074 A 
ATOM     37  C   UNL A   1      39.404  29.643  30.587  1.00  0.00     0.049 A 
ATOM     38  N   UNL A   1      41.215  29.261  32.964  1.00  0.00    -0.248 NA
ATOM     39  C   UNL A   1      42.134  27.394  31.908  1.00  0.00     0.031 C 
ATOM     40  C   UNL A   1      38.460  29.839  29.483  1.00  0.00     0.029 A 
ATOM     41  N   UNL A   1      39.120  30.671  31.450  1.00  0.00    -0.354 N 
ATOM     42  C   UNL A   1      42.171  28.687  33.793  1.00  0.00     0.074 A 
ATOM     43  C   UNL A   1      42.662  27.506  33.118  1.00  0.00     0.031 C 
ATOM     44  C   UNL A   1      37.717  30.931  29.728  1.00  0.00     0.029 A 
ATOM     45  C   UNL A   1      38.102  31.491  31.019  1.00  0.00     0.049 A 
ATOM     46  H   UNL A   1      39.599  30.809  32.299  1.00  0.00     0.167 HD
ATOM     47  C   UNL A   1      42.614  29.119  34.997  1.00  0.00     0.037 A 
ATOM     48  C   UNL A   1      37.538  32.566  31.603  1.00  0.00     0.037 A 
ATOM     49  C   UNL A   1      42.142  30.312  35.649  1.00  0.00     0.049 A 
ATOM     50  C   UNL A   1      38.055  33.030  32.938  1.00  0.00     0.074 A 
ATOM     51  C   UNL A   1      42.573  30.869  36.841  1.00  0.00     0.029 A 
ATOM     52  N   UNL A   1      41.133  31.133  35.167  1.00  0.00    -0.354 N 
ATOM     53  N   UNL A   1      39.009  32.513  33.677  1.00  0.00    -0.248 NA
ATOM     54  C   UNL A   1      37.427  34.225  33.517  1.00  0.00     0.031 C 
ATOM     55  C   UNL A   1      41.797  32.003  37.100  1.00  0.00     0.029 A 
ATOM     56  C   UNL A   1      40.916  32.181  36.045  1.00  0.00     0.049 A 
ATOM     57  H   UNL A   1      40.643  30.991  34.324  1.00  0.00     0.167 HD
ATOM     58  C   UNL A   1      39.114  33.338  34.792  1.00  0.00     0.074 A 
ATOM     59  C   UNL A   1      38.136  34.392  34.625  1.00  0.00     0.031 C 
ATOM     60  C   UNL A   1      39.946  33.231  35.857  1.00  0.00     0.037 A 
BRANCH  47  61
ATOM     61  C   UNL A   1      43.674  28.304  35.686  1.00  0.00     0.058 A 
ATOM     62  C   UNL A   1      43.345  27.284  36.594  1.00  0.00     0.135 A 
ATOM     63  C   UNL A   1      45.033  28.508  35.398  1.00  0.00     0.135 A 
ATOM     64  F   UNL A   1      42.061  27.057  36.919  1.00  0.00    -0.206 F 
ATOM     65  C   UNL A   1      44.324  26.511  37.208  1.00  0.00     0.059 A 
ATOM     66  C   UNL A   1      46.029  27.727  35.979  1.00  0.00     0.059 A 
ATOM     67  F   UNL A   1      45.405  29.469  34.538  1.00  0.00    -0.206 F 
ATOM     68  C   UNL A   1      45.664  26.739  36.893  1.00  0.00     0.060 A 
BRANCH  68  69
ATOM     69  S   UNL A   1      46.920  25.712  37.683  1.00  0.00     0.124 S 
ATOM     70  O   UNL A   1      46.964  24.563  36.785  1.00  0.00    -0.237 OA
ATOM     71  O   UNL A   1      48.094  26.579  37.658  1.00  0.00    -0.237 OA
ATOM     72  O   UNL A   1      46.365  25.453  39.008  1.00  0.00    -0.744 OA
ENDBRANCH  68  69
ENDBRANCH  47  61
BRANCH  48  73
ATOM     73  C   UNL A   1      36.433  33.292  30.922  1.00  0.00     0.058 A 
ATOM     74  C   UNL A   1      36.688  34.147  29.840  1.00  0.00     0.135 A 
ATOM     75  C   UNL A   1      35.100  33.147  31.338  1.00  0.00     0.135 A 
ATOM     76  F   UNL A   1      37.947  34.322  29.408  1.00  0.00    -0.206 F 
ATOM     77  C   UNL A   1      35.670  34.852  29.209  1.00  0.00     0.059 A 
ATOM     78  C   UNL A   1      34.058  33.821  30.706  1.00  0.00     0.059 A 
ATOM     79  F   UNL A   1      34.798  32.327  32.357  1.00  0.00    -0.206 F 
ATOM     80  C   UNL A   1      34.356  34.682  29.651  1.00  0.00     0.060 A 
BRANCH  80  81
ATOM     81  S   UNL A   1      33.035  35.577  28.803  1.00  0.00     0.124 S 
ATOM     82  O   UNL A   1      32.274  36.109  29.927  1.00  0.00    -0.237 OA
ATOM     83  O   UNL A   1      33.780  36.554  28.016  1.00  0.00    -0.237 OA
ATOM     84  O   UNL A   1      32.370  34.534  28.027  1.00  0.00    -0.744 OA
ENDBRANCH  80  81
ENDBRANCH  48  73
BRANCH  60  85
ATOM     85  C   UNL A   1      39.866  34.302  36.909  1.00  0.00     0.058 A 
ATOM     86  C   UNL A   1      40.556  35.517  36.780  1.00  0.00     0.135 A 
ATOM     87  C   UNL A   1      39.042  34.131  38.034  1.00  0.00     0.135 A 
ATOM     88  F   UNL A   1      41.361  35.729  35.727  1.00  0.00    -0.206 F 
ATOM     89  C   UNL A   1      40.451  36.516  37.742  1.00  0.00     0.059 A 
ATOM     90  C   UNL A   1      38.901  35.128  38.994  1.00  0.00     0.059 A 
ATOM     91  F   UNL A   1      38.352  32.991  38.200  1.00  0.00    -0.206 F 
ATOM     92  C   UNL A   1      39.618  36.314  38.844  1.00  0.00     0.060 A 
BRANCH  92  93
ATOM     93  S   UNL A   1      39.462  37.633  40.067  1.00  0.00     0.124 S 
ATOM     94  O   UNL A   1      40.728  38.339  39.901  1.00  0.00    -0.237 OA
ATOM     95  O   UNL A   1      38.273  38.345  39.608  1.00  0.00    -0.237 OA
ATOM     96  O   UNL A   1      39.305  36.912  41.326  1.00  0.00    -0.744 OA
ENDBRANCH  92  93
ENDBRANCH  60  85
ENDBRANCH  34  35
ENDBRANCH  26  29
ENDBRANCH  24  25
ENDBRANCH   1  24
TORSDOF 16
ENDMDL
MODEL 2
REMARK VINA RESULT:     -12.0      5.064     10.692
REMARK SMILES Cc1csc(NC(=O)[C@@H]2CC=CC[C@H]2C(=O)NCCCCNC(=O)c2ccc(-c3c4nc(c(-c5c(F)cc(S(=O)(=O)[O-])cc5F)c5ccc([nH]5)c(-c5c(F)cc(S(=O)(=O)[O-])cc5F)c5nc(c(-c6c(F)cc(S(=O)(=O)[O-])cc6F)c6ccc3[nH]6)C=C5)C=C4)cc2)n1
REMARK SMILES IDX 20 1 19 2 18 3 17 4 15 5 16 6 14 8 9 9 10 10 11 11 13 12
REMARK SMILES IDX 12 13 7 14 6 15 8 17 5 18 1 19 2 20 3 21 91 22 4 23 21 24
REMARK SMILES IDX 22 25 23 26 24 28 25 29 26 30 90 31 27 32 89 33 28 34 29 35
REMARK SMILES IDX 30 36 83 37 31 38 88 39 82 40 84 41 32 42 87 43 81 44 80 45
REMARK SMILES IDX 33 47 67 48 46 49 66 50 47 51 50 52 65 53 85 54 48 55 49 56
REMARK SMILES IDX 64 58 86 59 51 60 34 61 35 62 44 63 36 64 37 65 43 66 45 67
REMARK SMILES IDX 38 68 39 69 40 70 41 71 42 72 68 73 69 74 78 75 70 76 71 77
REMARK SMILES IDX 77 78 79 79 72 80 73 81 74 82 75 83 76 84 52 85 53 86 62 87
REMARK SMILES IDX 54 88 55 89 61 90 63 91 56 92 57 93 58 94 59 95 60 96
REMARK H PARENT 17 7 6 16 22 27 84 46 50 57
REMARK Flexibility Score: inf
ROOT
ATOM      1  C   UNL A   1      32.943  28.213  25.900  1.00  0.00     0.023 C 
ENDROOT
BRANCH   1   2
ATOM      2  C   UNL A   1      33.637  27.187  25.003  1.00  0.00     0.023 C 
BRANCH   2   3
ATOM      3  C   UNL A   1      32.832  25.909  24.782  1.00  0.00     0.116 C 
BRANCH   3   4
ATOM      4  N   UNL A   1      33.261  25.217  23.582  1.00  0.00    -0.356 N 
ATOM      5  C   UNL A   1      34.064  24.127  23.424  1.00  0.00     0.224 C 
ATOM      6  O   UNL A   1      34.172  23.652  22.290  1.00  0.00    -0.275 OA
ATOM      7  H   UNL A   1      32.916  25.597  22.742  1.00  0.00     0.163 HD
BRANCH   5   8
ATOM      8  C   UNL A   1      34.694  23.423  24.624  1.00  0.00     0.095 C 
ATOM      9  C   UNL A   1      34.566  21.864  24.609  1.00  0.00     0.095 C 
ATOM     10  C   UNL A   1      35.604  21.235  25.536  1.00  0.00     0.041 C 
ATOM     11  C   UNL A   1      36.955  21.861  25.602  1.00  0.00    -0.030 C 
ATOM     12  C   UNL A   1      36.106  24.037  24.780  1.00  0.00     0.041 C 
ATOM     13  C   UNL A   1      37.184  23.128  25.262  1.00  0.00    -0.030 C 
BRANCH   9  14
ATOM     14  C   UNL A   1      33.071  21.481  24.808  1.00  0.00     0.230 C 
ATOM     15  N   UNL A   1      32.457  20.289  24.625  1.00  0.00    -0.302 N 
ATOM     16  H   UNL A   1      31.478  20.326  24.724  1.00  0.00     0.172 HD
ATOM     17  O   UNL A   1      32.272  22.384  25.107  1.00  0.00    -0.274 OA
BRANCH  15  18
ATOM     18  C   UNL A   1      32.934  19.055  24.330  1.00  0.00     0.189 A 
ATOM     19  C   UNL A   1      34.228  15.898  25.354  1.00  0.00     0.068 C 
ATOM     20  C   UNL A   1      33.665  16.982  24.512  1.00  0.00     0.051 A 
ATOM     21  C   UNL A   1      33.099  16.901  23.255  1.00  0.00     0.092 A 
ATOM     22  N   UNL A   1      33.639  18.244  25.059  1.00  0.00    -0.225 NA
ATOM     23  S   UNL A   1      32.472  18.442  22.803  1.00  0.00    -0.105 S 
ENDBRANCH  15  18
ENDBRANCH   9  14
ENDBRANCH   5   8
ENDBRANCH   3   4
ENDBRANCH   2   3
ENDBRANCH   1   2
BRANCH   1  24
ATOM     24  C   UNL A   1      33.641  28.481  27.229  1.00  0.00     0.116 C 
BRANCH  24  25
ATOM     25  N   UNL A   1      33.546  29.870  27.650  1.00  0.00    -0.352 N 
ATOM     26  C   UNL A   1      34.503  30.648  28.262  1.00  0.00     0.251 C 
ATOM     27  H   UNL A   1      32.684  30.313  27.475  1.00  0.00     0.163 HD
ATOM     28  O   UNL A   1      34.223  31.764  28.674  1.00  0.00    -0.269 OA
BRANCH  26  29
ATOM     29  C   UNL A   1      35.862  30.095  28.446  1.00  0.00     0.039 A 
ATOM     30  C   UNL A   1      36.739  30.088  27.360  1.00  0.00     0.014 A 
ATOM     31  C   UNL A   1      36.277  29.635  29.698  1.00  0.00     0.014 A 
ATOM     32  C   UNL A   1      38.062  29.684  27.550  1.00  0.00     0.010 A 
ATOM     33  C   UNL A   1      37.612  29.301  29.900  1.00  0.00     0.010 A 
ATOM     34  C   UNL A   1      38.519  29.326  28.830  1.00  0.00    -0.014 A 
BRANCH  34  35
ATOM     35  C   UNL A   1      39.945  28.990  29.071  1.00  0.00     0.031 A 
ATOM     36  C   UNL A   1      40.886  30.034  29.607  1.00  0.00     0.074 A 
ATOM     37  C   UNL A   1      40.406  27.766  28.740  1.00  0.00     0.049 A 
ATOM     38  N   UNL A   1      42.175  29.956  29.813  1.00  0.00    -0.248 NA
ATOM     39  C   UNL A   1      40.307  31.349  29.928  1.00  0.00     0.031 C 
ATOM     40  C   UNL A   1      39.601  26.687  28.161  1.00  0.00     0.029 A 
ATOM     41  N   UNL A   1      41.664  27.227  28.832  1.00  0.00    -0.354 N 
ATOM     42  C   UNL A   1      42.563  31.208  30.272  1.00  0.00     0.074 A 
ATOM     43  C   UNL A   1      41.383  32.045  30.267  1.00  0.00     0.031 C 
ATOM     44  C   UNL A   1      40.382  25.611  27.968  1.00  0.00     0.029 A 
ATOM     45  C   UNL A   1      41.747  25.933  28.372  1.00  0.00     0.049 A 
ATOM     46  H   UNL A   1      42.437  27.721  29.192  1.00  0.00     0.167 HD
ATOM     47  C   UNL A   1      43.787  31.617  30.682  1.00  0.00     0.037 A 
ATOM     48  C   UNL A   1      42.804  25.103  28.279  1.00  0.00     0.037 A 
ATOM     49  C   UNL A   1      44.950  30.770  30.713  1.00  0.00     0.049 A 
ATOM     50  C   UNL A   1      44.152  25.580  28.749  1.00  0.00     0.074 A 
ATOM     51  C   UNL A   1      46.222  31.072  31.171  1.00  0.00     0.029 A 
ATOM     52  N   UNL A   1      44.988  29.457  30.269  1.00  0.00    -0.354 N 
ATOM     53  N   UNL A   1      44.486  26.747  29.245  1.00  0.00    -0.248 NA
ATOM     54  C   UNL A   1      45.265  24.626  28.655  1.00  0.00     0.031 C 
ATOM     55  C   UNL A   1      47.037  29.954  30.965  1.00  0.00     0.029 A 
ATOM     56  C   UNL A   1      46.263  28.940  30.425  1.00  0.00     0.049 A 
ATOM     57  H   UNL A   1      44.220  28.964  29.897  1.00  0.00     0.167 HD
ATOM     58  C   UNL A   1      45.840  26.658  29.549  1.00  0.00     0.074 A 
ATOM     59  C   UNL A   1      46.260  25.319  29.192  1.00  0.00     0.031 C 
ATOM     60  C   UNL A   1      46.661  27.599  30.076  1.00  0.00     0.037 A 
BRANCH  47  61
ATOM     61  C   UNL A   1      43.931  33.041  31.144  1.00  0.00     0.058 A 
ATOM     62  C   UNL A   1      44.317  34.064  30.264  1.00  0.00     0.135 A 
ATOM     63  C   UNL A   1      43.630  33.398  32.468  1.00  0.00     0.135 A 
ATOM     64  F   UNL A   1      44.634  33.778  28.990  1.00  0.00    -0.206 F 
ATOM     65  C   UNL A   1      44.422  35.386  30.684  1.00  0.00     0.059 A 
ATOM     66  C   UNL A   1      43.700  34.718  32.904  1.00  0.00     0.059 A 
ATOM     67  F   UNL A   1      43.256  32.459  33.353  1.00  0.00    -0.206 F 
ATOM     68  C   UNL A   1      44.109  35.704  32.006  1.00  0.00     0.060 A 
BRANCH  68  69
ATOM     69  S   UNL A   1      44.229  37.427  32.529  1.00  0.00     0.124 S 
ATOM     70  O   UNL A   1      43.294  37.458  33.648  1.00  0.00    -0.237 OA
ATOM     71  O   UNL A   1      45.641  37.550  32.880  1.00  0.00    -0.237 OA
ATOM     72  O   UNL A   1      43.815  38.172  31.344  1.00  0.00    -0.744 OA
ENDBRANCH  68  69
ENDBRANCH  47  61
BRANCH  48  73
ATOM     73  C   UNL A   1      42.630  23.729  27.735  1.00  0.00     0.058 A 
ATOM     74  C   UNL A   1      42.650  23.491  26.354  1.00  0.00     0.135 A 
ATOM     75  C   UNL A   1      42.440  22.628  28.585  1.00  0.00     0.135 A 
ATOM     76  F   UNL A   1      42.824  24.512  25.501  1.00  0.00    -0.206 F 
ATOM     77  C   UNL A   1      42.465  22.217  25.829  1.00  0.00     0.059 A 
ATOM     78  C   UNL A   1      42.278  21.338  28.086  1.00  0.00     0.059 A 
ATOM     79  F   UNL A   1      42.431  22.798  29.916  1.00  0.00    -0.206 F 
ATOM     80  C   UNL A   1      42.279  21.145  26.705  1.00  0.00     0.060 A 
BRANCH  80  81
ATOM     81  S   UNL A   1      42.072  19.488  26.015  1.00  0.00     0.124 S 
ATOM     82  O   UNL A   1      42.536  18.653  27.115  1.00  0.00    -0.237 OA
ATOM     83  O   UNL A   1      40.639  19.446  25.741  1.00  0.00    -0.237 OA
ATOM     84  O   UNL A   1      42.927  19.510  24.833  1.00  0.00    -0.744 OA
ENDBRANCH  80  81
ENDBRANCH  48  73
BRANCH  60  85
ATOM     85  C   UNL A   1      48.088  27.206  30.339  1.00  0.00     0.058 A 
ATOM     86  C   UNL A   1      49.116  27.506  29.432  1.00  0.00     0.135 A 
ATOM     87  C   UNL A   1      48.438  26.568  31.541  1.00  0.00     0.135 A 
ATOM     88  F   UNL A   1      48.835  28.109  28.267  1.00  0.00    -0.206 F 
ATOM     89  C   UNL A   1      50.439  27.168  29.698  1.00  0.00     0.059 A 
ATOM     90  C   UNL A   1      49.757  26.246  31.840  1.00  0.00     0.059 A 
ATOM     91  F   UNL A   1      47.493  26.268  32.447  1.00  0.00    -0.206 F 
ATOM     92  C   UNL A   1      50.750  26.540  30.906  1.00  0.00     0.060 A 
BRANCH  92  93
ATOM     93  S   UNL A   1      52.476  26.139  31.255  1.00  0.00     0.124 S 
ATOM     94  O   UNL A   1      52.877  27.266  32.091  1.00  0.00    -0.237 OA
ATOM     95  O   UNL A   1      52.366  24.853  31.936  1.00  0.00    -0.237 OA
ATOM     96  O   UNL A   1      53.088  26.090  29.931  1.00  0.00    -0.744 OA
ENDBRANCH  92  93
ENDBRANCH  60  85
ENDBRANCH  34  35
ENDBRANCH  26  29
ENDBRANCH  24  25
ENDBRANCH   1  24
TORSDOF 16
ENDMDL
MODEL 3
REMARK VINA RESULT:     -12.0      4.766     10.207
REMARK SMILES Cc1csc(NC(=O)[C@@H]2CC=CC[C@H]2C(=O)NCCCCNC(=O)c2ccc(-c3c4nc(c(-c5c(F)cc(S(=O)(=O)[O-])cc5F)c5ccc([nH]5)c(-c5c(F)cc(S(=O)(=O)[O-])cc5F)c5nc(c(-c6c(F)cc(S(=O)(=O)[O-])cc6F)c6ccc3[nH]6)C=C5)C=C4)cc2)n1
REMARK SMILES IDX 20 1 19 2 18 3 17 4 15 5 16 6 14 8 9 9 10 10 11 11 13 12
REMARK SMILES IDX 12 13 7 14 6 15 8 17 5 18 1 19 2 20 3 21 91 22 4 23 21 24
REMARK SMILES IDX 22 25 23 26 24 28 25 29 26 30 90 31 27 32 89 33 28 34 29 35
REMARK SMILES IDX 30 36 83 37 31 38 88 39 82 40 84 41 32 42 87 43 81 44 80 45
REMARK SMILES IDX 33 47 67 48 46 49 66 50 47 51 50 52 65 53 85 54 48 55 49 56
REMARK SMILES IDX 64 58 86 59 51 60 34 61 35 62 44 63 36 64 37 65 43 66 45 67
REMARK SMILES IDX 38 68 39 69 40 70 41 71 42 72 68 73 69 74 78 75 70 76 71 77
REMARK SMILES IDX 77 78 79 79 72 80 73 81 74 82 75 83 76 84 52 85 53 86 62 87
REMARK SMILES IDX 54 88 55 89 61 90 63 91 56 92 57 93 58 94 59 95 60 96
REMARK H PARENT 17 7 6 16 22 27 84 46 50 57
REMARK Flexibility Score: inf
ROOT
ATOM      1  C   UNL A   1      32.876  27.993  26.228  1.00  0.00     0.023 C 
ENDROOT
BRANCH   1   2
ATOM      2  C   UNL A   1      33.990  27.653  25.237  1.00  0.00     0.023 C 
BRANCH   2   3
ATOM      3  C   UNL A   1      34.013  26.189  24.804  1.00  0.00     0.116 C 
BRANCH   3   4
ATOM      4  N   UNL A   1      33.227  25.363  25.701  1.00  0.00    -0.356 N 
ATOM      5  C   UNL A   1      33.309  24.033  25.984  1.00  0.00     0.224 C 
ATOM      6  O   UNL A   1      32.597  23.593  26.892  1.00  0.00    -0.275 OA
ATOM      7  H   UNL A   1      32.517  25.843  26.187  1.00  0.00     0.163 HD
BRANCH   5   8
ATOM      8  C   UNL A   1      34.345  23.138  25.309  1.00  0.00     0.095 C 
ATOM      9  C   UNL A   1      34.341  23.193  23.747  1.00  0.00     0.095 C 
ATOM     10  C   UNL A   1      35.668  22.683  23.190  1.00  0.00     0.041 C 
ATOM     11  C   UNL A   1      36.915  23.021  23.934  1.00  0.00    -0.030 C 
ATOM     12  C   UNL A   1      35.681  23.410  26.044  1.00  0.00     0.041 C 
ATOM     13  C   UNL A   1      36.923  23.348  25.225  1.00  0.00    -0.030 C 
BRANCH   9  14
ATOM     14  C   UNL A   1      33.026  22.547  23.225  1.00  0.00     0.230 C 
ATOM     15  N   UNL A   1      31.865  23.135  22.852  1.00  0.00    -0.302 N 
ATOM     16  H   UNL A   1      31.142  22.499  22.651  1.00  0.00     0.172 HD
ATOM     17  O   UNL A   1      32.956  21.306  23.199  1.00  0.00    -0.274 OA
BRANCH  15  18
ATOM     18  C   UNL A   1      31.511  24.436  22.706  1.00  0.00     0.189 A 
ATOM     19  C   UNL A   1      30.091  27.433  24.006  1.00  0.00     0.068 C 
ATOM     20  C   UNL A   1      30.814  26.487  23.122  1.00  0.00     0.051 A 
ATOM     21  C   UNL A   1      31.676  26.759  22.078  1.00  0.00     0.092 A 
ATOM     22  N   UNL A   1      30.669  25.147  23.394  1.00  0.00    -0.225 NA
ATOM     23  S   UNL A   1      32.353  25.287  21.488  1.00  0.00    -0.105 S 
ENDBRANCH  15  18
ENDBRANCH   9  14
ENDBRANCH   5   8
ENDBRANCH   3   4
ENDBRANCH   2   3
ENDBRANCH   1   2
BRANCH   1  24
ATOM     24  C   UNL A   1      33.355  28.468  27.595  1.00  0.00     0.116 C 
BRANCH  24  25
ATOM     25  N   UNL A   1      33.333  29.916  27.732  1.00  0.00    -0.352 N 
ATOM     26  C   UNL A   1      34.351  30.756  28.120  1.00  0.00     0.251 C 
ATOM     27  H   UNL A   1      32.477  30.354  27.519  1.00  0.00     0.163 HD
ATOM     28  O   UNL A   1      34.135  31.944  28.314  1.00  0.00    -0.269 OA
BRANCH  26  29
ATOM     29  C   UNL A   1      35.700  30.191  28.336  1.00  0.00     0.039 A 
ATOM     30  C   UNL A   1      36.597  30.157  27.267  1.00  0.00     0.014 A 
ATOM     31  C   UNL A   1      36.087  29.744  29.602  1.00  0.00     0.014 A 
ATOM     32  C   UNL A   1      37.911  29.741  27.487  1.00  0.00     0.010 A 
ATOM     33  C   UNL A   1      37.415  29.397  29.834  1.00  0.00     0.010 A 
ATOM     34  C   UNL A   1      38.340  29.396  28.780  1.00  0.00    -0.014 A 
BRANCH  34  35
ATOM     35  C   UNL A   1      39.758  29.047  29.052  1.00  0.00     0.031 A 
ATOM     36  C   UNL A   1      40.694  30.079  29.618  1.00  0.00     0.074 A 
ATOM     37  C   UNL A   1      40.217  27.822  28.722  1.00  0.00     0.049 A 
ATOM     38  N   UNL A   1      41.977  29.989  29.854  1.00  0.00    -0.248 NA
ATOM     39  C   UNL A   1      40.118  31.396  29.937  1.00  0.00     0.031 C 
ATOM     40  C   UNL A   1      39.419  26.754  28.114  1.00  0.00     0.029 A 
ATOM     41  N   UNL A   1      41.469  27.272  28.838  1.00  0.00    -0.354 N 
ATOM     42  C   UNL A   1      42.364  31.235  30.333  1.00  0.00     0.074 A 
ATOM     43  C   UNL A   1      41.190  32.080  30.307  1.00  0.00     0.031 C 
ATOM     44  C   UNL A   1      40.195  25.674  27.931  1.00  0.00     0.029 A 
ATOM     45  C   UNL A   1      41.553  25.982  28.369  1.00  0.00     0.049 A 
ATOM     46  H   UNL A   1      42.236  27.757  29.221  1.00  0.00     0.167 HD
ATOM     47  C   UNL A   1      43.581  31.630  30.775  1.00  0.00     0.037 A 
ATOM     48  C   UNL A   1      42.605  25.145  28.294  1.00  0.00     0.037 A 
ATOM     49  C   UNL A   1      44.737  30.774  30.826  1.00  0.00     0.049 A 
ATOM     50  C   UNL A   1      43.945  25.607  28.800  1.00  0.00     0.074 A 
ATOM     51  C   UNL A   1      45.999  31.063  31.316  1.00  0.00     0.029 A 
ATOM     52  N   UNL A   1      44.775  29.465  30.372  1.00  0.00    -0.354 N 
ATOM     53  N   UNL A   1      44.277  26.768  29.314  1.00  0.00    -0.248 NA
ATOM     54  C   UNL A   1      45.054  24.645  28.724  1.00  0.00     0.031 C 
ATOM     55  C   UNL A   1      46.811  29.940  31.120  1.00  0.00     0.029 A 
ATOM     56  C   UNL A   1      46.041  28.936  30.554  1.00  0.00     0.049 A 
ATOM     57  H   UNL A   1      44.012  28.981  29.978  1.00  0.00     0.167 HD
ATOM     58  C   UNL A   1      45.622  26.665  29.649  1.00  0.00     0.074 A 
ATOM     59  C   UNL A   1      46.041  25.326  29.290  1.00  0.00     0.031 C 
ATOM     60  C   UNL A   1      46.438  27.595  30.203  1.00  0.00     0.037 A 
BRANCH  47  61
ATOM     61  C   UNL A   1      43.725  33.050  31.252  1.00  0.00     0.058 A 
ATOM     62  C   UNL A   1      43.528  33.398  32.597  1.00  0.00     0.135 A 
ATOM     63  C   UNL A   1      44.116  34.066  30.364  1.00  0.00     0.135 A 
ATOM     64  F   UNL A   1      43.137  32.470  33.486  1.00  0.00    -0.206 F 
ATOM     65  C   UNL A   1      43.690  34.705  33.043  1.00  0.00     0.059 A 
ATOM     66  C   UNL A   1      44.312  35.376  30.794  1.00  0.00     0.059 A 
ATOM     67  F   UNL A   1      44.318  33.789  29.066  1.00  0.00    -0.206 F 
ATOM     68  C   UNL A   1      44.084  35.688  32.133  1.00  0.00     0.060 A 
BRANCH  68  69
ATOM     69  S   UNL A   1      44.311  37.374  32.733  1.00  0.00     0.124 S 
ATOM     70  O   UNL A   1      45.648  37.300  33.312  1.00  0.00    -0.237 OA
ATOM     71  O   UNL A   1      44.195  38.160  31.508  1.00  0.00    -0.237 OA
ATOM     72  O   UNL A   1      43.221  37.546  33.689  1.00  0.00    -0.744 OA
ENDBRANCH  68  69
ENDBRANCH  47  61
BRANCH  48  73
ATOM     73  C   UNL A   1      42.434  23.776  27.735  1.00  0.00     0.058 A 
ATOM     74  C   UNL A   1      42.313  22.662  28.578  1.00  0.00     0.135 A 
ATOM     75  C   UNL A   1      42.389  23.555  26.350  1.00  0.00     0.135 A 
ATOM     76  F   UNL A   1      42.355  22.822  29.910  1.00  0.00    -0.206 F 
ATOM     77  C   UNL A   1      42.178  21.374  28.071  1.00  0.00     0.059 A 
ATOM     78  C   UNL A   1      42.228  22.279  25.818  1.00  0.00     0.059 A 
ATOM     79  F   UNL A   1      42.482  24.589  25.499  1.00  0.00    -0.206 F 
ATOM     80  C   UNL A   1      42.136  21.193  26.687  1.00  0.00     0.060 A 
BRANCH  80  81
ATOM     81  S   UNL A   1      41.927  19.520  26.039  1.00  0.00     0.124 S 
ATOM     82  O   UNL A   1      42.794  19.549  24.868  1.00  0.00    -0.237 OA
ATOM     83  O   UNL A   1      42.385  18.698  27.154  1.00  0.00    -0.237 OA
ATOM     84  O   UNL A   1      40.495  19.446  25.764  1.00  0.00    -0.744 OA
ENDBRANCH  80  81
ENDBRANCH  48  73
BRANCH  60  85
ATOM     85  C   UNL A   1      47.855  27.189  30.496  1.00  0.00     0.058 A 
ATOM     86  C   UNL A   1      48.901  27.456  29.599  1.00  0.00     0.135 A 
ATOM     87  C   UNL A   1      48.178  26.572  31.716  1.00  0.00     0.135 A 
ATOM     88  F   UNL A   1      48.646  28.038  28.417  1.00  0.00    -0.206 F 
ATOM     89  C   UNL A   1      50.215  27.106  29.892  1.00  0.00     0.059 A 
ATOM     90  C   UNL A   1      49.488  26.239  32.042  1.00  0.00     0.059 A 
ATOM     91  F   UNL A   1      47.216  26.304  32.614  1.00  0.00    -0.206 F 
ATOM     92  C   UNL A   1      50.499  26.500  31.118  1.00  0.00     0.060 A 
BRANCH  92  93
ATOM     93  S   UNL A   1      52.214  26.084  31.502  1.00  0.00     0.124 S 
ATOM     94  O   UNL A   1      52.092  24.689  31.914  1.00  0.00    -0.237 OA
ATOM     95  O   UNL A   1      52.884  26.311  30.225  1.00  0.00    -0.237 OA
ATOM     96  O   UNL A   1      52.563  27.025  32.561  1.00  0.00    -0.744 OA
ENDBRANCH  92  93
ENDBRANCH  60  85
ENDBRANCH  34  35
ENDBRANCH  26  29
ENDBRANCH  24  25
ENDBRANCH   1  24
TORSDOF 16
ENDMDL
