MODEL 1
REMARK VINA RESULT:     -12.1      0.000      0.000
REMARK SMILES CC[C@@H](C(=O)NCCCCNC(=O)c1ccc(-c2c3nc(c(-c4c(F)cc(S(=O)(=O)[O-])cc4F)c4ccc([nH]4)c(-c4c(F)cc(S(=O)(=O)[O-])cc4F)c4nc(c(-c5c(F)cc(S(=O)(=O)[O-])cc5F)c5ccc2[nH]5)C=C4)C=C3)cc1)N1CCN(Cc2cccc(C)c2)C(=O)C1=O
REMARK SMILES IDX 8 1 7 2 6 3 4 4 5 5 3 7 2 8 1 9 80 10 81 11 94 12 82 13
REMARK SMILES IDX 92 14 95 15 83 16 93 17 84 18 85 19 86 20 91 21 87 22 89 23
REMARK SMILES IDX 88 24 90 25 9 26 10 27 11 28 12 29 13 31 14 32 15 33 79 34
REMARK SMILES IDX 16 35 78 36 17 37 18 38 19 39 72 40 20 41 77 42 71 43 73 44
REMARK SMILES IDX 21 45 76 46 70 47 69 48 22 50 56 51 35 52 55 53 36 54 39 55
REMARK SMILES IDX 54 56 74 57 37 58 38 59 53 61 75 62 40 63 23 64 24 65 33 66
REMARK SMILES IDX 25 67 26 68 32 69 34 70 27 71 28 72 29 73 30 74 31 75 57 76
REMARK SMILES IDX 58 77 67 78 59 79 60 80 66 81 68 82 61 83 62 84 63 85 64 86
REMARK SMILES IDX 65 87 41 88 42 89 51 90 43 91 44 92 50 93 52 94 45 95 46 96
REMARK SMILES IDX 47 97 48 98 49 99
REMARK H PARENT 6 6 11 30 73 49 39 60
REMARK Flexibility Score: inf
ROOT
ATOM      1  C   UNL A   1      37.490  22.056  25.188  1.00  0.00     0.023 C 
ENDROOT
BRANCH   1   2
ATOM      2  C   UNL A   1      36.137  21.340  25.233  1.00  0.00     0.116 C 
BRANCH   2   3
ATOM      3  N   UNL A   1      35.530  21.481  26.546  1.00  0.00    -0.354 N 
ATOM      4  C   UNL A   1      34.253  21.825  26.900  1.00  0.00     0.242 C 
ATOM      5  O   UNL A   1      34.025  22.065  28.089  1.00  0.00    -0.273 OA
ATOM      6  H   UNL A   1      36.134  21.301  27.303  1.00  0.00     0.163 HD
BRANCH   4   7
ATOM      7  C   UNL A   1      33.146  21.936  25.821  1.00  0.00     0.174 C 
BRANCH   7   8
ATOM      8  C   UNL A   1      33.570  21.250  24.502  1.00  0.00     0.032 C 
ATOM      9  C   UNL A   1      32.651  21.339  23.305  1.00  0.00     0.006 C 
ENDBRANCH   7   8
BRANCH   7  10
ATOM     10  N   UNL A   1      32.822  23.380  25.613  1.00  0.00    -0.321 N 
ATOM     11  C   UNL A   1      33.829  24.355  25.217  1.00  0.00     0.142 C 
ATOM     12  C   UNL A   1      31.488  23.831  25.671  1.00  0.00     0.312 C 
ATOM     13  C   UNL A   1      33.267  25.139  24.042  1.00  0.00     0.142 C 
ATOM     14  C   UNL A   1      31.261  25.381  25.392  1.00  0.00     0.312 C 
ATOM     15  O   UNL A   1      30.532  23.087  25.852  1.00  0.00    -0.263 OA
ATOM     16  N   UNL A   1      32.203  25.983  24.542  1.00  0.00    -0.328 N 
ATOM     17  O   UNL A   1      30.315  25.977  25.890  1.00  0.00    -0.263 OA
BRANCH  16  18
ATOM     18  C   UNL A   1      32.107  27.384  24.132  1.00  0.00     0.155 C 
BRANCH  18  19
ATOM     19  C   UNL A   1      32.467  28.364  25.234  1.00  0.00    -0.028 A 
ATOM     20  C   UNL A   1      33.633  28.195  25.990  1.00  0.00     0.005 A 
ATOM     21  C   UNL A   1      31.668  29.494  25.492  1.00  0.00     0.009 A 
ATOM     22  C   UNL A   1      33.998  29.140  26.953  1.00  0.00     0.001 A 
ATOM     23  C   UNL A   1      32.082  30.499  26.374  1.00  0.00    -0.051 A 
ATOM     24  C   UNL A   1      33.237  30.296  27.131  1.00  0.00     0.003 A 
ATOM     25  C   UNL A   1      31.300  31.774  26.498  1.00  0.00     0.044 C 
ENDBRANCH  18  19
ENDBRANCH  16  18
ENDBRANCH   7  10
ENDBRANCH   4   7
ENDBRANCH   2   3
ENDBRANCH   1   2
BRANCH   1  26
ATOM     26  C   UNL A   1      37.415  23.565  25.378  1.00  0.00     0.023 C 
BRANCH  26  27
ATOM     27  C   UNL A   1      38.298  24.092  26.497  1.00  0.00     0.116 C 
BRANCH  27  28
ATOM     28  N   UNL A   1      39.720  23.924  26.223  1.00  0.00    -0.352 N 
ATOM     29  C   UNL A   1      40.779  24.693  26.647  1.00  0.00     0.251 C 
ATOM     30  H   UNL A   1      39.955  23.154  25.657  1.00  0.00     0.163 HD
ATOM     31  O   UNL A   1      41.907  24.481  26.216  1.00  0.00    -0.269 OA
BRANCH  29  32
ATOM     32  C   UNL A   1      40.531  25.797  27.596  1.00  0.00     0.039 A 
ATOM     33  C   UNL A   1      39.589  25.622  28.612  1.00  0.00     0.014 A 
ATOM     34  C   UNL A   1      41.272  26.978  27.512  1.00  0.00     0.014 A 
ATOM     35  C   UNL A   1      39.452  26.602  29.596  1.00  0.00     0.010 A 
ATOM     36  C   UNL A   1      41.196  27.910  28.539  1.00  0.00     0.010 A 
ATOM     37  C   UNL A   1      40.284  27.734  29.589  1.00  0.00    -0.014 A 
BRANCH  37  38
ATOM     38  C   UNL A   1      40.214  28.759  30.659  1.00  0.00     0.031 A 
ATOM     39  C   UNL A   1      41.104  28.633  31.865  1.00  0.00     0.074 A 
ATOM     40  C   UNL A   1      39.297  29.743  30.588  1.00  0.00     0.049 A 
ATOM     41  N   UNL A   1      41.115  29.346  32.961  1.00  0.00    -0.248 NA
ATOM     42  C   UNL A   1      42.084  27.535  31.854  1.00  0.00     0.031 C 
ATOM     43  C   UNL A   1      38.336  29.933  29.497  1.00  0.00     0.029 A 
ATOM     44  N   UNL A   1      39.013  30.764  31.459  1.00  0.00    -0.354 N 
ATOM     45  C   UNL A   1      42.077  28.764  33.778  1.00  0.00     0.074 A 
ATOM     46  C   UNL A   1      42.592  27.612  33.074  1.00  0.00     0.031 C 
ATOM     47  C   UNL A   1      37.586  31.017  29.755  1.00  0.00     0.029 A 
ATOM     48  C   UNL A   1      37.989  31.581  31.040  1.00  0.00     0.049 A 
ATOM     49  H   UNL A   1      39.496  30.899  32.306  1.00  0.00     0.167 HD
ATOM     50  C   UNL A   1      42.509  29.168  34.997  1.00  0.00     0.037 A 
ATOM     51  C   UNL A   1      37.438  32.660  31.627  1.00  0.00     0.037 A 
ATOM     52  C   UNL A   1      42.031  30.346  35.668  1.00  0.00     0.049 A 
ATOM     53  C   UNL A   1      37.972  33.121  32.955  1.00  0.00     0.074 A 
ATOM     54  C   UNL A   1      42.451  30.882  36.872  1.00  0.00     0.029 A 
ATOM     55  N   UNL A   1      41.034  31.179  35.183  1.00  0.00    -0.354 N 
ATOM     56  N   UNL A   1      38.917  32.588  33.693  1.00  0.00    -0.248 NA
ATOM     57  C   UNL A   1      37.371  34.333  33.530  1.00  0.00     0.031 C 
ATOM     58  C   UNL A   1      41.694  32.033  37.124  1.00  0.00     0.029 A 
ATOM     59  C   UNL A   1      40.823  32.227  36.063  1.00  0.00     0.049 A 
ATOM     60  H   UNL A   1      40.547  31.046  34.337  1.00  0.00     0.167 HD
ATOM     61  C   UNL A   1      39.039  33.410  34.806  1.00  0.00     0.074 A 
ATOM     62  C   UNL A   1      38.078  34.482  34.641  1.00  0.00     0.031 C 
ATOM     63  C   UNL A   1      39.870  33.289  35.871  1.00  0.00     0.037 A 
BRANCH  50  64
ATOM     64  C   UNL A   1      43.563  28.332  35.665  1.00  0.00     0.058 A 
ATOM     65  C   UNL A   1      44.928  28.530  35.405  1.00  0.00     0.135 A 
ATOM     66  C   UNL A   1      43.208  27.326  36.577  1.00  0.00     0.135 A 
ATOM     67  F   UNL A   1      45.320  29.466  34.525  1.00  0.00    -0.206 F 
ATOM     68  C   UNL A   1      45.904  27.737  35.999  1.00  0.00     0.059 A 
ATOM     69  C   UNL A   1      44.169  26.537  37.203  1.00  0.00     0.059 A 
ATOM     70  F   UNL A   1      41.916  27.095  36.860  1.00  0.00    -0.206 F 
ATOM     71  C   UNL A   1      45.513  26.739  36.892  1.00  0.00     0.060 A 
BRANCH  71  72
ATOM     72  S   UNL A   1      46.789  25.710  37.649  1.00  0.00     0.124 S 
ATOM     73  O   UNL A   1      47.955  26.052  36.840  1.00  0.00    -0.237 OA
ATOM     74  O   UNL A   1      46.810  26.193  39.025  1.00  0.00    -0.237 OA
ATOM     75  O   UNL A   1      46.278  24.353  37.473  1.00  0.00    -0.744 OA
ENDBRANCH  71  72
ENDBRANCH  50  64
BRANCH  51  76
ATOM     76  C   UNL A   1      36.347  33.403  30.945  1.00  0.00     0.058 A 
ATOM     77  C   UNL A   1      35.032  33.343  31.427  1.00  0.00     0.135 A 
ATOM     78  C   UNL A   1      36.596  34.197  29.817  1.00  0.00     0.135 A 
ATOM     79  F   UNL A   1      34.746  32.593  32.503  1.00  0.00    -0.206 F 
ATOM     80  C   UNL A   1      33.996  34.032  30.806  1.00  0.00     0.059 A 
ATOM     81  C   UNL A   1      35.580  34.911  29.188  1.00  0.00     0.059 A 
ATOM     82  F   UNL A   1      37.843  34.299  29.328  1.00  0.00    -0.206 F 
ATOM     83  C   UNL A   1      34.280  34.815  29.685  1.00  0.00     0.060 A 
BRANCH  83  84
ATOM     84  S   UNL A   1      32.940  35.748  28.914  1.00  0.00     0.124 S 
ATOM     85  O   UNL A   1      32.335  34.736  28.055  1.00  0.00    -0.237 OA
ATOM     86  O   UNL A   1      32.148  36.162  30.068  1.00  0.00    -0.237 OA
ATOM     87  O   UNL A   1      33.639  36.828  28.226  1.00  0.00    -0.744 OA
ENDBRANCH  83  84
ENDBRANCH  51  76
BRANCH  63  88
ATOM     88  C   UNL A   1      39.799  34.356  36.923  1.00  0.00     0.058 A 
ATOM     89  C   UNL A   1      39.006  34.202  38.069  1.00  0.00     0.135 A 
ATOM     90  C   UNL A   1      40.577  35.519  36.808  1.00  0.00     0.135 A 
ATOM     91  F   UNL A   1      38.240  33.110  38.220  1.00  0.00    -0.206 F 
ATOM     92  C   UNL A   1      38.974  35.175  39.063  1.00  0.00     0.059 A 
ATOM     93  C   UNL A   1      40.576  36.495  37.798  1.00  0.00     0.059 A 
ATOM     94  F   UNL A   1      41.357  35.706  35.732  1.00  0.00    -0.206 F 
ATOM     95  C   UNL A   1      39.762  36.318  38.918  1.00  0.00     0.060 A 
BRANCH  95  96
ATOM     96  S   UNL A   1      39.748  37.557  40.231  1.00  0.00     0.124 S 
ATOM     97  O   UNL A   1      39.083  36.833  41.309  1.00  0.00    -0.237 OA
ATOM     98  O   UNL A   1      41.169  37.824  40.431  1.00  0.00    -0.237 OA
ATOM     99  O   UNL A   1      38.987  38.658  39.649  1.00  0.00    -0.744 OA
ENDBRANCH  95  96
ENDBRANCH  63  88
ENDBRANCH  37  38
ENDBRANCH  29  32
ENDBRANCH  27  28
ENDBRANCH  26  27
ENDBRANCH   1  26
TORSDOF 18
ENDMDL
MODEL 2
REMARK VINA RESULT:     -12.0      6.450     11.978
REMARK SMILES CC[C@@H](C(=O)NCCCCNC(=O)c1ccc(-c2c3nc(c(-c4c(F)cc(S(=O)(=O)[O-])cc4F)c4ccc([nH]4)c(-c4c(F)cc(S(=O)(=O)[O-])cc4F)c4nc(c(-c5c(F)cc(S(=O)(=O)[O-])cc5F)c5ccc2[nH]5)C=C4)C=C3)cc1)N1CCN(Cc2cccc(C)c2)C(=O)C1=O
REMARK SMILES IDX 8 1 7 2 6 3 4 4 5 5 3 7 2 8 1 9 80 10 81 11 94 12 82 13
REMARK SMILES IDX 92 14 95 15 83 16 93 17 84 18 85 19 86 20 91 21 87 22 89 23
REMARK SMILES IDX 88 24 90 25 9 26 10 27 11 28 12 29 13 31 14 32 15 33 79 34
REMARK SMILES IDX 16 35 78 36 17 37 18 38 19 39 72 40 20 41 77 42 71 43 73 44
REMARK SMILES IDX 21 45 76 46 70 47 69 48 22 50 56 51 35 52 55 53 36 54 39 55
REMARK SMILES IDX 54 56 74 57 37 58 38 59 53 61 75 62 40 63 23 64 24 65 33 66
REMARK SMILES IDX 25 67 26 68 32 69 34 70 27 71 28 72 29 73 30 74 31 75 57 76
REMARK SMILES IDX 58 77 67 78 59 79 60 80 66 81 68 82 61 83 62 84 63 85 64 86
REMARK SMILES IDX 65 87 41 88 42 89 51 90 43 91 44 92 50 93 52 94 45 95 46 96
REMARK SMILES IDX 47 97 48 98 49 99
REMARK H PARENT 6 6 11 30 73 49 39 60
REMARK Flexibility Score: inf
ROOT
ATOM      1  C   UNL A   1      32.857  29.389  26.931  1.00  0.00     0.023 C 
ENDROOT
BRANCH   1   2
ATOM      2  C   UNL A   1      32.206  29.454  25.547  1.00  0.00     0.116 C 
BRANCH   2   3
ATOM      3  N   UNL A   1      33.220  29.548  24.510  1.00  0.00    -0.354 N 
ATOM      4  C   UNL A   1      33.469  28.736  23.436  1.00  0.00     0.242 C 
ATOM      5  O   UNL A   1      34.511  28.917  22.800  1.00  0.00    -0.273 OA
ATOM      6  H   UNL A   1      33.826  30.320  24.594  1.00  0.00     0.163 HD
BRANCH   4   7
ATOM      7  C   UNL A   1      32.474  27.607  23.064  1.00  0.00     0.174 C 
BRANCH   7   8
ATOM      8  C   UNL A   1      31.087  27.840  23.703  1.00  0.00     0.032 C 
ATOM      9  C   UNL A   1      29.950  28.315  22.828  1.00  0.00     0.006 C 
ENDBRANCH   7   8
BRANCH   7  10
ATOM     10  N   UNL A   1      33.060  26.296  23.479  1.00  0.00    -0.321 N 
ATOM     11  C   UNL A   1      33.113  25.873  24.872  1.00  0.00     0.142 C 
ATOM     12  C   UNL A   1      33.474  25.357  22.513  1.00  0.00     0.312 C 
ATOM     13  C   UNL A   1      32.560  24.458  24.940  1.00  0.00     0.142 C 
ATOM     14  C   UNL A   1      34.043  23.981  23.074  1.00  0.00     0.312 C 
ATOM     15  O   UNL A   1      33.349  25.532  21.307  1.00  0.00    -0.263 OA
ATOM     16  N   UNL A   1      33.524  23.577  24.315  1.00  0.00    -0.328 N 
ATOM     17  O   UNL A   1      34.867  23.336  22.439  1.00  0.00    -0.263 OA
BRANCH  16  18
ATOM     18  C   UNL A   1      33.892  22.308  24.943  1.00  0.00     0.155 C 
BRANCH  18  19
ATOM     19  C   UNL A   1      35.378  22.181  25.228  1.00  0.00    -0.028 A 
ATOM     20  C   UNL A   1      36.088  21.043  24.831  1.00  0.00     0.005 A 
ATOM     21  C   UNL A   1      36.089  23.223  25.852  1.00  0.00     0.009 A 
ATOM     22  C   UNL A   1      37.469  20.963  25.030  1.00  0.00     0.001 A 
ATOM     23  C   UNL A   1      37.485  23.199  25.955  1.00  0.00    -0.051 A 
ATOM     24  C   UNL A   1      38.168  22.043  25.572  1.00  0.00     0.003 A 
ATOM     25  C   UNL A   1      38.233  24.396  26.463  1.00  0.00     0.044 C 
ENDBRANCH  18  19
ENDBRANCH  16  18
ENDBRANCH   7  10
ENDBRANCH   4   7
ENDBRANCH   2   3
ENDBRANCH   1   2
BRANCH   1  26
ATOM     26  C   UNL A   1      34.140  30.198  27.066  1.00  0.00     0.023 C 
BRANCH  26  27
ATOM     27  C   UNL A   1      35.087  29.683  28.137  1.00  0.00     0.116 C 
BRANCH  27  28
ATOM     28  N   UNL A   1      35.225  30.600  29.261  1.00  0.00    -0.352 N 
ATOM     29  C   UNL A   1      36.331  30.860  30.035  1.00  0.00     0.251 C 
ATOM     30  H   UNL A   1      34.413  31.104  29.500  1.00  0.00     0.163 HD
ATOM     31  O   UNL A   1      36.237  31.573  31.029  1.00  0.00    -0.269 OA
BRANCH  29  32
ATOM     32  C   UNL A   1      37.622  30.239  29.675  1.00  0.00     0.039 A 
ATOM     33  C   UNL A   1      38.025  30.235  28.338  1.00  0.00     0.014 A 
ATOM     34  C   UNL A   1      38.453  29.715  30.668  1.00  0.00     0.014 A 
ATOM     35  C   UNL A   1      39.303  29.779  28.008  1.00  0.00     0.010 A 
ATOM     36  C   UNL A   1      39.754  29.346  30.349  1.00  0.00     0.010 A 
ATOM     37  C   UNL A   1      40.191  29.371  29.017  1.00  0.00    -0.014 A 
BRANCH  37  38
ATOM     38  C   UNL A   1      41.579  28.949  28.709  1.00  0.00     0.031 A 
ATOM     39  C   UNL A   1      42.686  29.968  28.737  1.00  0.00     0.074 A 
ATOM     40  C   UNL A   1      41.827  27.683  28.321  1.00  0.00     0.049 A 
ATOM     41  N   UNL A   1      43.938  29.837  28.385  1.00  0.00    -0.248 NA
ATOM     42  C   UNL A   1      42.327  31.324  29.183  1.00  0.00     0.031 C 
ATOM     43  C   UNL A   1      40.826  26.621  28.195  1.00  0.00     0.029 A 
ATOM     44  N   UNL A   1      42.999  27.077  27.947  1.00  0.00    -0.354 N 
ATOM     45  C   UNL A   1      44.505  31.097  28.535  1.00  0.00     0.074 A 
ATOM     46  C   UNL A   1      43.451  31.988  28.964  1.00  0.00     0.031 C 
ATOM     47  C   UNL A   1      41.431  25.490  27.796  1.00  0.00     0.029 A 
ATOM     48  C   UNL A   1      42.854  25.753  27.608  1.00  0.00     0.049 A 
ATOM     49  H   UNL A   1      43.865  27.547  27.923  1.00  0.00     0.167 HD
ATOM     50  C   UNL A   1      45.794  31.472  28.356  1.00  0.00     0.037 A 
ATOM     51  C   UNL A   1      43.766  24.854  27.191  1.00  0.00     0.037 A 
ATOM     52  C   UNL A   1      46.848  30.568  27.983  1.00  0.00     0.049 A 
ATOM     53  C   UNL A   1      45.202  25.281  27.052  1.00  0.00     0.074 A 
ATOM     54  C   UNL A   1      48.199  30.831  27.842  1.00  0.00     0.029 A 
ATOM     55  N   UNL A   1      46.670  29.221  27.704  1.00  0.00    -0.354 N 
ATOM     56  N   UNL A   1      45.731  26.465  27.247  1.00  0.00    -0.248 NA
ATOM     57  C   UNL A   1      46.166  24.250  26.642  1.00  0.00     0.031 C 
ATOM     58  C   UNL A   1      48.837  29.644  27.461  1.00  0.00     0.029 A 
ATOM     59  C   UNL A   1      47.886  28.638  27.392  1.00  0.00     0.049 A 
ATOM     60  H   UNL A   1      45.806  28.749  27.726  1.00  0.00     0.167 HD
ATOM     61  C   UNL A   1      47.092  26.318  27.006  1.00  0.00     0.074 A 
ATOM     62  C   UNL A   1      47.306  24.927  26.659  1.00  0.00     0.031 C 
ATOM     63  C   UNL A   1      48.075  27.249  27.063  1.00  0.00     0.037 A 
BRANCH  50  64
ATOM     64  C   UNL A   1      46.128  32.918  28.583  1.00  0.00     0.058 A 
ATOM     65  C   UNL A   1      46.531  33.389  29.842  1.00  0.00     0.135 A 
ATOM     66  C   UNL A   1      46.049  33.845  27.530  1.00  0.00     0.135 A 
ATOM     67  F   UNL A   1      46.603  32.548  30.886  1.00  0.00    -0.206 F 
ATOM     68  C   UNL A   1      46.810  34.733  30.060  1.00  0.00     0.059 A 
ATOM     69  C   UNL A   1      46.349  35.190  27.720  1.00  0.00     0.059 A 
ATOM     70  F   UNL A   1      45.667  33.447  26.306  1.00  0.00    -0.206 F 
ATOM     71  C   UNL A   1      46.710  35.628  28.994  1.00  0.00     0.060 A 
BRANCH  71  72
ATOM     72  S   UNL A   1      47.066  37.372  29.292  1.00  0.00     0.124 S 
ATOM     73  O   UNL A   1      45.849  37.802  29.977  1.00  0.00    -0.237 OA
ATOM     74  O   UNL A   1      48.268  37.314  30.117  1.00  0.00    -0.237 OA
ATOM     75  O   UNL A   1      47.256  37.913  27.950  1.00  0.00    -0.744 OA
ENDBRANCH  71  72
ENDBRANCH  50  64
BRANCH  51  76
ATOM     76  C   UNL A   1      43.358  23.453  26.915  1.00  0.00     0.058 A 
ATOM     77  C   UNL A   1      43.114  22.558  27.966  1.00  0.00     0.135 A 
ATOM     78  C   UNL A   1      43.187  22.985  25.603  1.00  0.00     0.135 A 
ATOM     79  F   UNL A   1      43.268  22.961  29.237  1.00  0.00    -0.206 F 
ATOM     80  C   UNL A   1      42.729  21.243  27.730  1.00  0.00     0.059 A 
ATOM     81  C   UNL A   1      42.785  21.679  25.342  1.00  0.00     0.059 A 
ATOM     82  F   UNL A   1      43.392  23.809  24.564  1.00  0.00    -0.206 F 
ATOM     83  C   UNL A   1      42.567  20.812  26.412  1.00  0.00     0.060 A 
BRANCH  83  84
ATOM     84  S   UNL A   1      42.017  19.117  26.114  1.00  0.00     0.124 S 
ATOM     85  O   UNL A   1      40.592  19.311  25.867  1.00  0.00    -0.237 OA
ATOM     86  O   UNL A   1      42.818  18.732  24.956  1.00  0.00    -0.237 OA
ATOM     87  O   UNL A   1      42.357  18.433  27.357  1.00  0.00    -0.744 OA
ENDBRANCH  83  84
ENDBRANCH  51  76
BRANCH  63  88
ATOM     88  C   UNL A   1      49.474  26.788  26.777  1.00  0.00     0.058 A 
ATOM     89  C   UNL A   1      50.323  26.346  27.802  1.00  0.00     0.135 A 
ATOM     90  C   UNL A   1      49.949  26.736  25.457  1.00  0.00     0.135 A 
ATOM     91  F   UNL A   1      49.916  26.383  29.080  1.00  0.00    -0.206 F 
ATOM     92  C   UNL A   1      51.606  25.880  27.529  1.00  0.00     0.059 A 
ATOM     93  C   UNL A   1      51.219  26.255  25.159  1.00  0.00     0.059 A 
ATOM     94  F   UNL A   1      49.169  27.141  24.442  1.00  0.00    -0.206 F 
ATOM     95  C   UNL A   1      52.044  25.839  26.204  1.00  0.00     0.060 A 
BRANCH  95  96
ATOM     96  S   UNL A   1      53.694  25.195  25.854  1.00  0.00     0.124 S 
ATOM     97  O   UNL A   1      54.153  26.113  24.818  1.00  0.00    -0.237 OA
ATOM     98  O   UNL A   1      54.361  25.314  27.147  1.00  0.00    -0.237 OA
ATOM     99  O   UNL A   1      53.436  23.827  25.415  1.00  0.00    -0.744 OA
ENDBRANCH  95  96
ENDBRANCH  63  88
ENDBRANCH  37  38
ENDBRANCH  29  32
ENDBRANCH  27  28
ENDBRANCH  26  27
ENDBRANCH   1  26
TORSDOF 18
ENDMDL
MODEL 3
REMARK VINA RESULT:     -11.8      6.469     12.151
REMARK SMILES CC[C@@H](C(=O)NCCCCNC(=O)c1ccc(-c2c3nc(c(-c4c(F)cc(S(=O)(=O)[O-])cc4F)c4ccc([nH]4)c(-c4c(F)cc(S(=O)(=O)[O-])cc4F)c4nc(c(-c5c(F)cc(S(=O)(=O)[O-])cc5F)c5ccc2[nH]5)C=C4)C=C3)cc1)N1CCN(Cc2cccc(C)c2)C(=O)C1=O
REMARK SMILES IDX 8 1 7 2 6 3 4 4 5 5 3 7 2 8 1 9 80 10 81 11 94 12 82 13
REMARK SMILES IDX 92 14 95 15 83 16 93 17 84 18 85 19 86 20 91 21 87 22 89 23
REMARK SMILES IDX 88 24 90 25 9 26 10 27 11 28 12 29 13 31 14 32 15 33 79 34
REMARK SMILES IDX 16 35 78 36 17 37 18 38 19 39 72 40 20 41 77 42 71 43 73 44
REMARK SMILES IDX 21 45 76 46 70 47 69 48 22 50 56 51 35 52 55 53 36 54 39 55
REMARK SMILES IDX 54 56 74 57 37 58 38 59 53 61 75 62 40 63 23 64 24 65 33 66
REMARK SMILES IDX 25 67 26 68 32 69 34 70 27 71 28 72 29 73 30 74 31 75 57 76
REMARK SMILES IDX 58 77 67 78 59 79 60 80 66 81 68 82 61 83 62 84 63 85 64 86
REMARK SMILES IDX 65 87 41 88 42 89 51 90 43 91 44 92 50 93 52 94 45 95 46 96
REMARK SMILES IDX 47 97 48 98 49 99
REMARK H PARENT 6 6 11 30 73 49 39 60
REMARK Flexibility Score: inf
ROOT
ATOM      1  C   UNL A   1      34.573  29.048  27.237  1.00  0.00     0.023 C 
ENDROOT
BRANCH   1   2
ATOM      2  C   UNL A   1      33.720  28.533  26.074  1.00  0.00     0.116 C 
BRANCH   2   3
ATOM      3  N   UNL A   1      32.568  27.801  26.572  1.00  0.00    -0.354 N 
ATOM      4  C   UNL A   1      31.722  26.936  25.931  1.00  0.00     0.242 C 
ATOM      5  O   UNL A   1      30.697  26.584  26.521  1.00  0.00    -0.273 OA
ATOM      6  H   UNL A   1      32.363  27.951  27.524  1.00  0.00     0.163 HD
BRANCH   4   7
ATOM      7  C   UNL A   1      32.043  26.449  24.496  1.00  0.00     0.174 C 
BRANCH   7   8
ATOM      8  C   UNL A   1      30.754  26.152  23.696  1.00  0.00     0.032 C 
ATOM      9  C   UNL A   1      29.954  27.311  23.148  1.00  0.00     0.006 C 
ENDBRANCH   7   8
BRANCH   7  10
ATOM     10  N   UNL A   1      32.926  25.246  24.585  1.00  0.00    -0.321 N 
ATOM     11  C   UNL A   1      32.987  24.411  25.777  1.00  0.00     0.142 C 
ATOM     12  C   UNL A   1      33.646  24.800  23.457  1.00  0.00     0.312 C 
ATOM     13  C   UNL A   1      32.830  22.966  25.329  1.00  0.00     0.142 C 
ATOM     14  C   UNL A   1      34.519  23.486  23.661  1.00  0.00     0.312 C 
ATOM     15  O   UNL A   1      33.568  25.329  22.356  1.00  0.00    -0.263 OA
ATOM     16  N   UNL A   1      34.038  22.587  24.627  1.00  0.00    -0.328 N 
ATOM     17  O   UNL A   1      35.530  23.294  22.998  1.00  0.00    -0.263 OA
BRANCH  16  18
ATOM     18  C   UNL A   1      34.684  21.303  24.894  1.00  0.00     0.155 C 
BRANCH  18  19
ATOM     19  C   UNL A   1      33.917  20.112  24.346  1.00  0.00    -0.028 A 
ATOM     20  C   UNL A   1      32.799  20.298  23.524  1.00  0.00     0.005 A 
ATOM     21  C   UNL A   1      34.336  18.794  24.608  1.00  0.00     0.009 A 
ATOM     22  C   UNL A   1      32.141  19.200  22.963  1.00  0.00     0.001 A 
ATOM     23  C   UNL A   1      33.753  17.697  23.963  1.00  0.00    -0.051 A 
ATOM     24  C   UNL A   1      32.626  17.907  23.166  1.00  0.00     0.003 A 
ATOM     25  C   UNL A   1      34.331  16.323  24.123  1.00  0.00     0.044 C 
ENDBRANCH  18  19
ENDBRANCH  16  18
ENDBRANCH   7  10
ENDBRANCH   4   7
ENDBRANCH   2   3
ENDBRANCH   1   2
BRANCH   1  26
ATOM     26  C   UNL A   1      34.364  30.518  27.574  1.00  0.00     0.023 C 
BRANCH  26  27
ATOM     27  C   UNL A   1      35.579  31.190  28.193  1.00  0.00     0.116 C 
BRANCH  27  28
ATOM     28  N   UNL A   1      35.506  31.264  29.647  1.00  0.00    -0.352 N 
ATOM     29  C   UNL A   1      36.387  30.776  30.583  1.00  0.00     0.251 C 
ATOM     30  H   UNL A   1      34.717  31.729  30.009  1.00  0.00     0.163 HD
ATOM     31  O   UNL A   1      36.106  30.815  31.776  1.00  0.00    -0.269 OA
BRANCH  29  32
ATOM     32  C   UNL A   1      37.655  30.170  30.129  1.00  0.00     0.039 A 
ATOM     33  C   UNL A   1      37.990  30.227  28.774  1.00  0.00     0.014 A 
ATOM     34  C   UNL A   1      38.534  29.600  31.053  1.00  0.00     0.014 A 
ATOM     35  C   UNL A   1      39.247  29.786  28.359  1.00  0.00     0.010 A 
ATOM     36  C   UNL A   1      39.815  29.244  30.652  1.00  0.00     0.010 A 
ATOM     37  C   UNL A   1      40.184  29.330  29.301  1.00  0.00    -0.014 A 
BRANCH  37  38
ATOM     38  C   UNL A   1      41.553  28.922  28.903  1.00  0.00     0.031 A 
ATOM     39  C   UNL A   1      42.653  29.948  28.872  1.00  0.00     0.074 A 
ATOM     40  C   UNL A   1      41.785  27.661  28.490  1.00  0.00     0.049 A 
ATOM     41  N   UNL A   1      43.881  29.830  28.440  1.00  0.00    -0.248 NA
ATOM     42  C   UNL A   1      42.313  31.298  29.351  1.00  0.00     0.031 C 
ATOM     43  C   UNL A   1      40.785  26.592  28.417  1.00  0.00     0.029 A 
ATOM     44  N   UNL A   1      42.936  27.067  28.038  1.00  0.00    -0.354 N 
ATOM     45  C   UNL A   1      44.448  31.092  28.566  1.00  0.00     0.074 A 
ATOM     46  C   UNL A   1      43.417  31.972  29.068  1.00  0.00     0.031 C 
ATOM     47  C   UNL A   1      41.372  25.470  27.971  1.00  0.00     0.029 A 
ATOM     48  C   UNL A   1      42.779  25.744  27.697  1.00  0.00     0.049 A 
ATOM     49  H   UNL A   1      43.795  27.543  27.964  1.00  0.00     0.167 HD
ATOM     50  C   UNL A   1      45.721  31.478  28.311  1.00  0.00     0.037 A 
ATOM     51  C   UNL A   1      43.670  24.856  27.216  1.00  0.00     0.037 A 
ATOM     52  C   UNL A   1      46.756  30.586  27.864  1.00  0.00     0.049 A 
ATOM     53  C   UNL A   1      45.091  25.295  26.992  1.00  0.00     0.074 A 
ATOM     54  C   UNL A   1      48.093  30.860  27.642  1.00  0.00     0.029 A 
ATOM     55  N   UNL A   1      46.570  29.240  27.586  1.00  0.00    -0.354 N 
ATOM     56  N   UNL A   1      45.623  26.481  27.163  1.00  0.00    -0.248 NA
ATOM     57  C   UNL A   1      46.034  24.274  26.513  1.00  0.00     0.031 C 
ATOM     58  C   UNL A   1      48.714  29.681  27.212  1.00  0.00     0.029 A 
ATOM     59  C   UNL A   1      47.767  28.668  27.193  1.00  0.00     0.049 A 
ATOM     60  H   UNL A   1      45.712  28.761  27.657  1.00  0.00     0.167 HD
ATOM     61  C   UNL A   1      46.967  26.346  26.837  1.00  0.00     0.074 A 
ATOM     62  C   UNL A   1      47.169  24.959  26.466  1.00  0.00     0.031 C 
ATOM     63  C   UNL A   1      47.946  27.283  26.841  1.00  0.00     0.037 A 
BRANCH  50  64
ATOM     64  C   UNL A   1      46.058  32.926  28.529  1.00  0.00     0.058 A 
ATOM     65  C   UNL A   1      45.945  33.868  27.495  1.00  0.00     0.135 A 
ATOM     66  C   UNL A   1      46.494  33.378  29.784  1.00  0.00     0.135 A 
ATOM     67  F   UNL A   1      45.551  33.484  26.270  1.00  0.00    -0.206 F 
ATOM     68  C   UNL A   1      46.286  35.202  27.687  1.00  0.00     0.059 A 
ATOM     69  C   UNL A   1      46.817  34.714  30.005  1.00  0.00     0.059 A 
ATOM     70  F   UNL A   1      46.621  32.517  30.807  1.00  0.00    -0.206 F 
ATOM     71  C   UNL A   1      46.728  35.614  28.945  1.00  0.00     0.060 A 
BRANCH  71  72
ATOM     72  S   UNL A   1      47.177  37.347  29.179  1.00  0.00     0.124 S 
ATOM     73  O   UNL A   1      48.470  37.404  28.502  1.00  0.00    -0.237 OA
ATOM     74  O   UNL A   1      46.084  38.050  28.515  1.00  0.00    -0.237 OA
ATOM     75  O   UNL A   1      47.221  37.492  30.631  1.00  0.00    -0.744 OA
ENDBRANCH  71  72
ENDBRANCH  50  64
BRANCH  51  76
ATOM     76  C   UNL A   1      43.255  23.454  26.953  1.00  0.00     0.058 A 
ATOM     77  C   UNL A   1      43.046  23.004  25.642  1.00  0.00     0.135 A 
ATOM     78  C   UNL A   1      43.077  22.535  27.998  1.00  0.00     0.135 A 
ATOM     79  F   UNL A   1      43.201  23.849  24.611  1.00  0.00    -0.206 F 
ATOM     80  C   UNL A   1      42.660  21.695  25.373  1.00  0.00     0.059 A 
ATOM     81  C   UNL A   1      42.709  21.215  27.754  1.00  0.00     0.059 A 
ATOM     82  F   UNL A   1      43.283  22.914  29.269  1.00  0.00    -0.206 F 
ATOM     83  C   UNL A   1      42.493  20.807  26.437  1.00  0.00     0.060 A 
BRANCH  83  84
ATOM     84  S   UNL A   1      42.042  19.095  26.078  1.00  0.00     0.124 S 
ATOM     85  O   UNL A   1      42.902  18.798  24.938  1.00  0.00    -0.237 OA
ATOM     86  O   UNL A   1      42.381  18.418  27.326  1.00  0.00    -0.237 OA
ATOM     87  O   UNL A   1      40.614  19.181  25.790  1.00  0.00    -0.744 OA
ENDBRANCH  83  84
ENDBRANCH  51  76
BRANCH  63  88
ATOM     88  C   UNL A   1      49.328  26.836  26.464  1.00  0.00     0.058 A 
ATOM     89  C   UNL A   1      50.183  26.236  27.399  1.00  0.00     0.135 A 
ATOM     90  C   UNL A   1      49.777  26.957  25.140  1.00  0.00     0.135 A 
ATOM     91  F   UNL A   1      49.800  26.104  28.679  1.00  0.00    -0.206 F 
ATOM     92  C   UNL A   1      51.448  25.784  27.037  1.00  0.00     0.059 A 
ATOM     93  C   UNL A   1      51.029  26.494  24.751  1.00  0.00     0.059 A 
ATOM     94  F   UNL A   1      48.990  27.518  24.208  1.00  0.00    -0.206 F 
ATOM     95  C   UNL A   1      51.862  25.918  25.711  1.00  0.00     0.060 A 
BRANCH  95  96
ATOM     96  S   UNL A   1      53.488  25.291  25.240  1.00  0.00     0.124 S 
ATOM     97  O   UNL A   1      53.575  25.719  23.848  1.00  0.00    -0.237 OA
ATOM     98  O   UNL A   1      54.375  25.982  26.171  1.00  0.00    -0.237 OA
ATOM     99  O   UNL A   1      53.369  23.852  25.450  1.00  0.00    -0.744 OA
ENDBRANCH  95  96
ENDBRANCH  63  88
ENDBRANCH  37  38
ENDBRANCH  29  32
ENDBRANCH  27  28
ENDBRANCH  26  27
ENDBRANCH   1  26
TORSDOF 18
ENDMDL
