MODEL 1
REMARK VINA RESULT:     -13.3      0.000      0.000
REMARK SMILES CC1=Nc2ncnn2[C@H](c2ccc(F)cc2)[C@@H]1C(=O)NCCCCNC(=O)c1ccc(-c2c3nc(c(-c4c(F)cc(S(=O)(=O)[O-])cc4F)c4ccc([nH]4)c(-c4c(F)cc(S(=O)(=O)[O-])cc4F)c4nc(c(-c5c(F)cc(S(=O)(=O)[O-])cc5F)c5ccc2[nH]5)C=C4)C=C3)cc1
REMARK SMILES IDX 23 1 22 2 21 3 20 4 18 5 19 6 17 8 1 9 2 10 3 11 4 12 9 13
REMARK SMILES IDX 5 14 8 15 6 16 7 17 10 18 11 19 16 20 12 21 15 22 13 23
REMARK SMILES IDX 14 24 24 25 25 26 26 27 27 29 28 30 29 31 93 32 30 33 92 34
REMARK SMILES IDX 31 35 32 36 33 37 86 38 34 39 91 40 85 41 87 42 35 43 90 44
REMARK SMILES IDX 84 45 83 46 36 48 70 49 49 50 69 51 50 52 53 53 68 54 88 55
REMARK SMILES IDX 51 56 52 57 67 59 89 60 54 61 37 62 38 63 47 64 39 65 40 66
REMARK SMILES IDX 46 67 48 68 41 69 42 70 43 71 44 72 45 73 71 74 72 75 81 76
REMARK SMILES IDX 73 77 74 78 80 79 82 80 75 81 76 82 77 83 78 84 79 85 55 86
REMARK SMILES IDX 56 87 65 88 57 89 58 90 64 91 66 92 59 93 60 94 61 95 62 96
REMARK SMILES IDX 63 97
REMARK H PARENT 20 7 25 28 87 47 53 58
REMARK Flexibility Score: inf
ROOT
ATOM      1  C   UNL A   1      38.952  21.035  25.752  1.00  0.00     0.023 C 
ENDROOT
BRANCH   1   2
ATOM      2  C   UNL A   1      37.771  21.700  25.022  1.00  0.00     0.023 C 
BRANCH   2   3
ATOM      3  C   UNL A   1      37.364  23.095  25.525  1.00  0.00     0.116 C 
BRANCH   3   4
ATOM      4  N   UNL A   1      36.421  23.714  24.610  1.00  0.00    -0.355 N 
ATOM      5  C   UNL A   1      35.106  23.425  24.422  1.00  0.00     0.231 C 
ATOM      6  O   UNL A   1      34.667  23.477  23.271  1.00  0.00    -0.274 OA
ATOM      7  H   UNL A   1      36.783  24.441  24.052  1.00  0.00     0.163 HD
BRANCH   5   8
ATOM      8  C   UNL A   1      34.212  23.049  25.584  1.00  0.00     0.152 C 
ATOM      9  C   UNL A   1      34.477  20.560  24.850  1.00  0.00     0.063 C 
ATOM     10  C   UNL A   1      33.574  21.688  25.310  1.00  0.00     0.034 C 
ATOM     11  N   UNL A   1      32.329  21.379  25.477  1.00  0.00    -0.220 NA
ATOM     12  C   UNL A   1      31.486  22.317  25.950  1.00  0.00     0.248 A 
ATOM     13  C   UNL A   1      33.204  24.155  26.030  1.00  0.00     0.159 C 
ATOM     14  N   UNL A   1      30.237  22.159  26.336  1.00  0.00    -0.198 NA
ATOM     15  N   UNL A   1      31.847  23.620  26.180  1.00  0.00    -0.221 N 
ATOM     16  C   UNL A   1      29.905  23.367  26.867  1.00  0.00     0.248 A 
ATOM     17  N   UNL A   1      30.881  24.273  26.866  1.00  0.00    -0.157 NA
BRANCH  13  18
ATOM     18  C   UNL A   1      33.172  25.581  25.443  1.00  0.00    -0.022 A 
ATOM     19  C   UNL A   1      33.846  26.605  26.156  1.00  0.00     0.009 A 
ATOM     20  C   UNL A   1      32.496  25.973  24.278  1.00  0.00     0.009 A 
ATOM     21  C   UNL A   1      33.856  27.931  25.717  1.00  0.00     0.039 A 
ATOM     22  C   UNL A   1      32.563  27.286  23.797  1.00  0.00     0.039 A 
ATOM     23  C   UNL A   1      33.229  28.252  24.529  1.00  0.00     0.123 A 
ATOM     24  F   UNL A   1      33.239  29.514  24.100  1.00  0.00    -0.207 F 
ENDBRANCH  13  18
ENDBRANCH   5   8
ENDBRANCH   3   4
ENDBRANCH   2   3
ENDBRANCH   1   2
BRANCH   1  25
ATOM     25  C   UNL A   1      39.834  22.003  26.525  1.00  0.00     0.116 C 
BRANCH  25  26
ATOM     26  N   UNL A   1      41.205  22.063  26.016  1.00  0.00    -0.352 N 
ATOM     27  C   UNL A   1      42.016  23.186  25.893  1.00  0.00     0.251 C 
ATOM     28  H   UNL A   1      41.600  21.209  25.728  1.00  0.00     0.163 HD
ATOM     29  O   UNL A   1      42.967  23.194  25.134  1.00  0.00    -0.269 OA
BRANCH  27  30
ATOM     30  C   UNL A   1      41.678  24.367  26.713  1.00  0.00     0.039 A 
ATOM     31  C   UNL A   1      42.241  24.595  27.969  1.00  0.00     0.014 A 
ATOM     32  C   UNL A   1      40.832  25.303  26.134  1.00  0.00     0.014 A 
ATOM     33  C   UNL A   1      42.010  25.826  28.586  1.00  0.00     0.010 A 
ATOM     34  C   UNL A   1      40.804  26.578  26.630  1.00  0.00     0.010 A 
ATOM     35  C   UNL A   1      41.311  26.833  27.894  1.00  0.00    -0.014 A 
BRANCH  35  36
ATOM     36  C   UNL A   1      41.133  28.172  28.453  1.00  0.00     0.031 A 
ATOM     37  C   UNL A   1      42.190  29.161  28.108  1.00  0.00     0.074 A 
ATOM     38  C   UNL A   1      40.027  28.562  29.126  1.00  0.00     0.049 A 
ATOM     39  N   UNL A   1      43.108  29.626  28.890  1.00  0.00    -0.248 NA
ATOM     40  C   UNL A   1      42.328  29.591  26.709  1.00  0.00     0.031 C 
ATOM     41  C   UNL A   1      38.767  27.841  29.369  1.00  0.00     0.029 A 
ATOM     42  N   UNL A   1      39.782  29.769  29.703  1.00  0.00    -0.354 N 
ATOM     43  C   UNL A   1      43.818  30.562  28.146  1.00  0.00     0.074 A 
ATOM     44  C   UNL A   1      43.398  30.389  26.778  1.00  0.00     0.031 C 
ATOM     45  C   UNL A   1      37.828  28.694  29.836  1.00  0.00     0.029 A 
ATOM     46  C   UNL A   1      38.473  29.958  30.122  1.00  0.00     0.049 A 
ATOM     47  H   UNL A   1      40.480  30.454  29.815  1.00  0.00     0.167 HD
ATOM     48  C   UNL A   1      44.553  31.540  28.745  1.00  0.00     0.037 A 
ATOM     49  C   UNL A   1      37.950  31.061  30.712  1.00  0.00     0.037 A 
ATOM     50  C   UNL A   1      44.759  31.267  30.145  1.00  0.00     0.049 A 
ATOM     51  C   UNL A   1      39.091  31.774  31.339  1.00  0.00     0.074 A 
ATOM     52  C   UNL A   1      45.388  30.260  30.852  1.00  0.00     0.029 A 
ATOM     53  N   UNL A   1      43.930  31.888  31.049  1.00  0.00    -0.354 N 
ATOM     54  N   UNL A   1      39.790  31.285  32.329  1.00  0.00    -0.248 NA
ATOM     55  C   UNL A   1      39.747  32.810  30.559  1.00  0.00     0.031 C 
ATOM     56  C   UNL A   1      44.541  30.013  31.974  1.00  0.00     0.029 A 
ATOM     57  C   UNL A   1      43.485  30.925  31.921  1.00  0.00     0.049 A 
ATOM     58  H   UNL A   1      43.699  32.845  31.068  1.00  0.00     0.167 HD
ATOM     59  C   UNL A   1      41.101  31.638  32.045  1.00  0.00     0.074 A 
ATOM     60  C   UNL A   1      41.001  32.641  30.985  1.00  0.00     0.031 C 
ATOM     61  C   UNL A   1      42.157  30.901  32.502  1.00  0.00     0.037 A 
BRANCH  48  62
ATOM     62  C   UNL A   1      44.819  32.894  28.142  1.00  0.00     0.058 A 
ATOM     63  C   UNL A   1      43.885  33.951  28.192  1.00  0.00     0.135 A 
ATOM     64  C   UNL A   1      46.122  33.244  27.737  1.00  0.00     0.135 A 
ATOM     65  F   UNL A   1      42.644  33.779  28.662  1.00  0.00    -0.206 F 
ATOM     66  C   UNL A   1      44.212  35.258  27.852  1.00  0.00     0.059 A 
ATOM     67  C   UNL A   1      46.485  34.560  27.440  1.00  0.00     0.059 A 
ATOM     68  F   UNL A   1      47.091  32.315  27.679  1.00  0.00    -0.206 F 
ATOM     69  C   UNL A   1      45.521  35.560  27.504  1.00  0.00     0.060 A 
BRANCH  69  70
ATOM     70  S   UNL A   1      45.941  37.292  27.243  1.00  0.00     0.124 S 
ATOM     71  O   UNL A   1      46.794  37.210  26.061  1.00  0.00    -0.237 OA
ATOM     72  O   UNL A   1      44.627  37.893  27.039  1.00  0.00    -0.237 OA
ATOM     73  O   UNL A   1      46.615  37.666  28.482  1.00  0.00    -0.744 OA
ENDBRANCH  69  70
ENDBRANCH  48  62
BRANCH  49  74
ATOM     74  C   UNL A   1      36.684  31.737  30.328  1.00  0.00     0.058 A 
ATOM     75  C   UNL A   1      36.468  32.181  29.008  1.00  0.00     0.135 A 
ATOM     76  C   UNL A   1      35.789  32.218  31.299  1.00  0.00     0.135 A 
ATOM     77  F   UNL A   1      37.307  31.830  28.022  1.00  0.00    -0.206 F 
ATOM     78  C   UNL A   1      35.453  33.076  28.678  1.00  0.00     0.059 A 
ATOM     79  C   UNL A   1      34.763  33.121  30.990  1.00  0.00     0.059 A 
ATOM     80  F   UNL A   1      35.944  31.868  32.585  1.00  0.00    -0.206 F 
ATOM     81  C   UNL A   1      34.617  33.562  29.677  1.00  0.00     0.060 A 
BRANCH  81  82
ATOM     82  S   UNL A   1      33.417  34.836  29.230  1.00  0.00     0.124 S 
ATOM     83  O   UNL A   1      32.542  34.117  28.310  1.00  0.00    -0.237 OA
ATOM     84  O   UNL A   1      32.833  35.174  30.524  1.00  0.00    -0.237 OA
ATOM     85  O   UNL A   1      34.238  35.881  28.625  1.00  0.00    -0.744 OA
ENDBRANCH  81  82
ENDBRANCH  49  74
BRANCH  61  86
ATOM     86  C   UNL A   1      41.894  29.823  33.528  1.00  0.00     0.058 A 
ATOM     87  C   UNL A   1      42.150  30.113  34.875  1.00  0.00     0.135 A 
ATOM     88  C   UNL A   1      41.587  28.485  33.213  1.00  0.00     0.135 A 
ATOM     89  F   UNL A   1      42.495  31.358  35.239  1.00  0.00    -0.206 F 
ATOM     90  C   UNL A   1      42.127  29.129  35.862  1.00  0.00     0.059 A 
ATOM     91  C   UNL A   1      41.530  27.485  34.190  1.00  0.00     0.059 A 
ATOM     92  F   UNL A   1      41.409  28.100  31.943  1.00  0.00    -0.206 F 
ATOM     93  C   UNL A   1      41.822  27.815  35.511  1.00  0.00     0.060 A 
BRANCH  93  94
ATOM     94  S   UNL A   1      41.860  26.553  36.802  1.00  0.00     0.124 S 
ATOM     95  O   UNL A   1      43.034  26.947  37.576  1.00  0.00    -0.237 OA
ATOM     96  O   UNL A   1      40.575  26.748  37.466  1.00  0.00    -0.237 OA
ATOM     97  O   UNL A   1      41.993  25.300  36.065  1.00  0.00    -0.744 OA
ENDBRANCH  93  94
ENDBRANCH  61  86
ENDBRANCH  35  36
ENDBRANCH  27  30
ENDBRANCH  25  26
ENDBRANCH   1  25
TORSDOF 15
ENDMDL
MODEL 2
REMARK VINA RESULT:     -13.0      1.622      2.692
REMARK SMILES CC1=Nc2ncnn2[C@H](c2ccc(F)cc2)[C@@H]1C(=O)NCCCCNC(=O)c1ccc(-c2c3nc(c(-c4c(F)cc(S(=O)(=O)[O-])cc4F)c4ccc([nH]4)c(-c4c(F)cc(S(=O)(=O)[O-])cc4F)c4nc(c(-c5c(F)cc(S(=O)(=O)[O-])cc5F)c5ccc2[nH]5)C=C4)C=C3)cc1
REMARK SMILES IDX 23 1 22 2 21 3 20 4 18 5 19 6 17 8 1 9 2 10 3 11 4 12 9 13
REMARK SMILES IDX 5 14 8 15 6 16 7 17 10 18 11 19 16 20 12 21 15 22 13 23
REMARK SMILES IDX 14 24 24 25 25 26 26 27 27 29 28 30 29 31 93 32 30 33 92 34
REMARK SMILES IDX 31 35 32 36 33 37 86 38 34 39 91 40 85 41 87 42 35 43 90 44
REMARK SMILES IDX 84 45 83 46 36 48 70 49 49 50 69 51 50 52 53 53 68 54 88 55
REMARK SMILES IDX 51 56 52 57 67 59 89 60 54 61 37 62 38 63 47 64 39 65 40 66
REMARK SMILES IDX 46 67 48 68 41 69 42 70 43 71 44 72 45 73 71 74 72 75 81 76
REMARK SMILES IDX 73 77 74 78 80 79 82 80 75 81 76 82 77 83 78 84 79 85 55 86
REMARK SMILES IDX 56 87 65 88 57 89 58 90 64 91 66 92 59 93 60 94 61 95 62 96
REMARK SMILES IDX 63 97
REMARK H PARENT 20 7 25 28 87 47 53 58
REMARK Flexibility Score: inf
ROOT
ATOM      1  C   UNL A   1      37.840  21.762  25.157  1.00  0.00     0.023 C 
ENDROOT
BRANCH   1   2
ATOM      2  C   UNL A   1      36.410  21.408  25.609  1.00  0.00     0.023 C 
BRANCH   2   3
ATOM      3  C   UNL A   1      35.369  22.535  25.503  1.00  0.00     0.116 C 
BRANCH   3   4
ATOM      4  N   UNL A   1      35.402  23.139  24.183  1.00  0.00    -0.355 N 
ATOM      5  C   UNL A   1      34.371  23.357  23.323  1.00  0.00     0.231 C 
ATOM      6  O   UNL A   1      34.586  23.197  22.120  1.00  0.00    -0.274 OA
ATOM      7  H   UNL A   1      36.289  23.430  23.869  1.00  0.00     0.163 HD
BRANCH   5   8
ATOM      8  C   UNL A   1      33.008  23.779  23.826  1.00  0.00     0.152 C 
ATOM      9  C   UNL A   1      34.112  25.993  24.653  1.00  0.00     0.063 C 
ATOM     10  C   UNL A   1      33.178  24.829  24.923  1.00  0.00     0.034 C 
ATOM     11  N   UNL A   1      32.561  24.855  26.060  1.00  0.00    -0.220 NA
ATOM     12  C   UNL A   1      31.666  23.888  26.334  1.00  0.00     0.248 A 
ATOM     13  C   UNL A   1      32.047  22.608  24.200  1.00  0.00     0.159 C 
ATOM     14  N   UNL A   1      30.829  23.826  27.349  1.00  0.00    -0.198 NA
ATOM     15  N   UNL A   1      31.430  22.813  25.514  1.00  0.00    -0.221 N 
ATOM     16  C   UNL A   1      30.052  22.744  27.065  1.00  0.00     0.248 A 
ATOM     17  N   UNL A   1      30.329  22.135  25.914  1.00  0.00    -0.157 NA
BRANCH  13  18
ATOM     18  C   UNL A   1      32.373  21.117  23.971  1.00  0.00    -0.022 A 
ATOM     19  C   UNL A   1      32.085  20.565  22.697  1.00  0.00     0.009 A 
ATOM     20  C   UNL A   1      32.894  20.236  24.930  1.00  0.00     0.009 A 
ATOM     21  C   UNL A   1      32.324  19.221  22.400  1.00  0.00     0.039 A 
ATOM     22  C   UNL A   1      33.202  18.907  24.615  1.00  0.00     0.039 A 
ATOM     23  C   UNL A   1      32.900  18.411  23.360  1.00  0.00     0.123 A 
ATOM     24  F   UNL A   1      33.137  17.129  23.083  1.00  0.00    -0.207 F 
ENDBRANCH  13  18
ENDBRANCH   5   8
ENDBRANCH   3   4
ENDBRANCH   2   3
ENDBRANCH   1   2
BRANCH   1  25
ATOM     25  C   UNL A   1      38.750  22.235  26.279  1.00  0.00     0.116 C 
BRANCH  25  26
ATOM     26  N   UNL A   1      40.163  21.937  26.037  1.00  0.00    -0.352 N 
ATOM     27  C   UNL A   1      41.243  22.806  26.141  1.00  0.00     0.251 C 
ATOM     28  H   UNL A   1      40.373  21.013  25.771  1.00  0.00     0.163 HD
ATOM     29  O   UNL A   1      42.293  22.573  25.574  1.00  0.00    -0.269 OA
BRANCH  27  30
ATOM     30  C   UNL A   1      41.067  24.021  26.963  1.00  0.00     0.039 A 
ATOM     31  C   UNL A   1      41.826  24.271  28.106  1.00  0.00     0.014 A 
ATOM     32  C   UNL A   1      40.163  24.963  26.491  1.00  0.00     0.014 A 
ATOM     33  C   UNL A   1      41.725  25.527  28.709  1.00  0.00     0.010 A 
ATOM     34  C   UNL A   1      40.245  26.252  26.940  1.00  0.00     0.010 A 
ATOM     35  C   UNL A   1      40.950  26.531  28.100  1.00  0.00    -0.014 A 
BRANCH  35  36
ATOM     36  C   UNL A   1      40.894  27.892  28.632  1.00  0.00     0.031 A 
ATOM     37  C   UNL A   1      42.004  28.793  28.219  1.00  0.00     0.074 A 
ATOM     38  C   UNL A   1      39.850  28.376  29.343  1.00  0.00     0.049 A 
ATOM     39  N   UNL A   1      42.986  29.206  28.950  1.00  0.00    -0.248 NA
ATOM     40  C   UNL A   1      42.111  29.182  26.805  1.00  0.00     0.031 C 
ATOM     41  C   UNL A   1      38.553  27.755  29.656  1.00  0.00     0.029 A 
ATOM     42  N   UNL A   1      39.719  29.610  29.900  1.00  0.00    -0.354 N 
ATOM     43  C   UNL A   1      43.729  30.071  28.154  1.00  0.00     0.074 A 
ATOM     44  C   UNL A   1      43.238  29.900  26.809  1.00  0.00     0.031 C 
ATOM     45  C   UNL A   1      37.699  28.684  30.141  1.00  0.00     0.029 A 
ATOM     46  C   UNL A   1      38.446  29.904  30.369  1.00  0.00     0.049 A 
ATOM     47  H   UNL A   1      40.468  30.245  29.964  1.00  0.00     0.167 HD
ATOM     48  C   UNL A   1      44.559  31.006  28.697  1.00  0.00     0.037 A 
ATOM     49  C   UNL A   1      38.032  31.055  30.953  1.00  0.00     0.037 A 
ATOM     50  C   UNL A   1      44.806  30.748  30.093  1.00  0.00     0.049 A 
ATOM     51  C   UNL A   1      39.247  31.695  31.513  1.00  0.00     0.074 A 
ATOM     52  C   UNL A   1      45.390  29.713  30.797  1.00  0.00     0.029 A 
ATOM     53  N   UNL A   1      44.064  31.448  31.015  1.00  0.00    -0.354 N 
ATOM     54  N   UNL A   1      39.952  31.178  32.485  1.00  0.00    -0.248 NA
ATOM     55  C   UNL A   1      39.942  32.663  30.681  1.00  0.00     0.031 C 
ATOM     56  C   UNL A   1      44.578  29.553  31.959  1.00  0.00     0.029 A 
ATOM     57  C   UNL A   1      43.589  30.538  31.929  1.00  0.00     0.049 A 
ATOM     58  H   UNL A   1      43.904  32.419  31.020  1.00  0.00     0.167 HD
ATOM     59  C   UNL A   1      41.271  31.427  32.137  1.00  0.00     0.074 A 
ATOM     60  C   UNL A   1      41.198  32.412  31.058  1.00  0.00     0.031 C 
ATOM     61  C   UNL A   1      42.290  30.625  32.567  1.00  0.00     0.037 A 
BRANCH  48  62
ATOM     62  C   UNL A   1      44.895  32.322  28.050  1.00  0.00     0.058 A 
ATOM     63  C   UNL A   1      44.062  33.459  28.147  1.00  0.00     0.135 A 
ATOM     64  C   UNL A   1      46.189  32.551  27.544  1.00  0.00     0.135 A 
ATOM     65  F   UNL A   1      42.850  33.401  28.710  1.00  0.00    -0.206 F 
ATOM     66  C   UNL A   1      44.475  34.727  27.759  1.00  0.00     0.059 A 
ATOM     67  C   UNL A   1      46.642  33.827  27.195  1.00  0.00     0.059 A 
ATOM     68  F   UNL A   1      47.067  31.541  27.433  1.00  0.00    -0.206 F 
ATOM     69  C   UNL A   1      45.775  34.908  27.310  1.00  0.00     0.060 A 
BRANCH  69  70
ATOM     70  S   UNL A   1      46.324  36.593  26.986  1.00  0.00     0.124 S 
ATOM     71  O   UNL A   1      47.087  36.419  25.754  1.00  0.00    -0.237 OA
ATOM     72  O   UNL A   1      45.055  37.302  26.854  1.00  0.00    -0.237 OA
ATOM     73  O   UNL A   1      47.107  36.927  28.171  1.00  0.00    -0.744 OA
ENDBRANCH  69  70
ENDBRANCH  48  62
BRANCH  49  74
ATOM     74  C   UNL A   1      36.802  31.814  30.606  1.00  0.00     0.058 A 
ATOM     75  C   UNL A   1      36.584  32.285  29.296  1.00  0.00     0.135 A 
ATOM     76  C   UNL A   1      35.962  32.338  31.603  1.00  0.00     0.135 A 
ATOM     77  F   UNL A   1      37.375  31.893  28.287  1.00  0.00    -0.206 F 
ATOM     78  C   UNL A   1      35.619  33.246  28.999  1.00  0.00     0.059 A 
ATOM     79  C   UNL A   1      34.988  33.308  31.328  1.00  0.00     0.059 A 
ATOM     80  F   UNL A   1      36.125  31.966  32.881  1.00  0.00    -0.206 F 
ATOM     81  C   UNL A   1      34.840  33.772  30.023  1.00  0.00     0.060 A 
BRANCH  81  82
ATOM     82  S   UNL A   1      33.712  35.125  29.618  1.00  0.00     0.124 S 
ATOM     83  O   UNL A   1      33.597  35.815  30.898  1.00  0.00    -0.237 OA
ATOM     84  O   UNL A   1      34.450  35.837  28.579  1.00  0.00    -0.237 OA
ATOM     85  O   UNL A   1      32.505  34.439  29.165  1.00  0.00    -0.744 OA
ENDBRANCH  81  82
ENDBRANCH  49  74
BRANCH  61  86
ATOM     86  C   UNL A   1      41.995  29.591  33.629  1.00  0.00     0.058 A 
ATOM     87  C   UNL A   1      42.342  29.885  34.955  1.00  0.00     0.135 A 
ATOM     88  C   UNL A   1      41.567  28.276  33.360  1.00  0.00     0.135 A 
ATOM     89  F   UNL A   1      42.804  31.105  35.272  1.00  0.00    -0.206 F 
ATOM     90  C   UNL A   1      42.292  28.925  35.963  1.00  0.00     0.059 A 
ATOM     91  C   UNL A   1      41.481  27.303  34.362  1.00  0.00     0.059 A 
ATOM     92  F   UNL A   1      41.293  27.883  32.110  1.00  0.00    -0.206 F 
ATOM     93  C   UNL A   1      41.865  27.634  35.658  1.00  0.00     0.060 A 
BRANCH  93  94
ATOM     94  S   UNL A   1      41.870  26.397  36.975  1.00  0.00     0.124 S 
ATOM     95  O   UNL A   1      40.558  26.599  37.584  1.00  0.00    -0.237 OA
ATOM     96  O   UNL A   1      42.031  25.151  36.231  1.00  0.00    -0.237 OA
ATOM     97  O   UNL A   1      43.008  26.775  37.808  1.00  0.00    -0.744 OA
ENDBRANCH  93  94
ENDBRANCH  61  86
ENDBRANCH  35  36
ENDBRANCH  27  30
ENDBRANCH  25  26
ENDBRANCH   1  25
TORSDOF 15
ENDMDL
MODEL 3
REMARK VINA RESULT:     -12.9      1.305      1.785
REMARK SMILES CC1=Nc2ncnn2[C@H](c2ccc(F)cc2)[C@@H]1C(=O)NCCCCNC(=O)c1ccc(-c2c3nc(c(-c4c(F)cc(S(=O)(=O)[O-])cc4F)c4ccc([nH]4)c(-c4c(F)cc(S(=O)(=O)[O-])cc4F)c4nc(c(-c5c(F)cc(S(=O)(=O)[O-])cc5F)c5ccc2[nH]5)C=C4)C=C3)cc1
REMARK SMILES IDX 23 1 22 2 21 3 20 4 18 5 19 6 17 8 1 9 2 10 3 11 4 12 9 13
REMARK SMILES IDX 5 14 8 15 6 16 7 17 10 18 11 19 16 20 12 21 15 22 13 23
REMARK SMILES IDX 14 24 24 25 25 26 26 27 27 29 28 30 29 31 93 32 30 33 92 34
REMARK SMILES IDX 31 35 32 36 33 37 86 38 34 39 91 40 85 41 87 42 35 43 90 44
REMARK SMILES IDX 84 45 83 46 36 48 70 49 49 50 69 51 50 52 53 53 68 54 88 55
REMARK SMILES IDX 51 56 52 57 67 59 89 60 54 61 37 62 38 63 47 64 39 65 40 66
REMARK SMILES IDX 46 67 48 68 41 69 42 70 43 71 44 72 45 73 71 74 72 75 81 76
REMARK SMILES IDX 73 77 74 78 80 79 82 80 75 81 76 82 77 83 78 84 79 85 55 86
REMARK SMILES IDX 56 87 65 88 57 89 58 90 64 91 66 92 59 93 60 94 61 95 62 96
REMARK SMILES IDX 63 97
REMARK H PARENT 20 7 25 28 87 47 53 58
REMARK Flexibility Score: inf
ROOT
ATOM      1  C   UNL A   1      37.637  22.316  25.539  1.00  0.00     0.023 C 
ENDROOT
BRANCH   1   2
ATOM      2  C   UNL A   1      36.725  23.195  24.664  1.00  0.00     0.023 C 
BRANCH   2   3
ATOM      3  C   UNL A   1      35.721  24.086  25.415  1.00  0.00     0.116 C 
BRANCH   3   4
ATOM      4  N   UNL A   1      34.862  23.282  26.267  1.00  0.00    -0.355 N 
ATOM      5  C   UNL A   1      33.504  23.238  26.303  1.00  0.00     0.231 C 
ATOM      6  O   UNL A   1      32.964  23.118  27.405  1.00  0.00    -0.274 OA
ATOM      7  H   UNL A   1      35.326  22.690  26.904  1.00  0.00     0.163 HD
BRANCH   5   8
ATOM      8  C   UNL A   1      32.683  23.334  25.036  1.00  0.00     0.152 C 
ATOM      9  C   UNL A   1      33.758  21.077  24.291  1.00  0.00     0.063 C 
ATOM     10  C   UNL A   1      33.342  22.494  23.943  1.00  0.00     0.034 C 
ATOM     11  N   UNL A   1      33.544  22.855  22.717  1.00  0.00    -0.220 NA
ATOM     12  C   UNL A   1      33.135  24.076  22.325  1.00  0.00     0.248 A 
ATOM     13  C   UNL A   1      32.311  24.785  24.596  1.00  0.00     0.159 C 
ATOM     14  N   UNL A   1      33.102  24.563  21.102  1.00  0.00    -0.198 NA
ATOM     15  N   UNL A   1      32.596  25.009  23.175  1.00  0.00    -0.221 N 
ATOM     16  C   UNL A   1      32.464  25.757  21.243  1.00  0.00     0.248 A 
ATOM     17  N   UNL A   1      32.065  26.042  22.481  1.00  0.00    -0.157 NA
BRANCH  13  18
ATOM     18  C   UNL A   1      32.625  26.046  25.426  1.00  0.00    -0.022 A 
ATOM     19  C   UNL A   1      31.637  26.504  26.334  1.00  0.00     0.009 A 
ATOM     20  C   UNL A   1      33.794  26.817  25.335  1.00  0.00     0.009 A 
ATOM     21  C   UNL A   1      31.819  27.648  27.114  1.00  0.00     0.039 A 
ATOM     22  C   UNL A   1      34.010  27.923  26.166  1.00  0.00     0.039 A 
ATOM     23  C   UNL A   1      33.015  28.334  27.034  1.00  0.00     0.123 A 
ATOM     24  F   UNL A   1      33.199  29.424  27.779  1.00  0.00    -0.207 F 
ENDBRANCH  13  18
ENDBRANCH   5   8
ENDBRANCH   3   4
ENDBRANCH   2   3
ENDBRANCH   1   2
BRANCH   1  25
ATOM     25  C   UNL A   1      38.680  23.090  26.330  1.00  0.00     0.116 C 
BRANCH  25  26
ATOM     26  N   UNL A   1      39.959  22.386  26.437  1.00  0.00    -0.352 N 
ATOM     27  C   UNL A   1      41.233  22.943  26.467  1.00  0.00     0.251 C 
ATOM     28  H   UNL A   1      39.912  21.405  26.496  1.00  0.00     0.163 HD
ATOM     29  O   UNL A   1      42.214  22.281  26.185  1.00  0.00    -0.269 OA
BRANCH  27  30
ATOM     30  C   UNL A   1      41.349  24.364  26.850  1.00  0.00     0.039 A 
ATOM     31  C   UNL A   1      41.122  25.406  25.950  1.00  0.00     0.014 A 
ATOM     32  C   UNL A   1      41.609  24.628  28.188  1.00  0.00     0.014 A 
ATOM     33  C   UNL A   1      41.068  26.711  26.444  1.00  0.00     0.010 A 
ATOM     34  C   UNL A   1      41.324  25.866  28.694  1.00  0.00     0.010 A 
ATOM     35  C   UNL A   1      41.140  26.934  27.831  1.00  0.00    -0.014 A 
BRANCH  35  36
ATOM     36  C   UNL A   1      40.983  28.269  28.407  1.00  0.00     0.031 A 
ATOM     37  C   UNL A   1      42.046  29.251  28.058  1.00  0.00     0.074 A 
ATOM     38  C   UNL A   1      39.891  28.663  29.101  1.00  0.00     0.049 A 
ATOM     39  N   UNL A   1      42.979  29.697  28.832  1.00  0.00    -0.248 NA
ATOM     40  C   UNL A   1      42.168  29.695  26.662  1.00  0.00     0.031 C 
ATOM     41  C   UNL A   1      38.627  27.952  29.354  1.00  0.00     0.029 A 
ATOM     42  N   UNL A   1      39.667  29.866  29.694  1.00  0.00    -0.354 N 
ATOM     43  C   UNL A   1      43.688  30.634  28.088  1.00  0.00     0.074 A 
ATOM     44  C   UNL A   1      43.247  30.481  26.724  1.00  0.00     0.031 C 
ATOM     45  C   UNL A   1      37.704  28.809  29.843  1.00  0.00     0.029 A 
ATOM     46  C   UNL A   1      38.365  30.064  30.134  1.00  0.00     0.049 A 
ATOM     47  H   UNL A   1      40.373  30.543  29.803  1.00  0.00     0.167 HD
ATOM     48  C   UNL A   1      44.442  31.599  28.687  1.00  0.00     0.037 A 
ATOM     49  C   UNL A   1      37.863  31.165  30.743  1.00  0.00     0.037 A 
ATOM     50  C   UNL A   1      44.665  31.308  30.081  1.00  0.00     0.049 A 
ATOM     51  C   UNL A   1      39.020  31.859  31.361  1.00  0.00     0.074 A 
ATOM     52  C   UNL A   1      45.293  30.286  30.767  1.00  0.00     0.029 A 
ATOM     53  N   UNL A   1      43.855  31.927  31.003  1.00  0.00    -0.354 N 
ATOM     54  N   UNL A   1      39.727  31.352  32.336  1.00  0.00    -0.248 NA
ATOM     55  C   UNL A   1      39.676  32.897  30.584  1.00  0.00     0.031 C 
ATOM     56  C   UNL A   1      44.460  30.036  31.899  1.00  0.00     0.029 A 
ATOM     57  C   UNL A   1      43.412  30.959  31.871  1.00  0.00     0.049 A 
ATOM     58  H   UNL A   1      43.634  32.886  31.036  1.00  0.00     0.167 HD
ATOM     59  C   UNL A   1      41.038  31.695  32.037  1.00  0.00     0.074 A 
ATOM     60  C   UNL A   1      40.934  32.710  30.990  1.00  0.00     0.031 C 
ATOM     61  C   UNL A   1      42.093  30.942  32.471  1.00  0.00     0.037 A 
BRANCH  48  62
ATOM     62  C   UNL A   1      44.713  32.956  28.096  1.00  0.00     0.058 A 
ATOM     63  C   UNL A   1      43.817  34.040  28.221  1.00  0.00     0.135 A 
ATOM     64  C   UNL A   1      46.000  33.275  27.620  1.00  0.00     0.135 A 
ATOM     65  F   UNL A   1      42.601  33.894  28.761  1.00  0.00    -0.206 F 
ATOM     66  C   UNL A   1      44.163  35.343  27.887  1.00  0.00     0.059 A 
ATOM     67  C   UNL A   1      46.385  34.586  27.327  1.00  0.00     0.059 A 
ATOM     68  F   UNL A   1      46.935  32.320  27.487  1.00  0.00    -0.206 F 
ATOM     69  C   UNL A   1      45.458  35.613  27.467  1.00  0.00     0.060 A 
BRANCH  69  70
ATOM     70  S   UNL A   1      45.915  37.337  27.215  1.00  0.00     0.124 S 
ATOM     71  O   UNL A   1      46.847  37.230  26.097  1.00  0.00    -0.237 OA
ATOM     72  O   UNL A   1      44.626  37.948  26.912  1.00  0.00    -0.237 OA
ATOM     73  O   UNL A   1      46.506  37.720  28.493  1.00  0.00    -0.744 OA
ENDBRANCH  69  70
ENDBRANCH  48  62
BRANCH  49  74
ATOM     74  C   UNL A   1      36.599  31.858  30.384  1.00  0.00     0.058 A 
ATOM     75  C   UNL A   1      36.341  32.261  29.059  1.00  0.00     0.135 A 
ATOM     76  C   UNL A   1      35.754  32.395  31.372  1.00  0.00     0.135 A 
ATOM     77  F   UNL A   1      37.131  31.854  28.055  1.00  0.00    -0.206 F 
ATOM     78  C   UNL A   1      35.334  33.168  28.736  1.00  0.00     0.059 A 
ATOM     79  C   UNL A   1      34.739  33.312  31.071  1.00  0.00     0.059 A 
ATOM     80  F   UNL A   1      35.953  32.088  32.662  1.00  0.00    -0.206 F 
ATOM     81  C   UNL A   1      34.551  33.709  29.749  1.00  0.00     0.060 A 
BRANCH  81  82
ATOM     82  S   UNL A   1      33.363  34.997  29.303  1.00  0.00     0.124 S 
ATOM     83  O   UNL A   1      32.565  34.330  28.280  1.00  0.00    -0.237 OA
ATOM     84  O   UNL A   1      32.687  35.242  30.573  1.00  0.00    -0.237 OA
ATOM     85  O   UNL A   1      34.207  36.089  28.827  1.00  0.00    -0.744 OA
ENDBRANCH  81  82
ENDBRANCH  49  74
BRANCH  61  86
ATOM     86  C   UNL A   1      41.833  29.855  33.489  1.00  0.00     0.058 A 
ATOM     87  C   UNL A   1      42.079  30.139  34.839  1.00  0.00     0.135 A 
ATOM     88  C   UNL A   1      41.540  28.517  33.163  1.00  0.00     0.135 A 
ATOM     89  F   UNL A   1      42.412  31.385  35.213  1.00  0.00    -0.206 F 
ATOM     90  C   UNL A   1      42.059  29.149  35.819  1.00  0.00     0.059 A 
ATOM     91  C   UNL A   1      41.486  27.510  34.134  1.00  0.00     0.059 A 
ATOM     92  F   UNL A   1      41.372  28.139  31.891  1.00  0.00    -0.206 F 
ATOM     93  C   UNL A   1      41.767  27.835  35.458  1.00  0.00     0.060 A 
BRANCH  93  94
ATOM     94  S   UNL A   1      41.809  26.565  36.742  1.00  0.00     0.124 S 
ATOM     95  O   UNL A   1      41.874  25.338  35.953  1.00  0.00    -0.237 OA
ATOM     96  O   UNL A   1      43.025  26.904  37.476  1.00  0.00    -0.237 OA
ATOM     97  O   UNL A   1      40.564  26.767  37.477  1.00  0.00    -0.744 OA
ENDBRANCH  93  94
ENDBRANCH  61  86
ENDBRANCH  35  36
ENDBRANCH  27  30
ENDBRANCH  25  26
ENDBRANCH   1  25
TORSDOF 15
ENDMDL
