MODEL 1
REMARK VINA RESULT:     -13.2      0.000      0.000
REMARK SMILES CCc1cccc(C)c1Nc1ccccc1CC(=O)NCCCCNC(=O)c1ccc(-c2c3nc(c(-c4c(F)cc(S(=O)(=O)[O-])cc4F)c4ccc([nH]4)c(-c4c(F)cc(S(=O)(=O)[O-])cc4F)c4nc(c(-c5c(F)cc(S(=O)(=O)[O-])cc5F)c5ccc2[nH]5)C=C4)C=C3)cc1
REMARK SMILES IDX 22 1 21 2 20 3 18 4 19 5 17 7 16 8 11 9 12 10 13 11 15 12
REMARK SMILES IDX 14 13 10 14 9 16 3 17 4 18 5 19 7 20 6 21 8 22 2 23 1 24
REMARK SMILES IDX 23 25 24 26 25 27 26 28 27 30 28 31 29 32 93 33 30 34 92 35
REMARK SMILES IDX 31 36 32 37 33 38 86 39 34 40 91 41 85 42 87 43 35 44 90 45
REMARK SMILES IDX 84 46 83 47 36 49 70 50 49 51 69 52 50 53 53 54 68 55 88 56
REMARK SMILES IDX 51 57 52 58 67 60 89 61 54 62 37 63 38 64 47 65 39 66 40 67
REMARK SMILES IDX 46 68 48 69 41 70 42 71 43 72 44 73 45 74 71 75 72 76 81 77
REMARK SMILES IDX 73 78 74 79 80 80 82 81 75 82 76 83 77 84 78 85 79 86 55 87
REMARK SMILES IDX 56 88 65 89 57 90 58 91 64 92 66 93 59 94 60 95 61 96 62 97
REMARK SMILES IDX 63 98
REMARK H PARENT 20 6 10 15 25 29 87 48 53 59
REMARK Flexibility Score: inf
ROOT
ATOM      1  C   UNL A   1      32.274  29.402  26.408  1.00  0.00     0.023 C 
ENDROOT
BRANCH   1   2
ATOM      2  C   UNL A   1      31.924  28.463  27.565  1.00  0.00     0.116 C 
BRANCH   2   3
ATOM      3  N   UNL A   1      31.514  27.126  27.167  1.00  0.00    -0.356 N 
ATOM      4  C   UNL A   1      32.196  26.084  26.616  1.00  0.00     0.224 C 
ATOM      5  O   UNL A   1      31.667  24.969  26.706  1.00  0.00    -0.275 OA
ATOM      6  H   UNL A   1      30.561  26.938  27.327  1.00  0.00     0.163 HD
BRANCH   4   7
ATOM      7  C   UNL A   1      33.598  26.211  26.055  1.00  0.00     0.137 C 
BRANCH   7   8
ATOM      8  C   UNL A   1      34.203  25.027  25.330  1.00  0.00    -0.015 A 
ATOM      9  C   UNL A   1      34.149  24.822  23.933  1.00  0.00     0.042 A 
ATOM     10  C   UNL A   1      34.714  23.640  23.405  1.00  0.00     0.026 A 
ATOM     11  C   UNL A   1      35.304  22.675  24.219  1.00  0.00     0.002 A 
ATOM     12  C   UNL A   1      34.755  24.006  26.140  1.00  0.00     0.006 A 
ATOM     13  C   UNL A   1      35.317  22.853  25.592  1.00  0.00     0.000 A 
BRANCH   9  14
ATOM     14  N   UNL A   1      33.608  25.730  22.992  1.00  0.00    -0.355 N 
ATOM     15  H   UNL A   1      34.128  25.806  22.160  1.00  0.00     0.167 HD
BRANCH  14  16
ATOM     16  C   UNL A   1      32.455  26.546  23.033  1.00  0.00     0.045 A 
ATOM     17  C   UNL A   1      31.161  25.972  23.088  1.00  0.00    -0.024 A 
ATOM     18  C   UNL A   1      30.055  26.822  23.326  1.00  0.00     0.006 A 
ATOM     19  C   UNL A   1      30.195  28.199  23.428  1.00  0.00     0.001 A 
ATOM     20  C   UNL A   1      32.556  27.959  22.952  1.00  0.00    -0.027 A 
ATOM     21  C   UNL A   1      31.436  28.769  23.203  1.00  0.00     0.005 A 
ATOM     22  C   UNL A   1      33.824  28.641  22.520  1.00  0.00     0.046 C 
BRANCH  17  23
ATOM     23  C   UNL A   1      30.784  24.511  22.923  1.00  0.00     0.034 C 
ATOM     24  C   UNL A   1      30.889  23.528  24.078  1.00  0.00     0.009 C 
ENDBRANCH  17  23
ENDBRANCH  14  16
ENDBRANCH   9  14
ENDBRANCH   7   8
ENDBRANCH   4   7
ENDBRANCH   2   3
ENDBRANCH   1   2
BRANCH   1  25
ATOM     25  C   UNL A   1      33.312  30.484  26.708  1.00  0.00     0.023 C 
BRANCH  25  26
ATOM     26  C   UNL A   1      34.437  30.044  27.634  1.00  0.00     0.116 C 
BRANCH  26  27
ATOM     27  N   UNL A   1      35.253  31.176  28.076  1.00  0.00    -0.352 N 
ATOM     28  C   UNL A   1      36.569  31.165  28.526  1.00  0.00     0.251 C 
ATOM     29  H   UNL A   1      34.813  32.057  28.052  1.00  0.00     0.163 HD
ATOM     30  O   UNL A   1      37.148  32.149  28.895  1.00  0.00    -0.269 OA
BRANCH  28  31
ATOM     31  C   UNL A   1      37.233  29.844  28.493  1.00  0.00     0.039 A 
ATOM     32  C   UNL A   1      37.360  29.159  29.705  1.00  0.00     0.014 A 
ATOM     33  C   UNL A   1      38.025  29.544  27.389  1.00  0.00     0.014 A 
ATOM     34  C   UNL A   1      38.441  28.301  29.880  1.00  0.00     0.010 A 
ATOM     35  C   UNL A   1      39.141  28.755  27.597  1.00  0.00     0.010 A 
ATOM     36  C   UNL A   1      39.388  28.193  28.863  1.00  0.00    -0.014 A 
BRANCH  36  37
ATOM     37  C   UNL A   1      40.731  27.650  29.070  1.00  0.00     0.031 A 
ATOM     38  C   UNL A   1      41.040  26.254  28.671  1.00  0.00     0.074 A 
ATOM     39  C   UNL A   1      41.723  28.431  29.553  1.00  0.00     0.049 A 
ATOM     40  N   UNL A   1      42.107  25.606  29.005  1.00  0.00    -0.248 NA
ATOM     41  C   UNL A   1      40.100  25.438  27.915  1.00  0.00     0.031 C 
ATOM     42  C   UNL A   1      43.159  28.184  29.454  1.00  0.00     0.029 A 
ATOM     43  N   UNL A   1      41.641  29.526  30.402  1.00  0.00    -0.354 N 
ATOM     44  C   UNL A   1      42.133  24.423  28.299  1.00  0.00     0.074 A 
ATOM     45  C   UNL A   1      40.821  24.334  27.708  1.00  0.00     0.031 C 
ATOM     46  C   UNL A   1      43.798  28.926  30.371  1.00  0.00     0.029 A 
ATOM     47  C   UNL A   1      42.791  29.563  31.199  1.00  0.00     0.049 A 
ATOM     48  H   UNL A   1      40.898  30.171  30.437  1.00  0.00     0.167 HD
ATOM     49  C   UNL A   1      43.309  23.731  28.208  1.00  0.00     0.037 A 
ATOM     50  C   UNL A   1      42.739  29.447  32.559  1.00  0.00     0.037 A 
ATOM     51  C   UNL A   1      44.293  24.256  29.162  1.00  0.00     0.049 A 
ATOM     52  C   UNL A   1      43.440  28.226  33.115  1.00  0.00     0.074 A 
ATOM     53  C   UNL A   1      45.383  25.104  29.042  1.00  0.00     0.029 A 
ATOM     54  N   UNL A   1      44.047  24.132  30.528  1.00  0.00    -0.354 N 
ATOM     55  N   UNL A   1      43.846  27.222  32.387  1.00  0.00    -0.248 NA
ATOM     56  C   UNL A   1      43.718  28.027  34.536  1.00  0.00     0.031 C 
ATOM     57  C   UNL A   1      45.741  25.549  30.341  1.00  0.00     0.029 A 
ATOM     58  C   UNL A   1      44.885  24.958  31.254  1.00  0.00     0.049 A 
ATOM     59  H   UNL A   1      43.368  23.538  30.921  1.00  0.00     0.167 HD
ATOM     60  C   UNL A   1      44.362  26.244  33.197  1.00  0.00     0.074 A 
ATOM     61  C   UNL A   1      44.300  26.815  34.530  1.00  0.00     0.031 C 
ATOM     62  C   UNL A   1      44.777  25.037  32.706  1.00  0.00     0.037 A 
BRANCH  49  63
ATOM     63  C   UNL A   1      43.662  22.774  27.069  1.00  0.00     0.058 A 
ATOM     64  C   UNL A   1      42.971  21.547  26.917  1.00  0.00     0.135 A 
ATOM     65  C   UNL A   1      44.724  22.939  26.158  1.00  0.00     0.135 A 
ATOM     66  F   UNL A   1      41.877  21.266  27.638  1.00  0.00    -0.206 F 
ATOM     67  C   UNL A   1      43.370  20.541  26.028  1.00  0.00     0.059 A 
ATOM     68  C   UNL A   1      45.170  21.936  25.290  1.00  0.00     0.059 A 
ATOM     69  F   UNL A   1      45.360  24.102  26.010  1.00  0.00    -0.206 F 
ATOM     70  C   UNL A   1      44.496  20.729  25.241  1.00  0.00     0.060 A 
BRANCH  70  71
ATOM     71  S   UNL A   1      45.057  19.407  24.152  1.00  0.00     0.124 S 
ATOM     72  O   UNL A   1      44.514  18.221  24.806  1.00  0.00    -0.237 OA
ATOM     73  O   UNL A   1      44.440  19.775  22.883  1.00  0.00    -0.237 OA
ATOM     74  O   UNL A   1      46.513  19.525  24.195  1.00  0.00    -0.744 OA
ENDBRANCH  70  71
ENDBRANCH  49  63
BRANCH  50  75
ATOM     75  C   UNL A   1      41.564  30.120  33.172  1.00  0.00     0.058 A 
ATOM     76  C   UNL A   1      41.627  31.520  33.296  1.00  0.00     0.135 A 
ATOM     77  C   UNL A   1      40.299  29.517  33.175  1.00  0.00     0.135 A 
ATOM     78  F   UNL A   1      42.818  32.139  33.326  1.00  0.00    -0.206 F 
ATOM     79  C   UNL A   1      40.484  32.305  33.225  1.00  0.00     0.059 A 
ATOM     80  C   UNL A   1      39.136  30.288  33.108  1.00  0.00     0.059 A 
ATOM     81  F   UNL A   1      40.183  28.186  33.068  1.00  0.00    -0.206 F 
ATOM     82  C   UNL A   1      39.253  31.678  33.050  1.00  0.00     0.060 A 
BRANCH  82  83
ATOM     83  S   UNL A   1      37.869  32.704  32.501  1.00  0.00     0.124 S 
ATOM     84  O   UNL A   1      36.936  31.708  31.986  1.00  0.00    -0.237 OA
ATOM     85  O   UNL A   1      37.484  33.348  33.756  1.00  0.00    -0.237 OA
ATOM     86  O   UNL A   1      38.477  33.580  31.506  1.00  0.00    -0.744 OA
ENDBRANCH  82  83
ENDBRANCH  50  75
BRANCH  62  87
ATOM     87  C   UNL A   1      45.187  23.848  33.541  1.00  0.00     0.058 A 
ATOM     88  C   UNL A   1      46.420  23.743  34.208  1.00  0.00     0.135 A 
ATOM     89  C   UNL A   1      44.263  22.808  33.801  1.00  0.00     0.135 A 
ATOM     90  F   UNL A   1      47.335  24.721  34.136  1.00  0.00    -0.206 F 
ATOM     91  C   UNL A   1      46.747  22.651  35.014  1.00  0.00     0.059 A 
ATOM     92  C   UNL A   1      44.549  21.735  34.645  1.00  0.00     0.059 A 
ATOM     93  F   UNL A   1      43.042  22.806  33.246  1.00  0.00    -0.206 F 
ATOM     94  C   UNL A   1      45.805  21.650  35.226  1.00  0.00     0.060 A 
BRANCH  94  95
ATOM     95  S   UNL A   1      46.187  20.258  36.308  1.00  0.00     0.124 S 
ATOM     96  O   UNL A   1      45.262  19.242  35.814  1.00  0.00    -0.237 OA
ATOM     97  O   UNL A   1      47.600  20.006  36.034  1.00  0.00    -0.237 OA
ATOM     98  O   UNL A   1      45.900  20.787  37.637  1.00  0.00    -0.744 OA
ENDBRANCH  94  95
ENDBRANCH  62  87
ENDBRANCH  36  37
ENDBRANCH  28  31
ENDBRANCH  26  27
ENDBRANCH  25  26
ENDBRANCH   1  25
TORSDOF 18
ENDMDL
MODEL 2
REMARK VINA RESULT:     -12.9      4.733     11.164
REMARK SMILES CCc1cccc(C)c1Nc1ccccc1CC(=O)NCCCCNC(=O)c1ccc(-c2c3nc(c(-c4c(F)cc(S(=O)(=O)[O-])cc4F)c4ccc([nH]4)c(-c4c(F)cc(S(=O)(=O)[O-])cc4F)c4nc(c(-c5c(F)cc(S(=O)(=O)[O-])cc5F)c5ccc2[nH]5)C=C4)C=C3)cc1
REMARK SMILES IDX 22 1 21 2 20 3 18 4 19 5 17 7 16 8 11 9 12 10 13 11 15 12
REMARK SMILES IDX 14 13 10 14 9 16 3 17 4 18 5 19 7 20 6 21 8 22 2 23 1 24
REMARK SMILES IDX 23 25 24 26 25 27 26 28 27 30 28 31 29 32 93 33 30 34 92 35
REMARK SMILES IDX 31 36 32 37 33 38 86 39 34 40 91 41 85 42 87 43 35 44 90 45
REMARK SMILES IDX 84 46 83 47 36 49 70 50 49 51 69 52 50 53 53 54 68 55 88 56
REMARK SMILES IDX 51 57 52 58 67 60 89 61 54 62 37 63 38 64 47 65 39 66 40 67
REMARK SMILES IDX 46 68 48 69 41 70 42 71 43 72 44 73 45 74 71 75 72 76 81 77
REMARK SMILES IDX 73 78 74 79 80 80 82 81 75 82 76 83 77 84 78 85 79 86 55 87
REMARK SMILES IDX 56 88 65 89 57 90 58 91 64 92 66 93 59 94 60 95 61 96 62 97
REMARK SMILES IDX 63 98
REMARK H PARENT 20 6 10 15 25 29 87 48 53 59
REMARK Flexibility Score: inf
ROOT
ATOM      1  C   UNL A   1      36.653  21.762  24.460  1.00  0.00     0.023 C 
ENDROOT
BRANCH   1   2
ATOM      2  C   UNL A   1      36.722  22.973  23.526  1.00  0.00     0.116 C 
BRANCH   2   3
ATOM      3  N   UNL A   1      35.473  23.305  22.859  1.00  0.00    -0.356 N 
ATOM      4  C   UNL A   1      34.417  24.083  23.226  1.00  0.00     0.224 C 
ATOM      5  O   UNL A   1      33.661  24.450  22.318  1.00  0.00    -0.275 OA
ATOM      6  H   UNL A   1      35.371  22.888  21.973  1.00  0.00     0.163 HD
BRANCH   4   7
ATOM      7  C   UNL A   1      34.229  24.624  24.628  1.00  0.00     0.137 C 
BRANCH   7   8
ATOM      8  C   UNL A   1      32.822  24.765  25.173  1.00  0.00    -0.015 A 
ATOM      9  C   UNL A   1      32.123  25.986  25.295  1.00  0.00     0.042 A 
ATOM     10  C   UNL A   1      30.834  25.968  25.872  1.00  0.00     0.026 A 
ATOM     11  C   UNL A   1      30.246  24.790  26.331  1.00  0.00     0.002 A 
ATOM     12  C   UNL A   1      32.228  23.593  25.699  1.00  0.00     0.006 A 
ATOM     13  C   UNL A   1      30.949  23.600  26.254  1.00  0.00     0.000 A 
BRANCH   9  14
ATOM     14  N   UNL A   1      32.588  27.245  24.845  1.00  0.00    -0.355 N 
ATOM     15  H   UNL A   1      33.180  27.200  24.061  1.00  0.00     0.167 HD
BRANCH  14  16
ATOM     16  C   UNL A   1      32.353  28.556  25.319  1.00  0.00     0.045 A 
ATOM     17  C   UNL A   1      31.425  29.407  24.670  1.00  0.00    -0.024 A 
ATOM     18  C   UNL A   1      31.079  30.629  25.293  1.00  0.00     0.006 A 
ATOM     19  C   UNL A   1      31.678  31.047  26.474  1.00  0.00     0.001 A 
ATOM     20  C   UNL A   1      33.086  29.079  26.415  1.00  0.00    -0.027 A 
ATOM     21  C   UNL A   1      32.706  30.292  27.012  1.00  0.00     0.005 A 
ATOM     22  C   UNL A   1      34.331  28.413  26.928  1.00  0.00     0.046 C 
BRANCH  17  23
ATOM     23  C   UNL A   1      30.721  29.176  23.344  1.00  0.00     0.034 C 
ATOM     24  C   UNL A   1      29.481  28.303  23.245  1.00  0.00     0.009 C 
ENDBRANCH  17  23
ENDBRANCH  14  16
ENDBRANCH   9  14
ENDBRANCH   7   8
ENDBRANCH   4   7
ENDBRANCH   2   3
ENDBRANCH   1   2
BRANCH   1  25
ATOM     25  C   UNL A   1      37.828  21.584  25.421  1.00  0.00     0.023 C 
BRANCH  25  26
ATOM     26  C   UNL A   1      38.276  22.861  26.117  1.00  0.00     0.116 C 
BRANCH  26  27
ATOM     27  N   UNL A   1      39.566  22.692  26.787  1.00  0.00    -0.352 N 
ATOM     28  C   UNL A   1      40.321  23.649  27.457  1.00  0.00     0.251 C 
ATOM     29  H   UNL A   1      39.950  21.785  26.759  1.00  0.00     0.163 HD
ATOM     30  O   UNL A   1      41.389  23.419  27.953  1.00  0.00    -0.269 OA
BRANCH  28  31
ATOM     31  C   UNL A   1      39.701  24.989  27.544  1.00  0.00     0.039 A 
ATOM     32  C   UNL A   1      40.204  25.986  26.704  1.00  0.00     0.014 A 
ATOM     33  C   UNL A   1      38.966  25.289  28.688  1.00  0.00     0.014 A 
ATOM     34  C   UNL A   1      40.149  27.310  27.126  1.00  0.00     0.010 A 
ATOM     35  C   UNL A   1      38.988  26.595  29.139  1.00  0.00     0.010 A 
ATOM     36  C   UNL A   1      39.642  27.593  28.395  1.00  0.00    -0.014 A 
BRANCH  36  37
ATOM     37  C   UNL A   1      39.885  28.856  29.093  1.00  0.00     0.031 A 
ATOM     38  C   UNL A   1      38.896  29.960  29.004  1.00  0.00     0.074 A 
ATOM     39  C   UNL A   1      40.969  29.007  29.887  1.00  0.00     0.049 A 
ATOM     40  N   UNL A   1      39.106  31.176  29.386  1.00  0.00    -0.248 NA
ATOM     41  C   UNL A   1      37.592  29.783  28.380  1.00  0.00     0.031 C 
ATOM     42  C   UNL A   1      41.156  30.010  30.931  1.00  0.00     0.029 A 
ATOM     43  N   UNL A   1      42.214  28.400  29.795  1.00  0.00    -0.354 N 
ATOM     44  C   UNL A   1      37.911  31.859  29.327  1.00  0.00     0.074 A 
ATOM     45  C   UNL A   1      37.028  30.970  28.613  1.00  0.00     0.031 C 
ATOM     46  C   UNL A   1      42.464  30.113  31.213  1.00  0.00     0.029 A 
ATOM     47  C   UNL A   1      43.185  29.294  30.257  1.00  0.00     0.049 A 
ATOM     48  H   UNL A   1      42.385  27.489  29.460  1.00  0.00     0.167 HD
ATOM     49  C   UNL A   1      37.790  33.043  30.000  1.00  0.00     0.037 A 
ATOM     50  C   UNL A   1      44.184  29.765  29.452  1.00  0.00     0.037 A 
ATOM     51  C   UNL A   1      39.105  33.525  30.440  1.00  0.00     0.049 A 
ATOM     52  C   UNL A   1      44.155  31.261  29.222  1.00  0.00     0.074 A 
ATOM     53  C   UNL A   1      39.775  33.498  31.653  1.00  0.00     0.029 A 
ATOM     54  N   UNL A   1      40.050  33.888  29.483  1.00  0.00    -0.354 N 
ATOM     55  N   UNL A   1      43.147  32.028  29.529  1.00  0.00    -0.248 NA
ATOM     56  C   UNL A   1      45.249  32.007  28.602  1.00  0.00     0.031 C 
ATOM     57  C   UNL A   1      41.145  33.774  31.407  1.00  0.00     0.029 A 
ATOM     58  C   UNL A   1      41.307  33.987  30.049  1.00  0.00     0.049 A 
ATOM     59  H   UNL A   1      39.849  34.050  28.533  1.00  0.00     0.167 HD
ATOM     60  C   UNL A   1      43.399  33.311  29.117  1.00  0.00     0.074 A 
ATOM     61  C   UNL A   1      44.748  33.254  28.582  1.00  0.00     0.031 C 
ATOM     62  C   UNL A   1      42.470  34.307  29.228  1.00  0.00     0.037 A 
BRANCH  49  63
ATOM     63  C   UNL A   1      36.467  33.620  30.503  1.00  0.00     0.058 A 
ATOM     64  C   UNL A   1      35.540  34.195  29.600  1.00  0.00     0.135 A 
ATOM     65  C   UNL A   1      36.084  33.737  31.855  1.00  0.00     0.135 A 
ATOM     66  F   UNL A   1      35.699  34.092  28.274  1.00  0.00    -0.206 F 
ATOM     67  C   UNL A   1      34.409  34.914  30.008  1.00  0.00     0.059 A 
ATOM     68  C   UNL A   1      34.985  34.485  32.291  1.00  0.00     0.059 A 
ATOM     69  F   UNL A   1      36.719  33.088  32.833  1.00  0.00    -0.206 F 
ATOM     70  C   UNL A   1      34.158  35.086  31.361  1.00  0.00     0.060 A 
BRANCH  70  71
ATOM     71  S   UNL A   1      32.747  36.075  31.889  1.00  0.00     0.124 S 
ATOM     72  O   UNL A   1      32.250  36.602  30.622  1.00  0.00    -0.237 OA
ATOM     73  O   UNL A   1      31.903  35.080  32.542  1.00  0.00    -0.237 OA
ATOM     74  O   UNL A   1      33.342  37.069  32.781  1.00  0.00    -0.744 OA
ENDBRANCH  70  71
ENDBRANCH  49  63
BRANCH  50  75
ATOM     75  C   UNL A   1      44.708  28.755  28.497  1.00  0.00     0.058 A 
ATOM     76  C   UNL A   1      44.151  28.751  27.206  1.00  0.00     0.135 A 
ATOM     77  C   UNL A   1      45.977  28.183  28.665  1.00  0.00     0.135 A 
ATOM     78  F   UNL A   1      42.925  29.263  27.002  1.00  0.00    -0.206 F 
ATOM     79  C   UNL A   1      44.896  28.379  26.096  1.00  0.00     0.059 A 
ATOM     80  C   UNL A   1      46.742  27.798  27.562  1.00  0.00     0.059 A 
ATOM     81  F   UNL A   1      46.551  28.153  29.876  1.00  0.00    -0.206 F 
ATOM     82  C   UNL A   1      46.217  27.981  26.282  1.00  0.00     0.060 A 
BRANCH  82  83
ATOM     83  S   UNL A   1      47.289  27.955  24.826  1.00  0.00     0.124 S 
ATOM     84  O   UNL A   1      46.712  29.009  24.001  1.00  0.00    -0.237 OA
ATOM     85  O   UNL A   1      48.587  28.257  25.429  1.00  0.00    -0.237 OA
ATOM     86  O   UNL A   1      47.134  26.595  24.321  1.00  0.00    -0.744 OA
ENDBRANCH  82  83
ENDBRANCH  50  75
BRANCH  62  87
ATOM     87  C   UNL A   1      42.599  35.692  28.641  1.00  0.00     0.058 A 
ATOM     88  C   UNL A   1      42.142  36.049  27.360  1.00  0.00     0.135 A 
ATOM     89  C   UNL A   1      43.089  36.759  29.432  1.00  0.00     0.135 A 
ATOM     90  F   UNL A   1      41.550  35.152  26.558  1.00  0.00    -0.206 F 
ATOM     91  C   UNL A   1      42.232  37.353  26.868  1.00  0.00     0.059 A 
ATOM     92  C   UNL A   1      43.138  38.076  28.980  1.00  0.00     0.059 A 
ATOM     93  F   UNL A   1      43.530  36.553  30.682  1.00  0.00    -0.206 F 
ATOM     94  C   UNL A   1      42.733  38.361  27.684  1.00  0.00     0.060 A 
BRANCH  94  95
ATOM     95  S   UNL A   1      42.806  40.061  27.087  1.00  0.00     0.124 S 
ATOM     96  O   UNL A   1      44.127  40.096  26.467  1.00  0.00    -0.237 OA
ATOM     97  O   UNL A   1      41.678  40.134  26.163  1.00  0.00    -0.237 OA
ATOM     98  O   UNL A   1      42.656  40.845  28.308  1.00  0.00    -0.744 OA
ENDBRANCH  94  95
ENDBRANCH  62  87
ENDBRANCH  36  37
ENDBRANCH  28  31
ENDBRANCH  26  27
ENDBRANCH  25  26
ENDBRANCH   1  25
TORSDOF 18
ENDMDL
MODEL 3
REMARK VINA RESULT:     -12.8      4.541     11.200
REMARK SMILES CCc1cccc(C)c1Nc1ccccc1CC(=O)NCCCCNC(=O)c1ccc(-c2c3nc(c(-c4c(F)cc(S(=O)(=O)[O-])cc4F)c4ccc([nH]4)c(-c4c(F)cc(S(=O)(=O)[O-])cc4F)c4nc(c(-c5c(F)cc(S(=O)(=O)[O-])cc5F)c5ccc2[nH]5)C=C4)C=C3)cc1
REMARK SMILES IDX 22 1 21 2 20 3 18 4 19 5 17 7 16 8 11 9 12 10 13 11 15 12
REMARK SMILES IDX 14 13 10 14 9 16 3 17 4 18 5 19 7 20 6 21 8 22 2 23 1 24
REMARK SMILES IDX 23 25 24 26 25 27 26 28 27 30 28 31 29 32 93 33 30 34 92 35
REMARK SMILES IDX 31 36 32 37 33 38 86 39 34 40 91 41 85 42 87 43 35 44 90 45
REMARK SMILES IDX 84 46 83 47 36 49 70 50 49 51 69 52 50 53 53 54 68 55 88 56
REMARK SMILES IDX 51 57 52 58 67 60 89 61 54 62 37 63 38 64 47 65 39 66 40 67
REMARK SMILES IDX 46 68 48 69 41 70 42 71 43 72 44 73 45 74 71 75 72 76 81 77
REMARK SMILES IDX 73 78 74 79 80 80 82 81 75 82 76 83 77 84 78 85 79 86 55 87
REMARK SMILES IDX 56 88 65 89 57 90 58 91 64 92 66 93 59 94 60 95 61 96 62 97
REMARK SMILES IDX 63 98
REMARK H PARENT 20 6 10 15 25 29 87 48 53 59
REMARK Flexibility Score: inf
ROOT
ATOM      1  C   UNL A   1      36.992  22.244  24.046  1.00  0.00     0.023 C 
ENDROOT
BRANCH   1   2
ATOM      2  C   UNL A   1      35.476  22.313  24.244  1.00  0.00     0.116 C 
BRANCH   2   3
ATOM      3  N   UNL A   1      34.935  21.338  25.178  1.00  0.00    -0.356 N 
ATOM      4  C   UNL A   1      34.145  21.466  26.280  1.00  0.00     0.224 C 
ATOM      5  O   UNL A   1      33.570  20.441  26.667  1.00  0.00    -0.275 OA
ATOM      6  H   UNL A   1      35.188  20.409  24.975  1.00  0.00     0.163 HD
BRANCH   4   7
ATOM      7  C   UNL A   1      33.833  22.798  26.931  1.00  0.00     0.137 C 
BRANCH   7   8
ATOM      8  C   UNL A   1      32.524  23.484  26.596  1.00  0.00    -0.015 A 
ATOM      9  C   UNL A   1      32.410  24.717  25.916  1.00  0.00     0.042 A 
ATOM     10  C   UNL A   1      31.121  25.261  25.722  1.00  0.00     0.026 A 
ATOM     11  C   UNL A   1      29.972  24.625  26.191  1.00  0.00     0.002 A 
ATOM     12  C   UNL A   1      31.349  22.888  27.112  1.00  0.00     0.006 A 
ATOM     13  C   UNL A   1      30.086  23.439  26.896  1.00  0.00     0.000 A 
BRANCH   9  14
ATOM     14  N   UNL A   1      33.487  25.451  25.365  1.00  0.00    -0.355 N 
ATOM     15  H   UNL A   1      34.376  25.120  25.625  1.00  0.00     0.167 HD
BRANCH  14  16
ATOM     16  C   UNL A   1      33.515  26.574  24.507  1.00  0.00     0.045 A 
ATOM     17  C   UNL A   1      33.535  27.889  25.034  1.00  0.00    -0.024 A 
ATOM     18  C   UNL A   1      33.762  28.968  24.147  1.00  0.00     0.006 A 
ATOM     19  C   UNL A   1      33.885  28.780  22.777  1.00  0.00     0.001 A 
ATOM     20  C   UNL A   1      33.455  26.419  23.098  1.00  0.00    -0.027 A 
ATOM     21  C   UNL A   1      33.694  27.513  22.251  1.00  0.00     0.005 A 
ATOM     22  C   UNL A   1      33.059  25.119  22.458  1.00  0.00     0.046 C 
BRANCH  17  23
ATOM     23  C   UNL A   1      33.343  28.316  26.478  1.00  0.00     0.034 C 
ATOM     24  C   UNL A   1      34.225  29.377  27.117  1.00  0.00     0.009 C 
ENDBRANCH  17  23
ENDBRANCH  14  16
ENDBRANCH   9  14
ENDBRANCH   7   8
ENDBRANCH   4   7
ENDBRANCH   2   3
ENDBRANCH   1   2
BRANCH   1  25
ATOM     25  C   UNL A   1      37.826  21.996  25.303  1.00  0.00     0.023 C 
BRANCH  25  26
ATOM     26  C   UNL A   1      38.289  23.258  26.016  1.00  0.00     0.116 C 
BRANCH  26  27
ATOM     27  N   UNL A   1      39.594  23.076  26.653  1.00  0.00    -0.352 N 
ATOM     28  C   UNL A   1      40.388  24.032  27.278  1.00  0.00     0.251 C 
ATOM     29  H   UNL A   1      39.957  22.161  26.635  1.00  0.00     0.163 HD
ATOM     30  O   UNL A   1      41.464  23.789  27.750  1.00  0.00    -0.269 OA
BRANCH  28  31
ATOM     31  C   UNL A   1      39.799  25.387  27.352  1.00  0.00     0.039 A 
ATOM     32  C   UNL A   1      40.390  26.388  26.576  1.00  0.00     0.014 A 
ATOM     33  C   UNL A   1      38.988  25.682  28.444  1.00  0.00     0.014 A 
ATOM     34  C   UNL A   1      40.339  27.703  27.024  1.00  0.00     0.010 A 
ATOM     35  C   UNL A   1      39.011  26.977  28.927  1.00  0.00     0.010 A 
ATOM     36  C   UNL A   1      39.747  27.972  28.258  1.00  0.00    -0.014 A 
BRANCH  36  37
ATOM     37  C   UNL A   1      39.970  29.212  29.003  1.00  0.00     0.031 A 
ATOM     38  C   UNL A   1      38.947  30.287  28.985  1.00  0.00     0.074 A 
ATOM     39  C   UNL A   1      41.069  29.362  29.775  1.00  0.00     0.049 A 
ATOM     40  N   UNL A   1      39.131  31.493  29.413  1.00  0.00    -0.248 NA
ATOM     41  C   UNL A   1      37.633  30.096  28.386  1.00  0.00     0.031 C 
ATOM     42  C   UNL A   1      41.254  30.327  30.856  1.00  0.00     0.029 A 
ATOM     43  N   UNL A   1      42.329  28.798  29.627  1.00  0.00    -0.354 N 
ATOM     44  C   UNL A   1      37.915  32.140  29.412  1.00  0.00     0.074 A 
ATOM     45  C   UNL A   1      37.041  31.256  28.683  1.00  0.00     0.031 C 
ATOM     46  C   UNL A   1      42.565  30.458  31.110  1.00  0.00     0.029 A 
ATOM     47  C   UNL A   1      43.285  29.702  30.102  1.00  0.00     0.049 A 
ATOM     48  H   UNL A   1      42.518  27.908  29.250  1.00  0.00     0.167 HD
ATOM     49  C   UNL A   1      37.777  33.292  30.137  1.00  0.00     0.037 A 
ATOM     50  C   UNL A   1      44.249  30.236  29.294  1.00  0.00     0.037 A 
ATOM     51  C   UNL A   1      39.088  33.794  30.565  1.00  0.00     0.049 A 
ATOM     52  C   UNL A   1      44.170  31.738  29.127  1.00  0.00     0.074 A 
ATOM     53  C   UNL A   1      39.789  33.738  31.759  1.00  0.00     0.029 A 
ATOM     54  N   UNL A   1      39.997  34.226  29.601  1.00  0.00    -0.354 N 
ATOM     55  N   UNL A   1      43.147  32.461  29.492  1.00  0.00    -0.248 NA
ATOM     56  C   UNL A   1      45.225  32.543  28.513  1.00  0.00     0.031 C 
ATOM     57  C   UNL A   1      41.144  34.065  31.490  1.00  0.00     0.029 A 
ATOM     58  C   UNL A   1      41.265  34.340  30.139  1.00  0.00     0.049 A 
ATOM     59  H   UNL A   1      39.767  34.420  28.664  1.00  0.00     0.167 HD
ATOM     60  C   UNL A   1      43.351  33.767  29.128  1.00  0.00     0.074 A 
ATOM     61  C   UNL A   1      44.686  33.773  28.558  1.00  0.00     0.031 C 
ATOM     62  C   UNL A   1      42.396  34.729  29.304  1.00  0.00     0.037 A 
BRANCH  49  63
ATOM     63  C   UNL A   1      36.450  33.806  30.697  1.00  0.00     0.058 A 
ATOM     64  C   UNL A   1      35.432  34.269  29.829  1.00  0.00     0.135 A 
ATOM     65  C   UNL A   1      36.146  33.971  32.063  1.00  0.00     0.135 A 
ATOM     66  F   UNL A   1      35.515  34.105  28.502  1.00  0.00    -0.206 F 
ATOM     67  C   UNL A   1      34.281  34.933  30.275  1.00  0.00     0.059 A 
ATOM     68  C   UNL A   1      35.026  34.667  32.533  1.00  0.00     0.059 A 
ATOM     69  F   UNL A   1      36.883  33.419  33.028  1.00  0.00    -0.206 F 
ATOM     70  C   UNL A   1      34.103  35.161  31.630  1.00  0.00     0.060 A 
BRANCH  70  71
ATOM     71  S   UNL A   1      32.663  36.083  32.200  1.00  0.00     0.124 S 
ATOM     72  O   UNL A   1      32.285  36.831  31.005  1.00  0.00    -0.237 OA
ATOM     73  O   UNL A   1      31.754  35.013  32.598  1.00  0.00    -0.237 OA
ATOM     74  O   UNL A   1      33.188  36.893  33.297  1.00  0.00    -0.744 OA
ENDBRANCH  70  71
ENDBRANCH  49  63
BRANCH  50  75
ATOM     75  C   UNL A   1      44.777  29.283  28.284  1.00  0.00     0.058 A 
ATOM     76  C   UNL A   1      45.775  28.390  28.713  1.00  0.00     0.135 A 
ATOM     77  C   UNL A   1      44.030  28.935  27.150  1.00  0.00     0.135 A 
ATOM     78  F   UNL A   1      46.535  28.693  29.779  1.00  0.00    -0.206 F 
ATOM     79  C   UNL A   1      45.896  27.120  28.166  1.00  0.00     0.059 A 
ATOM     80  C   UNL A   1      44.139  27.664  26.581  1.00  0.00     0.059 A 
ATOM     81  F   UNL A   1      43.072  29.754  26.693  1.00  0.00    -0.206 F 
ATOM     82  C   UNL A   1      45.016  26.743  27.154  1.00  0.00     0.060 A 
BRANCH  82  83
ATOM     83  S   UNL A   1      44.878  24.978  26.789  1.00  0.00     0.124 S 
ATOM     84  O   UNL A   1      44.463  24.430  28.075  1.00  0.00    -0.237 OA
ATOM     85  O   UNL A   1      43.858  24.988  25.741  1.00  0.00    -0.237 OA
ATOM     86  O   UNL A   1      46.223  24.621  26.351  1.00  0.00    -0.744 OA
ENDBRANCH  82  83
ENDBRANCH  50  75
BRANCH  62  87
ATOM     87  C   UNL A   1      42.468  36.140  28.773  1.00  0.00     0.058 A 
ATOM     88  C   UNL A   1      42.996  37.226  29.493  1.00  0.00     0.135 A 
ATOM     89  C   UNL A   1      42.113  36.415  27.430  1.00  0.00     0.135 A 
ATOM     90  F   UNL A   1      43.476  37.068  30.736  1.00  0.00    -0.206 F 
ATOM     91  C   UNL A   1      43.094  38.510  28.952  1.00  0.00     0.059 A 
ATOM     92  C   UNL A   1      42.252  37.676  26.853  1.00  0.00     0.059 A 
ATOM     93  F   UNL A   1      41.623  35.457  26.630  1.00  0.00    -0.206 F 
ATOM     94  C   UNL A   1      42.719  38.727  27.631  1.00  0.00     0.060 A 
BRANCH  94  95
ATOM     95  S   UNL A   1      42.890  40.365  26.895  1.00  0.00     0.124 S 
ATOM     96  O   UNL A   1      43.711  40.074  25.724  1.00  0.00    -0.237 OA
ATOM     97  O   UNL A   1      41.508  40.745  26.614  1.00  0.00    -0.237 OA
ATOM     98  O   UNL A   1      43.539  41.133  27.952  1.00  0.00    -0.744 OA
ENDBRANCH  94  95
ENDBRANCH  62  87
ENDBRANCH  36  37
ENDBRANCH  28  31
ENDBRANCH  26  27
ENDBRANCH  25  26
ENDBRANCH   1  25
TORSDOF 18
ENDMDL
