MODEL 1
REMARK VINA RESULT:     -11.5      0.000      0.000
REMARK SMILES CC[C@@H]1CCc2c(sc(NC(=O)COCC(=O)NCCCCNC(=O)c3ccc(-c4c5nc(c(-c6c(F)cc(S(=O)(=O)[O-])cc6F)c6ccc([nH]6)c(-c6c(F)cc(S(=O)(=O)[O-])cc6F)c6nc(c(-c7c(F)cc(S(=O)(=O)[O-])cc7F)c7ccc4[nH]7)C=C6)C=C5)cc3)c2C(N)=O)C1
REMARK SMILES IDX 19 1 18 2 16 3 17 4 15 6 14 7 13 8 11 9 10 10 12 12 9 13
REMARK SMILES IDX 3 14 4 15 96 16 5 17 7 18 6 19 8 20 92 21 2 22 1 23 93 24
REMARK SMILES IDX 94 25 95 26 20 29 21 30 22 31 23 32 24 33 25 35 26 36 27 37
REMARK SMILES IDX 91 38 28 39 90 40 29 41 30 42 31 43 84 44 32 45 89 46 83 47
REMARK SMILES IDX 85 48 33 49 88 50 82 51 81 52 34 54 68 55 47 56 67 57 48 58
REMARK SMILES IDX 51 59 66 60 86 61 49 62 50 63 65 65 87 66 52 67 35 68 36 69
REMARK SMILES IDX 45 70 37 71 38 72 44 73 46 74 39 75 40 76 41 77 42 78 43 79
REMARK SMILES IDX 69 80 70 81 79 82 71 83 72 84 78 85 80 86 73 87 74 88 75 89
REMARK SMILES IDX 76 90 77 91 53 92 54 93 63 94 55 95 56 96 62 97 64 98 57 99
REMARK SMILES IDX 58 100 59 101 60 102 61 103
REMARK H PARENT 18 5 10 11 94 27 94 28 23 34 85 53 51 64
REMARK Flexibility Score: inf
ROOT
ATOM      1  C   UNL A   1      38.179  21.687  25.359  1.00  0.00     0.116 C 
ENDROOT
BRANCH   1   2
ATOM      2  N   UNL A   1      37.170  22.378  26.143  1.00  0.00    -0.354 N 
ATOM      3  C   UNL A   1      35.861  22.608  25.825  1.00  0.00     0.246 C 
ATOM      4  O   UNL A   1      35.146  23.224  26.618  1.00  0.00    -0.272 OA
ATOM      5  H   UNL A   1      37.469  22.727  27.014  1.00  0.00     0.163 HD
BRANCH   3   6
ATOM      6  C   UNL A   1      35.313  22.090  24.497  1.00  0.00     0.260 C 
BRANCH   6   7
ATOM      7  O   UNL A   1      34.713  20.811  24.642  1.00  0.00    -0.362 OA
BRANCH   7   8
ATOM      8  C   UNL A   1      33.339  20.878  24.973  1.00  0.00     0.261 C 
BRANCH   8   9
ATOM      9  C   UNL A   1      32.471  21.332  23.813  1.00  0.00     0.251 C 
ATOM     10  N   UNL A   1      32.066  22.612  23.623  1.00  0.00    -0.315 N 
ATOM     11  H   UNL A   1      31.629  22.735  22.749  1.00  0.00     0.170 HD
ATOM     12  O   UNL A   1      32.106  20.504  22.966  1.00  0.00    -0.272 OA
BRANCH  10  13
ATOM     13  C   UNL A   1      32.113  23.783  24.346  1.00  0.00     0.108 A 
ATOM     14  C   UNL A   1      33.079  28.452  25.588  1.00  0.00    -0.006 C 
ATOM     15  C   UNL A   1      31.729  28.124  26.268  1.00  0.00     0.009 C 
ATOM     16  C   UNL A   1      33.255  27.569  24.318  1.00  0.00     0.050 C 
ATOM     17  C   UNL A   1      31.663  26.664  26.745  1.00  0.00     0.038 C 
ATOM     18  C   UNL A   1      32.750  26.170  24.533  1.00  0.00     0.011 A 
ATOM     19  C   UNL A   1      32.051  25.728  25.634  1.00  0.00    -0.019 A 
ATOM     20  S   UNL A   1      32.890  24.966  23.357  1.00  0.00    -0.122 S 
ATOM     21  C   UNL A   1      31.746  24.308  25.573  1.00  0.00     0.077 A 
BRANCH  14  22
ATOM     22  C   UNL A   1      34.286  28.302  26.542  1.00  0.00     0.000 C 
ATOM     23  C   UNL A   1      34.548  29.529  27.412  1.00  0.00     0.004 C 
ENDBRANCH  14  22
BRANCH  21  24
ATOM     24  C   UNL A   1      31.104  23.675  26.712  1.00  0.00     0.251 C 
ATOM     25  N   UNL A   1      29.750  23.801  26.778  1.00  0.00    -0.365 N 
ATOM     26  O   UNL A   1      31.738  23.204  27.645  1.00  0.00    -0.269 OA
ATOM     27  H   UNL A   1      29.253  24.182  26.017  1.00  0.00     0.159 HD
ATOM     28  H   UNL A   1      29.266  23.511  27.586  1.00  0.00     0.159 HD
ENDBRANCH  21  24
ENDBRANCH  10  13
ENDBRANCH   8   9
ENDBRANCH   7   8
ENDBRANCH   6   7
ENDBRANCH   3   6
ENDBRANCH   1   2
BRANCH   1  29
ATOM     29  C   UNL A   1      39.466  21.440  26.143  1.00  0.00     0.023 C 
BRANCH  29  30
ATOM     30  C   UNL A   1      39.815  22.476  27.208  1.00  0.00     0.023 C 
BRANCH  30  31
ATOM     31  C   UNL A   1      41.256  22.967  27.211  1.00  0.00     0.116 C 
BRANCH  31  32
ATOM     32  N   UNL A   1      41.591  23.798  26.067  1.00  0.00    -0.352 N 
ATOM     33  C   UNL A   1      41.743  25.165  26.012  1.00  0.00     0.251 C 
ATOM     34  H   UNL A   1      41.728  23.319  25.217  1.00  0.00     0.163 HD
ATOM     35  O   UNL A   1      41.939  25.719  24.933  1.00  0.00    -0.269 OA
BRANCH  33  36
ATOM     36  C   UNL A   1      41.621  25.973  27.249  1.00  0.00     0.039 A 
ATOM     37  C   UNL A   1      42.710  26.749  27.657  1.00  0.00     0.014 A 
ATOM     38  C   UNL A   1      40.437  25.988  27.990  1.00  0.00     0.014 A 
ATOM     39  C   UNL A   1      42.583  27.600  28.758  1.00  0.00     0.010 A 
ATOM     40  C   UNL A   1      40.289  26.888  29.043  1.00  0.00     0.010 A 
ATOM     41  C   UNL A   1      41.359  27.707  29.436  1.00  0.00    -0.014 A 
BRANCH  41  42
ATOM     42  C   UNL A   1      41.172  28.664  30.559  1.00  0.00     0.031 A 
ATOM     43  C   UNL A   1      42.033  28.560  31.788  1.00  0.00     0.074 A 
ATOM     44  C   UNL A   1      40.177  29.572  30.508  1.00  0.00     0.049 A 
ATOM     45  N   UNL A   1      41.953  29.226  32.912  1.00  0.00    -0.248 NA
ATOM     46  C   UNL A   1      43.105  27.552  31.762  1.00  0.00     0.031 C 
ATOM     47  C   UNL A   1      39.238  29.742  29.396  1.00  0.00     0.029 A 
ATOM     48  N   UNL A   1      39.781  30.516  31.422  1.00  0.00    -0.354 N 
ATOM     49  C   UNL A   1      42.943  28.699  33.734  1.00  0.00     0.074 A 
ATOM     50  C   UNL A   1      43.584  27.633  32.995  1.00  0.00     0.031 C 
ATOM     51  C   UNL A   1      38.388  30.740  29.686  1.00  0.00     0.029 A 
ATOM     52  C   UNL A   1      38.697  31.260  31.015  1.00  0.00     0.049 A 
ATOM     53  H   UNL A   1      40.229  30.649  32.288  1.00  0.00     0.167 HD
ATOM     54  C   UNL A   1      43.298  29.082  34.984  1.00  0.00     0.037 A 
ATOM     55  C   UNL A   1      38.025  32.245  31.642  1.00  0.00     0.037 A 
ATOM     56  C   UNL A   1      42.690  30.172  35.701  1.00  0.00     0.049 A 
ATOM     57  C   UNL A   1      38.465  32.681  33.013  1.00  0.00     0.074 A 
ATOM     58  C   UNL A   1      43.023  30.676  36.946  1.00  0.00     0.029 A 
ATOM     59  N   UNL A   1      41.630  30.933  35.232  1.00  0.00    -0.354 N 
ATOM     60  N   UNL A   1      39.434  32.203  33.756  1.00  0.00    -0.248 NA
ATOM     61  C   UNL A   1      37.725  33.791  33.628  1.00  0.00     0.031 C 
ATOM     62  C   UNL A   1      42.150  31.728  37.240  1.00  0.00     0.029 A 
ATOM     63  C   UNL A   1      41.292  31.898  36.165  1.00  0.00     0.049 A 
ATOM     64  H   UNL A   1      41.183  30.804  34.365  1.00  0.00     0.167 HD
ATOM     65  C   UNL A   1      39.436  32.969  34.916  1.00  0.00     0.074 A 
ATOM     66  C   UNL A   1      38.376  33.946  34.773  1.00  0.00     0.031 C 
ATOM     67  C   UNL A   1      40.242  32.871  36.001  1.00  0.00     0.037 A 
BRANCH  54  68
ATOM     68  C   UNL A   1      44.408  28.318  35.650  1.00  0.00     0.058 A 
ATOM     69  C   UNL A   1      45.753  28.684  35.486  1.00  0.00     0.135 A 
ATOM     70  C   UNL A   1      44.123  27.217  36.474  1.00  0.00     0.135 A 
ATOM     71  F   UNL A   1      46.079  29.718  34.695  1.00  0.00    -0.206 F 
ATOM     72  C   UNL A   1      46.779  27.966  36.089  1.00  0.00     0.059 A 
ATOM     73  C   UNL A   1      45.134  26.500  37.107  1.00  0.00     0.059 A 
ATOM     74  F   UNL A   1      42.853  26.825  36.665  1.00  0.00    -0.206 F 
ATOM     75  C   UNL A   1      46.460  26.871  36.893  1.00  0.00     0.060 A 
BRANCH  75  76
ATOM     76  S   UNL A   1      47.803  25.942  37.665  1.00  0.00     0.124 S 
ATOM     77  O   UNL A   1      47.129  25.373  38.829  1.00  0.00    -0.237 OA
ATOM     78  O   UNL A   1      48.170  24.991  36.620  1.00  0.00    -0.237 OA
ATOM     79  O   UNL A   1      48.799  26.967  37.955  1.00  0.00    -0.744 OA
ENDBRANCH  75  76
ENDBRANCH  54  68
BRANCH  55  80
ATOM     80  C   UNL A   1      36.883  32.909  30.965  1.00  0.00     0.058 A 
ATOM     81  C   UNL A   1      37.101  33.917  30.014  1.00  0.00     0.135 A 
ATOM     82  C   UNL A   1      35.557  32.541  31.239  1.00  0.00     0.135 A 
ATOM     83  F   UNL A   1      38.351  34.307  29.725  1.00  0.00    -0.206 F 
ATOM     84  C   UNL A   1      36.044  34.546  29.364  1.00  0.00     0.059 A 
ATOM     85  C   UNL A   1      34.484  33.142  30.586  1.00  0.00     0.059 A 
ATOM     86  F   UNL A   1      35.298  31.571  32.129  1.00  0.00    -0.206 F 
ATOM     87  C   UNL A   1      34.738  34.150  29.657  1.00  0.00     0.060 A 
BRANCH  87  88
ATOM     88  S   UNL A   1      33.373  34.929  28.766  1.00  0.00     0.124 S 
ATOM     89  O   UNL A   1      32.965  33.861  27.862  1.00  0.00    -0.237 OA
ATOM     90  O   UNL A   1      32.439  35.243  29.844  1.00  0.00    -0.237 OA
ATOM     91  O   UNL A   1      34.002  36.086  28.138  1.00  0.00    -0.744 OA
ENDBRANCH  87  88
ENDBRANCH  55  80
BRANCH  67  92
ATOM     92  C   UNL A   1      40.034  33.866  37.106  1.00  0.00     0.058 A 
ATOM     93  C   UNL A   1      40.715  35.092  37.129  1.00  0.00     0.135 A 
ATOM     94  C   UNL A   1      39.102  33.611  38.124  1.00  0.00     0.135 A 
ATOM     95  F   UNL A   1      41.622  35.378  36.181  1.00  0.00    -0.206 F 
ATOM     96  C   UNL A   1      40.492  36.027  38.134  1.00  0.00     0.059 A 
ATOM     97  C   UNL A   1      38.848  34.540  39.128  1.00  0.00     0.059 A 
ATOM     98  F   UNL A   1      38.418  32.456  38.141  1.00  0.00    -0.206 F 
ATOM     99  C   UNL A   1      39.555  35.741  39.130  1.00  0.00     0.060 A 
BRANCH  99 100
ATOM    100  S   UNL A   1      39.243  36.977  40.410  1.00  0.00     0.124 S 
ATOM    101  O   UNL A   1      40.598  37.391  40.755  1.00  0.00    -0.237 OA
ATOM    102  O   UNL A   1      38.437  37.968  39.703  1.00  0.00    -0.237 OA
ATOM    103  O   UNL A   1      38.533  36.223  41.440  1.00  0.00    -0.744 OA
ENDBRANCH  99 100
ENDBRANCH  67  92
ENDBRANCH  41  42
ENDBRANCH  33  36
ENDBRANCH  31  32
ENDBRANCH  30  31
ENDBRANCH  29  30
ENDBRANCH   1  29
TORSDOF 20
ENDMDL
MODEL 2
REMARK VINA RESULT:     -11.5      0.748      8.164
REMARK SMILES CC[C@@H]1CCc2c(sc(NC(=O)COCC(=O)NCCCCNC(=O)c3ccc(-c4c5nc(c(-c6c(F)cc(S(=O)(=O)[O-])cc6F)c6ccc([nH]6)c(-c6c(F)cc(S(=O)(=O)[O-])cc6F)c6nc(c(-c7c(F)cc(S(=O)(=O)[O-])cc7F)c7ccc4[nH]7)C=C6)C=C5)cc3)c2C(N)=O)C1
REMARK SMILES IDX 19 1 18 2 16 3 17 4 15 6 14 7 13 8 11 9 10 10 12 12 9 13
REMARK SMILES IDX 3 14 4 15 96 16 5 17 7 18 6 19 8 20 92 21 2 22 1 23 93 24
REMARK SMILES IDX 94 25 95 26 20 29 21 30 22 31 23 32 24 33 25 35 26 36 27 37
REMARK SMILES IDX 91 38 28 39 90 40 29 41 30 42 31 43 84 44 32 45 89 46 83 47
REMARK SMILES IDX 85 48 33 49 88 50 82 51 81 52 34 54 68 55 47 56 67 57 48 58
REMARK SMILES IDX 51 59 66 60 86 61 49 62 50 63 65 65 87 66 52 67 35 68 36 69
REMARK SMILES IDX 45 70 37 71 38 72 44 73 46 74 39 75 40 76 41 77 42 78 43 79
REMARK SMILES IDX 69 80 70 81 79 82 71 83 72 84 78 85 80 86 73 87 74 88 75 89
REMARK SMILES IDX 76 90 77 91 53 92 54 93 63 94 55 95 56 96 62 97 64 98 57 99
REMARK SMILES IDX 58 100 59 101 60 102 61 103
REMARK H PARENT 18 5 10 11 94 27 94 28 23 34 85 53 51 64
REMARK Flexibility Score: inf
ROOT
ATOM      1  C   UNL A   1      38.307  21.795  25.657  1.00  0.00     0.116 C 
ENDROOT
BRANCH   1   2
ATOM      2  N   UNL A   1      37.752  22.430  24.474  1.00  0.00    -0.354 N 
ATOM      3  C   UNL A   1      36.468  22.379  24.009  1.00  0.00     0.246 C 
ATOM      4  O   UNL A   1      36.176  22.982  22.974  1.00  0.00    -0.272 OA
ATOM      5  H   UNL A   1      38.382  22.964  23.939  1.00  0.00     0.163 HD
BRANCH   3   6
ATOM      6  C   UNL A   1      35.423  21.581  24.787  1.00  0.00     0.260 C 
BRANCH   6   7
ATOM      7  O   UNL A   1      34.265  22.359  25.056  1.00  0.00    -0.362 OA
BRANCH   7   8
ATOM      8  C   UNL A   1      33.067  21.725  24.652  1.00  0.00     0.261 C 
BRANCH   8   9
ATOM      9  C   UNL A   1      32.433  22.374  23.435  1.00  0.00     0.251 C 
ATOM     10  N   UNL A   1      32.207  23.706  23.315  1.00  0.00    -0.315 N 
ATOM     11  H   UNL A   1      31.919  23.951  22.406  1.00  0.00     0.170 HD
ATOM     12  O   UNL A   1      32.103  21.667  22.472  1.00  0.00    -0.272 OA
BRANCH  10  13
ATOM     13  C   UNL A   1      32.282  24.801  24.147  1.00  0.00     0.108 A 
ATOM     14  C   UNL A   1      33.525  29.230  25.911  1.00  0.00    -0.006 C 
ATOM     15  C   UNL A   1      32.085  28.981  26.421  1.00  0.00     0.009 C 
ATOM     16  C   UNL A   1      33.756  28.445  24.588  1.00  0.00     0.050 C 
ATOM     17  C   UNL A   1      31.837  27.500  26.750  1.00  0.00     0.038 C 
ATOM     18  C   UNL A   1      33.107  27.089  24.620  1.00  0.00     0.011 A 
ATOM     19  C   UNL A   1      32.257  26.627  25.599  1.00  0.00    -0.019 A 
ATOM     20  S   UNL A   1      33.264  25.980  23.355  1.00  0.00    -0.122 S 
ATOM     21  C   UNL A   1      31.834  25.254  25.375  1.00  0.00     0.077 A 
BRANCH  14  22
ATOM     22  C   UNL A   1      34.604  28.881  26.962  1.00  0.00     0.000 C 
ATOM     23  C   UNL A   1      34.947  30.030  27.908  1.00  0.00     0.004 C 
ENDBRANCH  14  22
BRANCH  21  24
ATOM     24  C   UNL A   1      31.019  24.594  26.380  1.00  0.00     0.251 C 
ATOM     25  N   UNL A   1      29.684  24.857  26.330  1.00  0.00    -0.365 N 
ATOM     26  O   UNL A   1      31.505  23.978  27.318  1.00  0.00    -0.269 OA
ATOM     27  H   UNL A   1      29.308  25.354  25.568  1.00  0.00     0.159 HD
ATOM     28  H   UNL A   1      29.094  24.550  27.056  1.00  0.00     0.159 HD
ENDBRANCH  21  24
ENDBRANCH  10  13
ENDBRANCH   8   9
ENDBRANCH   7   8
ENDBRANCH   6   7
ENDBRANCH   3   6
ENDBRANCH   1   2
BRANCH   1  29
ATOM     29  C   UNL A   1      39.094  22.767  26.532  1.00  0.00     0.023 C 
BRANCH  29  30
ATOM     30  C   UNL A   1      40.323  22.195  27.236  1.00  0.00     0.023 C 
BRANCH  30  31
ATOM     31  C   UNL A   1      41.570  23.068  27.209  1.00  0.00     0.116 C 
BRANCH  31  32
ATOM     32  N   UNL A   1      41.614  23.987  26.084  1.00  0.00    -0.352 N 
ATOM     33  C   UNL A   1      41.521  25.361  26.092  1.00  0.00     0.251 C 
ATOM     34  H   UNL A   1      41.724  23.572  25.197  1.00  0.00     0.163 HD
ATOM     35  O   UNL A   1      41.484  25.981  25.032  1.00  0.00    -0.269 OA
BRANCH  33  36
ATOM     36  C   UNL A   1      41.418  26.087  27.380  1.00  0.00     0.039 A 
ATOM     37  C   UNL A   1      42.445  26.963  27.745  1.00  0.00     0.014 A 
ATOM     38  C   UNL A   1      40.306  25.930  28.212  1.00  0.00     0.014 A 
ATOM     39  C   UNL A   1      42.320  27.738  28.901  1.00  0.00     0.010 A 
ATOM     40  C   UNL A   1      40.150  26.755  29.324  1.00  0.00     0.010 A 
ATOM     41  C   UNL A   1      41.153  27.670  29.678  1.00  0.00    -0.014 A 
BRANCH  41  42
ATOM     42  C   UNL A   1      40.958  28.543  30.867  1.00  0.00     0.031 A 
ATOM     43  C   UNL A   1      39.887  29.599  30.857  1.00  0.00     0.074 A 
ATOM     44  C   UNL A   1      41.793  28.441  31.919  1.00  0.00     0.049 A 
ATOM     45  N   UNL A   1      39.631  30.525  31.746  1.00  0.00    -0.248 NA
ATOM     46  C   UNL A   1      39.007  29.640  29.679  1.00  0.00     0.031 C 
ATOM     47  C   UNL A   1      42.906  27.493  32.031  1.00  0.00     0.029 A 
ATOM     48  N   UNL A   1      41.846  29.151  33.092  1.00  0.00    -0.354 N 
ATOM     49  C   UNL A   1      38.584  31.273  31.222  1.00  0.00     0.074 A 
ATOM     50  C   UNL A   1      38.276  30.718  29.922  1.00  0.00     0.031 C 
ATOM     51  C   UNL A   1      43.518  27.671  33.213  1.00  0.00     0.029 A 
ATOM     52  C   UNL A   1      42.866  28.763  33.930  1.00  0.00     0.049 A 
ATOM     53  H   UNL A   1      41.214  29.872  33.314  1.00  0.00     0.167 HD
ATOM     54  C   UNL A   1      37.924  32.316  31.782  1.00  0.00     0.037 A 
ATOM     55  C   UNL A   1      43.238  29.236  35.135  1.00  0.00     0.037 A 
ATOM     56  C   UNL A   1      38.200  32.839  33.094  1.00  0.00     0.049 A 
ATOM     57  C   UNL A   1      42.464  30.367  35.754  1.00  0.00     0.074 A 
ATOM     58  C   UNL A   1      37.544  33.851  33.773  1.00  0.00     0.029 A 
ATOM     59  N   UNL A   1      39.208  32.383  33.930  1.00  0.00    -0.354 N 
ATOM     60  N   UNL A   1      41.445  31.031  35.264  1.00  0.00    -0.248 NA
ATOM     61  C   UNL A   1      42.886  30.809  37.091  1.00  0.00     0.031 C 
ATOM     62  C   UNL A   1      38.170  34.023  35.012  1.00  0.00     0.029 A 
ATOM     63  C   UNL A   1      39.196  33.097  35.117  1.00  0.00     0.049 A 
ATOM     64  H   UNL A   1      39.839  31.660  33.713  1.00  0.00     0.167 HD
ATOM     65  C   UNL A   1      41.088  31.954  36.241  1.00  0.00     0.074 A 
ATOM     66  C   UNL A   1      41.996  31.758  37.353  1.00  0.00     0.031 C 
ATOM     67  C   UNL A   1      40.099  32.880  36.218  1.00  0.00     0.037 A 
BRANCH  54  68
ATOM     68  C   UNL A   1      36.828  32.953  30.974  1.00  0.00     0.058 A 
ATOM     69  C   UNL A   1      35.482  32.601  31.156  1.00  0.00     0.135 A 
ATOM     70  C   UNL A   1      37.125  33.937  30.018  1.00  0.00     0.135 A 
ATOM     71  F   UNL A   1      35.147  31.652  32.045  1.00  0.00    -0.206 F 
ATOM     72  C   UNL A   1      34.471  33.177  30.396  1.00  0.00     0.059 A 
ATOM     73  C   UNL A   1      36.126  34.545  29.263  1.00  0.00     0.059 A 
ATOM     74  F   UNL A   1      38.397  34.311  29.804  1.00  0.00    -0.206 F 
ATOM     75  C   UNL A   1      34.803  34.145  29.447  1.00  0.00     0.060 A 
BRANCH  75  76
ATOM     76  S   UNL A   1      33.482  34.882  28.462  1.00  0.00     0.124 S 
ATOM     77  O   UNL A   1      32.608  35.414  29.503  1.00  0.00    -0.237 OA
ATOM     78  O   UNL A   1      34.197  35.876  27.667  1.00  0.00    -0.237 OA
ATOM     79  O   UNL A   1      32.949  33.750  27.712  1.00  0.00    -0.744 OA
ENDBRANCH  75  76
ENDBRANCH  54  68
BRANCH  55  80
ATOM     80  C   UNL A   1      44.383  28.618  35.851  1.00  0.00     0.058 A 
ATOM     81  C   UNL A   1      44.179  27.567  36.757  1.00  0.00     0.135 A 
ATOM     82  C   UNL A   1      45.700  29.052  35.634  1.00  0.00     0.135 A 
ATOM     83  F   UNL A   1      42.937  27.124  37.001  1.00  0.00    -0.206 F 
ATOM     84  C   UNL A   1      45.239  26.971  37.432  1.00  0.00     0.059 A 
ATOM     85  C   UNL A   1      46.779  28.458  36.283  1.00  0.00     0.059 A 
ATOM     86  F   UNL A   1      45.947  30.044  34.766  1.00  0.00    -0.206 F 
ATOM     87  C   UNL A   1      46.537  27.423  37.187  1.00  0.00     0.060 A 
BRANCH  87  88
ATOM     88  S   UNL A   1      47.915  26.607  38.022  1.00  0.00     0.124 S 
ATOM     89  O   UNL A   1      47.253  25.455  38.623  1.00  0.00    -0.237 OA
ATOM     90  O   UNL A   1      48.820  26.315  36.914  1.00  0.00    -0.237 OA
ATOM     91  O   UNL A   1      48.390  27.623  38.955  1.00  0.00    -0.744 OA
ENDBRANCH  87  88
ENDBRANCH  55  80
BRANCH  67  92
ATOM     92  C   UNL A   1      39.922  33.730  37.443  1.00  0.00     0.058 A 
ATOM     93  C   UNL A   1      39.013  33.383  38.453  1.00  0.00     0.135 A 
ATOM     94  C   UNL A   1      40.711  34.875  37.632  1.00  0.00     0.135 A 
ATOM     95  F   UNL A   1      38.231  32.301  38.314  1.00  0.00    -0.206 F 
ATOM     96  C   UNL A   1      38.878  34.152  39.604  1.00  0.00     0.059 A 
ATOM     97  C   UNL A   1      40.609  35.649  38.784  1.00  0.00     0.059 A 
ATOM     98  F   UNL A   1      41.603  35.244  36.698  1.00  0.00    -0.206 F 
ATOM     99  C   UNL A   1      39.682  35.284  39.760  1.00  0.00     0.060 A 
BRANCH  99 100
ATOM    100  S   UNL A   1      39.530  36.256  41.275  1.00  0.00     0.124 S 
ATOM    101  O   UNL A   1      38.957  35.279  42.194  1.00  0.00    -0.237 OA
ATOM    102  O   UNL A   1      40.911  36.646  41.541  1.00  0.00    -0.237 OA
ATOM    103  O   UNL A   1      38.643  37.349  40.886  1.00  0.00    -0.744 OA
ENDBRANCH  99 100
ENDBRANCH  67  92
ENDBRANCH  41  42
ENDBRANCH  33  36
ENDBRANCH  31  32
ENDBRANCH  30  31
ENDBRANCH  29  30
ENDBRANCH   1  29
TORSDOF 20
ENDMDL
MODEL 3
REMARK VINA RESULT:     -11.2      4.967      6.833
REMARK SMILES CC[C@@H]1CCc2c(sc(NC(=O)COCC(=O)NCCCCNC(=O)c3ccc(-c4c5nc(c(-c6c(F)cc(S(=O)(=O)[O-])cc6F)c6ccc([nH]6)c(-c6c(F)cc(S(=O)(=O)[O-])cc6F)c6nc(c(-c7c(F)cc(S(=O)(=O)[O-])cc7F)c7ccc4[nH]7)C=C6)C=C5)cc3)c2C(N)=O)C1
REMARK SMILES IDX 19 1 18 2 16 3 17 4 15 6 14 7 13 8 11 9 10 10 12 12 9 13
REMARK SMILES IDX 3 14 4 15 96 16 5 17 7 18 6 19 8 20 92 21 2 22 1 23 93 24
REMARK SMILES IDX 94 25 95 26 20 29 21 30 22 31 23 32 24 33 25 35 26 36 27 37
REMARK SMILES IDX 91 38 28 39 90 40 29 41 30 42 31 43 84 44 32 45 89 46 83 47
REMARK SMILES IDX 85 48 33 49 88 50 82 51 81 52 34 54 68 55 47 56 67 57 48 58
REMARK SMILES IDX 51 59 66 60 86 61 49 62 50 63 65 65 87 66 52 67 35 68 36 69
REMARK SMILES IDX 45 70 37 71 38 72 44 73 46 74 39 75 40 76 41 77 42 78 43 79
REMARK SMILES IDX 69 80 70 81 79 82 71 83 72 84 78 85 80 86 73 87 74 88 75 89
REMARK SMILES IDX 76 90 77 91 53 92 54 93 63 94 55 95 56 96 62 97 64 98 57 99
REMARK SMILES IDX 58 100 59 101 60 102 61 103
REMARK H PARENT 18 5 10 11 94 27 94 28 23 34 85 53 51 64
REMARK Flexibility Score: inf
ROOT
ATOM      1  C   UNL A   1      33.351  26.515  26.237  1.00  0.00     0.116 C 
ENDROOT
BRANCH   1   2
ATOM      2  N   UNL A   1      34.011  27.761  26.586  1.00  0.00    -0.354 N 
ATOM      3  C   UNL A   1      33.472  29.015  26.659  1.00  0.00     0.246 C 
ATOM      4  O   UNL A   1      34.193  29.965  26.969  1.00  0.00    -0.272 OA
ATOM      5  H   UNL A   1      34.971  27.693  26.795  1.00  0.00     0.163 HD
BRANCH   3   6
ATOM      6  C   UNL A   1      31.987  29.207  26.361  1.00  0.00     0.260 C 
BRANCH   6   7
ATOM      7  O   UNL A   1      31.783  29.857  25.115  1.00  0.00    -0.362 OA
BRANCH   7   8
ATOM      8  C   UNL A   1      31.859  28.976  24.011  1.00  0.00     0.261 C 
BRANCH   8   9
ATOM      9  C   UNL A   1      30.496  28.542  23.503  1.00  0.00     0.251 C 
ATOM     10  N   UNL A   1      30.150  27.252  23.261  1.00  0.00    -0.315 N 
ATOM     11  H   UNL A   1      29.189  27.158  23.071  1.00  0.00     0.170 HD
ATOM     12  O   UNL A   1      29.622  29.397  23.300  1.00  0.00    -0.272 OA
BRANCH  10  13
ATOM     13  C   UNL A   1      30.807  26.044  23.216  1.00  0.00     0.108 A 
ATOM     14  C   UNL A   1      32.242  21.478  24.390  1.00  0.00    -0.006 C 
ATOM     15  C   UNL A   1      32.323  21.543  22.845  1.00  0.00     0.009 C 
ATOM     16  C   UNL A   1      31.171  22.484  24.901  1.00  0.00     0.050 C 
ATOM     17  C   UNL A   1      32.761  22.930  22.348  1.00  0.00     0.038 C 
ATOM     18  C   UNL A   1      31.190  23.769  24.123  1.00  0.00     0.011 A 
ATOM     19  C   UNL A   1      31.921  24.006  22.980  1.00  0.00    -0.019 A 
ATOM     20  S   UNL A   1      30.195  25.078  24.511  1.00  0.00    -0.122 S 
ATOM     21  C   UNL A   1      31.769  25.366  22.488  1.00  0.00     0.077 A 
BRANCH  14  22
ATOM     22  C   UNL A   1      33.606  21.722  25.074  1.00  0.00     0.000 C 
ATOM     23  C   UNL A   1      34.603  20.578  24.902  1.00  0.00     0.004 C 
ENDBRANCH  14  22
BRANCH  21  24
ATOM     24  C   UNL A   1      32.562  25.796  21.349  1.00  0.00     0.251 C 
ATOM     25  N   UNL A   1      31.972  25.662  20.129  1.00  0.00    -0.365 N 
ATOM     26  O   UNL A   1      33.742  26.100  21.448  1.00  0.00    -0.269 OA
ATOM     27  H   UNL A   1      31.021  25.417  20.066  1.00  0.00     0.159 HD
ATOM     28  H   UNL A   1      32.498  25.810  19.309  1.00  0.00     0.159 HD
ENDBRANCH  21  24
ENDBRANCH  10  13
ENDBRANCH   8   9
ENDBRANCH   7   8
ENDBRANCH   6   7
ENDBRANCH   3   6
ENDBRANCH   1   2
BRANCH   1  29
ATOM     29  C   UNL A   1      34.115  25.718  25.183  1.00  0.00     0.023 C 
BRANCH  29  30
ATOM     30  C   UNL A   1      34.899  24.510  25.691  1.00  0.00     0.023 C 
BRANCH  30  31
ATOM     31  C   UNL A   1      36.373  24.467  25.309  1.00  0.00     0.116 C 
BRANCH  31  32
ATOM     32  N   UNL A   1      37.010  23.191  25.589  1.00  0.00    -0.352 N 
ATOM     33  C   UNL A   1      38.228  22.950  26.183  1.00  0.00     0.251 C 
ATOM     34  H   UNL A   1      36.503  22.392  25.316  1.00  0.00     0.163 HD
ATOM     35  O   UNL A   1      38.659  21.803  26.260  1.00  0.00    -0.269 OA
BRANCH  33  36
ATOM     36  C   UNL A   1      39.041  24.083  26.688  1.00  0.00     0.039 A 
ATOM     37  C   UNL A   1      39.830  24.802  25.785  1.00  0.00     0.014 A 
ATOM     38  C   UNL A   1      39.008  24.454  28.034  1.00  0.00     0.014 A 
ATOM     39  C   UNL A   1      40.520  25.938  26.215  1.00  0.00     0.010 A 
ATOM     40  C   UNL A   1      39.638  25.626  28.447  1.00  0.00     0.010 A 
ATOM     41  C   UNL A   1      40.398  26.383  27.541  1.00  0.00    -0.014 A 
BRANCH  41  42
ATOM     42  C   UNL A   1      41.055  27.633  28.006  1.00  0.00     0.031 A 
ATOM     43  C   UNL A   1      42.552  27.765  27.943  1.00  0.00     0.074 A 
ATOM     44  C   UNL A   1      40.315  28.616  28.557  1.00  0.00     0.049 A 
ATOM     45  N   UNL A   1      43.317  28.725  28.397  1.00  0.00    -0.248 NA
ATOM     46  C   UNL A   1      43.289  26.657  27.316  1.00  0.00     0.031 C 
ATOM     47  C   UNL A   1      38.859  28.590  28.724  1.00  0.00     0.029 A 
ATOM     48  N   UNL A   1      40.687  29.823  29.092  1.00  0.00    -0.354 N 
ATOM     49  C   UNL A   1      44.622  28.324  28.136  1.00  0.00     0.074 A 
ATOM     50  C   UNL A   1      44.548  27.017  27.520  1.00  0.00     0.031 C 
ATOM     51  C   UNL A   1      38.463  29.734  29.305  1.00  0.00     0.029 A 
ATOM     52  C   UNL A   1      39.634  30.561  29.581  1.00  0.00     0.049 A 
ATOM     53  H   UNL A   1      41.620  30.134  29.123  1.00  0.00     0.167 HD
ATOM     54  C   UNL A   1      45.777  28.992  28.371  1.00  0.00     0.037 A 
ATOM     55  C   UNL A   1      39.613  31.764  30.188  1.00  0.00     0.037 A 
ATOM     56  C   UNL A   1      45.848  30.311  28.942  1.00  0.00     0.049 A 
ATOM     57  C   UNL A   1      40.905  32.505  30.399  1.00  0.00     0.074 A 
ATOM     58  C   UNL A   1      46.967  31.096  29.161  1.00  0.00     0.029 A 
ATOM     59  N   UNL A   1      44.754  31.044  29.377  1.00  0.00    -0.354 N 
ATOM     60  N   UNL A   1      42.126  32.130  30.103  1.00  0.00    -0.248 NA
ATOM     61  C   UNL A   1      40.816  33.832  31.023  1.00  0.00     0.031 C 
ATOM     62  C   UNL A   1      46.551  32.296  29.747  1.00  0.00     0.029 A 
ATOM     63  C   UNL A   1      45.171  32.270  29.867  1.00  0.00     0.049 A 
ATOM     64  H   UNL A   1      43.819  30.738  29.342  1.00  0.00     0.167 HD
ATOM     65  C   UNL A   1      42.949  33.185  30.482  1.00  0.00     0.074 A 
ATOM     66  C   UNL A   1      42.086  34.215  31.022  1.00  0.00     0.031 C 
ATOM     67  C   UNL A   1      44.297  33.289  30.390  1.00  0.00     0.037 A 
BRANCH  54  68
ATOM     68  C   UNL A   1      47.060  28.305  27.996  1.00  0.00     0.058 A 
ATOM     69  C   UNL A   1      47.655  28.495  26.739  1.00  0.00     0.135 A 
ATOM     70  C   UNL A   1      47.711  27.460  28.909  1.00  0.00     0.135 A 
ATOM     71  F   UNL A   1      47.064  29.280  25.824  1.00  0.00    -0.206 F 
ATOM     72  C   UNL A   1      48.832  27.845  26.387  1.00  0.00     0.059 A 
ATOM     73  C   UNL A   1      48.903  26.819  28.586  1.00  0.00     0.059 A 
ATOM     74  F   UNL A   1      47.185  27.244  30.126  1.00  0.00    -0.206 F 
ATOM     75  C   UNL A   1      49.447  27.004  27.316  1.00  0.00     0.060 A 
BRANCH  75  76
ATOM     76  S   UNL A   1      50.972  26.160  26.845  1.00  0.00     0.124 S 
ATOM     77  O   UNL A   1      50.791  24.859  27.483  1.00  0.00    -0.237 OA
ATOM     78  O   UNL A   1      50.898  26.165  25.387  1.00  0.00    -0.237 OA
ATOM     79  O   UNL A   1      52.015  27.002  27.419  1.00  0.00    -0.744 OA
ENDBRANCH  75  76
ENDBRANCH  54  68
BRANCH  55  80
ATOM     80  C   UNL A   1      38.319  32.357  30.611  1.00  0.00     0.058 A 
ATOM     81  C   UNL A   1      37.778  32.071  31.872  1.00  0.00     0.135 A 
ATOM     82  C   UNL A   1      37.608  33.230  29.774  1.00  0.00     0.135 A 
ATOM     83  F   UNL A   1      38.419  31.235  32.703  1.00  0.00    -0.206 F 
ATOM     84  C   UNL A   1      36.571  32.622  32.289  1.00  0.00     0.059 A 
ATOM     85  C   UNL A   1      36.408  33.810  30.176  1.00  0.00     0.059 A 
ATOM     86  F   UNL A   1      38.092  33.546  28.563  1.00  0.00    -0.206 F 
ATOM     87  C   UNL A   1      35.893  33.492  31.433  1.00  0.00     0.060 A 
BRANCH  87  88
ATOM     88  S   UNL A   1      34.356  34.250  32.003  1.00  0.00     0.124 S 
ATOM     89  O   UNL A   1      33.628  34.416  30.750  1.00  0.00    -0.237 OA
ATOM     90  O   UNL A   1      33.831  33.239  32.916  1.00  0.00    -0.237 OA
ATOM     91  O   UNL A   1      34.808  35.482  32.641  1.00  0.00    -0.744 OA
ENDBRANCH  87  88
ENDBRANCH  55  80
BRANCH  67  92
ATOM     92  C   UNL A   1      44.922  34.573  30.853  1.00  0.00     0.058 A 
ATOM     93  C   UNL A   1      45.377  34.735  32.170  1.00  0.00     0.135 A 
ATOM     94  C   UNL A   1      45.115  35.633  29.954  1.00  0.00     0.135 A 
ATOM     95  F   UNL A   1      45.208  33.752  33.069  1.00  0.00    -0.206 F 
ATOM     96  C   UNL A   1      45.989  35.913  32.587  1.00  0.00     0.059 A 
ATOM     97  C   UNL A   1      45.743  36.813  30.343  1.00  0.00     0.059 A 
ATOM     98  F   UNL A   1      44.706  35.523  28.680  1.00  0.00    -0.206 F 
ATOM     99  C   UNL A   1      46.167  36.947  31.664  1.00  0.00     0.060 A 
BRANCH  99 100
ATOM    100  S   UNL A   1      46.998  38.458  32.202  1.00  0.00     0.124 S 
ATOM    101  O   UNL A   1      47.271  39.112  30.927  1.00  0.00    -0.237 OA
ATOM    102  O   UNL A   1      45.986  39.095  33.038  1.00  0.00    -0.237 OA
ATOM    103  O   UNL A   1      48.170  37.961  32.919  1.00  0.00    -0.744 OA
ENDBRANCH  99 100
ENDBRANCH  67  92
ENDBRANCH  41  42
ENDBRANCH  33  36
ENDBRANCH  31  32
ENDBRANCH  30  31
ENDBRANCH  29  30
ENDBRANCH   1  29
TORSDOF 20
ENDMDL
