MODEL 1
REMARK VINA RESULT:      -9.9      0.000      0.000
REMARK SMILES CC(=O)OCc1ccc(C(=O)NCCCCNC(=O)c2ccc(-c3c4nc(c(-c5c(F)cc(S(=O)(=O)[O-])cc5F)c5ccc([nH]5)c(-c5c(F)cc(S(=O)(=O)[O-])cc5F)c5nc(c(-c6c(F)cc(S(=O)(=O)[O-])cc6F)c6ccc3[nH]6)C=C5)C=C4)cc2)o1
REMARK SMILES IDX 14 1 13 2 12 3 10 4 11 5 9 7 6 8 7 9 86 10 8 11 5 12 4 13
REMARK SMILES IDX 2 14 1 15 3 16 15 17 16 18 17 19 18 20 19 22 20 23 21 24
REMARK SMILES IDX 85 25 22 26 84 27 23 28 24 29 25 30 78 31 26 32 83 33 77 34
REMARK SMILES IDX 79 35 27 36 82 37 76 38 75 39 28 41 62 42 41 43 61 44 42 45
REMARK SMILES IDX 45 46 60 47 80 48 43 49 44 50 59 52 81 53 46 54 29 55 30 56
REMARK SMILES IDX 39 57 31 58 32 59 38 60 40 61 33 62 34 63 35 64 36 65 37 66
REMARK SMILES IDX 63 67 64 68 73 69 65 70 66 71 72 72 74 73 67 74 68 75 69 76
REMARK SMILES IDX 70 77 71 78 47 79 48 80 57 81 49 82 50 83 56 84 58 85 51 86
REMARK SMILES IDX 52 87 53 88 54 89 55 90
REMARK H PARENT 12 6 17 21 79 40 45 51
REMARK Flexibility Score: inf
ROOT
ATOM      1  C   UNL A   1      36.563  33.532  28.691  1.00  0.00     0.023 C 
ENDROOT
BRANCH   1   2
ATOM      2  C   UNL A   1      36.812  32.957  30.085  1.00  0.00     0.116 C 
BRANCH   2   3
ATOM      3  N   UNL A   1      37.924  33.621  30.729  1.00  0.00    -0.349 N 
ATOM      4  C   UNL A   1      38.028  34.224  31.961  1.00  0.00     0.286 C 
ATOM      5  O   UNL A   1      39.147  34.653  32.253  1.00  0.00    -0.266 OA
ATOM      6  H   UNL A   1      38.749  33.647  30.192  1.00  0.00     0.163 HD
BRANCH   4   7
ATOM      7  C   UNL A   1      36.892  34.321  32.861  1.00  0.00     0.191 A 
ATOM      8  C   UNL A   1      35.069  35.348  33.604  1.00  0.00     0.142 A 
ATOM      9  C   UNL A   1      35.244  34.242  34.405  1.00  0.00     0.050 A 
ATOM     10  O   UNL A   1      36.056  35.396  32.669  1.00  0.00    -0.452 OA
ATOM     11  C   UNL A   1      36.387  33.567  33.908  1.00  0.00     0.057 A 
BRANCH   8  12
ATOM     12  C   UNL A   1      34.059  36.440  33.605  1.00  0.00     0.308 C 
BRANCH  12  13
ATOM     13  O   UNL A   1      33.846  36.906  32.267  1.00  0.00    -0.458 OA
BRANCH  13  14
ATOM     14  C   UNL A   1      32.749  36.394  31.646  1.00  0.00     0.303 C 
ATOM     15  C   UNL A   1      33.152  35.709  30.375  1.00  0.00     0.139 C 
ATOM     16  O   UNL A   1      31.610  36.396  32.088  1.00  0.00    -0.253 OA
ENDBRANCH  13  14
ENDBRANCH  12  13
ENDBRANCH   8  12
ENDBRANCH   4   7
ENDBRANCH   2   3
ENDBRANCH   1   2
BRANCH   1  17
ATOM     17  C   UNL A   1      35.213  33.128  28.088  1.00  0.00     0.023 C 
BRANCH  17  18
ATOM     18  C   UNL A   1      34.377  32.184  28.949  1.00  0.00     0.116 C 
BRANCH  18  19
ATOM     19  N   UNL A   1      33.888  31.022  28.221  1.00  0.00    -0.352 N 
ATOM     20  C   UNL A   1      34.594  29.922  27.794  1.00  0.00     0.251 C 
ATOM     21  H   UNL A   1      32.927  31.023  28.007  1.00  0.00     0.163 HD
ATOM     22  O   UNL A   1      34.057  29.079  27.083  1.00  0.00    -0.269 OA
BRANCH  20  23
ATOM     23  C   UNL A   1      36.017  29.793  28.171  1.00  0.00     0.039 A 
ATOM     24  C   UNL A   1      36.338  29.345  29.453  1.00  0.00     0.014 A 
ATOM     25  C   UNL A   1      37.023  30.061  27.239  1.00  0.00     0.014 A 
ATOM     26  C   UNL A   1      37.672  29.094  29.777  1.00  0.00     0.010 A 
ATOM     27  C   UNL A   1      38.341  29.735  27.538  1.00  0.00     0.010 A 
ATOM     28  C   UNL A   1      38.680  29.247  28.809  1.00  0.00    -0.014 A 
BRANCH  28  29
ATOM     29  C   UNL A   1      40.092  28.890  29.103  1.00  0.00     0.031 A 
ATOM     30  C   UNL A   1      41.015  29.908  29.713  1.00  0.00     0.074 A 
ATOM     31  C   UNL A   1      40.557  27.672  28.757  1.00  0.00     0.049 A 
ATOM     32  N   UNL A   1      42.293  29.809  29.977  1.00  0.00    -0.248 NA
ATOM     33  C   UNL A   1      40.434  31.219  30.043  1.00  0.00     0.031 C 
ATOM     34  C   UNL A   1      39.771  26.616  28.113  1.00  0.00     0.029 A 
ATOM     35  N   UNL A   1      41.807  27.119  28.888  1.00  0.00    -0.354 N 
ATOM     36  C   UNL A   1      42.670  31.045  30.492  1.00  0.00     0.074 A 
ATOM     37  C   UNL A   1      41.500  31.895  30.447  1.00  0.00     0.031 C 
ATOM     38  C   UNL A   1      40.550  25.538  27.929  1.00  0.00     0.029 A 
ATOM     39  C   UNL A   1      41.899  25.836  28.398  1.00  0.00     0.049 A 
ATOM     40  H   UNL A   1      42.567  27.595  29.294  1.00  0.00     0.167 HD
ATOM     41  C   UNL A   1      43.873  31.427  30.982  1.00  0.00     0.037 A 
ATOM     42  C   UNL A   1      42.952  24.999  28.326  1.00  0.00     0.037 A 
ATOM     43  C   UNL A   1      45.027  30.567  31.041  1.00  0.00     0.049 A 
ATOM     44  C   UNL A   1      44.284  25.452  28.864  1.00  0.00     0.074 A 
ATOM     45  C   UNL A   1      46.275  30.841  31.570  1.00  0.00     0.029 A 
ATOM     46  N   UNL A   1      45.076  29.270  30.550  1.00  0.00    -0.354 N 
ATOM     47  N   UNL A   1      44.604  26.600  29.413  1.00  0.00    -0.248 NA
ATOM     48  C   UNL A   1      45.396  24.494  28.781  1.00  0.00     0.031 C 
ATOM     49  C   UNL A   1      47.096  29.729  31.350  1.00  0.00     0.029 A 
ATOM     50  C   UNL A   1      46.341  28.740  30.740  1.00  0.00     0.049 A 
ATOM     51  H   UNL A   1      44.322  28.796  30.127  1.00  0.00     0.167 HD
ATOM     52  C   UNL A   1      45.945  26.492  29.767  1.00  0.00     0.074 A 
ATOM     53  C   UNL A   1      46.371  25.162  29.381  1.00  0.00     0.031 C 
ATOM     54  C   UNL A   1      46.749  27.410  30.358  1.00  0.00     0.037 A 
BRANCH  41  55
ATOM     55  C   UNL A   1      44.003  32.835  31.496  1.00  0.00     0.058 A 
ATOM     56  C   UNL A   1      43.703  33.166  32.828  1.00  0.00     0.135 A 
ATOM     57  C   UNL A   1      44.470  33.861  30.658  1.00  0.00     0.135 A 
ATOM     58  F   UNL A   1      43.238  32.230  33.669  1.00  0.00    -0.206 F 
ATOM     59  C   UNL A   1      43.832  34.468  33.301  1.00  0.00     0.059 A 
ATOM     60  C   UNL A   1      44.638  35.164  31.118  1.00  0.00     0.059 A 
ATOM     61  F   UNL A   1      44.771  33.603  29.375  1.00  0.00    -0.206 F 
ATOM     62  C   UNL A   1      44.301  35.460  32.439  1.00  0.00     0.060 A 
BRANCH  62  63
ATOM     63  S   UNL A   1      44.471  37.142  33.074  1.00  0.00     0.124 S 
ATOM     64  O   UNL A   1      45.922  37.274  33.163  1.00  0.00    -0.237 OA
ATOM     65  O   UNL A   1      43.826  37.934  32.031  1.00  0.00    -0.237 OA
ATOM     66  O   UNL A   1      43.765  37.097  34.350  1.00  0.00    -0.744 OA
ENDBRANCH  62  63
ENDBRANCH  41  55
BRANCH  42  67
ATOM     67  C   UNL A   1      42.787  23.642  27.737  1.00  0.00     0.058 A 
ATOM     68  C   UNL A   1      42.479  22.536  28.543  1.00  0.00     0.135 A 
ATOM     69  C   UNL A   1      42.926  23.424  26.357  1.00  0.00     0.135 A 
ATOM     70  F   UNL A   1      42.343  22.691  29.869  1.00  0.00    -0.206 F 
ATOM     71  C   UNL A   1      42.332  21.260  28.008  1.00  0.00     0.059 A 
ATOM     72  C   UNL A   1      42.755  22.163  25.794  1.00  0.00     0.059 A 
ATOM     73  F   UNL A   1      43.204  24.450  25.538  1.00  0.00    -0.206 F 
ATOM     74  C   UNL A   1      42.469  21.084  26.630  1.00  0.00     0.060 A 
BRANCH  74  75
ATOM     75  S   UNL A   1      42.231  19.432  25.941  1.00  0.00     0.124 S 
ATOM     76  O   UNL A   1      43.031  19.503  24.725  1.00  0.00    -0.237 OA
ATOM     77  O   UNL A   1      42.756  18.581  27.004  1.00  0.00    -0.237 OA
ATOM     78  O   UNL A   1      40.787  19.355  25.744  1.00  0.00    -0.744 OA
ENDBRANCH  74  75
ENDBRANCH  42  67
BRANCH  54  79
ATOM     79  C   UNL A   1      48.164  27.000  30.667  1.00  0.00     0.058 A 
ATOM     80  C   UNL A   1      49.197  27.136  29.727  1.00  0.00     0.135 A 
ATOM     81  C   UNL A   1      48.500  26.519  31.943  1.00  0.00     0.135 A 
ATOM     82  F   UNL A   1      48.931  27.585  28.489  1.00  0.00    -0.206 F 
ATOM     83  C   UNL A   1      50.509  26.791  30.034  1.00  0.00     0.059 A 
ATOM     84  C   UNL A   1      49.810  26.198  32.283  1.00  0.00     0.059 A 
ATOM     85  F   UNL A   1      47.551  26.379  32.885  1.00  0.00    -0.206 F 
ATOM     86  C   UNL A   1      50.806  26.327  31.318  1.00  0.00     0.060 A 
BRANCH  86  87
ATOM     87  S   UNL A   1      52.520  25.921  31.715  1.00  0.00     0.124 S 
ATOM     88  O   UNL A   1      52.784  26.820  32.833  1.00  0.00    -0.237 OA
ATOM     89  O   UNL A   1      52.435  24.502  32.047  1.00  0.00    -0.237 OA
ATOM     90  O   UNL A   1      53.237  26.229  30.480  1.00  0.00    -0.744 OA
ENDBRANCH  86  87
ENDBRANCH  54  79
ENDBRANCH  28  29
ENDBRANCH  20  23
ENDBRANCH  18  19
ENDBRANCH  17  18
ENDBRANCH   1  17
TORSDOF 17
ENDMDL
MODEL 2
REMARK VINA RESULT:      -9.8      4.779     12.759
REMARK SMILES CC(=O)OCc1ccc(C(=O)NCCCCNC(=O)c2ccc(-c3c4nc(c(-c5c(F)cc(S(=O)(=O)[O-])cc5F)c5ccc([nH]5)c(-c5c(F)cc(S(=O)(=O)[O-])cc5F)c5nc(c(-c6c(F)cc(S(=O)(=O)[O-])cc6F)c6ccc3[nH]6)C=C5)C=C4)cc2)o1
REMARK SMILES IDX 14 1 13 2 12 3 10 4 11 5 9 7 6 8 7 9 86 10 8 11 5 12 4 13
REMARK SMILES IDX 2 14 1 15 3 16 15 17 16 18 17 19 18 20 19 22 20 23 21 24
REMARK SMILES IDX 85 25 22 26 84 27 23 28 24 29 25 30 78 31 26 32 83 33 77 34
REMARK SMILES IDX 79 35 27 36 82 37 76 38 75 39 28 41 62 42 41 43 61 44 42 45
REMARK SMILES IDX 45 46 60 47 80 48 43 49 44 50 59 52 81 53 46 54 29 55 30 56
REMARK SMILES IDX 39 57 31 58 32 59 38 60 40 61 33 62 34 63 35 64 36 65 37 66
REMARK SMILES IDX 63 67 64 68 73 69 65 70 66 71 72 72 74 73 67 74 68 75 69 76
REMARK SMILES IDX 70 77 71 78 47 79 48 80 57 81 49 82 50 83 56 84 58 85 51 86
REMARK SMILES IDX 52 87 53 88 54 89 55 90
REMARK H PARENT 12 6 17 21 79 40 45 51
REMARK Flexibility Score: inf
ROOT
ATOM      1  C   UNL A   1      45.478  22.371  25.575  1.00  0.00     0.023 C 
ENDROOT
BRANCH   1   2
ATOM      2  C   UNL A   1      44.811  21.950  24.265  1.00  0.00     0.116 C 
BRANCH   2   3
ATOM      3  N   UNL A   1      45.375  20.712  23.772  1.00  0.00    -0.349 N 
ATOM      4  C   UNL A   1      45.078  19.402  24.068  1.00  0.00     0.286 C 
ATOM      5  O   UNL A   1      45.702  18.555  23.423  1.00  0.00    -0.266 OA
ATOM      6  H   UNL A   1      46.095  20.828  23.111  1.00  0.00     0.163 HD
BRANCH   4   7
ATOM      7  C   UNL A   1      44.076  19.051  25.060  1.00  0.00     0.191 A 
ATOM      8  C   UNL A   1      42.115  19.365  26.053  1.00  0.00     0.142 A 
ATOM      9  C   UNL A   1      42.719  18.319  26.711  1.00  0.00     0.050 A 
ATOM     10  O   UNL A   1      42.927  19.806  25.054  1.00  0.00    -0.452 OA
ATOM     11  C   UNL A   1      43.955  18.095  26.054  1.00  0.00     0.057 A 
BRANCH   8  12
ATOM     12  C   UNL A   1      40.817  20.064  26.253  1.00  0.00     0.308 C 
BRANCH  12  13
ATOM     13  O   UNL A   1      40.981  21.469  26.022  1.00  0.00    -0.458 OA
BRANCH  13  14
ATOM     14  C   UNL A   1      40.583  22.271  27.047  1.00  0.00     0.303 C 
ATOM     15  C   UNL A   1      41.630  22.291  28.120  1.00  0.00     0.139 C 
ATOM     16  O   UNL A   1      39.573  22.958  27.068  1.00  0.00    -0.253 OA
ENDBRANCH  13  14
ENDBRANCH  12  13
ENDBRANCH   8  12
ENDBRANCH   4   7
ENDBRANCH   2   3
ENDBRANCH   1   2
BRANCH   1  17
ATOM     17  C   UNL A   1      45.513  23.888  25.790  1.00  0.00     0.023 C 
BRANCH  17  18
ATOM     18  C   UNL A   1      44.292  24.468  26.500  1.00  0.00     0.116 C 
BRANCH  18  19
ATOM     19  N   UNL A   1      43.202  24.800  25.593  1.00  0.00    -0.352 N 
ATOM     20  C   UNL A   1      42.127  25.626  25.817  1.00  0.00     0.251 C 
ATOM     21  H   UNL A   1      43.240  24.377  24.705  1.00  0.00     0.163 HD
ATOM     22  O   UNL A   1      41.225  25.707  24.989  1.00  0.00    -0.269 OA
BRANCH  20  23
ATOM     23  C   UNL A   1      42.056  26.383  27.083  1.00  0.00     0.039 A 
ATOM     24  C   UNL A   1      42.792  27.563  27.208  1.00  0.00     0.014 A 
ATOM     25  C   UNL A   1      41.221  25.954  28.118  1.00  0.00     0.014 A 
ATOM     26  C   UNL A   1      42.632  28.354  28.347  1.00  0.00     0.010 A 
ATOM     27  C   UNL A   1      41.004  26.782  29.214  1.00  0.00     0.010 A 
ATOM     28  C   UNL A   1      41.705  27.991  29.339  1.00  0.00    -0.014 A 
BRANCH  28  29
ATOM     29  C   UNL A   1      41.446  28.869  30.510  1.00  0.00     0.031 A 
ATOM     30  C   UNL A   1      42.283  28.734  31.753  1.00  0.00     0.074 A 
ATOM     31  C   UNL A   1      40.415  29.737  30.477  1.00  0.00     0.049 A 
ATOM     32  N   UNL A   1      42.167  29.357  32.897  1.00  0.00    -0.248 NA
ATOM     33  C   UNL A   1      43.376  27.749  31.714  1.00  0.00     0.031 C 
ATOM     34  C   UNL A   1      39.500  29.924  29.348  1.00  0.00     0.029 A 
ATOM     35  N   UNL A   1      39.954  30.619  31.422  1.00  0.00    -0.354 N 
ATOM     36  C   UNL A   1      43.161  28.833  33.716  1.00  0.00     0.074 A 
ATOM     37  C   UNL A   1      43.832  27.800  32.957  1.00  0.00     0.031 C 
ATOM     38  C   UNL A   1      38.606  30.876  29.658  1.00  0.00     0.029 A 
ATOM     39  C   UNL A   1      38.853  31.338  31.019  1.00  0.00     0.049 A 
ATOM     40  H   UNL A   1      40.373  30.727  32.307  1.00  0.00     0.167 HD
ATOM     41  C   UNL A   1      43.501  29.198  34.975  1.00  0.00     0.037 A 
ATOM     42  C   UNL A   1      38.118  32.259  31.675  1.00  0.00     0.037 A 
ATOM     43  C   UNL A   1      42.839  30.242  35.715  1.00  0.00     0.049 A 
ATOM     44  C   UNL A   1      38.507  32.638  33.080  1.00  0.00     0.074 A 
ATOM     45  C   UNL A   1      43.144  30.726  36.975  1.00  0.00     0.029 A 
ATOM     46  N   UNL A   1      41.738  30.958  35.267  1.00  0.00    -0.354 N 
ATOM     47  N   UNL A   1      39.495  32.182  33.813  1.00  0.00    -0.248 NA
ATOM     48  C   UNL A   1      37.687  33.661  33.744  1.00  0.00     0.031 C 
ATOM     49  C   UNL A   1      42.194  31.697  37.311  1.00  0.00     0.029 A 
ATOM     50  C   UNL A   1      41.335  31.862  36.236  1.00  0.00     0.049 A 
ATOM     51  H   UNL A   1      41.307  30.840  34.389  1.00  0.00     0.167 HD
ATOM     52  C   UNL A   1      39.433  32.884  35.013  1.00  0.00     0.074 A 
ATOM     53  C   UNL A   1      38.319  33.802  34.901  1.00  0.00     0.031 C 
ATOM     54  C   UNL A   1      40.228  32.777  36.107  1.00  0.00     0.037 A 
BRANCH  41  55
ATOM     55  C   UNL A   1      44.640  28.467  35.632  1.00  0.00     0.058 A 
ATOM     56  C   UNL A   1      45.971  28.892  35.489  1.00  0.00     0.135 A 
ATOM     57  C   UNL A   1      44.396  27.349  36.446  1.00  0.00     0.135 A 
ATOM     58  F   UNL A   1      46.265  29.945  34.710  1.00  0.00    -0.206 F 
ATOM     59  C   UNL A   1      47.021  28.218  36.104  1.00  0.00     0.059 A 
ATOM     60  C   UNL A   1      45.427  26.678  37.097  1.00  0.00     0.059 A 
ATOM     61  F   UNL A   1      43.144  26.897  36.618  1.00  0.00    -0.206 F 
ATOM     62  C   UNL A   1      46.739  27.111  36.907  1.00  0.00     0.060 A 
BRANCH  62  63
ATOM     63  S   UNL A   1      48.114  26.254  37.704  1.00  0.00     0.124 S 
ATOM     64  O   UNL A   1      49.261  26.870  37.044  1.00  0.00    -0.237 OA
ATOM     65  O   UNL A   1      47.926  26.606  39.108  1.00  0.00    -0.237 OA
ATOM     66  O   UNL A   1      47.878  24.852  37.374  1.00  0.00    -0.744 OA
ENDBRANCH  62  63
ENDBRANCH  41  55
BRANCH  42  67
ATOM     67  C   UNL A   1      36.952  32.897  31.006  1.00  0.00     0.058 A 
ATOM     68  C   UNL A   1      37.129  33.945  30.090  1.00  0.00     0.135 A 
ATOM     69  C   UNL A   1      35.640  32.469  31.260  1.00  0.00     0.135 A 
ATOM     70  F   UNL A   1      38.364  34.396  29.818  1.00  0.00    -0.206 F 
ATOM     71  C   UNL A   1      36.048  34.558  29.465  1.00  0.00     0.059 A 
ATOM     72  C   UNL A   1      34.545  33.046  30.626  1.00  0.00     0.059 A 
ATOM     73  F   UNL A   1      35.416  31.458  32.115  1.00  0.00    -0.206 F 
ATOM     74  C   UNL A   1      34.759  34.099  29.736  1.00  0.00     0.060 A 
BRANCH  74  75
ATOM     75  S   UNL A   1      33.367  34.873  28.884  1.00  0.00     0.124 S 
ATOM     76  O   UNL A   1      32.488  35.206  29.999  1.00  0.00    -0.237 OA
ATOM     77  O   UNL A   1      34.008  36.000  28.216  1.00  0.00    -0.237 OA
ATOM     78  O   UNL A   1      32.889  33.817  27.997  1.00  0.00    -0.744 OA
ENDBRANCH  74  75
ENDBRANCH  42  67
BRANCH  54  79
ATOM     79  C   UNL A   1      39.953  33.704  37.260  1.00  0.00     0.058 A 
ATOM     80  C   UNL A   1      40.588  34.951  37.377  1.00  0.00     0.135 A 
ATOM     81  C   UNL A   1      38.995  33.365  38.230  1.00  0.00     0.135 A 
ATOM     82  F   UNL A   1      41.516  35.324  36.481  1.00  0.00    -0.206 F 
ATOM     83  C   UNL A   1      40.299  35.818  38.425  1.00  0.00     0.059 A 
ATOM     84  C   UNL A   1      38.667  34.229  39.269  1.00  0.00     0.059 A 
ATOM     85  F   UNL A   1      38.350  32.188  38.160  1.00  0.00    -0.206 F 
ATOM     86  C   UNL A   1      39.332  35.449  39.364  1.00  0.00     0.060 A 
BRANCH  86  87
ATOM     87  S   UNL A   1      38.938  36.602  40.696  1.00  0.00     0.124 S 
ATOM     88  O   UNL A   1      40.238  36.765  41.339  1.00  0.00    -0.237 OA
ATOM     89  O   UNL A   1      38.442  37.764  39.966  1.00  0.00    -0.237 OA
ATOM     90  O   UNL A   1      37.935  35.886  41.481  1.00  0.00    -0.744 OA
ENDBRANCH  86  87
ENDBRANCH  54  79
ENDBRANCH  28  29
ENDBRANCH  20  23
ENDBRANCH  18  19
ENDBRANCH  17  18
ENDBRANCH   1  17
TORSDOF 17
ENDMDL
MODEL 3
REMARK VINA RESULT:      -9.8      2.902     11.815
REMARK SMILES CC(=O)OCc1ccc(C(=O)NCCCCNC(=O)c2ccc(-c3c4nc(c(-c5c(F)cc(S(=O)(=O)[O-])cc5F)c5ccc([nH]5)c(-c5c(F)cc(S(=O)(=O)[O-])cc5F)c5nc(c(-c6c(F)cc(S(=O)(=O)[O-])cc6F)c6ccc3[nH]6)C=C5)C=C4)cc2)o1
REMARK SMILES IDX 14 1 13 2 12 3 10 4 11 5 9 7 6 8 7 9 86 10 8 11 5 12 4 13
REMARK SMILES IDX 2 14 1 15 3 16 15 17 16 18 17 19 18 20 19 22 20 23 21 24
REMARK SMILES IDX 85 25 22 26 84 27 23 28 24 29 25 30 78 31 26 32 83 33 77 34
REMARK SMILES IDX 79 35 27 36 82 37 76 38 75 39 28 41 62 42 41 43 61 44 42 45
REMARK SMILES IDX 45 46 60 47 80 48 43 49 44 50 59 52 81 53 46 54 29 55 30 56
REMARK SMILES IDX 39 57 31 58 32 59 38 60 40 61 33 62 34 63 35 64 36 65 37 66
REMARK SMILES IDX 63 67 64 68 73 69 65 70 66 71 72 72 74 73 67 74 68 75 69 76
REMARK SMILES IDX 70 77 71 78 47 79 48 80 57 81 49 82 50 83 56 84 58 85 51 86
REMARK SMILES IDX 52 87 53 88 54 89 55 90
REMARK H PARENT 12 6 17 21 79 40 45 51
REMARK Flexibility Score: inf
ROOT
ATOM      1  C   UNL A   1      42.498  23.113  28.418  1.00  0.00     0.023 C 
ENDROOT
BRANCH   1   2
ATOM      2  C   UNL A   1      43.820  22.660  29.038  1.00  0.00     0.116 C 
BRANCH   2   3
ATOM      3  N   UNL A   1      44.833  23.683  28.903  1.00  0.00    -0.349 N 
ATOM      4  C   UNL A   1      45.538  24.119  27.805  1.00  0.00     0.286 C 
ATOM      5  O   UNL A   1      46.301  25.069  28.003  1.00  0.00    -0.266 OA
ATOM      6  H   UNL A   1      45.057  24.148  29.742  1.00  0.00     0.163 HD
BRANCH   4   7
ATOM      7  C   UNL A   1      45.369  23.508  26.498  1.00  0.00     0.191 A 
ATOM      8  C   UNL A   1      45.764  21.888  25.032  1.00  0.00     0.142 A 
ATOM      9  C   UNL A   1      44.967  22.807  24.388  1.00  0.00     0.050 A 
ATOM     10  O   UNL A   1      46.003  22.303  26.305  1.00  0.00    -0.452 OA
ATOM     11  C   UNL A   1      44.686  23.824  25.335  1.00  0.00     0.057 A 
BRANCH   8  12
ATOM     12  C   UNL A   1      46.384  20.611  24.589  1.00  0.00     0.308 C 
BRANCH  12  13
ATOM     13  O   UNL A   1      45.677  19.503  25.160  1.00  0.00    -0.458 OA
BRANCH  13  14
ATOM     14  C   UNL A   1      44.596  19.082  24.450  1.00  0.00     0.303 C 
ATOM     15  C   UNL A   1      43.404  18.962  25.351  1.00  0.00     0.139 C 
ATOM     16  O   UNL A   1      44.555  18.913  23.240  1.00  0.00    -0.253 OA
ENDBRANCH  13  14
ENDBRANCH  12  13
ENDBRANCH   8  12
ENDBRANCH   4   7
ENDBRANCH   2   3
ENDBRANCH   1   2
BRANCH   1  17
ATOM     17  C   UNL A   1      41.774  22.012  27.635  1.00  0.00     0.023 C 
BRANCH  17  18
ATOM     18  C   UNL A   1      41.499  22.337  26.169  1.00  0.00     0.116 C 
BRANCH  18  19
ATOM     19  N   UNL A   1      40.101  22.182  25.797  1.00  0.00    -0.352 N 
ATOM     20  C   UNL A   1      39.045  23.017  26.078  1.00  0.00     0.251 C 
ATOM     21  H   UNL A   1      39.882  21.376  25.275  1.00  0.00     0.163 HD
ATOM     22  O   UNL A   1      37.899  22.682  25.796  1.00  0.00    -0.269 OA
BRANCH  20  23
ATOM     23  C   UNL A   1      39.309  24.300  26.760  1.00  0.00     0.039 A 
ATOM     24  C   UNL A   1      38.876  24.469  28.077  1.00  0.00     0.014 A 
ATOM     25  C   UNL A   1      40.031  25.308  26.116  1.00  0.00     0.014 A 
ATOM     26  C   UNL A   1      39.234  25.623  28.774  1.00  0.00     0.010 A 
ATOM     27  C   UNL A   1      40.452  26.419  26.836  1.00  0.00     0.010 A 
ATOM     28  C   UNL A   1      40.061  26.588  28.173  1.00  0.00    -0.014 A 
BRANCH  28  29
ATOM     29  C   UNL A   1      40.536  27.776  28.930  1.00  0.00     0.031 A 
ATOM     30  C   UNL A   1      41.901  27.771  29.559  1.00  0.00     0.074 A 
ATOM     31  C   UNL A   1      39.710  28.828  29.105  1.00  0.00     0.049 A 
ATOM     32  N   UNL A   1      42.465  28.680  30.314  1.00  0.00    -0.248 NA
ATOM     33  C   UNL A   1      42.732  26.577  29.337  1.00  0.00     0.031 C 
ATOM     34  C   UNL A   1      38.344  28.930  28.585  1.00  0.00     0.029 A 
ATOM     35  N   UNL A   1      39.895  30.010  29.778  1.00  0.00    -0.354 N 
ATOM     36  C   UNL A   1      43.708  28.163  30.664  1.00  0.00     0.074 A 
ATOM     37  C   UNL A   1      43.791  26.838  30.089  1.00  0.00     0.031 C 
ATOM     38  C   UNL A   1      37.826  30.116  28.939  1.00  0.00     0.029 A 
ATOM     39  C   UNL A   1      38.801  30.843  29.745  1.00  0.00     0.049 A 
ATOM     40  H   UNL A   1      40.732  30.240  30.243  1.00  0.00     0.167 HD
ATOM     41  C   UNL A   1      44.699  28.750  31.376  1.00  0.00     0.037 A 
ATOM     42  C   UNL A   1      38.601  32.052  30.307  1.00  0.00     0.037 A 
ATOM     43  C   UNL A   1      44.614  30.078  31.927  1.00  0.00     0.049 A 
ATOM     44  C   UNL A   1      39.713  32.678  31.107  1.00  0.00     0.074 A 
ATOM     45  C   UNL A   1      45.583  30.785  32.616  1.00  0.00     0.029 A 
ATOM     46  N   UNL A   1      43.495  30.897  31.858  1.00  0.00    -0.354 N 
ATOM     47  N   UNL A   1      40.908  32.204  31.368  1.00  0.00    -0.248 NA
ATOM     48  C   UNL A   1      39.453  34.005  31.683  1.00  0.00     0.031 C 
ATOM     49  C   UNL A   1      45.033  32.009  33.011  1.00  0.00     0.029 A 
ATOM     50  C   UNL A   1      43.742  32.091  32.515  1.00  0.00     0.049 A 
ATOM     51  H   UNL A   1      42.650  30.662  31.409  1.00  0.00     0.167 HD
ATOM     52  C   UNL A   1      41.553  33.187  32.113  1.00  0.00     0.074 A 
ATOM     53  C   UNL A   1      40.618  34.285  32.249  1.00  0.00     0.031 C 
ATOM     54  C   UNL A   1      42.804  33.180  32.635  1.00  0.00     0.037 A 
BRANCH  41  55
ATOM     55  C   UNL A   1      45.961  27.962  31.598  1.00  0.00     0.058 A 
ATOM     56  C   UNL A   1      47.016  27.980  30.671  1.00  0.00     0.135 A 
ATOM     57  C   UNL A   1      46.136  27.209  32.771  1.00  0.00     0.135 A 
ATOM     58  F   UNL A   1      46.898  28.670  29.526  1.00  0.00    -0.206 F 
ATOM     59  C   UNL A   1      48.185  27.256  30.883  1.00  0.00     0.059 A 
ATOM     60  C   UNL A   1      47.310  26.503  33.020  1.00  0.00     0.059 A 
ATOM     61  F   UNL A   1      45.161  27.155  33.692  1.00  0.00    -0.206 F 
ATOM     62  C   UNL A   1      48.323  26.521  32.062  1.00  0.00     0.060 A 
BRANCH  62  63
ATOM     63  S   UNL A   1      49.850  25.595  32.324  1.00  0.00     0.124 S 
ATOM     64  O   UNL A   1      50.193  25.208  30.959  1.00  0.00    -0.237 OA
ATOM     65  O   UNL A   1      50.719  26.596  32.935  1.00  0.00    -0.237 OA
ATOM     66  O   UNL A   1      49.441  24.503  33.202  1.00  0.00    -0.744 OA
ENDBRANCH  62  63
ENDBRANCH  41  55
BRANCH  42  67
ATOM     67  C   UNL A   1      37.303  32.756  30.121  1.00  0.00     0.058 A 
ATOM     68  C   UNL A   1      36.232  32.543  31.002  1.00  0.00     0.135 A 
ATOM     69  C   UNL A   1      37.108  33.661  29.066  1.00  0.00     0.135 A 
ATOM     70  F   UNL A   1      36.366  31.681  32.023  1.00  0.00    -0.206 F 
ATOM     71  C   UNL A   1      35.010  33.185  30.835  1.00  0.00     0.059 A 
ATOM     72  C   UNL A   1      35.905  34.338  28.894  1.00  0.00     0.059 A 
ATOM     73  F   UNL A   1      38.105  33.914  28.204  1.00  0.00    -0.206 F 
ATOM     74  C   UNL A   1      34.856  34.085  29.779  1.00  0.00     0.060 A 
BRANCH  74  75
ATOM     75  S   UNL A   1      33.280  34.947  29.599  1.00  0.00     0.124 S 
ATOM     76  O   UNL A   1      32.793  34.961  30.973  1.00  0.00    -0.237 OA
ATOM     77  O   UNL A   1      33.699  36.235  29.055  1.00  0.00    -0.237 OA
ATOM     78  O   UNL A   1      32.537  34.097  28.674  1.00  0.00    -0.744 OA
ENDBRANCH  74  75
ENDBRANCH  42  67
BRANCH  54  79
ATOM     79  C   UNL A   1      43.260  34.413  33.368  1.00  0.00     0.058 A 
ATOM     80  C   UNL A   1      43.995  35.425  32.730  1.00  0.00     0.135 A 
ATOM     81  C   UNL A   1      42.902  34.612  34.711  1.00  0.00     0.135 A 
ATOM     82  F   UNL A   1      44.369  35.285  31.448  1.00  0.00    -0.206 F 
ATOM     83  C   UNL A   1      44.378  36.580  33.405  1.00  0.00     0.059 A 
ATOM     84  C   UNL A   1      43.247  35.772  35.397  1.00  0.00     0.059 A 
ATOM     85  F   UNL A   1      42.191  33.680  35.367  1.00  0.00    -0.206 F 
ATOM     86  C   UNL A   1      43.995  36.746  34.738  1.00  0.00     0.060 A 
BRANCH  86  87
ATOM     87  S   UNL A   1      44.464  38.267  35.589  1.00  0.00     0.124 S 
ATOM     88  O   UNL A   1      43.857  38.070  36.901  1.00  0.00    -0.237 OA
ATOM     89  O   UNL A   1      45.922  38.209  35.550  1.00  0.00    -0.237 OA
ATOM     90  O   UNL A   1      43.861  39.315  34.770  1.00  0.00    -0.744 OA
ENDBRANCH  86  87
ENDBRANCH  54  79
ENDBRANCH  28  29
ENDBRANCH  20  23
ENDBRANCH  18  19
ENDBRANCH  17  18
ENDBRANCH   1  17
TORSDOF 17
ENDMDL
