MODEL 1
REMARK VINA RESULT:     -11.6      0.000      0.000
REMARK SMILES Cc1nc(SCc2ccccc2)[nH]c(=O)c1CCC(=O)NCCCCNC(=O)c1ccc(-c2c3nc(c(-c4c(F)cc(S(=O)(=O)[O-])cc4F)c4ccc([nH]4)c(-c4c(F)cc(S(=O)(=O)[O-])cc4F)c4nc(c(-c5c(F)cc(S(=O)(=O)[O-])cc5F)c5ccc2[nH]5)C=C4)C=C3)cc1
REMARK SMILES IDX 22 1 21 2 19 3 20 4 18 6 17 7 16 8 1 9 2 10 3 11 4 12 14 13
REMARK SMILES IDX 13 14 15 15 5 17 6 18 7 19 8 20 12 21 9 22 11 23 10 24 23 25
REMARK SMILES IDX 24 26 25 27 26 28 27 29 28 31 29 32 30 33 94 34 31 35 93 36
REMARK SMILES IDX 32 37 33 38 34 39 87 40 35 41 92 42 86 43 88 44 36 45 91 46
REMARK SMILES IDX 85 47 84 48 37 50 71 51 50 52 70 53 51 54 54 55 69 56 89 57
REMARK SMILES IDX 52 58 53 59 68 61 90 62 55 63 38 64 39 65 48 66 40 67 41 68
REMARK SMILES IDX 47 69 49 70 42 71 43 72 44 73 45 74 46 75 72 76 73 77 82 78
REMARK SMILES IDX 74 79 75 80 81 81 83 82 76 83 77 84 78 85 79 86 80 87 56 88
REMARK SMILES IDX 57 89 66 90 58 91 59 92 65 93 67 94 60 95 61 96 62 97 63 98
REMARK SMILES IDX 64 99
REMARK H PARENT 21 5 13 16 26 30 88 49 54 60
REMARK Flexibility Score: inf
ROOT
ATOM      1  C   UNL A   1      38.245  23.045  26.201  1.00  0.00     0.116 C 
ENDROOT
BRANCH   1   2
ATOM      2  N   UNL A   1      37.783  23.196  24.831  1.00  0.00    -0.356 N 
ATOM      3  C   UNL A   1      36.957  22.438  24.063  1.00  0.00     0.220 C 
ATOM      4  O   UNL A   1      36.808  22.753  22.880  1.00  0.00    -0.275 OA
ATOM      5  H   UNL A   1      38.132  23.996  24.376  1.00  0.00     0.163 HD
BRANCH   3   6
ATOM      6  C   UNL A   1      36.184  21.272  24.646  1.00  0.00     0.105 C 
BRANCH   6   7
ATOM      7  C   UNL A   1      35.006  21.705  25.540  1.00  0.00     0.053 C 
BRANCH   7   8
ATOM      8  C   UNL A   1      34.004  22.538  24.779  1.00  0.00     0.039 A 
ATOM      9  C   UNL A   1      32.779  20.670  23.659  1.00  0.00     0.067 C 
ATOM     10  C   UNL A   1      33.067  22.128  23.897  1.00  0.00     0.049 A 
ATOM     11  N   UNL A   1      32.419  22.984  23.019  1.00  0.00    -0.229 NA
ATOM     12  C   UNL A   1      32.774  24.221  23.047  1.00  0.00     0.168 A 
ATOM     13  C   UNL A   1      34.053  23.992  25.020  1.00  0.00     0.254 A 
ATOM     14  N   UNL A   1      33.528  24.756  24.035  1.00  0.00    -0.301 N 
ATOM     15  O   UNL A   1      34.581  24.468  26.023  1.00  0.00    -0.269 OA
ATOM     16  H   UNL A   1      33.698  25.725  24.038  1.00  0.00     0.172 HD
BRANCH  12  17
ATOM     17  S   UNL A   1      32.455  25.421  21.848  1.00  0.00    -0.083 SA
BRANCH  17  18
ATOM     18  C   UNL A   1      33.369  26.883  22.335  1.00  0.00     0.113 C 
BRANCH  18  19
ATOM     19  C   UNL A   1      32.727  28.017  23.114  1.00  0.00    -0.038 A 
ATOM     20  C   UNL A   1      33.488  28.636  24.124  1.00  0.00     0.004 A 
ATOM     21  C   UNL A   1      31.373  28.361  23.037  1.00  0.00     0.004 A 
ATOM     22  C   UNL A   1      32.903  29.506  25.050  1.00  0.00     0.000 A 
ATOM     23  C   UNL A   1      30.777  29.210  23.975  1.00  0.00     0.000 A 
ATOM     24  C   UNL A   1      31.539  29.771  24.991  1.00  0.00     0.000 A 
ENDBRANCH  18  19
ENDBRANCH  17  18
ENDBRANCH  12  17
ENDBRANCH   7   8
ENDBRANCH   6   7
ENDBRANCH   3   6
ENDBRANCH   1   2
BRANCH   1  25
ATOM     25  C   UNL A   1      39.357  21.995  26.280  1.00  0.00     0.023 C 
BRANCH  25  26
ATOM     26  C   UNL A   1      40.423  22.192  27.340  1.00  0.00     0.023 C 
BRANCH  26  27
ATOM     27  C   UNL A   1      41.682  22.924  26.912  1.00  0.00     0.116 C 
BRANCH  27  28
ATOM     28  N   UNL A   1      41.517  23.943  25.880  1.00  0.00    -0.352 N 
ATOM     29  C   UNL A   1      41.450  25.319  26.027  1.00  0.00     0.251 C 
ATOM     30  H   UNL A   1      41.444  23.608  24.957  1.00  0.00     0.163 HD
ATOM     31  O   UNL A   1      41.334  26.052  25.051  1.00  0.00    -0.269 OA
BRANCH  29  32
ATOM     32  C   UNL A   1      41.446  25.891  27.392  1.00  0.00     0.039 A 
ATOM     33  C   UNL A   1      42.558  26.611  27.831  1.00  0.00     0.014 A 
ATOM     34  C   UNL A   1      40.278  25.868  28.151  1.00  0.00     0.014 A 
ATOM     35  C   UNL A   1      42.438  27.435  28.954  1.00  0.00     0.010 A 
ATOM     36  C   UNL A   1      40.115  26.810  29.156  1.00  0.00     0.010 A 
ATOM     37  C   UNL A   1      41.189  27.612  29.573  1.00  0.00    -0.014 A 
BRANCH  37  38
ATOM     38  C   UNL A   1      40.968  28.620  30.650  1.00  0.00     0.031 A 
ATOM     39  C   UNL A   1      41.791  28.551  31.913  1.00  0.00     0.074 A 
ATOM     40  C   UNL A   1      39.974  29.529  30.544  1.00  0.00     0.049 A 
ATOM     41  N   UNL A   1      41.661  29.228  33.025  1.00  0.00    -0.248 NA
ATOM     42  C   UNL A   1      42.868  27.545  31.953  1.00  0.00     0.031 C 
ATOM     43  C   UNL A   1      39.046  29.657  29.415  1.00  0.00     0.029 A 
ATOM     44  N   UNL A   1      39.565  30.517  31.409  1.00  0.00    -0.354 N 
ATOM     45  C   UNL A   1      42.612  28.707  33.895  1.00  0.00     0.074 A 
ATOM     46  C   UNL A   1      43.249  27.604  33.218  1.00  0.00     0.031 C 
ATOM     47  C   UNL A   1      38.211  30.684  29.639  1.00  0.00     0.029 A 
ATOM     48  C   UNL A   1      38.505  31.264  30.945  1.00  0.00     0.049 A 
ATOM     49  H   UNL A   1      39.993  30.676  32.282  1.00  0.00     0.167 HD
ATOM     50  C   UNL A   1      42.960  29.138  35.130  1.00  0.00     0.037 A 
ATOM     51  C   UNL A   1      37.840  32.292  31.509  1.00  0.00     0.037 A 
ATOM     52  C   UNL A   1      42.371  30.279  35.775  1.00  0.00     0.049 A 
ATOM     53  C   UNL A   1      38.269  32.777  32.871  1.00  0.00     0.074 A 
ATOM     54  C   UNL A   1      42.700  30.842  36.994  1.00  0.00     0.029 A 
ATOM     55  N   UNL A   1      41.341  31.041  35.245  1.00  0.00    -0.354 N 
ATOM     56  N   UNL A   1      39.215  32.311  33.651  1.00  0.00    -0.248 NA
ATOM     57  C   UNL A   1      37.548  33.931  33.426  1.00  0.00     0.031 C 
ATOM     58  C   UNL A   1      41.845  31.926  37.218  1.00  0.00     0.029 A 
ATOM     59  C   UNL A   1      41.016  32.066  36.116  1.00  0.00     0.049 A 
ATOM     60  H   UNL A   1      40.906  30.878  34.376  1.00  0.00     0.167 HD
ATOM     61  C   UNL A   1      39.222  33.131  34.774  1.00  0.00     0.074 A 
ATOM     62  C   UNL A   1      38.196  34.132  34.565  1.00  0.00     0.031 C 
ATOM     63  C   UNL A   1      40.003  33.063  35.879  1.00  0.00     0.037 A 
BRANCH  50  64
ATOM     64  C   UNL A   1      44.053  28.390  35.846  1.00  0.00     0.058 A 
ATOM     65  C   UNL A   1      45.408  28.694  35.640  1.00  0.00     0.135 A 
ATOM     66  C   UNL A   1      43.744  27.379  36.770  1.00  0.00     0.135 A 
ATOM     67  F   UNL A   1      45.763  29.638  34.752  1.00  0.00    -0.206 F 
ATOM     68  C   UNL A   1      46.419  28.002  36.297  1.00  0.00     0.059 A 
ATOM     69  C   UNL A   1      44.739  26.696  37.465  1.00  0.00     0.059 A 
ATOM     70  F   UNL A   1      42.466  27.044  37.005  1.00  0.00    -0.206 F 
ATOM     71  C   UNL A   1      46.074  27.006  37.210  1.00  0.00     0.060 A 
BRANCH  71  72
ATOM     72  S   UNL A   1      47.400  26.132  38.068  1.00  0.00     0.124 S 
ATOM     73  O   UNL A   1      47.317  24.809  37.457  1.00  0.00    -0.237 OA
ATOM     74  O   UNL A   1      48.574  26.922  37.712  1.00  0.00    -0.237 OA
ATOM     75  O   UNL A   1      47.002  26.202  39.470  1.00  0.00    -0.744 OA
ENDBRANCH  71  72
ENDBRANCH  50  64
BRANCH  51  76
ATOM     76  C   UNL A   1      36.717  32.954  30.787  1.00  0.00     0.058 A 
ATOM     77  C   UNL A   1      36.963  33.850  29.735  1.00  0.00     0.135 A 
ATOM     78  C   UNL A   1      35.379  32.715  31.137  1.00  0.00     0.135 A 
ATOM     79  F   UNL A   1      38.224  34.119  29.365  1.00  0.00    -0.206 F 
ATOM     80  C   UNL A   1      35.927  34.506  29.075  1.00  0.00     0.059 A 
ATOM     81  C   UNL A   1      34.324  33.338  30.473  1.00  0.00     0.059 A 
ATOM     82  F   UNL A   1      35.084  31.855  32.124  1.00  0.00    -0.206 F 
ATOM     83  C   UNL A   1      34.609  34.243  29.451  1.00  0.00     0.060 A 
BRANCH  83  84
ATOM     84  S   UNL A   1      33.273  35.076  28.567  1.00  0.00     0.124 S 
ATOM     85  O   UNL A   1      32.507  35.653  29.666  1.00  0.00    -0.237 OA
ATOM     86  O   UNL A   1      34.003  36.023  27.730  1.00  0.00    -0.237 OA
ATOM     87  O   UNL A   1      32.620  33.987  27.845  1.00  0.00    -0.744 OA
ENDBRANCH  83  84
ENDBRANCH  51  76
BRANCH  63  88
ATOM     88  C   UNL A   1      39.817  34.122  36.931  1.00  0.00     0.058 A 
ATOM     89  C   UNL A   1      39.016  33.904  38.062  1.00  0.00     0.135 A 
ATOM     90  C   UNL A   1      40.502  35.343  36.834  1.00  0.00     0.135 A 
ATOM     91  F   UNL A   1      38.337  32.755  38.199  1.00  0.00    -0.206 F 
ATOM     92  C   UNL A   1      38.883  34.872  39.052  1.00  0.00     0.059 A 
ATOM     93  C   UNL A   1      40.407  36.313  37.826  1.00  0.00     0.059 A 
ATOM     94  F   UNL A   1      41.291  35.595  35.777  1.00  0.00    -0.206 F 
ATOM     95  C   UNL A   1      39.586  36.072  38.927  1.00  0.00     0.060 A 
BRANCH  95  96
ATOM     96  S   UNL A   1      39.436  37.303  40.239  1.00  0.00     0.124 S 
ATOM     97  O   UNL A   1      38.539  38.276  39.627  1.00  0.00    -0.237 OA
ATOM     98  O   UNL A   1      38.872  36.522  41.335  1.00  0.00    -0.237 OA
ATOM     99  O   UNL A   1      40.810  37.755  40.440  1.00  0.00    -0.744 OA
ENDBRANCH  95  96
ENDBRANCH  63  88
ENDBRANCH  37  38
ENDBRANCH  29  32
ENDBRANCH  27  28
ENDBRANCH  26  27
ENDBRANCH  25  26
ENDBRANCH   1  25
TORSDOF 19
ENDMDL
MODEL 2
REMARK VINA RESULT:     -11.2      6.044      8.259
REMARK SMILES Cc1nc(SCc2ccccc2)[nH]c(=O)c1CCC(=O)NCCCCNC(=O)c1ccc(-c2c3nc(c(-c4c(F)cc(S(=O)(=O)[O-])cc4F)c4ccc([nH]4)c(-c4c(F)cc(S(=O)(=O)[O-])cc4F)c4nc(c(-c5c(F)cc(S(=O)(=O)[O-])cc5F)c5ccc2[nH]5)C=C4)C=C3)cc1
REMARK SMILES IDX 22 1 21 2 19 3 20 4 18 6 17 7 16 8 1 9 2 10 3 11 4 12 14 13
REMARK SMILES IDX 13 14 15 15 5 17 6 18 7 19 8 20 12 21 9 22 11 23 10 24 23 25
REMARK SMILES IDX 24 26 25 27 26 28 27 29 28 31 29 32 30 33 94 34 31 35 93 36
REMARK SMILES IDX 32 37 33 38 34 39 87 40 35 41 92 42 86 43 88 44 36 45 91 46
REMARK SMILES IDX 85 47 84 48 37 50 71 51 50 52 70 53 51 54 54 55 69 56 89 57
REMARK SMILES IDX 52 58 53 59 68 61 90 62 55 63 38 64 39 65 48 66 40 67 41 68
REMARK SMILES IDX 47 69 49 70 42 71 43 72 44 73 45 74 46 75 72 76 73 77 82 78
REMARK SMILES IDX 74 79 75 80 81 81 83 82 76 83 77 84 78 85 79 86 80 87 56 88
REMARK SMILES IDX 57 89 66 90 58 91 59 92 65 93 67 94 60 95 61 96 62 97 63 98
REMARK SMILES IDX 64 99
REMARK H PARENT 21 5 13 16 26 30 88 49 54 60
REMARK Flexibility Score: inf
ROOT
ATOM      1  C   UNL A   1      36.539  23.648  25.710  1.00  0.00     0.116 C 
ENDROOT
BRANCH   1   2
ATOM      2  N   UNL A   1      35.673  22.843  26.555  1.00  0.00    -0.356 N 
ATOM      3  C   UNL A   1      34.794  21.847  26.267  1.00  0.00     0.220 C 
ATOM      4  O   UNL A   1      34.106  21.392  27.184  1.00  0.00    -0.275 OA
ATOM      5  H   UNL A   1      35.735  23.058  27.513  1.00  0.00     0.163 HD
BRANCH   3   6
ATOM      6  C   UNL A   1      34.697  21.256  24.874  1.00  0.00     0.105 C 
BRANCH   6   7
ATOM      7  C   UNL A   1      33.321  21.470  24.214  1.00  0.00     0.053 C 
BRANCH   7   8
ATOM      8  C   UNL A   1      32.975  22.936  24.110  1.00  0.00     0.039 A 
ATOM      9  C   UNL A   1      31.300  23.026  25.962  1.00  0.00     0.067 C 
ATOM     10  C   UNL A   1      32.050  23.631  24.806  1.00  0.00     0.049 A 
ATOM     11  N   UNL A   1      31.586  24.881  24.421  1.00  0.00    -0.229 NA
ATOM     12  C   UNL A   1      32.056  25.361  23.323  1.00  0.00     0.168 A 
ATOM     13  C   UNL A   1      33.738  23.714  23.118  1.00  0.00     0.254 A 
ATOM     14  N   UNL A   1      33.135  24.846  22.689  1.00  0.00    -0.301 N 
ATOM     15  O   UNL A   1      34.819  23.327  22.678  1.00  0.00    -0.269 OA
ATOM     16  H   UNL A   1      33.491  25.309  21.896  1.00  0.00     0.172 HD
BRANCH  12  17
ATOM     17  S   UNL A   1      31.408  26.666  22.398  1.00  0.00    -0.083 SA
BRANCH  17  18
ATOM     18  C   UNL A   1      32.192  28.159  23.004  1.00  0.00     0.113 C 
BRANCH  18  19
ATOM     19  C   UNL A   1      32.415  28.413  24.484  1.00  0.00    -0.038 A 
ATOM     20  C   UNL A   1      33.742  28.479  24.949  1.00  0.00     0.004 A 
ATOM     21  C   UNL A   1      31.403  28.391  25.451  1.00  0.00     0.004 A 
ATOM     22  C   UNL A   1      34.040  28.458  26.316  1.00  0.00     0.000 A 
ATOM     23  C   UNL A   1      31.695  28.344  26.817  1.00  0.00     0.000 A 
ATOM     24  C   UNL A   1      33.014  28.361  27.250  1.00  0.00     0.000 A 
ENDBRANCH  18  19
ENDBRANCH  17  18
ENDBRANCH  12  17
ENDBRANCH   7   8
ENDBRANCH   6   7
ENDBRANCH   3   6
ENDBRANCH   1   2
BRANCH   1  25
ATOM     25  C   UNL A   1      38.010  23.364  26.024  1.00  0.00     0.023 C 
BRANCH  25  26
ATOM     26  C   UNL A   1      38.542  21.989  25.671  1.00  0.00     0.023 C 
BRANCH  26  27
ATOM     27  C   UNL A   1      39.432  21.318  26.701  1.00  0.00     0.116 C 
BRANCH  27  28
ATOM     28  N   UNL A   1      40.121  20.106  26.269  1.00  0.00    -0.352 N 
ATOM     29  C   UNL A   1      41.480  19.901  26.092  1.00  0.00     0.251 C 
ATOM     30  H   UNL A   1      39.543  19.333  26.077  1.00  0.00     0.163 HD
ATOM     31  O   UNL A   1      41.911  18.807  25.746  1.00  0.00    -0.269 OA
BRANCH  29  32
ATOM     32  C   UNL A   1      42.401  21.047  26.258  1.00  0.00     0.039 A 
ATOM     33  C   UNL A   1      42.724  21.827  25.147  1.00  0.00     0.014 A 
ATOM     34  C   UNL A   1      42.788  21.447  27.535  1.00  0.00     0.014 A 
ATOM     35  C   UNL A   1      43.297  23.087  25.340  1.00  0.00     0.010 A 
ATOM     36  C   UNL A   1      43.196  22.758  27.730  1.00  0.00     0.010 A 
ATOM     37  C   UNL A   1      43.454  23.602  26.638  1.00  0.00    -0.014 A 
BRANCH  37  38
ATOM     38  C   UNL A   1      43.881  25.009  26.891  1.00  0.00     0.031 A 
ATOM     39  C   UNL A   1      45.329  25.391  26.710  1.00  0.00     0.074 A 
ATOM     40  C   UNL A   1      43.003  25.915  27.377  1.00  0.00     0.049 A 
ATOM     41  N   UNL A   1      45.937  26.508  27.016  1.00  0.00    -0.248 NA
ATOM     42  C   UNL A   1      46.228  24.357  26.164  1.00  0.00     0.031 C 
ATOM     43  C   UNL A   1      41.590  25.661  27.679  1.00  0.00     0.029 A 
ATOM     44  N   UNL A   1      43.172  27.237  27.714  1.00  0.00    -0.354 N 
ATOM     45  C   UNL A   1      47.281  26.295  26.731  1.00  0.00     0.074 A 
ATOM     46  C   UNL A   1      47.415  24.920  26.313  1.00  0.00     0.031 C 
ATOM     47  C   UNL A   1      41.018  26.795  28.115  1.00  0.00     0.029 A 
ATOM     48  C   UNL A   1      42.026  27.848  28.172  1.00  0.00     0.049 A 
ATOM     49  H   UNL A   1      44.035  27.705  27.635  1.00  0.00     0.167 HD
ATOM     50  C   UNL A   1      48.307  27.177  26.766  1.00  0.00     0.037 A 
ATOM     51  C   UNL A   1      41.812  29.110  28.596  1.00  0.00     0.037 A 
ATOM     52  C   UNL A   1      48.160  28.563  27.117  1.00  0.00     0.049 A 
ATOM     53  C   UNL A   1      42.962  30.084  28.592  1.00  0.00     0.074 A 
ATOM     54  C   UNL A   1      49.120  29.557  27.115  1.00  0.00     0.029 A 
ATOM     55  N   UNL A   1      46.971  29.153  27.518  1.00  0.00    -0.354 N 
ATOM     56  N   UNL A   1      44.214  29.880  28.256  1.00  0.00    -0.248 NA
ATOM     57  C   UNL A   1      42.672  31.461  29.016  1.00  0.00     0.031 C 
ATOM     58  C   UNL A   1      48.520  30.743  27.549  1.00  0.00     0.029 A 
ATOM     59  C   UNL A   1      47.175  30.498  27.774  1.00  0.00     0.049 A 
ATOM     60  H   UNL A   1      46.109  28.685  27.606  1.00  0.00     0.167 HD
ATOM     61  C   UNL A   1      44.852  31.107  28.401  1.00  0.00     0.074 A 
ATOM     62  C   UNL A   1      43.846  32.052  28.838  1.00  0.00     0.031 C 
ATOM     63  C   UNL A   1      46.153  31.425  28.191  1.00  0.00     0.037 A 
BRANCH  50  64
ATOM     64  C   UNL A   1      49.672  26.673  26.379  1.00  0.00     0.058 A 
ATOM     65  C   UNL A   1      50.501  26.015  27.302  1.00  0.00     0.135 A 
ATOM     66  C   UNL A   1      50.146  26.823  25.066  1.00  0.00     0.135 A 
ATOM     67  F   UNL A   1      50.107  25.862  28.577  1.00  0.00    -0.206 F 
ATOM     68  C   UNL A   1      51.763  25.553  26.948  1.00  0.00     0.059 A 
ATOM     69  C   UNL A   1      51.393  26.337  24.680  1.00  0.00     0.059 A 
ATOM     70  F   UNL A   1      49.398  27.447  24.143  1.00  0.00    -0.206 F 
ATOM     71  C   UNL A   1      52.199  25.716  25.633  1.00  0.00     0.060 A 
BRANCH  71  72
ATOM     72  S   UNL A   1      53.833  25.092  25.187  1.00  0.00     0.124 S 
ATOM     73  O   UNL A   1      53.600  23.651  25.175  1.00  0.00    -0.237 OA
ATOM     74  O   UNL A   1      54.055  25.709  23.883  1.00  0.00    -0.237 OA
ATOM     75  O   UNL A   1      54.689  25.579  26.262  1.00  0.00    -0.744 OA
ENDBRANCH  71  72
ENDBRANCH  50  64
BRANCH  51  76
ATOM     76  C   UNL A   1      40.455  29.541  29.036  1.00  0.00     0.058 A 
ATOM     77  C   UNL A   1      39.420  29.730  28.106  1.00  0.00     0.135 A 
ATOM     78  C   UNL A   1      40.165  29.782  30.388  1.00  0.00     0.135 A 
ATOM     79  F   UNL A   1      39.645  29.520  26.801  1.00  0.00    -0.206 F 
ATOM     80  C   UNL A   1      38.157  30.167  28.496  1.00  0.00     0.059 A 
ATOM     81  C   UNL A   1      38.901  30.194  30.805  1.00  0.00     0.059 A 
ATOM     82  F   UNL A   1      41.111  29.601  31.322  1.00  0.00    -0.206 F 
ATOM     83  C   UNL A   1      37.907  30.397  29.849  1.00  0.00     0.060 A 
BRANCH  83  84
ATOM     84  S   UNL A   1      36.256  30.936  30.346  1.00  0.00     0.124 S 
ATOM     85  O   UNL A   1      35.945  29.990  31.411  1.00  0.00    -0.237 OA
ATOM     86  O   UNL A   1      36.495  32.314  30.764  1.00  0.00    -0.237 OA
ATOM     87  O   UNL A   1      35.473  30.788  29.122  1.00  0.00    -0.744 OA
ENDBRANCH  83  84
ENDBRANCH  51  76
BRANCH  63  88
ATOM     88  C   UNL A   1      46.561  32.859  28.388  1.00  0.00     0.058 A 
ATOM     89  C   UNL A   1      46.490  33.795  27.347  1.00  0.00     0.135 A 
ATOM     90  C   UNL A   1      46.964  33.312  29.655  1.00  0.00     0.135 A 
ATOM     91  F   UNL A   1      46.115  33.412  26.117  1.00  0.00    -0.206 F 
ATOM     92  C   UNL A   1      46.828  35.129  27.548  1.00  0.00     0.059 A 
ATOM     93  C   UNL A   1      47.278  34.647  29.886  1.00  0.00     0.059 A 
ATOM     94  F   UNL A   1      47.036  32.457  30.689  1.00  0.00    -0.206 F 
ATOM     95  C   UNL A   1      47.216  35.547  28.823  1.00  0.00     0.060 A 
BRANCH  95  96
ATOM     96  S   UNL A   1      47.612  37.289  29.079  1.00  0.00     0.124 S 
ATOM     97  O   UNL A   1      46.464  37.739  29.859  1.00  0.00    -0.237 OA
ATOM     98  O   UNL A   1      48.879  37.218  29.800  1.00  0.00    -0.237 OA
ATOM     99  O   UNL A   1      47.697  37.821  27.723  1.00  0.00    -0.744 OA
ENDBRANCH  95  96
ENDBRANCH  63  88
ENDBRANCH  37  38
ENDBRANCH  29  32
ENDBRANCH  27  28
ENDBRANCH  26  27
ENDBRANCH  25  26
ENDBRANCH   1  25
TORSDOF 19
ENDMDL
MODEL 3
REMARK VINA RESULT:     -10.7      6.560     13.859
REMARK SMILES Cc1nc(SCc2ccccc2)[nH]c(=O)c1CCC(=O)NCCCCNC(=O)c1ccc(-c2c3nc(c(-c4c(F)cc(S(=O)(=O)[O-])cc4F)c4ccc([nH]4)c(-c4c(F)cc(S(=O)(=O)[O-])cc4F)c4nc(c(-c5c(F)cc(S(=O)(=O)[O-])cc5F)c5ccc2[nH]5)C=C4)C=C3)cc1
REMARK SMILES IDX 22 1 21 2 19 3 20 4 18 6 17 7 16 8 1 9 2 10 3 11 4 12 14 13
REMARK SMILES IDX 13 14 15 15 5 17 6 18 7 19 8 20 12 21 9 22 11 23 10 24 23 25
REMARK SMILES IDX 24 26 25 27 26 28 27 29 28 31 29 32 30 33 94 34 31 35 93 36
REMARK SMILES IDX 32 37 33 38 34 39 87 40 35 41 92 42 86 43 88 44 36 45 91 46
REMARK SMILES IDX 85 47 84 48 37 50 71 51 50 52 70 53 51 54 54 55 69 56 89 57
REMARK SMILES IDX 52 58 53 59 68 61 90 62 55 63 38 64 39 65 48 66 40 67 41 68
REMARK SMILES IDX 47 69 49 70 42 71 43 72 44 73 45 74 46 75 72 76 73 77 82 78
REMARK SMILES IDX 74 79 75 80 81 81 83 82 76 83 77 84 78 85 79 86 80 87 56 88
REMARK SMILES IDX 57 89 66 90 58 91 59 92 65 93 67 94 60 95 61 96 62 97 63 98
REMARK SMILES IDX 64 99
REMARK H PARENT 21 5 13 16 26 30 88 49 54 60
REMARK Flexibility Score: inf
ROOT
ATOM      1  C   UNL A   1      46.382  21.077  37.906  1.00  0.00     0.116 C 
ENDROOT
BRANCH   1   2
ATOM      2  N   UNL A   1      47.247  20.717  39.017  1.00  0.00    -0.356 N 
ATOM      3  C   UNL A   1      47.021  19.998  40.147  1.00  0.00     0.220 C 
ATOM      4  O   UNL A   1      47.925  19.925  40.984  1.00  0.00    -0.275 OA
ATOM      5  H   UNL A   1      48.167  21.056  38.935  1.00  0.00     0.163 HD
BRANCH   3   6
ATOM      6  C   UNL A   1      45.722  19.245  40.360  1.00  0.00     0.105 C 
BRANCH   6   7
ATOM      7  C   UNL A   1      45.888  17.714  40.317  1.00  0.00     0.053 C 
BRANCH   7   8
ATOM      8  C   UNL A   1      44.574  17.005  40.539  1.00  0.00     0.039 A 
ATOM      9  C   UNL A   1      44.462  17.255  43.023  1.00  0.00     0.067 C 
ATOM     10  C   UNL A   1      43.958  16.724  41.708  1.00  0.00     0.049 A 
ATOM     11  N   UNL A   1      42.931  15.800  41.826  1.00  0.00    -0.229 NA
ATOM     12  C   UNL A   1      42.592  15.169  40.756  1.00  0.00     0.168 A 
ATOM     13  C   UNL A   1      43.868  16.551  39.327  1.00  0.00     0.254 A 
ATOM     14  N   UNL A   1      42.991  15.540  39.517  1.00  0.00    -0.301 N 
ATOM     15  O   UNL A   1      44.106  17.028  38.218  1.00  0.00    -0.269 OA
ATOM     16  H   UNL A   1      42.632  15.063  38.735  1.00  0.00     0.172 HD
BRANCH  12  17
ATOM     17  S   UNL A   1      41.656  13.723  40.654  1.00  0.00    -0.083 SA
BRANCH  17  18
ATOM     18  C   UNL A   1      41.364  13.185  42.338  1.00  0.00     0.113 C 
BRANCH  18  19
ATOM     19  C   UNL A   1      42.331  12.278  43.077  1.00  0.00    -0.038 A 
ATOM     20  C   UNL A   1      42.105  10.889  43.023  1.00  0.00     0.004 A 
ATOM     21  C   UNL A   1      43.314  12.727  43.967  1.00  0.00     0.004 A 
ATOM     22  C   UNL A   1      42.785  10.005  43.867  1.00  0.00     0.000 A 
ATOM     23  C   UNL A   1      43.978  11.851  44.831  1.00  0.00     0.000 A 
ATOM     24  C   UNL A   1      43.702  10.491  44.792  1.00  0.00     0.000 A 
ENDBRANCH  18  19
ENDBRANCH  17  18
ENDBRANCH  12  17
ENDBRANCH   7   8
ENDBRANCH   6   7
ENDBRANCH   3   6
ENDBRANCH   1   2
BRANCH   1  25
ATOM     25  C   UNL A   1      46.163  22.592  37.865  1.00  0.00     0.023 C 
BRANCH  25  26
ATOM     26  C   UNL A   1      46.498  23.375  39.119  1.00  0.00     0.023 C 
BRANCH  26  27
ATOM     27  C   UNL A   1      46.071  24.831  39.147  1.00  0.00     0.116 C 
BRANCH  27  28
ATOM     28  N   UNL A   1      47.143  25.820  39.109  1.00  0.00    -0.352 N 
ATOM     29  C   UNL A   1      47.250  26.949  38.314  1.00  0.00     0.251 C 
ATOM     30  H   UNL A   1      47.890  25.664  39.732  1.00  0.00     0.163 HD
ATOM     31  O   UNL A   1      48.210  27.704  38.418  1.00  0.00    -0.269 OA
BRANCH  29  32
ATOM     32  C   UNL A   1      46.219  27.193  37.280  1.00  0.00     0.039 A 
ATOM     33  C   UNL A   1      44.927  26.704  37.479  1.00  0.00     0.014 A 
ATOM     34  C   UNL A   1      46.489  28.055  36.220  1.00  0.00     0.014 A 
ATOM     35  C   UNL A   1      43.878  27.209  36.705  1.00  0.00     0.010 A 
ATOM     36  C   UNL A   1      45.429  28.674  35.575  1.00  0.00     0.010 A 
ATOM     37  C   UNL A   1      44.106  28.266  35.808  1.00  0.00    -0.014 A 
BRANCH  37  38
ATOM     38  C   UNL A   1      42.994  28.966  35.101  1.00  0.00     0.031 A 
ATOM     39  C   UNL A   1      42.620  28.542  33.702  1.00  0.00     0.074 A 
ATOM     40  C   UNL A   1      42.391  30.036  35.663  1.00  0.00     0.049 A 
ATOM     41  N   UNL A   1      41.794  29.106  32.858  1.00  0.00    -0.248 NA
ATOM     42  C   UNL A   1      43.309  27.358  33.157  1.00  0.00     0.031 C 
ATOM     43  C   UNL A   1      42.709  30.607  36.976  1.00  0.00     0.029 A 
ATOM     44  N   UNL A   1      41.384  30.848  35.195  1.00  0.00    -0.354 N 
ATOM     45  C   UNL A   1      41.893  28.367  31.685  1.00  0.00     0.074 A 
ATOM     46  C   UNL A   1      42.918  27.373  31.893  1.00  0.00     0.031 C 
ATOM     47  C   UNL A   1      41.891  31.644  37.221  1.00  0.00     0.029 A 
ATOM     48  C   UNL A   1      41.019  31.847  36.069  1.00  0.00     0.049 A 
ATOM     49  H   UNL A   1      40.962  30.725  34.314  1.00  0.00     0.167 HD
ATOM     50  C   UNL A   1      41.163  28.472  30.550  1.00  0.00     0.037 A 
ATOM     51  C   UNL A   1      40.094  32.821  35.955  1.00  0.00     0.037 A 
ATOM     52  C   UNL A   1      40.097  29.418  30.369  1.00  0.00     0.049 A 
ATOM     53  C   UNL A   1      39.268  32.897  34.696  1.00  0.00     0.074 A 
ATOM     54  C   UNL A   1      39.248  29.561  29.287  1.00  0.00     0.029 A 
ATOM     55  N   UNL A   1      39.722  30.373  31.302  1.00  0.00    -0.354 N 
ATOM     56  N   UNL A   1      39.333  32.146  33.621  1.00  0.00    -0.248 NA
ATOM     57  C   UNL A   1      38.239  33.943  34.634  1.00  0.00     0.031 C 
ATOM     58  C   UNL A   1      38.382  30.626  29.551  1.00  0.00     0.029 A 
ATOM     59  C   UNL A   1      38.659  31.115  30.817  1.00  0.00     0.049 A 
ATOM     60  H   UNL A   1      40.149  30.503  32.180  1.00  0.00     0.167 HD
ATOM     61  C   UNL A   1      38.337  32.611  32.771  1.00  0.00     0.074 A 
ATOM     62  C   UNL A   1      37.672  33.697  33.461  1.00  0.00     0.031 C 
ATOM     63  C   UNL A   1      38.001  32.181  31.530  1.00  0.00     0.037 A 
BRANCH  50  64
ATOM     64  C   UNL A   1      41.473  27.514  29.431  1.00  0.00     0.058 A 
ATOM     65  C   UNL A   1      40.603  26.462  29.102  1.00  0.00     0.135 A 
ATOM     66  C   UNL A   1      42.637  27.664  28.660  1.00  0.00     0.135 A 
ATOM     67  F   UNL A   1      39.485  26.259  29.818  1.00  0.00    -0.206 F 
ATOM     68  C   UNL A   1      40.889  25.574  28.072  1.00  0.00     0.059 A 
ATOM     69  C   UNL A   1      42.927  26.807  27.601  1.00  0.00     0.059 A 
ATOM     70  F   UNL A   1      43.507  28.649  28.931  1.00  0.00    -0.206 F 
ATOM     71  C   UNL A   1      42.053  25.756  27.325  1.00  0.00     0.060 A 
BRANCH  71  72
ATOM     72  S   UNL A   1      42.398  24.605  25.979  1.00  0.00     0.124 S 
ATOM     73  O   UNL A   1      41.316  23.638  26.139  1.00  0.00    -0.237 OA
ATOM     74  O   UNL A   1      42.309  25.465  24.803  1.00  0.00    -0.237 OA
ATOM     75  O   UNL A   1      43.734  24.108  26.290  1.00  0.00    -0.744 OA
ENDBRANCH  71  72
ENDBRANCH  50  64
BRANCH  51  76
ATOM     76  C   UNL A   1      39.874  33.790  37.065  1.00  0.00     0.058 A 
ATOM     77  C   UNL A   1      39.024  33.479  38.139  1.00  0.00     0.135 A 
ATOM     78  C   UNL A   1      40.496  35.048  37.074  1.00  0.00     0.135 A 
ATOM     79  F   UNL A   1      38.399  32.293  38.176  1.00  0.00    -0.206 F 
ATOM     80  C   UNL A   1      38.779  34.387  39.165  1.00  0.00     0.059 A 
ATOM     81  C   UNL A   1      40.288  35.963  38.104  1.00  0.00     0.059 A 
ATOM     82  F   UNL A   1      41.332  35.393  36.083  1.00  0.00    -0.206 F 
ATOM     83  C   UNL A   1      39.416  35.628  39.139  1.00  0.00     0.060 A 
BRANCH  83  84
ATOM     84  S   UNL A   1      39.113  36.786  40.491  1.00  0.00     0.124 S 
ATOM     85  O   UNL A   1      38.478  37.897  39.792  1.00  0.00    -0.237 OA
ATOM     86  O   UNL A   1      38.248  36.008  41.374  1.00  0.00    -0.237 OA
ATOM     87  O   UNL A   1      40.451  37.050  41.012  1.00  0.00    -0.744 OA
ENDBRANCH  83  84
ENDBRANCH  51  76
BRANCH  63  88
ATOM     88  C   UNL A   1      36.838  32.850  30.851  1.00  0.00     0.058 A 
ATOM     89  C   UNL A   1      35.513  32.598  31.238  1.00  0.00     0.135 A 
ATOM     90  C   UNL A   1      37.060  33.805  29.846  1.00  0.00     0.135 A 
ATOM     91  F   UNL A   1      35.248  31.691  32.191  1.00  0.00    -0.206 F 
ATOM     92  C   UNL A   1      34.446  33.254  30.635  1.00  0.00     0.059 A 
ATOM     93  C   UNL A   1      36.010  34.494  29.250  1.00  0.00     0.059 A 
ATOM     94  F   UNL A   1      38.311  34.092  29.449  1.00  0.00    -0.206 F 
ATOM     95  C   UNL A   1      34.704  34.203  29.644  1.00  0.00     0.060 A 
BRANCH  95  96
ATOM     96  S   UNL A   1      33.311  35.076  28.898  1.00  0.00     0.124 S 
ATOM     97  O   UNL A   1      32.467  35.329  30.061  1.00  0.00    -0.237 OA
ATOM     98  O   UNL A   1      33.954  36.248  28.314  1.00  0.00    -0.237 OA
ATOM     99  O   UNL A   1      32.782  34.113  27.937  1.00  0.00    -0.744 OA
ENDBRANCH  95  96
ENDBRANCH  63  88
ENDBRANCH  37  38
ENDBRANCH  29  32
ENDBRANCH  27  28
ENDBRANCH  26  27
ENDBRANCH  25  26
ENDBRANCH   1  25
TORSDOF 19
ENDMDL
