MODEL 1
REMARK VINA RESULT:     -11.5      0.000      0.000
REMARK SMILES C[C@@H](C(=O)NCCCCNC(=O)c1ccc(-c2c3nc(c(-c4c(F)cc(S(=O)(=O)[O-])cc4F)c4ccc([nH]4)c(-c4c(F)cc(S(=O)(=O)[O-])cc4F)c4nc(c(-c5c(F)cc(S(=O)(=O)[O-])cc5F)c5ccc2[nH]5)C=C4)C=C3)cc1)c1ccc(C[C@H]2CCCC2=O)c(Br)c1
REMARK SMILES IDX 7 1 6 2 5 3 3 4 4 5 2 7 1 8 79 9 80 10 92 11 81 12 90 13
REMARK SMILES IDX 82 14 91 15 83 16 84 17 85 18 88 19 86 20 87 21 89 22 8 23
REMARK SMILES IDX 9 24 10 25 11 26 12 28 13 29 14 30 78 31 15 32 77 33 16 34
REMARK SMILES IDX 17 35 18 36 71 37 19 38 76 39 70 40 72 41 20 42 75 43 69 44
REMARK SMILES IDX 68 45 21 47 55 48 34 49 54 50 35 51 38 52 53 53 73 54 36 55
REMARK SMILES IDX 37 56 52 58 74 59 39 60 22 61 23 62 32 63 24 64 25 65 31 66
REMARK SMILES IDX 33 67 26 68 27 69 28 70 29 71 30 72 56 73 57 74 66 75 58 76
REMARK SMILES IDX 59 77 65 78 67 79 60 80 61 81 62 82 63 83 64 84 40 85 41 86
REMARK SMILES IDX 50 87 42 88 43 89 49 90 51 91 44 92 45 93 46 94 47 95 48 96
REMARK H PARENT 5 6 10 27 72 46 38 57
REMARK Flexibility Score: inf
ROOT
ATOM      1  C   UNL A   1      32.759  29.322  24.897  1.00  0.00     0.023 C 
ENDROOT
BRANCH   1   2
ATOM      2  C   UNL A   1      31.237  29.296  24.750  1.00  0.00     0.116 C 
BRANCH   2   3
ATOM      3  N   UNL A   1      30.819  29.817  23.465  1.00  0.00    -0.356 N 
ATOM      4  C   UNL A   1      30.161  29.208  22.435  1.00  0.00     0.227 C 
ATOM      5  O   UNL A   1      29.995  29.872  21.411  1.00  0.00    -0.274 OA
ATOM      6  H   UNL A   1      31.047  30.762  23.309  1.00  0.00     0.163 HD
BRANCH   4   7
ATOM      7  C   UNL A   1      29.634  27.774  22.599  1.00  0.00     0.105 C 
ATOM      8  C   UNL A   1      28.565  27.666  23.693  1.00  0.00     0.023 C 
BRANCH   7   9
ATOM      9  C   UNL A   1      30.754  26.774  22.878  1.00  0.00    -0.035 A 
ATOM     10  C   UNL A   1      31.903  26.759  22.083  1.00  0.00     0.005 A 
ATOM     11  C   UNL A   1      30.657  25.847  23.928  1.00  0.00     0.020 A 
ATOM     12  C   UNL A   1      32.900  25.804  22.298  1.00  0.00     0.005 A 
ATOM     13  C   UNL A   1      31.647  24.881  24.137  1.00  0.00     0.021 A 
ATOM     14  C   UNL A   1      32.771  24.822  23.299  1.00  0.00    -0.033 A 
ATOM     15  Br  UNL A   1      31.368  23.681  25.585  1.00  0.00    -0.051 Br
BRANCH  14  16
ATOM     16  C   UNL A   1      33.834  23.749  23.391  1.00  0.00     0.048 C 
BRANCH  16  17
ATOM     17  C   UNL A   1      35.158  24.161  24.055  1.00  0.00     0.060 C 
ATOM     18  C   UNL A   1      35.194  24.212  25.587  1.00  0.00     0.012 C 
ATOM     19  C   UNL A   1      36.279  23.190  23.755  1.00  0.00     0.136 C 
ATOM     20  C   UNL A   1      35.779  22.882  26.045  1.00  0.00     0.009 C 
ATOM     21  C   UNL A   1      36.819  22.523  24.993  1.00  0.00     0.076 C 
ATOM     22  O   UNL A   1      36.721  22.983  22.630  1.00  0.00    -0.299 OA
ENDBRANCH  16  17
ENDBRANCH  14  16
ENDBRANCH   7   9
ENDBRANCH   4   7
ENDBRANCH   2   3
ENDBRANCH   1   2
BRANCH   1  23
ATOM     23  C   UNL A   1      33.344  28.188  25.746  1.00  0.00     0.023 C 
BRANCH  23  24
ATOM     24  C   UNL A   1      33.395  28.452  27.247  1.00  0.00     0.116 C 
BRANCH  24  25
ATOM     25  N   UNL A   1      33.368  29.871  27.576  1.00  0.00    -0.352 N 
ATOM     26  C   UNL A   1      34.363  30.647  28.122  1.00  0.00     0.251 C 
ATOM     27  H   UNL A   1      32.523  30.337  27.380  1.00  0.00     0.163 HD
ATOM     28  O   UNL A   1      34.130  31.808  28.446  1.00  0.00    -0.269 OA
BRANCH  26  29
ATOM     29  C   UNL A   1      35.699  30.060  28.352  1.00  0.00     0.039 A 
ATOM     30  C   UNL A   1      36.620  30.044  27.301  1.00  0.00     0.014 A 
ATOM     31  C   UNL A   1      36.055  29.576  29.613  1.00  0.00     0.014 A 
ATOM     32  C   UNL A   1      37.931  29.626  27.540  1.00  0.00     0.010 A 
ATOM     33  C   UNL A   1      37.375  29.209  29.862  1.00  0.00     0.010 A 
ATOM     34  C   UNL A   1      38.330  29.252  28.833  1.00  0.00    -0.014 A 
BRANCH  34  35
ATOM     35  C   UNL A   1      39.751  28.966  29.156  1.00  0.00     0.031 A 
ATOM     36  C   UNL A   1      40.646  30.058  29.667  1.00  0.00     0.074 A 
ATOM     37  C   UNL A   1      40.258  27.749  28.872  1.00  0.00     0.049 A 
ATOM     38  N   UNL A   1      41.939  30.038  29.862  1.00  0.00    -0.248 NA
ATOM     39  C   UNL A   1      40.011  31.349  29.976  1.00  0.00     0.031 C 
ATOM     40  C   UNL A   1      39.500  26.623  28.318  1.00  0.00     0.029 A 
ATOM     41  N   UNL A   1      41.539  27.263  28.975  1.00  0.00    -0.354 N 
ATOM     42  C   UNL A   1      42.279  31.317  30.286  1.00  0.00     0.074 A 
ATOM     43  C   UNL A   1      41.059  32.095  30.302  1.00  0.00     0.031 C 
ATOM     44  C   UNL A   1      40.330  25.586  28.121  1.00  0.00     0.029 A 
ATOM     45  C   UNL A   1      41.682  25.982  28.497  1.00  0.00     0.049 A 
ATOM     46  H   UNL A   1      42.283  27.784  29.356  1.00  0.00     0.167 HD
ATOM     47  C   UNL A   1      43.496  31.792  30.639  1.00  0.00     0.037 A 
ATOM     48  C   UNL A   1      42.784  25.220  28.349  1.00  0.00     0.037 A 
ATOM     49  C   UNL A   1      44.697  30.999  30.667  1.00  0.00     0.049 A 
ATOM     50  C   UNL A   1      44.122  25.771  28.760  1.00  0.00     0.074 A 
ATOM     51  C   UNL A   1      45.952  31.359  31.126  1.00  0.00     0.029 A 
ATOM     52  N   UNL A   1      44.796  29.694  30.211  1.00  0.00    -0.354 N 
ATOM     53  N   UNL A   1      44.407  26.952  29.252  1.00  0.00    -0.248 NA
ATOM     54  C   UNL A   1      45.287  24.891  28.591  1.00  0.00     0.031 C 
ATOM     55  C   UNL A   1      46.822  30.286  30.908  1.00  0.00     0.029 A 
ATOM     56  C   UNL A   1      46.100  29.246  30.347  1.00  0.00     0.049 A 
ATOM     57  H   UNL A   1      44.052  29.165  29.845  1.00  0.00     0.167 HD
ATOM     58  C   UNL A   1      45.781  26.952  29.463  1.00  0.00     0.074 A 
ATOM     59  C   UNL A   1      46.269  25.649  29.062  1.00  0.00     0.031 C 
ATOM     60  C   UNL A   1      46.569  27.945  29.943  1.00  0.00     0.037 A 
BRANCH  47  61
ATOM     61  C   UNL A   1      43.604  33.237  31.035  1.00  0.00     0.058 A 
ATOM     62  C   UNL A   1      43.517  33.639  32.376  1.00  0.00     0.135 A 
ATOM     63  C   UNL A   1      43.881  34.218  30.069  1.00  0.00     0.135 A 
ATOM     64  F   UNL A   1      43.239  32.742  33.335  1.00  0.00    -0.206 F 
ATOM     65  C   UNL A   1      43.692  34.968  32.747  1.00  0.00     0.059 A 
ATOM     66  C   UNL A   1      44.081  35.549  30.420  1.00  0.00     0.059 A 
ATOM     67  F   UNL A   1      43.971  33.883  28.773  1.00  0.00    -0.206 F 
ATOM     68  C   UNL A   1      43.979  35.915  31.761  1.00  0.00     0.060 A 
BRANCH  68  69
ATOM     69  S   UNL A   1      44.244  37.629  32.264  1.00  0.00     0.124 S 
ATOM     70  O   UNL A   1      45.652  37.605  32.648  1.00  0.00    -0.237 OA
ATOM     71  O   UNL A   1      43.934  38.365  31.043  1.00  0.00    -0.237 OA
ATOM     72  O   UNL A   1      43.298  37.812  33.359  1.00  0.00    -0.744 OA
ENDBRANCH  68  69
ENDBRANCH  47  61
BRANCH  48  73
ATOM     73  C   UNL A   1      42.677  23.859  27.763  1.00  0.00     0.058 A 
ATOM     74  C   UNL A   1      42.694  23.667  26.374  1.00  0.00     0.135 A 
ATOM     75  C   UNL A   1      42.543  22.725  28.579  1.00  0.00     0.135 A 
ATOM     76  F   UNL A   1      42.812  24.722  25.553  1.00  0.00    -0.206 F 
ATOM     77  C   UNL A   1      42.558  22.401  25.812  1.00  0.00     0.059 A 
ATOM     78  C   UNL A   1      42.429  21.447  28.041  1.00  0.00     0.059 A 
ATOM     79  F   UNL A   1      42.539  22.855  29.915  1.00  0.00    -0.206 F 
ATOM     80  C   UNL A   1      42.423  21.298  26.655  1.00  0.00     0.060 A 
BRANCH  80  81
ATOM     81  S   UNL A   1      42.277  19.653  25.921  1.00  0.00     0.124 S 
ATOM     82  O   UNL A   1      43.293  19.709  24.876  1.00  0.00    -0.237 OA
ATOM     83  O   UNL A   1      42.571  18.781  27.053  1.00  0.00    -0.237 OA
ATOM     84  O   UNL A   1      40.893  19.619  25.457  1.00  0.00    -0.744 OA
ENDBRANCH  80  81
ENDBRANCH  48  73
BRANCH  60  85
ATOM     85  C   UNL A   1      48.038  27.663  30.073  1.00  0.00     0.058 A 
ATOM     86  C   UNL A   1      48.918  27.872  29.001  1.00  0.00     0.135 A 
ATOM     87  C   UNL A   1      48.580  27.246  31.300  1.00  0.00     0.135 A 
ATOM     88  F   UNL A   1      48.446  28.260  27.806  1.00  0.00    -0.206 F 
ATOM     89  C   UNL A   1      50.287  27.671  29.138  1.00  0.00     0.059 A 
ATOM     90  C   UNL A   1      49.948  27.059  31.466  1.00  0.00     0.059 A 
ATOM     91  F   UNL A   1      47.779  27.039  32.358  1.00  0.00    -0.206 F 
ATOM     92  C   UNL A   1      50.794  27.269  30.376  1.00  0.00     0.060 A 
BRANCH  92  93
ATOM     93  S   UNL A   1      52.578  27.066  30.558  1.00  0.00     0.124 S 
ATOM     94  O   UNL A   1      53.043  27.318  29.198  1.00  0.00    -0.237 OA
ATOM     95  O   UNL A   1      52.913  28.091  31.542  1.00  0.00    -0.237 OA
ATOM     96  O   UNL A   1      52.716  25.690  31.025  1.00  0.00    -0.744 OA
ENDBRANCH  92  93
ENDBRANCH  60  85
ENDBRANCH  34  35
ENDBRANCH  26  29
ENDBRANCH  24  25
ENDBRANCH  23  24
ENDBRANCH   1  23
TORSDOF 17
ENDMDL
MODEL 2
REMARK VINA RESULT:     -11.3      1.597      2.286
REMARK SMILES C[C@@H](C(=O)NCCCCNC(=O)c1ccc(-c2c3nc(c(-c4c(F)cc(S(=O)(=O)[O-])cc4F)c4ccc([nH]4)c(-c4c(F)cc(S(=O)(=O)[O-])cc4F)c4nc(c(-c5c(F)cc(S(=O)(=O)[O-])cc5F)c5ccc2[nH]5)C=C4)C=C3)cc1)c1ccc(C[C@H]2CCCC2=O)c(Br)c1
REMARK SMILES IDX 7 1 6 2 5 3 3 4 4 5 2 7 1 8 79 9 80 10 92 11 81 12 90 13
REMARK SMILES IDX 82 14 91 15 83 16 84 17 85 18 88 19 86 20 87 21 89 22 8 23
REMARK SMILES IDX 9 24 10 25 11 26 12 28 13 29 14 30 78 31 15 32 77 33 16 34
REMARK SMILES IDX 17 35 18 36 71 37 19 38 76 39 70 40 72 41 20 42 75 43 69 44
REMARK SMILES IDX 68 45 21 47 55 48 34 49 54 50 35 51 38 52 53 53 73 54 36 55
REMARK SMILES IDX 37 56 52 58 74 59 39 60 22 61 23 62 32 63 24 64 25 65 31 66
REMARK SMILES IDX 33 67 26 68 27 69 28 70 29 71 30 72 56 73 57 74 66 75 58 76
REMARK SMILES IDX 59 77 65 78 67 79 60 80 61 81 62 82 63 83 64 84 40 85 41 86
REMARK SMILES IDX 50 87 42 88 43 89 49 90 51 91 44 92 45 93 46 94 47 95 48 96
REMARK H PARENT 5 6 10 27 72 46 38 57
REMARK Flexibility Score: inf
ROOT
ATOM      1  C   UNL A   1      31.778  27.846  26.625  1.00  0.00     0.023 C 
ENDROOT
BRANCH   1   2
ATOM      2  C   UNL A   1      31.316  28.163  25.202  1.00  0.00     0.116 C 
BRANCH   2   3
ATOM      3  N   UNL A   1      30.742  27.000  24.559  1.00  0.00    -0.356 N 
ATOM      4  C   UNL A   1      31.329  26.025  23.804  1.00  0.00     0.227 C 
ATOM      5  O   UNL A   1      30.583  25.180  23.308  1.00  0.00    -0.274 OA
ATOM      6  H   UNL A   1      29.771  26.896  24.686  1.00  0.00     0.163 HD
BRANCH   4   7
ATOM      7  C   UNL A   1      32.856  25.997  23.635  1.00  0.00     0.105 C 
ATOM      8  C   UNL A   1      33.292  26.361  22.211  1.00  0.00     0.023 C 
BRANCH   7   9
ATOM      9  C   UNL A   1      33.458  24.650  24.026  1.00  0.00    -0.035 A 
ATOM     10  C   UNL A   1      34.089  23.853  23.067  1.00  0.00     0.005 A 
ATOM     11  C   UNL A   1      33.389  24.177  25.347  1.00  0.00     0.020 A 
ATOM     12  C   UNL A   1      34.585  22.592  23.410  1.00  0.00     0.005 A 
ATOM     13  C   UNL A   1      33.872  22.910  25.690  1.00  0.00     0.021 A 
ATOM     14  C   UNL A   1      34.447  22.080  24.715  1.00  0.00    -0.033 A 
ATOM     15  Br  UNL A   1      33.691  22.399  27.512  1.00  0.00    -0.051 Br
BRANCH  14  16
ATOM     16  C   UNL A   1      34.900  20.661  24.979  1.00  0.00     0.048 C 
BRANCH  16  17
ATOM     17  C   UNL A   1      33.790  19.606  25.105  1.00  0.00     0.060 C 
ATOM     18  C   UNL A   1      32.398  19.978  24.582  1.00  0.00     0.012 C 
ATOM     19  C   UNL A   1      34.092  18.355  24.310  1.00  0.00     0.136 C 
ATOM     20  C   UNL A   1      32.304  19.405  23.174  1.00  0.00     0.009 C 
ATOM     21  C   UNL A   1      33.078  18.095  23.226  1.00  0.00     0.076 C 
ATOM     22  O   UNL A   1      35.043  17.615  24.534  1.00  0.00    -0.299 OA
ENDBRANCH  16  17
ENDBRANCH  14  16
ENDBRANCH   7   9
ENDBRANCH   4   7
ENDBRANCH   2   3
ENDBRANCH   1   2
BRANCH   1  23
ATOM     23  C   UNL A   1      33.296  27.880  26.832  1.00  0.00     0.023 C 
BRANCH  23  24
ATOM     24  C   UNL A   1      34.006  29.108  26.274  1.00  0.00     0.116 C 
BRANCH  24  25
ATOM     25  N   UNL A   1      33.828  30.294  27.100  1.00  0.00    -0.352 N 
ATOM     26  C   UNL A   1      34.657  30.797  28.074  1.00  0.00     0.251 C 
ATOM     27  H   UNL A   1      33.001  30.804  26.939  1.00  0.00     0.163 HD
ATOM     28  O   UNL A   1      34.295  31.748  28.761  1.00  0.00    -0.269 OA
BRANCH  26  29
ATOM     29  C   UNL A   1      35.968  30.160  28.313  1.00  0.00     0.039 A 
ATOM     30  C   UNL A   1      36.899  30.117  27.272  1.00  0.00     0.014 A 
ATOM     31  C   UNL A   1      36.292  29.654  29.575  1.00  0.00     0.014 A 
ATOM     32  C   UNL A   1      38.191  29.649  27.521  1.00  0.00     0.010 A 
ATOM     33  C   UNL A   1      37.595  29.236  29.834  1.00  0.00     0.010 A 
ATOM     34  C   UNL A   1      38.562  29.251  28.816  1.00  0.00    -0.014 A 
BRANCH  34  35
ATOM     35  C   UNL A   1      39.968  28.910  29.151  1.00  0.00     0.031 A 
ATOM     36  C   UNL A   1      40.899  29.966  29.674  1.00  0.00     0.074 A 
ATOM     37  C   UNL A   1      40.431  27.675  28.868  1.00  0.00     0.049 A 
ATOM     38  N   UNL A   1      42.188  29.896  29.882  1.00  0.00    -0.248 NA
ATOM     39  C   UNL A   1      40.311  31.279  29.981  1.00  0.00     0.031 C 
ATOM     40  C   UNL A   1      39.636  26.581  28.303  1.00  0.00     0.029 A 
ATOM     41  N   UNL A   1      41.691  27.141  28.981  1.00  0.00    -0.354 N 
ATOM     42  C   UNL A   1      42.573  31.160  30.313  1.00  0.00     0.074 A 
ATOM     43  C   UNL A   1      41.383  31.983  30.320  1.00  0.00     0.031 C 
ATOM     44  C   UNL A   1      40.427  25.514  28.110  1.00  0.00     0.029 A 
ATOM     45  C   UNL A   1      41.790  25.856  28.500  1.00  0.00     0.049 A 
ATOM     46  H   UNL A   1      42.451  27.631  29.370  1.00  0.00     0.167 HD
ATOM     47  C   UNL A   1      43.803  31.586  30.679  1.00  0.00     0.037 A 
ATOM     48  C   UNL A   1      42.863  25.053  28.360  1.00  0.00     0.037 A 
ATOM     49  C   UNL A   1      44.972  30.748  30.716  1.00  0.00     0.049 A 
ATOM     50  C   UNL A   1      44.217  25.551  28.785  1.00  0.00     0.074 A 
ATOM     51  C   UNL A   1      46.236  31.059  31.188  1.00  0.00     0.029 A 
ATOM     52  N   UNL A   1      45.027  29.442  30.256  1.00  0.00    -0.354 N 
ATOM     53  N   UNL A   1      44.543  26.719  29.284  1.00  0.00    -0.248 NA
ATOM     54  C   UNL A   1      45.350  24.629  28.624  1.00  0.00     0.031 C 
ATOM     55  C   UNL A   1      47.066  29.953  30.975  1.00  0.00     0.029 A 
ATOM     56  C   UNL A   1      46.311  28.944  30.402  1.00  0.00     0.049 A 
ATOM     57  H   UNL A   1      44.266  28.942  29.881  1.00  0.00     0.167 HD
ATOM     58  C   UNL A   1      45.914  26.666  29.508  1.00  0.00     0.074 A 
ATOM     59  C   UNL A   1      46.355  25.347  29.107  1.00  0.00     0.031 C 
ATOM     60  C   UNL A   1      46.733  27.627  29.999  1.00  0.00     0.037 A 
BRANCH  47  61
ATOM     61  C   UNL A   1      43.962  33.024  31.081  1.00  0.00     0.058 A 
ATOM     62  C   UNL A   1      43.813  33.435  32.414  1.00  0.00     0.135 A 
ATOM     63  C   UNL A   1      44.351  33.986  30.134  1.00  0.00     0.135 A 
ATOM     64  F   UNL A   1      43.430  32.557  33.354  1.00  0.00    -0.206 F 
ATOM     65  C   UNL A   1      44.036  34.754  32.795  1.00  0.00     0.059 A 
ATOM     66  C   UNL A   1      44.598  35.307  30.497  1.00  0.00     0.059 A 
ATOM     67  F   UNL A   1      44.503  33.643  28.846  1.00  0.00    -0.206 F 
ATOM     68  C   UNL A   1      44.432  35.682  31.829  1.00  0.00     0.060 A 
BRANCH  68  69
ATOM     69  S   UNL A   1      44.756  37.382  32.347  1.00  0.00     0.124 S 
ATOM     70  O   UNL A   1      46.109  37.270  32.881  1.00  0.00    -0.237 OA
ATOM     71  O   UNL A   1      44.628  38.120  31.095  1.00  0.00    -0.237 OA
ATOM     72  O   UNL A   1      43.712  37.640  33.333  1.00  0.00    -0.744 OA
ENDBRANCH  68  69
ENDBRANCH  47  61
BRANCH  48  73
ATOM     73  C   UNL A   1      42.710  23.699  27.768  1.00  0.00     0.058 A 
ATOM     74  C   UNL A   1      42.538  22.570  28.581  1.00  0.00     0.135 A 
ATOM     75  C   UNL A   1      42.745  23.506  26.378  1.00  0.00     0.135 A 
ATOM     76  F   UNL A   1      42.505  22.704  29.916  1.00  0.00    -0.206 F 
ATOM     77  C   UNL A   1      42.429  21.292  28.041  1.00  0.00     0.059 A 
ATOM     78  C   UNL A   1      42.615  22.241  25.813  1.00  0.00     0.059 A 
ATOM     79  F   UNL A   1      42.891  24.557  25.557  1.00  0.00    -0.206 F 
ATOM     80  C   UNL A   1      42.472  21.139  26.654  1.00  0.00     0.060 A 
BRANCH  80  81
ATOM     81  S   UNL A   1      42.301  19.482  25.956  1.00  0.00     0.124 S 
ATOM     82  O   UNL A   1      42.760  18.650  27.062  1.00  0.00    -0.237 OA
ATOM     83  O   UNL A   1      40.874  19.417  25.657  1.00  0.00    -0.237 OA
ATOM     84  O   UNL A   1      43.176  19.521  24.788  1.00  0.00    -0.744 OA
ENDBRANCH  80  81
ENDBRANCH  48  73
BRANCH  60  85
ATOM     85  C   UNL A   1      48.189  27.289  30.142  1.00  0.00     0.058 A 
ATOM     86  C   UNL A   1      49.105  27.560  29.115  1.00  0.00     0.135 A 
ATOM     87  C   UNL A   1      48.684  26.753  31.342  1.00  0.00     0.135 A 
ATOM     88  F   UNL A   1      48.679  28.062  27.945  1.00  0.00    -0.206 F 
ATOM     89  C   UNL A   1      50.464  27.305  29.269  1.00  0.00     0.059 A 
ATOM     90  C   UNL A   1      50.041  26.510  31.526  1.00  0.00     0.059 A 
ATOM     91  F   UNL A   1      47.848  26.482  32.357  1.00  0.00    -0.206 F 
ATOM     92  C   UNL A   1      50.923  26.784  30.480  1.00  0.00     0.060 A 
BRANCH  92  93
ATOM     93  S   UNL A   1      52.695  26.510  30.690  1.00  0.00     0.124 S 
ATOM     94  O   UNL A   1      53.130  26.329  29.309  1.00  0.00    -0.237 OA
ATOM     95  O   UNL A   1      53.131  27.745  31.335  1.00  0.00    -0.237 OA
ATOM     96  O   UNL A   1      52.756  25.317  31.530  1.00  0.00    -0.744 OA
ENDBRANCH  92  93
ENDBRANCH  60  85
ENDBRANCH  34  35
ENDBRANCH  26  29
ENDBRANCH  24  25
ENDBRANCH  23  24
ENDBRANCH   1  23
TORSDOF 17
ENDMDL
MODEL 3
REMARK VINA RESULT:     -11.2      5.115     10.630
REMARK SMILES C[C@@H](C(=O)NCCCCNC(=O)c1ccc(-c2c3nc(c(-c4c(F)cc(S(=O)(=O)[O-])cc4F)c4ccc([nH]4)c(-c4c(F)cc(S(=O)(=O)[O-])cc4F)c4nc(c(-c5c(F)cc(S(=O)(=O)[O-])cc5F)c5ccc2[nH]5)C=C4)C=C3)cc1)c1ccc(C[C@H]2CCCC2=O)c(Br)c1
REMARK SMILES IDX 7 1 6 2 5 3 3 4 4 5 2 7 1 8 79 9 80 10 92 11 81 12 90 13
REMARK SMILES IDX 82 14 91 15 83 16 84 17 85 18 88 19 86 20 87 21 89 22 8 23
REMARK SMILES IDX 9 24 10 25 11 26 12 28 13 29 14 30 78 31 15 32 77 33 16 34
REMARK SMILES IDX 17 35 18 36 71 37 19 38 76 39 70 40 72 41 20 42 75 43 69 44
REMARK SMILES IDX 68 45 21 47 55 48 34 49 54 50 35 51 38 52 53 53 73 54 36 55
REMARK SMILES IDX 37 56 52 58 74 59 39 60 22 61 23 62 32 63 24 64 25 65 31 66
REMARK SMILES IDX 33 67 26 68 27 69 28 70 29 71 30 72 56 73 57 74 66 75 58 76
REMARK SMILES IDX 59 77 65 78 67 79 60 80 61 81 62 82 63 83 64 84 40 85 41 86
REMARK SMILES IDX 50 87 42 88 43 89 49 90 51 91 44 92 45 93 46 94 47 95 48 96
REMARK H PARENT 5 6 10 27 72 46 38 57
REMARK Flexibility Score: inf
ROOT
ATOM      1  C   UNL A   1      39.621  21.866  26.007  1.00  0.00     0.023 C 
ENDROOT
BRANCH   1   2
ATOM      2  C   UNL A   1      38.248  22.536  26.059  1.00  0.00     0.116 C 
BRANCH   2   3
ATOM      3  N   UNL A   1      37.788  22.906  24.736  1.00  0.00    -0.356 N 
ATOM      4  C   UNL A   1      36.530  22.909  24.206  1.00  0.00     0.227 C 
ATOM      5  O   UNL A   1      36.429  23.202  23.013  1.00  0.00    -0.274 OA
ATOM      6  H   UNL A   1      38.497  23.202  24.120  1.00  0.00     0.163 HD
BRANCH   4   7
ATOM      7  C   UNL A   1      35.318  22.592  25.096  1.00  0.00     0.105 C 
ATOM      8  C   UNL A   1      34.554  21.351  24.620  1.00  0.00     0.023 C 
BRANCH   7   9
ATOM      9  C   UNL A   1      34.356  23.773  25.208  1.00  0.00    -0.035 A 
ATOM     10  C   UNL A   1      33.340  23.769  26.167  1.00  0.00     0.005 A 
ATOM     11  C   UNL A   1      34.463  24.882  24.353  1.00  0.00     0.020 A 
ATOM     12  C   UNL A   1      32.421  24.820  26.229  1.00  0.00     0.005 A 
ATOM     13  C   UNL A   1      33.537  25.929  24.404  1.00  0.00     0.021 A 
ATOM     14  C   UNL A   1      32.476  25.896  25.323  1.00  0.00    -0.033 A 
ATOM     15  Br  UNL A   1      33.798  27.353  23.171  1.00  0.00    -0.051 Br
BRANCH  14  16
ATOM     16  C   UNL A   1      31.376  26.934  25.375  1.00  0.00     0.048 C 
BRANCH  16  17
ATOM     17  C   UNL A   1      31.572  28.081  26.379  1.00  0.00     0.060 C 
ATOM     18  C   UNL A   1      32.761  27.983  27.341  1.00  0.00     0.012 C 
ATOM     19  C   UNL A   1      31.839  29.404  25.695  1.00  0.00     0.136 C 
ATOM     20  C   UNL A   1      33.885  28.800  26.716  1.00  0.00     0.009 C 
ATOM     21  C   UNL A   1      33.192  29.973  26.038  1.00  0.00     0.076 C 
ATOM     22  O   UNL A   1      31.037  29.968  24.960  1.00  0.00    -0.299 OA
ENDBRANCH  16  17
ENDBRANCH  14  16
ENDBRANCH   7   9
ENDBRANCH   4   7
ENDBRANCH   2   3
ENDBRANCH   1   2
BRANCH   1  23
ATOM     23  C   UNL A   1      40.427  21.946  27.308  1.00  0.00     0.023 C 
BRANCH  23  24
ATOM     24  C   UNL A   1      41.531  22.996  27.332  1.00  0.00     0.116 C 
BRANCH  24  25
ATOM     25  N   UNL A   1      41.515  23.866  26.164  1.00  0.00    -0.352 N 
ATOM     26  C   UNL A   1      41.423  25.236  26.112  1.00  0.00     0.251 C 
ATOM     27  H   UNL A   1      41.579  23.409  25.294  1.00  0.00     0.163 HD
ATOM     28  O   UNL A   1      41.304  25.805  25.031  1.00  0.00    -0.269 OA
BRANCH  26  29
ATOM     29  C   UNL A   1      41.429  26.013  27.369  1.00  0.00     0.039 A 
ATOM     30  C   UNL A   1      42.525  26.833  27.651  1.00  0.00     0.014 A 
ATOM     31  C   UNL A   1      40.335  25.969  28.237  1.00  0.00     0.014 A 
ATOM     32  C   UNL A   1      42.483  27.682  28.760  1.00  0.00     0.010 A 
ATOM     33  C   UNL A   1      40.274  26.853  29.311  1.00  0.00     0.010 A 
ATOM     34  C   UNL A   1      41.337  27.733  29.570  1.00  0.00    -0.014 A 
BRANCH  34  35
ATOM     35  C   UNL A   1      41.194  28.740  30.651  1.00  0.00     0.031 A 
ATOM     36  C   UNL A   1      42.012  28.626  31.905  1.00  0.00     0.074 A 
ATOM     37  C   UNL A   1      40.238  29.686  30.547  1.00  0.00     0.049 A 
ATOM     38  N   UNL A   1      41.922  29.317  33.012  1.00  0.00    -0.248 NA
ATOM     39  C   UNL A   1      43.051  27.584  31.929  1.00  0.00     0.031 C 
ATOM     40  C   UNL A   1      39.341  29.861  29.401  1.00  0.00     0.029 A 
ATOM     41  N   UNL A   1      39.835  30.656  31.432  1.00  0.00    -0.354 N 
ATOM     42  C   UNL A   1      42.868  28.776  33.875  1.00  0.00     0.074 A 
ATOM     43  C   UNL A   1      43.508  27.687  33.171  1.00  0.00     0.031 C 
ATOM     44  C   UNL A   1      38.489  30.867  29.657  1.00  0.00     0.029 A 
ATOM     45  C   UNL A   1      38.751  31.383  30.996  1.00  0.00     0.049 A 
ATOM     46  H   UNL A   1      40.279  30.816  32.295  1.00  0.00     0.167 HD
ATOM     47  C   UNL A   1      43.177  29.163  35.134  1.00  0.00     0.037 A 
ATOM     48  C   UNL A   1      38.030  32.337  31.616  1.00  0.00     0.037 A 
ATOM     49  C   UNL A   1      42.569  30.279  35.810  1.00  0.00     0.049 A 
ATOM     50  C   UNL A   1      38.404  32.754  33.012  1.00  0.00     0.074 A 
ATOM     51  C   UNL A   1      42.901  30.822  37.039  1.00  0.00     0.029 A 
ATOM     52  N   UNL A   1      41.500  31.015  35.323  1.00  0.00    -0.354 N 
ATOM     53  N   UNL A   1      39.367  32.297  33.775  1.00  0.00    -0.248 NA
ATOM     54  C   UNL A   1      37.593  33.810  33.634  1.00  0.00     0.031 C 
ATOM     55  C   UNL A   1      42.006  31.860  37.315  1.00  0.00     0.029 A 
ATOM     56  C   UNL A   1      41.139  31.986  36.242  1.00  0.00     0.049 A 
ATOM     57  H   UNL A   1      41.062  30.868  34.453  1.00  0.00     0.167 HD
ATOM     58  C   UNL A   1      39.285  33.017  34.960  1.00  0.00     0.074 A 
ATOM     59  C   UNL A   1      38.190  33.953  34.810  1.00  0.00     0.031 C 
ATOM     60  C   UNL A   1      40.047  32.910  36.076  1.00  0.00     0.037 A 
BRANCH  47  61
ATOM     61  C   UNL A   1      44.227  28.386  35.874  1.00  0.00     0.058 A 
ATOM     62  C   UNL A   1      45.588  28.715  35.778  1.00  0.00     0.135 A 
ATOM     63  C   UNL A   1      43.858  27.356  36.755  1.00  0.00     0.135 A 
ATOM     64  F   UNL A   1      45.993  29.682  34.940  1.00  0.00    -0.206 F 
ATOM     65  C   UNL A   1      46.550  28.041  36.524  1.00  0.00     0.059 A 
ATOM     66  C   UNL A   1      44.802  26.684  37.525  1.00  0.00     0.059 A 
ATOM     67  F   UNL A   1      42.570  27.004  36.880  1.00  0.00    -0.206 F 
ATOM     68  C   UNL A   1      46.146  27.030  37.398  1.00  0.00     0.060 A 
BRANCH  68  69
ATOM     69  S   UNL A   1      47.404  26.194  38.388  1.00  0.00     0.124 S 
ATOM     70  O   UNL A   1      46.952  24.808  38.320  1.00  0.00    -0.237 OA
ATOM     71  O   UNL A   1      48.630  26.497  37.658  1.00  0.00    -0.237 OA
ATOM     72  O   UNL A   1      47.284  26.829  39.696  1.00  0.00    -0.744 OA
ENDBRANCH  68  69
ENDBRANCH  47  61
BRANCH  48  73
ATOM     73  C   UNL A   1      36.862  32.952  30.933  1.00  0.00     0.058 A 
ATOM     74  C   UNL A   1      37.036  33.947  29.960  1.00  0.00     0.135 A 
ATOM     75  C   UNL A   1      35.550  32.566  31.248  1.00  0.00     0.135 A 
ATOM     76  F   UNL A   1      38.272  34.354  29.630  1.00  0.00    -0.206 F 
ATOM     77  C   UNL A   1      35.950  34.555  29.338  1.00  0.00     0.059 A 
ATOM     78  C   UNL A   1      34.449  33.144  30.625  1.00  0.00     0.059 A 
ATOM     79  F   UNL A   1      35.333  31.607  32.161  1.00  0.00    -0.206 F 
ATOM     80  C   UNL A   1      34.659  34.149  29.681  1.00  0.00     0.060 A 
BRANCH  80  81
ATOM     81  S   UNL A   1      33.253  34.921  28.851  1.00  0.00     0.124 S 
ATOM     82  O   UNL A   1      32.366  35.197  29.975  1.00  0.00    -0.237 OA
ATOM     83  O   UNL A   1      33.867  36.086  28.220  1.00  0.00    -0.237 OA
ATOM     84  O   UNL A   1      32.802  33.884  27.928  1.00  0.00    -0.744 OA
ENDBRANCH  80  81
ENDBRANCH  48  73
BRANCH  60  85
ATOM     85  C   UNL A   1      39.735  33.833  37.219  1.00  0.00     0.058 A 
ATOM     86  C   UNL A   1      38.879  33.441  38.259  1.00  0.00     0.135 A 
ATOM     87  C   UNL A   1      40.351  35.091  37.311  1.00  0.00     0.135 A 
ATOM     88  F   UNL A   1      38.259  32.251  38.211  1.00  0.00    -0.206 F 
ATOM     89  C   UNL A   1      38.638  34.269  39.351  1.00  0.00     0.059 A 
ATOM     90  C   UNL A   1      40.141  35.927  38.403  1.00  0.00     0.059 A 
ATOM     91  F   UNL A   1      41.183  35.509  36.344  1.00  0.00    -0.206 F 
ATOM     92  C   UNL A   1      39.277  35.508  39.415  1.00  0.00     0.060 A 
BRANCH  92  93
ATOM     93  S   UNL A   1      39.002  36.551  40.863  1.00  0.00     0.124 S 
ATOM     94  O   UNL A   1      37.979  35.796  41.579  1.00  0.00    -0.237 OA
ATOM     95  O   UNL A   1      40.321  36.580  41.487  1.00  0.00    -0.237 OA
ATOM     96  O   UNL A   1      38.559  37.818  40.288  1.00  0.00    -0.744 OA
ENDBRANCH  92  93
ENDBRANCH  60  85
ENDBRANCH  34  35
ENDBRANCH  26  29
ENDBRANCH  24  25
ENDBRANCH  23  24
ENDBRANCH   1  23
TORSDOF 17
ENDMDL
