MODEL 1
REMARK VINA RESULT:     -12.0      0.000      0.000
REMARK SMILES COc1cc(C=C2C(=O)N(C)C(=S)N(C)C2=O)c(Br)cc1OCC(=O)NCCCCNC(=O)c1ccc(-c2c3nc(c(-c4c(F)cc(S(=O)(=O)[O-])cc4F)c4ccc([nH]4)c(-c4c(F)cc(S(=O)(=O)[O-])cc4F)c4nc(c(-c5c(F)cc(S(=O)(=O)[O-])cc5F)c5ccc2[nH]5)C=C4)C=C3)cc1
REMARK SMILES IDX 28 1 27 2 26 3 24 4 25 5 23 7 22 8 21 9 3 10 4 11 5 12 20 13
REMARK SMILES IDX 18 14 19 15 2 16 1 17 6 18 7 19 8 20 16 21 9 22 10 23 14 24
REMARK SMILES IDX 17 25 11 26 12 27 15 28 13 29 29 30 30 31 31 32 32 33 33 35
REMARK SMILES IDX 34 36 35 37 99 38 36 39 98 40 37 41 38 42 39 43 92 44 40 45
REMARK SMILES IDX 97 46 91 47 93 48 41 49 96 50 90 51 89 52 42 54 76 55 55 56
REMARK SMILES IDX 75 57 56 58 59 59 74 60 94 61 57 62 58 63 73 65 95 66 60 67
REMARK SMILES IDX 43 68 44 69 53 70 45 71 46 72 52 73 54 74 47 75 48 76 49 77
REMARK SMILES IDX 50 78 51 79 77 80 78 81 87 82 79 83 80 84 86 85 88 86 81 87
REMARK SMILES IDX 82 88 83 89 84 90 85 91 61 92 62 93 71 94 63 95 64 96 70 97
REMARK SMILES IDX 72 98 65 99 66 100 67 101 68 102 69 103
REMARK H PARENT 26 6 31 34 93 53 59 64
REMARK Flexibility Score: inf
ROOT
ATOM      1  C   UNL A   1      37.176  19.354  25.001  1.00  0.00     0.023 C 
ENDROOT
BRANCH   1   2
ATOM      2  C   UNL A   1      35.699  19.640  24.748  1.00  0.00     0.116 C 
BRANCH   2   3
ATOM      3  N   UNL A   1      34.897  18.441  24.636  1.00  0.00    -0.353 N 
ATOM      4  C   UNL A   1      33.584  18.330  24.277  1.00  0.00     0.257 C 
ATOM      5  O   UNL A   1      33.152  17.207  24.003  1.00  0.00    -0.271 OA
ATOM      6  H   UNL A   1      35.357  17.597  24.848  1.00  0.00     0.163 HD
BRANCH   4   7
ATOM      7  C   UNL A   1      32.717  19.593  24.123  1.00  0.00     0.329 C 
BRANCH   7   8
ATOM      8  O   UNL A   1      32.130  20.184  25.271  1.00  0.00    -0.480 OA
BRANCH   8   9
ATOM      9  C   UNL A   1      32.176  21.538  25.449  1.00  0.00     0.163 A 
ATOM     10  C   UNL A   1      31.179  22.385  25.910  1.00  0.00     0.161 A 
ATOM     11  C   UNL A   1      31.467  23.735  26.168  1.00  0.00     0.059 A 
ATOM     12  C   UNL A   1      32.690  24.339  25.844  1.00  0.00    -0.006 A 
ATOM     13  C   UNL A   1      33.411  22.106  25.122  1.00  0.00     0.066 A 
ATOM     14  C   UNL A   1      33.663  23.481  25.293  1.00  0.00     0.029 A 
ATOM     15  Br  UNL A   1      35.398  24.069  24.761  1.00  0.00    -0.050 Br
BRANCH  10  16
ATOM     16  O   UNL A   1      29.927  21.922  26.204  1.00  0.00    -0.493 OA
ATOM     17  C   UNL A   1      29.304  22.642  27.270  1.00  0.00     0.278 C 
ENDBRANCH  10  16
BRANCH  12  18
ATOM     18  C   UNL A   1      32.959  25.775  26.151  1.00  0.00     0.029 C 
ATOM     19  C   UNL A   1      32.909  26.891  25.390  1.00  0.00     0.106 C 
ATOM     20  C   UNL A   1      32.593  26.947  23.962  1.00  0.00     0.265 C 
ATOM     21  C   UNL A   1      33.018  28.202  26.057  1.00  0.00     0.265 C 
ATOM     22  O   UNL A   1      33.227  26.318  23.121  1.00  0.00    -0.268 OA
ATOM     23  N   UNL A   1      31.522  27.782  23.694  1.00  0.00    -0.288 N 
ATOM     24  N   UNL A   1      32.208  29.192  25.490  1.00  0.00    -0.288 N 
ATOM     25  O   UNL A   1      33.733  28.353  27.043  1.00  0.00    -0.268 OA
ATOM     26  C   UNL A   1      30.696  27.340  22.568  1.00  0.00     0.156 C 
ATOM     27  C   UNL A   1      31.334  28.991  24.385  1.00  0.00     0.185 C 
ATOM     28  C   UNL A   1      32.241  30.489  26.171  1.00  0.00     0.156 C 
ATOM     29  S   UNL A   1      30.185  30.141  23.915  1.00  0.00    -0.040 S 
ENDBRANCH  12  18
ENDBRANCH   8   9
ENDBRANCH   7   8
ENDBRANCH   4   7
ENDBRANCH   2   3
ENDBRANCH   1   2
BRANCH   1  30
ATOM     30  C   UNL A   1      38.104  20.574  25.010  1.00  0.00     0.023 C 
BRANCH  30  31
ATOM     31  C   UNL A   1      39.152  20.631  26.120  1.00  0.00     0.116 C 
BRANCH  31  32
ATOM     32  N   UNL A   1      40.184  19.617  26.002  1.00  0.00    -0.352 N 
ATOM     33  C   UNL A   1      41.548  19.720  26.128  1.00  0.00     0.251 C 
ATOM     34  H   UNL A   1      39.854  18.711  25.799  1.00  0.00     0.163 HD
ATOM     35  O   UNL A   1      42.238  18.723  25.930  1.00  0.00    -0.269 OA
BRANCH  33  36
ATOM     36  C   UNL A   1      42.198  21.014  26.452  1.00  0.00     0.039 A 
ATOM     37  C   UNL A   1      42.492  21.881  25.396  1.00  0.00     0.014 A 
ATOM     38  C   UNL A   1      42.540  21.375  27.759  1.00  0.00     0.014 A 
ATOM     39  C   UNL A   1      43.068  23.129  25.651  1.00  0.00     0.010 A 
ATOM     40  C   UNL A   1      43.062  22.645  28.020  1.00  0.00     0.010 A 
ATOM     41  C   UNL A   1      43.326  23.536  26.970  1.00  0.00    -0.014 A 
BRANCH  41  42
ATOM     42  C   UNL A   1      43.840  24.904  27.247  1.00  0.00     0.031 A 
ATOM     43  C   UNL A   1      45.283  25.252  27.009  1.00  0.00     0.074 A 
ATOM     44  C   UNL A   1      42.999  25.831  27.748  1.00  0.00     0.049 A 
ATOM     45  N   UNL A   1      45.891  26.400  27.175  1.00  0.00    -0.248 NA
ATOM     46  C   UNL A   1      46.162  24.169  26.546  1.00  0.00     0.031 C 
ATOM     47  C   UNL A   1      41.592  25.603  28.086  1.00  0.00     0.029 A 
ATOM     48  N   UNL A   1      43.204  27.151  28.060  1.00  0.00    -0.354 N 
ATOM     49  C   UNL A   1      47.223  26.177  26.847  1.00  0.00     0.074 A 
ATOM     50  C   UNL A   1      47.341  24.773  26.512  1.00  0.00     0.031 C 
ATOM     51  C   UNL A   1      41.055  26.750  28.531  1.00  0.00     0.029 A 
ATOM     52  C   UNL A   1      42.080  27.789  28.526  1.00  0.00     0.049 A 
ATOM     53  H   UNL A   1      44.075  27.600  27.959  1.00  0.00     0.167 HD
ATOM     54  C   UNL A   1      48.247  27.063  26.806  1.00  0.00     0.037 A 
ATOM     55  C   UNL A   1      41.889  29.070  28.895  1.00  0.00     0.037 A 
ATOM     56  C   UNL A   1      48.125  28.465  27.114  1.00  0.00     0.049 A 
ATOM     57  C   UNL A   1      43.028  30.045  28.792  1.00  0.00     0.074 A 
ATOM     58  C   UNL A   1      49.093  29.452  27.045  1.00  0.00     0.029 A 
ATOM     59  N   UNL A   1      46.960  29.082  27.548  1.00  0.00    -0.354 N 
ATOM     60  N   UNL A   1      44.265  29.830  28.414  1.00  0.00    -0.248 NA
ATOM     61  C   UNL A   1      42.739  31.440  29.151  1.00  0.00     0.031 C 
ATOM     62  C   UNL A   1      48.520  30.661  27.460  1.00  0.00     0.029 A 
ATOM     63  C   UNL A   1      47.188  30.432  27.759  1.00  0.00     0.049 A 
ATOM     64  H   UNL A   1      46.098  28.625  27.686  1.00  0.00     0.167 HD
ATOM     65  C   UNL A   1      44.899  31.065  28.475  1.00  0.00     0.074 A 
ATOM     66  C   UNL A   1      43.904  32.025  28.908  1.00  0.00     0.031 C 
ATOM     67  C   UNL A   1      46.190  31.374  28.198  1.00  0.00     0.037 A 
BRANCH  54  68
ATOM     68  C   UNL A   1      49.596  26.537  26.401  1.00  0.00     0.058 A 
ATOM     69  C   UNL A   1      50.413  25.841  27.307  1.00  0.00     0.135 A 
ATOM     70  C   UNL A   1      50.071  26.711  25.092  1.00  0.00     0.135 A 
ATOM     71  F   UNL A   1      50.013  25.661  28.575  1.00  0.00    -0.206 F 
ATOM     72  C   UNL A   1      51.666  25.363  26.938  1.00  0.00     0.059 A 
ATOM     73  C   UNL A   1      51.312  26.221  24.694  1.00  0.00     0.059 A 
ATOM     74  F   UNL A   1      49.330  27.367  24.186  1.00  0.00    -0.206 F 
ATOM     75  C   UNL A   1      52.109  25.564  25.630  1.00  0.00     0.060 A 
BRANCH  75  76
ATOM     76  S   UNL A   1      53.741  24.946  25.163  1.00  0.00     0.124 S 
ATOM     77  O   UNL A   1      53.938  25.599  23.872  1.00  0.00    -0.237 OA
ATOM     78  O   UNL A   1      54.585  25.431  26.251  1.00  0.00    -0.237 OA
ATOM     79  O   UNL A   1      53.555  23.501  25.115  1.00  0.00    -0.744 OA
ENDBRANCH  75  76
ENDBRANCH  54  68
BRANCH  55  80
ATOM     80  C   UNL A   1      40.548  29.514  29.353  1.00  0.00     0.058 A 
ATOM     81  C   UNL A   1      40.309  29.797  30.705  1.00  0.00     0.135 A 
ATOM     82  C   UNL A   1      39.490  29.684  28.448  1.00  0.00     0.135 A 
ATOM     83  F   UNL A   1      41.292  29.643  31.605  1.00  0.00    -0.206 F 
ATOM     84  C   UNL A   1      39.063  30.225  31.149  1.00  0.00     0.059 A 
ATOM     85  C   UNL A   1      38.240  30.128  28.866  1.00  0.00     0.059 A 
ATOM     86  F   UNL A   1      39.677  29.442  27.142  1.00  0.00    -0.206 F 
ATOM     87  C   UNL A   1      38.033  30.388  30.221  1.00  0.00     0.060 A 
BRANCH  87  88
ATOM     88  S   UNL A   1      36.435  31.005  30.792  1.00  0.00     0.124 S 
ATOM     89  O   UNL A   1      36.806  32.294  31.363  1.00  0.00    -0.237 OA
ATOM     90  O   UNL A   1      35.660  31.053  29.556  1.00  0.00    -0.237 OA
ATOM     91  O   UNL A   1      36.009  29.987  31.749  1.00  0.00    -0.744 OA
ENDBRANCH  87  88
ENDBRANCH  55  80
BRANCH  67  92
ATOM     92  C   UNL A   1      46.587  32.816  28.345  1.00  0.00     0.058 A 
ATOM     93  C   UNL A   1      47.111  33.313  29.548  1.00  0.00     0.135 A 
ATOM     94  C   UNL A   1      46.440  33.709  27.272  1.00  0.00     0.135 A 
ATOM     95  F   UNL A   1      47.264  32.499  30.605  1.00  0.00    -0.206 F 
ATOM     96  C   UNL A   1      47.440  34.656  29.697  1.00  0.00     0.059 A 
ATOM     97  C   UNL A   1      46.782  35.052  27.391  1.00  0.00     0.059 A 
ATOM     98  F   UNL A   1      45.953  33.281  26.097  1.00  0.00    -0.206 F 
ATOM     99  C   UNL A   1      47.263  35.521  28.615  1.00  0.00     0.060 A 
BRANCH  99 100
ATOM    100  S   UNL A   1      47.683  37.266  28.813  1.00  0.00     0.124 S 
ATOM    101  O   UNL A   1      47.249  37.516  30.183  1.00  0.00    -0.237 OA
ATOM    102  O   UNL A   1      49.127  37.273  28.595  1.00  0.00    -0.237 OA
ATOM    103  O   UNL A   1      46.896  37.921  27.773  1.00  0.00    -0.744 OA
ENDBRANCH  99 100
ENDBRANCH  67  92
ENDBRANCH  41  42
ENDBRANCH  33  36
ENDBRANCH  31  32
ENDBRANCH  30  31
ENDBRANCH   1  30
TORSDOF 18
ENDMDL
MODEL 2
REMARK VINA RESULT:     -11.8      1.306      2.115
REMARK SMILES COc1cc(C=C2C(=O)N(C)C(=S)N(C)C2=O)c(Br)cc1OCC(=O)NCCCCNC(=O)c1ccc(-c2c3nc(c(-c4c(F)cc(S(=O)(=O)[O-])cc4F)c4ccc([nH]4)c(-c4c(F)cc(S(=O)(=O)[O-])cc4F)c4nc(c(-c5c(F)cc(S(=O)(=O)[O-])cc5F)c5ccc2[nH]5)C=C4)C=C3)cc1
REMARK SMILES IDX 28 1 27 2 26 3 24 4 25 5 23 7 22 8 21 9 3 10 4 11 5 12 20 13
REMARK SMILES IDX 18 14 19 15 2 16 1 17 6 18 7 19 8 20 16 21 9 22 10 23 14 24
REMARK SMILES IDX 17 25 11 26 12 27 15 28 13 29 29 30 30 31 31 32 32 33 33 35
REMARK SMILES IDX 34 36 35 37 99 38 36 39 98 40 37 41 38 42 39 43 92 44 40 45
REMARK SMILES IDX 97 46 91 47 93 48 41 49 96 50 90 51 89 52 42 54 76 55 55 56
REMARK SMILES IDX 75 57 56 58 59 59 74 60 94 61 57 62 58 63 73 65 95 66 60 67
REMARK SMILES IDX 43 68 44 69 53 70 45 71 46 72 52 73 54 74 47 75 48 76 49 77
REMARK SMILES IDX 50 78 51 79 77 80 78 81 87 82 79 83 80 84 86 85 88 86 81 87
REMARK SMILES IDX 82 88 83 89 84 90 85 91 61 92 62 93 71 94 63 95 64 96 70 97
REMARK SMILES IDX 72 98 65 99 66 100 67 101 68 102 69 103
REMARK H PARENT 26 6 31 34 93 53 59 64
REMARK Flexibility Score: inf
ROOT
ATOM      1  C   UNL A   1      37.387  18.975  24.983  1.00  0.00     0.023 C 
ENDROOT
BRANCH   1   2
ATOM      2  C   UNL A   1      35.907  18.683  24.761  1.00  0.00     0.116 C 
BRANCH   2   3
ATOM      3  N   UNL A   1      35.545  17.315  25.062  1.00  0.00    -0.353 N 
ATOM      4  C   UNL A   1      34.299  16.756  25.100  1.00  0.00     0.257 C 
ATOM      5  O   UNL A   1      34.217  15.526  25.132  1.00  0.00    -0.271 OA
ATOM      6  H   UNL A   1      36.292  16.708  25.266  1.00  0.00     0.163 HD
BRANCH   4   7
ATOM      7  C   UNL A   1      33.049  17.651  24.997  1.00  0.00     0.329 C 
BRANCH   7   8
ATOM      8  O   UNL A   1      32.909  18.760  25.870  1.00  0.00    -0.480 OA
BRANCH   8   9
ATOM      9  C   UNL A   1      32.972  20.034  25.381  1.00  0.00     0.163 A 
ATOM     10  C   UNL A   1      33.415  21.185  26.016  1.00  0.00     0.161 A 
ATOM     11  C   UNL A   1      33.545  22.381  25.292  1.00  0.00     0.059 A 
ATOM     12  C   UNL A   1      33.107  22.535  23.970  1.00  0.00    -0.006 A 
ATOM     13  C   UNL A   1      32.533  20.150  24.058  1.00  0.00     0.066 A 
ATOM     14  C   UNL A   1      32.576  21.377  23.368  1.00  0.00     0.029 A 
ATOM     15  Br  UNL A   1      31.903  21.337  21.583  1.00  0.00    -0.050 Br
BRANCH  10  16
ATOM     16  O   UNL A   1      33.814  21.172  27.322  1.00  0.00    -0.493 OA
ATOM     17  C   UNL A   1      33.289  22.267  28.076  1.00  0.00     0.278 C 
ENDBRANCH  10  16
BRANCH  12  18
ATOM     18  C   UNL A   1      33.279  23.822  23.232  1.00  0.00     0.029 C 
ATOM     19  C   UNL A   1      32.496  24.919  23.125  1.00  0.00     0.106 C 
ATOM     20  C   UNL A   1      31.172  25.095  23.721  1.00  0.00     0.265 C 
ATOM     21  C   UNL A   1      33.060  26.126  22.492  1.00  0.00     0.265 C 
ATOM     22  O   UNL A   1      30.242  24.324  23.502  1.00  0.00    -0.268 OA
ATOM     23  N   UNL A   1      31.107  26.213  24.535  1.00  0.00    -0.288 N 
ATOM     24  N   UNL A   1      32.639  27.322  23.085  1.00  0.00    -0.288 N 
ATOM     25  O   UNL A   1      33.858  26.040  21.562  1.00  0.00    -0.268 OA
ATOM     26  C   UNL A   1      30.212  26.056  25.683  1.00  0.00     0.156 C 
ATOM     27  C   UNL A   1      31.765  27.409  24.202  1.00  0.00     0.185 C 
ATOM     28  C   UNL A   1      33.235  28.537  22.524  1.00  0.00     0.156 C 
ATOM     29  S   UNL A   1      31.505  28.856  25.042  1.00  0.00    -0.040 S 
ENDBRANCH  12  18
ENDBRANCH   8   9
ENDBRANCH   7   8
ENDBRANCH   4   7
ENDBRANCH   2   3
ENDBRANCH   1   2
BRANCH   1  30
ATOM     30  C   UNL A   1      37.785  20.456  24.992  1.00  0.00     0.023 C 
BRANCH  30  31
ATOM     31  C   UNL A   1      39.048  20.823  25.771  1.00  0.00     0.116 C 
BRANCH  31  32
ATOM     32  N   UNL A   1      40.036  19.761  25.814  1.00  0.00    -0.352 N 
ATOM     33  C   UNL A   1      41.380  19.812  26.096  1.00  0.00     0.251 C 
ATOM     34  H   UNL A   1      39.690  18.862  25.608  1.00  0.00     0.163 HD
ATOM     35  O   UNL A   1      42.040  18.778  26.018  1.00  0.00    -0.269 OA
BRANCH  33  36
ATOM     36  C   UNL A   1      42.049  21.088  26.445  1.00  0.00     0.039 A 
ATOM     37  C   UNL A   1      42.444  21.928  25.398  1.00  0.00     0.014 A 
ATOM     38  C   UNL A   1      42.312  21.461  27.766  1.00  0.00     0.014 A 
ATOM     39  C   UNL A   1      43.041  23.161  25.675  1.00  0.00     0.010 A 
ATOM     40  C   UNL A   1      42.857  22.717  28.044  1.00  0.00     0.010 A 
ATOM     41  C   UNL A   1      43.222  23.582  27.002  1.00  0.00    -0.014 A 
BRANCH  41  42
ATOM     42  C   UNL A   1      43.761  24.937  27.293  1.00  0.00     0.031 A 
ATOM     43  C   UNL A   1      45.209  25.262  27.058  1.00  0.00     0.074 A 
ATOM     44  C   UNL A   1      42.938  25.874  27.806  1.00  0.00     0.049 A 
ATOM     45  N   UNL A   1      45.838  26.396  27.237  1.00  0.00    -0.248 NA
ATOM     46  C   UNL A   1      46.069  24.168  26.583  1.00  0.00     0.031 C 
ATOM     47  C   UNL A   1      41.527  25.667  28.142  1.00  0.00     0.029 A 
ATOM     48  N   UNL A   1      43.167  27.186  28.132  1.00  0.00    -0.354 N 
ATOM     49  C   UNL A   1      47.166  26.153  26.905  1.00  0.00     0.074 A 
ATOM     50  C   UNL A   1      47.259  24.751  26.555  1.00  0.00     0.031 C 
ATOM     51  C   UNL A   1      41.010  26.819  28.600  1.00  0.00     0.029 A 
ATOM     52  C   UNL A   1      42.054  27.839  28.606  1.00  0.00     0.049 A 
ATOM     53  H   UNL A   1      44.045  27.621  28.035  1.00  0.00     0.167 HD
ATOM     54  C   UNL A   1      48.207  27.020  26.873  1.00  0.00     0.037 A 
ATOM     55  C   UNL A   1      41.887  29.120  28.989  1.00  0.00     0.037 A 
ATOM     56  C   UNL A   1      48.110  28.421  27.197  1.00  0.00     0.049 A 
ATOM     57  C   UNL A   1      43.043  30.074  28.896  1.00  0.00     0.074 A 
ATOM     58  C   UNL A   1      49.096  29.391  27.138  1.00  0.00     0.029 A 
ATOM     59  N   UNL A   1      46.957  29.054  27.639  1.00  0.00    -0.354 N 
ATOM     60  N   UNL A   1      44.276  29.841  28.515  1.00  0.00    -0.248 NA
ATOM     61  C   UNL A   1      42.780  31.471  29.271  1.00  0.00     0.031 C 
ATOM     62  C   UNL A   1      48.545  30.605  27.567  1.00  0.00     0.029 A 
ATOM     63  C   UNL A   1      47.209  30.397  27.864  1.00  0.00     0.049 A 
ATOM     64  H   UNL A   1      46.087  28.612  27.772  1.00  0.00     0.167 HD
ATOM     65  C   UNL A   1      44.932  31.063  28.589  1.00  0.00     0.074 A 
ATOM     66  C   UNL A   1      43.956  32.037  29.033  1.00  0.00     0.031 C 
ATOM     67  C   UNL A   1      46.229  31.353  28.315  1.00  0.00     0.037 A 
BRANCH  54  68
ATOM     68  C   UNL A   1      49.546  26.475  26.462  1.00  0.00     0.058 A 
ATOM     69  C   UNL A   1      50.391  25.836  27.384  1.00  0.00     0.135 A 
ATOM     70  C   UNL A   1      49.981  26.570  25.131  1.00  0.00     0.135 A 
ATOM     71  F   UNL A   1      50.029  25.732  28.671  1.00  0.00    -0.206 F 
ATOM     72  C   UNL A   1      51.635  25.340  27.008  1.00  0.00     0.059 A 
ATOM     73  C   UNL A   1      51.212  26.061  24.727  1.00  0.00     0.059 A 
ATOM     74  F   UNL A   1      49.211  27.169  24.209  1.00  0.00    -0.206 F 
ATOM     75  C   UNL A   1      52.039  25.463  25.677  1.00  0.00     0.060 A 
BRANCH  75  76
ATOM     76  S   UNL A   1      53.660  24.823  25.201  1.00  0.00     0.124 S 
ATOM     77  O   UNL A   1      53.897  25.541  23.952  1.00  0.00    -0.237 OA
ATOM     78  O   UNL A   1      54.499  25.219  26.327  1.00  0.00    -0.237 OA
ATOM     79  O   UNL A   1      53.431  23.388  25.068  1.00  0.00    -0.744 OA
ENDBRANCH  75  76
ENDBRANCH  54  68
BRANCH  55  80
ATOM     80  C   UNL A   1      40.554  29.582  29.453  1.00  0.00     0.058 A 
ATOM     81  C   UNL A   1      39.507  29.779  28.541  1.00  0.00     0.135 A 
ATOM     82  C   UNL A   1      40.296  29.814  30.811  1.00  0.00     0.135 A 
ATOM     83  F   UNL A   1      39.711  29.574  27.231  1.00  0.00    -0.206 F 
ATOM     84  C   UNL A   1      38.249  30.201  28.959  1.00  0.00     0.059 A 
ATOM     85  C   UNL A   1      39.042  30.218  31.255  1.00  0.00     0.059 A 
ATOM     86  F   UNL A   1      41.263  29.622  31.721  1.00  0.00    -0.206 F 
ATOM     87  C   UNL A   1      38.026  30.417  30.319  1.00  0.00     0.060 A 
BRANCH  87  88
ATOM     88  S   UNL A   1      36.374  30.902  30.865  1.00  0.00     0.124 S 
ATOM     89  O   UNL A   1      36.000  29.772  31.705  1.00  0.00    -0.237 OA
ATOM     90  O   UNL A   1      36.632  32.158  31.561  1.00  0.00    -0.237 OA
ATOM     91  O   UNL A   1      35.635  31.032  29.611  1.00  0.00    -0.744 OA
ENDBRANCH  87  88
ENDBRANCH  55  80
BRANCH  67  92
ATOM     92  C   UNL A   1      46.652  32.786  28.476  1.00  0.00     0.058 A 
ATOM     93  C   UNL A   1      46.638  33.679  27.394  1.00  0.00     0.135 A 
ATOM     94  C   UNL A   1      47.074  33.269  29.724  1.00  0.00     0.135 A 
ATOM     95  F   UNL A   1      46.248  33.263  26.179  1.00  0.00    -0.206 F 
ATOM     96  C   UNL A   1      47.068  34.995  27.534  1.00  0.00     0.059 A 
ATOM     97  C   UNL A   1      47.488  34.586  29.892  1.00  0.00     0.059 A 
ATOM     98  F   UNL A   1      47.095  32.457  30.792  1.00  0.00    -0.206 F 
ATOM     99  C   UNL A   1      47.501  35.436  28.785  1.00  0.00     0.060 A 
BRANCH  99 100
ATOM    100  S   UNL A   1      48.066  37.143  28.962  1.00  0.00     0.124 S 
ATOM    101  O   UNL A   1      49.395  37.073  28.366  1.00  0.00    -0.237 OA
ATOM    102  O   UNL A   1      47.068  37.889  28.201  1.00  0.00    -0.237 OA
ATOM    103  O   UNL A   1      48.033  37.360  30.405  1.00  0.00    -0.744 OA
ENDBRANCH  99 100
ENDBRANCH  67  92
ENDBRANCH  41  42
ENDBRANCH  33  36
ENDBRANCH  31  32
ENDBRANCH  30  31
ENDBRANCH   1  30
TORSDOF 18
ENDMDL
MODEL 3
REMARK VINA RESULT:     -11.6      6.053     11.937
REMARK SMILES COc1cc(C=C2C(=O)N(C)C(=S)N(C)C2=O)c(Br)cc1OCC(=O)NCCCCNC(=O)c1ccc(-c2c3nc(c(-c4c(F)cc(S(=O)(=O)[O-])cc4F)c4ccc([nH]4)c(-c4c(F)cc(S(=O)(=O)[O-])cc4F)c4nc(c(-c5c(F)cc(S(=O)(=O)[O-])cc5F)c5ccc2[nH]5)C=C4)C=C3)cc1
REMARK SMILES IDX 28 1 27 2 26 3 24 4 25 5 23 7 22 8 21 9 3 10 4 11 5 12 20 13
REMARK SMILES IDX 18 14 19 15 2 16 1 17 6 18 7 19 8 20 16 21 9 22 10 23 14 24
REMARK SMILES IDX 17 25 11 26 12 27 15 28 13 29 29 30 30 31 31 32 32 33 33 35
REMARK SMILES IDX 34 36 35 37 99 38 36 39 98 40 37 41 38 42 39 43 92 44 40 45
REMARK SMILES IDX 97 46 91 47 93 48 41 49 96 50 90 51 89 52 42 54 76 55 55 56
REMARK SMILES IDX 75 57 56 58 59 59 74 60 94 61 57 62 58 63 73 65 95 66 60 67
REMARK SMILES IDX 43 68 44 69 53 70 45 71 46 72 52 73 54 74 47 75 48 76 49 77
REMARK SMILES IDX 50 78 51 79 77 80 78 81 87 82 79 83 80 84 86 85 88 86 81 87
REMARK SMILES IDX 82 88 83 89 84 90 85 91 61 92 62 93 71 94 63 95 64 96 70 97
REMARK SMILES IDX 72 98 65 99 66 100 67 101 68 102 69 103
REMARK H PARENT 26 6 31 34 93 53 59 64
REMARK Flexibility Score: inf
ROOT
ATOM      1  C   UNL A   1      34.942  30.866  27.722  1.00  0.00     0.023 C 
ENDROOT
BRANCH   1   2
ATOM      2  C   UNL A   1      34.737  29.392  27.387  1.00  0.00     0.116 C 
BRANCH   2   3
ATOM      3  N   UNL A   1      33.557  28.826  28.005  1.00  0.00    -0.353 N 
ATOM      4  C   UNL A   1      32.410  28.394  27.403  1.00  0.00     0.257 C 
ATOM      5  O   UNL A   1      31.623  27.720  28.072  1.00  0.00    -0.271 OA
ATOM      6  H   UNL A   1      33.585  28.742  28.985  1.00  0.00     0.163 HD
BRANCH   4   7
ATOM      7  C   UNL A   1      32.176  28.664  25.904  1.00  0.00     0.329 C 
BRANCH   7   8
ATOM      8  O   UNL A   1      31.027  28.130  25.267  1.00  0.00    -0.480 OA
BRANCH   8   9
ATOM      9  C   UNL A   1      31.111  26.965  24.559  1.00  0.00     0.163 A 
ATOM     10  C   UNL A   1      31.466  26.783  23.230  1.00  0.00     0.161 A 
ATOM     11  C   UNL A   1      31.641  25.486  22.721  1.00  0.00     0.059 A 
ATOM     12  C   UNL A   1      31.331  24.325  23.442  1.00  0.00    -0.006 A 
ATOM     13  C   UNL A   1      30.801  25.827  25.310  1.00  0.00     0.066 A 
ATOM     14  C   UNL A   1      30.886  24.532  24.763  1.00  0.00     0.029 A 
ATOM     15  Br  UNL A   1      30.392  23.113  25.938  1.00  0.00    -0.050 Br
BRANCH  10  16
ATOM     16  O   UNL A   1      31.735  27.843  22.411  1.00  0.00    -0.493 OA
ATOM     17  C   UNL A   1      33.106  28.244  22.453  1.00  0.00     0.278 C 
ENDBRANCH  10  16
BRANCH  12  18
ATOM     18  C   UNL A   1      31.547  22.965  22.866  1.00  0.00     0.029 C 
ATOM     19  C   UNL A   1      32.406  21.970  23.184  1.00  0.00     0.106 C 
ATOM     20  C   UNL A   1      33.434  22.019  24.224  1.00  0.00     0.265 C 
ATOM     21  C   UNL A   1      32.214  20.648  22.558  1.00  0.00     0.265 C 
ATOM     22  O   UNL A   1      34.310  22.877  24.246  1.00  0.00    -0.268 OA
ATOM     23  N   UNL A   1      33.295  20.997  25.148  1.00  0.00    -0.288 N 
ATOM     24  N   UNL A   1      32.492  19.575  23.411  1.00  0.00    -0.288 N 
ATOM     25  O   UNL A   1      31.804  20.548  21.405  1.00  0.00    -0.268 OA
ATOM     26  C   UNL A   1      33.696  21.371  26.506  1.00  0.00     0.156 C 
ATOM     27  C   UNL A   1      32.906  19.702  24.766  1.00  0.00     0.185 C 
ATOM     28  C   UNL A   1      32.246  18.248  22.842  1.00  0.00     0.156 C 
ATOM     29  S   UNL A   1      32.966  18.383  25.825  1.00  0.00    -0.040 S 
ENDBRANCH  12  18
ENDBRANCH   8   9
ENDBRANCH   7   8
ENDBRANCH   4   7
ENDBRANCH   2   3
ENDBRANCH   1   2
BRANCH   1  30
ATOM     30  C   UNL A   1      33.672  31.667  28.031  1.00  0.00     0.023 C 
BRANCH  30  31
ATOM     31  C   UNL A   1      33.341  32.821  27.085  1.00  0.00     0.116 C 
BRANCH  31  32
ATOM     32  N   UNL A   1      32.818  33.995  27.759  1.00  0.00    -0.352 N 
ATOM     33  C   UNL A   1      33.267  34.646  28.882  1.00  0.00     0.251 C 
ATOM     34  H   UNL A   1      32.014  34.388  27.346  1.00  0.00     0.163 HD
ATOM     35  O   UNL A   1      32.624  35.603  29.309  1.00  0.00    -0.269 OA
BRANCH  33  36
ATOM     36  C   UNL A   1      34.477  34.190  29.608  1.00  0.00     0.039 A 
ATOM     37  C   UNL A   1      34.299  33.507  30.815  1.00  0.00     0.014 A 
ATOM     38  C   UNL A   1      35.771  34.438  29.139  1.00  0.00     0.014 A 
ATOM     39  C   UNL A   1      35.405  33.021  31.517  1.00  0.00     0.010 A 
ATOM     40  C   UNL A   1      36.874  33.903  29.811  1.00  0.00     0.010 A 
ATOM     41  C   UNL A   1      36.702  33.184  31.003  1.00  0.00    -0.014 A 
BRANCH  41  42
ATOM     42  C   UNL A   1      37.867  32.575  31.697  1.00  0.00     0.031 A 
ATOM     43  C   UNL A   1      38.319  33.077  33.040  1.00  0.00     0.074 A 
ATOM     44  C   UNL A   1      38.544  31.578  31.091  1.00  0.00     0.049 A 
ATOM     45  N   UNL A   1      39.299  32.646  33.793  1.00  0.00    -0.248 NA
ATOM     46  C   UNL A   1      37.591  34.225  33.601  1.00  0.00     0.031 C 
ATOM     47  C   UNL A   1      38.249  31.043  29.760  1.00  0.00     0.029 A 
ATOM     48  N   UNL A   1      39.616  30.836  31.516  1.00  0.00    -0.354 N 
ATOM     49  C   UNL A   1      39.313  33.472  34.911  1.00  0.00     0.074 A 
ATOM     50  C   UNL A   1      38.269  34.457  34.716  1.00  0.00     0.031 C 
ATOM     51  C   UNL A   1      39.101  30.041  29.489  1.00  0.00     0.029 A 
ATOM     52  C   UNL A   1      40.012  29.874  30.618  1.00  0.00     0.049 A 
ATOM     53  H   UNL A   1      40.061  30.979  32.383  1.00  0.00     0.167 HD
ATOM     54  C   UNL A   1      40.106  33.405  36.007  1.00  0.00     0.037 A 
ATOM     55  C   UNL A   1      40.988  28.950  30.697  1.00  0.00     0.037 A 
ATOM     56  C   UNL A   1      41.128  32.411  36.214  1.00  0.00     0.049 A 
ATOM     57  C   UNL A   1      41.821  28.862  31.945  1.00  0.00     0.074 A 
ATOM     58  C   UNL A   1      41.943  32.225  37.317  1.00  0.00     0.029 A 
ATOM     59  N   UNL A   1      41.475  31.429  35.296  1.00  0.00    -0.354 N 
ATOM     60  N   UNL A   1      41.774  29.609  33.021  1.00  0.00    -0.248 NA
ATOM     61  C   UNL A   1      42.828  27.793  31.994  1.00  0.00     0.031 C 
ATOM     62  C   UNL A   1      42.799  31.148  37.058  1.00  0.00     0.029 A 
ATOM     63  C   UNL A   1      42.497  30.643  35.804  1.00  0.00     0.049 A 
ATOM     64  H   UNL A   1      41.056  31.310  34.413  1.00  0.00     0.167 HD
ATOM     65  C   UNL A   1      42.734  29.093  33.882  1.00  0.00     0.074 A 
ATOM     66  C   UNL A   1      43.333  27.958  33.210  1.00  0.00     0.031 C 
ATOM     67  C   UNL A   1      43.089  29.522  35.119  1.00  0.00     0.037 A 
BRANCH  54  68
ATOM     68  C   UNL A   1      39.889  34.436  37.079  1.00  0.00     0.058 A 
ATOM     69  C   UNL A   1      40.458  35.717  36.989  1.00  0.00     0.135 A 
ATOM     70  C   UNL A   1      39.089  34.153  38.197  1.00  0.00     0.135 A 
ATOM     71  F   UNL A   1      41.243  36.035  35.948  1.00  0.00    -0.206 F 
ATOM     72  C   UNL A   1      40.268  36.670  37.984  1.00  0.00     0.059 A 
ATOM     73  C   UNL A   1      38.866  35.098  39.194  1.00  0.00     0.059 A 
ATOM     74  F   UNL A   1      38.520  32.944  38.332  1.00  0.00    -0.206 F 
ATOM     75  C   UNL A   1      39.475  36.348  39.087  1.00  0.00     0.060 A 
BRANCH  75  76
ATOM     76  S   UNL A   1      39.240  37.590  40.377  1.00  0.00     0.124 S 
ATOM     77  O   UNL A   1      38.636  36.791  41.439  1.00  0.00    -0.237 OA
ATOM     78  O   UNL A   1      40.603  38.047  40.628  1.00  0.00    -0.237 OA
ATOM     79  O   UNL A   1      38.360  38.569  39.749  1.00  0.00    -0.744 OA
ENDBRANCH  75  76
ENDBRANCH  54  68
BRANCH  55  80
ATOM     80  C   UNL A   1      41.199  28.001  29.574  1.00  0.00     0.058 A 
ATOM     81  C   UNL A   1      42.309  28.129  28.727  1.00  0.00     0.135 A 
ATOM     82  C   UNL A   1      40.312  26.940  29.342  1.00  0.00     0.135 A 
ATOM     83  F   UNL A   1      43.180  29.132  28.910  1.00  0.00    -0.206 F 
ATOM     84  C   UNL A   1      42.527  27.243  27.677  1.00  0.00     0.059 A 
ATOM     85  C   UNL A   1      40.520  26.031  28.311  1.00  0.00     0.059 A 
ATOM     86  F   UNL A   1      39.246  26.768  30.138  1.00  0.00    -0.206 F 
ATOM     87  C   UNL A   1      41.627  26.195  27.478  1.00  0.00     0.060 A 
BRANCH  87  88
ATOM     88  S   UNL A   1      41.950  25.010  26.154  1.00  0.00     0.124 S 
ATOM     89  O   UNL A   1      43.378  24.768  26.320  1.00  0.00    -0.237 OA
ATOM     90  O   UNL A   1      41.070  23.900  26.509  1.00  0.00    -0.237 OA
ATOM     91  O   UNL A   1      41.566  25.742  24.951  1.00  0.00    -0.744 OA
ENDBRANCH  87  88
ENDBRANCH  55  80
BRANCH  67  92
ATOM     92  C   UNL A   1      44.165  28.744  35.822  1.00  0.00     0.058 A 
ATOM     93  C   UNL A   1      43.855  27.683  36.687  1.00  0.00     0.135 A 
ATOM     94  C   UNL A   1      45.518  29.064  35.630  1.00  0.00     0.135 A 
ATOM     95  F   UNL A   1      42.576  27.343  36.908  1.00  0.00    -0.206 F 
ATOM     96  C   UNL A   1      44.849  26.989  37.370  1.00  0.00     0.059 A 
ATOM     97  C   UNL A   1      46.530  28.370  36.286  1.00  0.00     0.059 A 
ATOM     98  F   UNL A   1      45.866  30.064  34.806  1.00  0.00    -0.206 F 
ATOM     99  C   UNL A   1      46.184  27.347  37.170  1.00  0.00     0.060 A 
BRANCH  99 100
ATOM    100  S   UNL A   1      47.472  26.450  38.064  1.00  0.00     0.124 S 
ATOM    101  O   UNL A   1      48.566  27.414  38.043  1.00  0.00    -0.237 OA
ATOM    102  O   UNL A   1      46.855  26.221  39.367  1.00  0.00    -0.237 OA
ATOM    103  O   UNL A   1      47.671  25.252  37.254  1.00  0.00    -0.744 OA
ENDBRANCH  99 100
ENDBRANCH  67  92
ENDBRANCH  41  42
ENDBRANCH  33  36
ENDBRANCH  31  32
ENDBRANCH  30  31
ENDBRANCH   1  30
TORSDOF 18
ENDMDL
