MODEL 1
REMARK VINA RESULT:     -11.0      0.000      0.000
REMARK SMILES COc1ccc([C@H]2[NH2+][C@@H](C(=O)NCCCCNC(=O)c3ccc(-c4c5nc(c(-c6c(F)cc(S(=O)(=O)[O-])cc6F)c6ccc([nH]6)c(-c6c(F)cc(S(=O)(=O)[O-])cc6F)c6nc(c(-c7c(F)cc(S(=O)(=O)[O-])cc7F)c7ccc4[nH]7)C=C6)C=C5)cc3)CC3=c4ccccc4=N[C@H]32)cc1Cn1cc([N+](=O)[O-])cn1
REMARK SMILES IDX 14 1 13 2 12 3 10 4 11 5 9 7 7 8 8 9 95 10 87 13 94 14 86 15
REMARK SMILES IDX 88 16 93 17 89 18 92 19 90 20 91 21 6 22 3 23 4 24 97 25
REMARK SMILES IDX 5 26 96 27 2 28 1 29 98 30 99 31 100 32 106 33 101 34 105 35
REMARK SMILES IDX 102 36 103 37 104 38 15 39 16 40 17 41 18 42 19 44 20 45
REMARK SMILES IDX 21 46 85 47 22 48 84 49 23 50 24 51 25 52 78 53 26 54 83 55
REMARK SMILES IDX 77 56 79 57 27 58 82 59 76 60 75 61 28 63 62 64 41 65 61 66
REMARK SMILES IDX 42 67 45 68 60 69 80 70 43 71 44 72 59 74 81 75 46 76 29 77
REMARK SMILES IDX 30 78 39 79 31 80 32 81 38 82 40 83 33 84 34 85 35 86 36 87
REMARK SMILES IDX 37 88 63 89 64 90 73 91 65 92 66 93 72 94 74 95 67 96 68 97
REMARK SMILES IDX 69 98 70 99 71 100 47 101 48 102 57 103 49 104 50 105 56 106
REMARK SMILES IDX 58 107 51 108 52 109 53 110 54 111 55 112
REMARK H PARENT 12 6 8 11 8 12 17 43 79 62 45 73
REMARK Flexibility Score: inf
ROOT
ATOM      1  C   UNL A   1      49.060  39.154  27.033  1.00  0.00     0.023 C 
ENDROOT
BRANCH   1   2
ATOM      2  C   UNL A   1      47.945  40.207  26.950  1.00  0.00     0.116 C 
BRANCH   2   3
ATOM      3  N   UNL A   1      47.025  40.087  25.827  1.00  0.00    -0.351 N 
ATOM      4  C   UNL A   1      46.831  40.841  24.702  1.00  0.00     0.278 C 
ATOM      5  O   UNL A   1      46.390  40.203  23.729  1.00  0.00    -0.268 OA
ATOM      6  H   UNL A   1      46.424  39.309  25.889  1.00  0.00     0.163 HD
BRANCH   4   7
ATOM      7  C   UNL A   1      47.079  42.371  24.505  1.00  0.00     0.277 C 
ATOM      8  C   UNL A   1      45.340  43.585  25.859  1.00  0.00     0.243 C 
ATOM      9  N   UNL A   1      46.773  43.264  25.649  1.00  0.00    -0.327 N 
ATOM     10  C   UNL A   1      44.758  44.152  24.469  1.00  0.00     0.196 C 
ATOM     11  H   UNL A   1      47.119  42.815  26.497  1.00  0.00     0.347 HD
ATOM     12  H   UNL A   1      47.224  44.153  25.433  1.00  0.00     0.347 HD
ATOM     13  C   UNL A   1      45.297  43.502  23.215  1.00  0.00    -0.024 C 
ATOM     14  N   UNL A   1      43.274  44.148  24.259  1.00  0.00    -0.270 NA
ATOM     15  C   UNL A   1      46.683  42.986  23.172  1.00  0.00     0.109 C 
ATOM     16  C   UNL A   1      44.349  43.311  22.308  1.00  0.00     0.002 A 
ATOM     17  C   UNL A   1      43.143  43.771  23.014  1.00  0.00     0.066 A 
ATOM     18  C   UNL A   1      44.304  42.576  21.083  1.00  0.00     0.010 A 
ATOM     19  C   UNL A   1      41.885  43.629  22.235  1.00  0.00     0.028 A 
ATOM     20  C   UNL A   1      43.107  42.345  20.524  1.00  0.00     0.001 A 
ATOM     21  C   UNL A   1      41.898  42.918  21.089  1.00  0.00     0.002 A 
BRANCH   8  22
ATOM     22  C   UNL A   1      44.646  42.522  26.731  1.00  0.00     0.012 A 
ATOM     23  C   UNL A   1      43.138  40.833  28.394  1.00  0.00     0.123 A 
ATOM     24  C   UNL A   1      42.938  40.789  27.025  1.00  0.00     0.047 A 
ATOM     25  C   UNL A   1      44.227  41.534  28.951  1.00  0.00     0.016 A 
ATOM     26  C   UNL A   1      43.708  41.605  26.206  1.00  0.00     0.014 A 
ATOM     27  C   UNL A   1      44.988  42.349  28.084  1.00  0.00     0.019 A 
BRANCH  23  28
ATOM     28  O   UNL A   1      42.279  40.123  29.194  1.00  0.00    -0.496 OA
ATOM     29  C   UNL A   1      41.063  40.853  29.415  1.00  0.00     0.278 C 
ENDBRANCH  23  28
BRANCH  25  30
ATOM     30  C   UNL A   1      44.467  41.312  30.427  1.00  0.00     0.183 C 
BRANCH  30  31
ATOM     31  N   UNL A   1      43.887  42.173  31.463  1.00  0.00    -0.261 N 
ATOM     32  C   UNL A   1      43.815  43.531  31.588  1.00  0.00     0.194 A 
ATOM     33  N   UNL A   1      43.128  41.541  32.397  1.00  0.00    -0.174 NA
ATOM     34  C   UNL A   1      43.062  43.783  32.716  1.00  0.00     0.307 A 
ATOM     35  C   UNL A   1      42.629  42.526  33.149  1.00  0.00     0.220 A 
BRANCH  34  36
ATOM     36  N   UNL A   1      42.776  45.059  33.288  1.00  0.00     0.066 N 
ATOM     37  O   UNL A   1      41.583  45.352  33.439  1.00  0.00    -0.258 OA
ATOM     38  O   UNL A   1      43.743  45.757  33.629  1.00  0.00    -0.258 OA
ENDBRANCH  34  36
ENDBRANCH  30  31
ENDBRANCH  25  30
ENDBRANCH   8  22
ENDBRANCH   4   7
ENDBRANCH   2   3
ENDBRANCH   1   2
BRANCH   1  39
ATOM     39  C   UNL A   1      48.957  38.154  28.226  1.00  0.00     0.023 C 
BRANCH  39  40
ATOM     40  C   UNL A   1      47.627  38.144  28.980  1.00  0.00     0.116 C 
BRANCH  40  41
ATOM     41  N   UNL A   1      47.629  37.625  30.340  1.00  0.00    -0.352 N 
ATOM     42  C   UNL A   1      47.668  36.410  30.965  1.00  0.00     0.251 C 
ATOM     43  H   UNL A   1      47.589  38.358  30.996  1.00  0.00     0.163 HD
ATOM     44  O   UNL A   1      47.936  36.444  32.170  1.00  0.00    -0.269 OA
BRANCH  42  45
ATOM     45  C   UNL A   1      47.414  35.091  30.335  1.00  0.00     0.039 A 
ATOM     46  C   UNL A   1      47.705  33.946  31.098  1.00  0.00     0.014 A 
ATOM     47  C   UNL A   1      46.921  34.916  29.049  1.00  0.00     0.014 A 
ATOM     48  C   UNL A   1      47.492  32.664  30.582  1.00  0.00     0.010 A 
ATOM     49  C   UNL A   1      46.723  33.640  28.515  1.00  0.00     0.010 A 
ATOM     50  C   UNL A   1      46.981  32.504  29.288  1.00  0.00    -0.014 A 
BRANCH  50  51
ATOM     51  C   UNL A   1      46.479  31.186  28.834  1.00  0.00     0.031 A 
ATOM     52  C   UNL A   1      47.325  30.228  28.052  1.00  0.00     0.074 A 
ATOM     53  C   UNL A   1      45.177  30.929  29.068  1.00  0.00     0.049 A 
ATOM     54  N   UNL A   1      47.029  29.020  27.644  1.00  0.00    -0.248 NA
ATOM     55  C   UNL A   1      48.659  30.690  27.642  1.00  0.00     0.031 C 
ATOM     56  C   UNL A   1      44.245  31.865  29.706  1.00  0.00     0.029 A 
ATOM     57  N   UNL A   1      44.408  29.831  28.795  1.00  0.00    -0.354 N 
ATOM     58  C   UNL A   1      48.137  28.569  26.935  1.00  0.00     0.074 A 
ATOM     59  C   UNL A   1      49.094  29.657  26.928  1.00  0.00     0.031 C 
ATOM     60  C   UNL A   1      43.038  31.292  29.798  1.00  0.00     0.029 A 
ATOM     61  C   UNL A   1      43.106  29.956  29.219  1.00  0.00     0.049 A 
ATOM     62  H   UNL A   1      44.752  29.030  28.338  1.00  0.00     0.167 HD
ATOM     63  C   UNL A   1      48.329  27.355  26.360  1.00  0.00     0.037 A 
ATOM     64  C   UNL A   1      42.085  29.083  29.168  1.00  0.00     0.037 A 
ATOM     65  C   UNL A   1      47.340  26.300  26.381  1.00  0.00     0.049 A 
ATOM     66  C   UNL A   1      42.351  27.716  28.612  1.00  0.00     0.074 A 
ATOM     67  C   UNL A   1      47.449  25.001  25.915  1.00  0.00     0.029 A 
ATOM     68  N   UNL A   1      46.052  26.431  26.885  1.00  0.00    -0.354 N 
ATOM     69  N   UNL A   1      43.451  27.253  28.065  1.00  0.00    -0.248 NA
ATOM     70  C   UNL A   1      41.257  26.744  28.693  1.00  0.00     0.031 C 
ATOM     71  C   UNL A   1      46.214  24.365  26.090  1.00  0.00     0.029 A 
ATOM     72  C   UNL A   1      45.351  25.246  26.723  1.00  0.00     0.049 A 
ATOM     73  H   UNL A   1      45.688  27.248  27.297  1.00  0.00     0.167 HD
ATOM     74  C   UNL A   1      43.191  25.925  27.756  1.00  0.00     0.074 A 
ATOM     75  C   UNL A   1      41.836  25.657  28.203  1.00  0.00     0.031 C 
ATOM     76  C   UNL A   1      43.996  25.009  27.159  1.00  0.00     0.037 A 
BRANCH  63  77
ATOM     77  C   UNL A   1      49.648  27.084  25.675  1.00  0.00     0.058 A 
ATOM     78  C   UNL A   1      49.841  27.354  24.310  1.00  0.00     0.135 A 
ATOM     79  C   UNL A   1      50.760  26.624  26.404  1.00  0.00     0.135 A 
ATOM     80  F   UNL A   1      48.819  27.794  23.558  1.00  0.00    -0.206 F 
ATOM     81  C   UNL A   1      51.072  27.155  23.689  1.00  0.00     0.059 A 
ATOM     82  C   UNL A   1      52.009  26.447  25.810  1.00  0.00     0.059 A 
ATOM     83  F   UNL A   1      50.646  26.354  27.714  1.00  0.00    -0.206 F 
ATOM     84  C   UNL A   1      52.153  26.704  24.448  1.00  0.00     0.060 A 
BRANCH  84  85
ATOM     85  S   UNL A   1      53.746  26.481  23.628  1.00  0.00     0.124 S 
ATOM     86  O   UNL A   1      54.350  27.798  23.795  1.00  0.00    -0.237 OA
ATOM     87  O   UNL A   1      54.350  25.404  24.402  1.00  0.00    -0.237 OA
ATOM     88  O   UNL A   1      53.377  26.132  22.256  1.00  0.00    -0.744 OA
ENDBRANCH  84  85
ENDBRANCH  63  77
BRANCH  64  89
ATOM     89  C   UNL A   1      40.764  29.464  29.731  1.00  0.00     0.058 A 
ATOM     90  C   UNL A   1      40.577  29.598  31.114  1.00  0.00     0.135 A 
ATOM     91  C   UNL A   1      39.677  29.766  28.894  1.00  0.00     0.135 A 
ATOM     92  F   UNL A   1      41.588  29.334  31.956  1.00  0.00    -0.206 F 
ATOM     93  C   UNL A   1      39.356  29.996  31.651  1.00  0.00     0.059 A 
ATOM     94  C   UNL A   1      38.455  30.194  29.405  1.00  0.00     0.059 A 
ATOM     95  F   UNL A   1      39.814  29.690  27.560  1.00  0.00    -0.206 F 
ATOM     96  C   UNL A   1      38.302  30.295  30.787  1.00  0.00     0.060 A 
BRANCH  96  97
ATOM     97  S   UNL A   1      36.738  30.858  31.492  1.00  0.00     0.124 S 
ATOM     98  O   UNL A   1      35.920  29.657  31.388  1.00  0.00    -0.237 OA
ATOM     99  O   UNL A   1      37.134  31.248  32.841  1.00  0.00    -0.237 OA
ATOM    100  O   UNL A   1      36.355  31.962  30.616  1.00  0.00    -0.744 OA
ENDBRANCH  96  97
ENDBRANCH  64  89
BRANCH  76 101
ATOM    101  C   UNL A   1      43.425  23.629  26.981  1.00  0.00     0.058 A 
ATOM    102  C   UNL A   1      43.276  22.745  28.062  1.00  0.00     0.135 A 
ATOM    103  C   UNL A   1      43.029  23.184  25.709  1.00  0.00     0.135 A 
ATOM    104  F   UNL A   1      43.644  23.118  29.298  1.00  0.00    -0.206 F 
ATOM    105  C   UNL A   1      42.806  21.449  27.879  1.00  0.00     0.059 A 
ATOM    106  C   UNL A   1      42.523  21.905  25.509  1.00  0.00     0.059 A 
ATOM    107  F   UNL A   1      43.138  23.994  24.645  1.00  0.00    -0.206 F 
ATOM    108  C   UNL A   1      42.438  21.037  26.596  1.00  0.00     0.060 A 
BRANCH 108 109
ATOM    109  S   UNL A   1      41.848  19.347  26.369  1.00  0.00     0.124 S 
ATOM    110  O   UNL A   1      42.481  18.983  25.106  1.00  0.00    -0.237 OA
ATOM    111  O   UNL A   1      42.366  18.672  27.555  1.00  0.00    -0.237 OA
ATOM    112  O   UNL A   1      40.396  19.498  26.324  1.00  0.00    -0.744 OA
ENDBRANCH 108 109
ENDBRANCH  76 101
ENDBRANCH  50  51
ENDBRANCH  42  45
ENDBRANCH  40  41
ENDBRANCH  39  40
ENDBRANCH   1  39
TORSDOF 19
ENDMDL
MODEL 2
REMARK VINA RESULT:     -10.8      8.689     17.114
REMARK SMILES COc1ccc([C@H]2[NH2+][C@@H](C(=O)NCCCCNC(=O)c3ccc(-c4c5nc(c(-c6c(F)cc(S(=O)(=O)[O-])cc6F)c6ccc([nH]6)c(-c6c(F)cc(S(=O)(=O)[O-])cc6F)c6nc(c(-c7c(F)cc(S(=O)(=O)[O-])cc7F)c7ccc4[nH]7)C=C6)C=C5)cc3)CC3=c4ccccc4=N[C@H]32)cc1Cn1cc([N+](=O)[O-])cn1
REMARK SMILES IDX 14 1 13 2 12 3 10 4 11 5 9 7 7 8 8 9 95 10 87 13 94 14 86 15
REMARK SMILES IDX 88 16 93 17 89 18 92 19 90 20 91 21 6 22 3 23 4 24 97 25
REMARK SMILES IDX 5 26 96 27 2 28 1 29 98 30 99 31 100 32 106 33 101 34 105 35
REMARK SMILES IDX 102 36 103 37 104 38 15 39 16 40 17 41 18 42 19 44 20 45
REMARK SMILES IDX 21 46 85 47 22 48 84 49 23 50 24 51 25 52 78 53 26 54 83 55
REMARK SMILES IDX 77 56 79 57 27 58 82 59 76 60 75 61 28 63 62 64 41 65 61 66
REMARK SMILES IDX 42 67 45 68 60 69 80 70 43 71 44 72 59 74 81 75 46 76 29 77
REMARK SMILES IDX 30 78 39 79 31 80 32 81 38 82 40 83 33 84 34 85 35 86 36 87
REMARK SMILES IDX 37 88 63 89 64 90 73 91 65 92 66 93 72 94 74 95 67 96 68 97
REMARK SMILES IDX 69 98 70 99 71 100 47 101 48 102 57 103 49 104 50 105 56 106
REMARK SMILES IDX 58 107 51 108 52 109 53 110 54 111 55 112
REMARK H PARENT 12 6 8 11 8 12 17 43 79 62 45 73
REMARK Flexibility Score: inf
ROOT
ATOM      1  C   UNL A   1      43.950  25.653  30.278  1.00  0.00     0.023 C 
ENDROOT
BRANCH   1   2
ATOM      2  C   UNL A   1      43.139  25.429  28.993  1.00  0.00     0.116 C 
BRANCH   2   3
ATOM      3  N   UNL A   1      42.485  24.134  28.859  1.00  0.00    -0.351 N 
ATOM      4  C   UNL A   1      41.506  23.672  28.023  1.00  0.00     0.278 C 
ATOM      5  O   UNL A   1      41.563  22.451  27.795  1.00  0.00    -0.268 OA
ATOM      6  H   UNL A   1      42.813  23.458  29.495  1.00  0.00     0.163 HD
BRANCH   4   7
ATOM      7  C   UNL A   1      40.346  24.474  27.350  1.00  0.00     0.277 C 
ATOM      8  C   UNL A   1      41.379  25.909  25.559  1.00  0.00     0.243 C 
ATOM      9  N   UNL A   1      40.480  24.781  25.904  1.00  0.00    -0.327 N 
ATOM     10  C   UNL A   1      40.907  27.188  26.414  1.00  0.00     0.196 C 
ATOM     11  H   UNL A   1      40.836  23.945  25.439  1.00  0.00     0.347 HD
ATOM     12  H   UNL A   1      39.551  25.066  25.596  1.00  0.00     0.347 HD
ATOM     13  C   UNL A   1      40.422  26.902  27.817  1.00  0.00    -0.024 C 
ATOM     14  N   UNL A   1      41.870  28.322  26.598  1.00  0.00    -0.270 NA
ATOM     15  C   UNL A   1      39.737  25.628  28.129  1.00  0.00     0.109 C 
ATOM     16  C   UNL A   1      40.846  27.810  28.684  1.00  0.00     0.002 A 
ATOM     17  C   UNL A   1      41.698  28.669  27.847  1.00  0.00     0.066 A 
ATOM     18  C   UNL A   1      40.833  27.877  30.112  1.00  0.00     0.010 A 
ATOM     19  C   UNL A   1      42.361  29.778  28.582  1.00  0.00     0.028 A 
ATOM     20  C   UNL A   1      41.592  28.805  30.712  1.00  0.00     0.001 A 
ATOM     21  C   UNL A   1      42.324  29.787  29.931  1.00  0.00     0.002 A 
BRANCH   8  22
ATOM     22  C   UNL A   1      42.840  25.442  25.414  1.00  0.00     0.012 A 
ATOM     23  C   UNL A   1      45.495  24.735  24.827  1.00  0.00     0.123 A 
ATOM     24  C   UNL A   1      45.245  25.894  25.541  1.00  0.00     0.047 A 
ATOM     25  C   UNL A   1      44.474  23.793  24.585  1.00  0.00     0.016 A 
ATOM     26  C   UNL A   1      43.932  26.223  25.855  1.00  0.00     0.014 A 
ATOM     27  C   UNL A   1      43.154  24.163  24.923  1.00  0.00     0.019 A 
BRANCH  23  28
ATOM     28  O   UNL A   1      46.781  24.498  24.412  1.00  0.00    -0.496 OA
ATOM     29  C   UNL A   1      47.723  25.186  25.248  1.00  0.00     0.278 C 
ENDBRANCH  23  28
BRANCH  25  30
ATOM     30  C   UNL A   1      44.924  22.472  24.004  1.00  0.00     0.183 C 
BRANCH  30  31
ATOM     31  N   UNL A   1      44.507  21.178  24.557  1.00  0.00    -0.261 N 
ATOM     32  C   UNL A   1      43.654  20.851  25.572  1.00  0.00     0.194 A 
ATOM     33  N   UNL A   1      44.887  20.084  23.847  1.00  0.00    -0.174 NA
ATOM     34  C   UNL A   1      43.565  19.475  25.582  1.00  0.00     0.307 A 
ATOM     35  C   UNL A   1      44.308  19.057  24.473  1.00  0.00     0.220 A 
BRANCH  34  36
ATOM     36  N   UNL A   1      42.844  18.670  26.514  1.00  0.00     0.066 N 
ATOM     37  O   UNL A   1      41.752  19.103  26.903  1.00  0.00    -0.258 OA
ATOM     38  O   UNL A   1      43.346  17.580  26.829  1.00  0.00    -0.258 OA
ENDBRANCH  34  36
ENDBRANCH  30  31
ENDBRANCH  25  30
ENDBRANCH   8  22
ENDBRANCH   4   7
ENDBRANCH   2   3
ENDBRANCH   1   2
BRANCH   1  39
ATOM     39  C   UNL A   1      44.707  24.403  30.825  1.00  0.00     0.023 C 
BRANCH  39  40
ATOM     40  C   UNL A   1      43.871  23.418  31.644  1.00  0.00     0.116 C 
BRANCH  40  41
ATOM     41  N   UNL A   1      44.292  23.154  33.011  1.00  0.00    -0.352 N 
ATOM     42  C   UNL A   1      44.183  23.742  34.241  1.00  0.00     0.251 C 
ATOM     43  H   UNL A   1      44.800  22.313  33.067  1.00  0.00     0.163 HD
ATOM     44  O   UNL A   1      44.461  23.016  35.201  1.00  0.00    -0.269 OA
BRANCH  42  45
ATOM     45  C   UNL A   1      43.779  25.144  34.510  1.00  0.00     0.039 A 
ATOM     46  C   UNL A   1      42.707  25.346  35.397  1.00  0.00     0.014 A 
ATOM     47  C   UNL A   1      44.379  26.259  33.939  1.00  0.00     0.014 A 
ATOM     48  C   UNL A   1      42.263  26.636  35.709  1.00  0.00     0.010 A 
ATOM     49  C   UNL A   1      43.931  27.551  34.227  1.00  0.00     0.010 A 
ATOM     50  C   UNL A   1      42.887  27.751  35.136  1.00  0.00    -0.014 A 
BRANCH  50  51
ATOM     51  C   UNL A   1      42.634  29.111  35.665  1.00  0.00     0.031 A 
ATOM     52  C   UNL A   1      41.579  30.012  35.098  1.00  0.00     0.074 A 
ATOM     53  C   UNL A   1      43.476  29.547  36.622  1.00  0.00     0.049 A 
ATOM     54  N   UNL A   1      41.215  31.202  35.505  1.00  0.00    -0.248 NA
ATOM     55  C   UNL A   1      40.865  29.541  33.903  1.00  0.00     0.031 C 
ATOM     56  C   UNL A   1      44.617  28.783  37.140  1.00  0.00     0.029 A 
ATOM     57  N   UNL A   1      43.523  30.723  37.321  1.00  0.00    -0.354 N 
ATOM     58  C   UNL A   1      40.224  31.624  34.625  1.00  0.00     0.074 A 
ATOM     59  C   UNL A   1      40.081  30.579  33.631  1.00  0.00     0.031 C 
ATOM     60  C   UNL A   1      45.234  29.498  38.089  1.00  0.00     0.029 A 
ATOM     61  C   UNL A   1      44.542  30.771  38.242  1.00  0.00     0.049 A 
ATOM     62  H   UNL A   1      42.889  31.462  37.176  1.00  0.00     0.167 HD
ATOM     63  C   UNL A   1      39.502  32.771  34.662  1.00  0.00     0.037 A 
ATOM     64  C   UNL A   1      44.871  31.727  39.129  1.00  0.00     0.037 A 
ATOM     65  C   UNL A   1      39.687  33.795  35.667  1.00  0.00     0.049 A 
ATOM     66  C   UNL A   1      43.998  32.945  39.210  1.00  0.00     0.074 A 
ATOM     67  C   UNL A   1      38.959  34.957  35.864  1.00  0.00     0.029 A 
ATOM     68  N   UNL A   1      40.682  33.783  36.636  1.00  0.00    -0.354 N 
ATOM     69  N   UNL A   1      42.974  33.271  38.458  1.00  0.00    -0.248 NA
ATOM     70  C   UNL A   1      44.301  33.905  40.276  1.00  0.00     0.031 C 
ATOM     71  C   UNL A   1      39.546  35.670  36.917  1.00  0.00     0.029 A 
ATOM     72  C   UNL A   1      40.601  34.925  37.420  1.00  0.00     0.049 A 
ATOM     73  H   UNL A   1      41.349  33.069  36.751  1.00  0.00     0.167 HD
ATOM     74  C   UNL A   1      42.491  34.467  38.973  1.00  0.00     0.074 A 
ATOM     75  C   UNL A   1      43.325  34.788  40.117  1.00  0.00     0.031 C 
ATOM     76  C   UNL A   1      41.456  35.231  38.542  1.00  0.00     0.037 A 
BRANCH  63  77
ATOM     77  C   UNL A   1      38.441  32.988  33.609  1.00  0.00     0.058 A 
ATOM     78  C   UNL A   1      38.724  33.639  32.396  1.00  0.00     0.135 A 
ATOM     79  C   UNL A   1      37.143  32.471  33.774  1.00  0.00     0.135 A 
ATOM     80  F   UNL A   1      39.944  34.156  32.177  1.00  0.00    -0.206 F 
ATOM     81  C   UNL A   1      37.761  33.792  31.402  1.00  0.00     0.059 A 
ATOM     82  C   UNL A   1      36.172  32.586  32.780  1.00  0.00     0.059 A 
ATOM     83  F   UNL A   1      36.808  31.832  34.906  1.00  0.00    -0.206 F 
ATOM     84  C   UNL A   1      36.486  33.259  31.602  1.00  0.00     0.060 A 
BRANCH  84  85
ATOM     85  S   UNL A   1      35.262  33.444  30.287  1.00  0.00     0.124 S 
ATOM     86  O   UNL A   1      34.160  34.082  30.998  1.00  0.00    -0.237 OA
ATOM     87  O   UNL A   1      35.962  34.280  29.320  1.00  0.00    -0.237 OA
ATOM     88  O   UNL A   1      35.014  32.067  29.856  1.00  0.00    -0.744 OA
ENDBRANCH  84  85
ENDBRANCH  63  77
BRANCH  64  89
ATOM     89  C   UNL A   1      46.022  31.516  40.044  1.00  0.00     0.058 A 
ATOM     90  C   UNL A   1      45.868  30.823  41.253  1.00  0.00     0.135 A 
ATOM     91  C   UNL A   1      47.313  31.945  39.698  1.00  0.00     0.135 A 
ATOM     92  F   UNL A   1      44.656  30.380  41.623  1.00  0.00    -0.206 F 
ATOM     93  C   UNL A   1      46.947  30.582  42.099  1.00  0.00     0.059 A 
ATOM     94  C   UNL A   1      48.413  31.691  40.512  1.00  0.00     0.059 A 
ATOM     95  F   UNL A   1      47.522  32.581  38.534  1.00  0.00    -0.206 F 
ATOM     96  C   UNL A   1      48.216  31.017  41.717  1.00  0.00     0.060 A 
BRANCH  96  97
ATOM     97  S   UNL A   1      49.617  30.655  42.797  1.00  0.00     0.124 S 
ATOM     98  O   UNL A   1      50.579  30.099  41.854  1.00  0.00    -0.237 OA
ATOM     99  O   UNL A   1      49.937  31.974  43.335  1.00  0.00    -0.237 OA
ATOM    100  O   UNL A   1      49.060  29.712  43.763  1.00  0.00    -0.744 OA
ENDBRANCH  96  97
ENDBRANCH  64  89
BRANCH  76 101
ATOM    101  C   UNL A   1      41.164  36.475  39.336  1.00  0.00     0.058 A 
ATOM    102  C   UNL A   1      40.156  36.510  40.313  1.00  0.00     0.135 A 
ATOM    103  C   UNL A   1      41.900  37.650  39.108  1.00  0.00     0.135 A 
ATOM    104  F   UNL A   1      39.419  35.417  40.565  1.00  0.00    -0.206 F 
ATOM    105  C   UNL A   1      39.850  37.682  40.997  1.00  0.00     0.059 A 
ATOM    106  C   UNL A   1      41.635  38.822  39.807  1.00  0.00     0.059 A 
ATOM    107  F   UNL A   1      42.883  37.666  38.196  1.00  0.00    -0.206 F 
ATOM    108  C   UNL A   1      40.592  38.834  40.732  1.00  0.00     0.060 A 
BRANCH 108 109
ATOM    109  S   UNL A   1      40.175  40.352  41.614  1.00  0.00     0.124 S 
ATOM    110  O   UNL A   1      39.486  41.113  40.577  1.00  0.00    -0.237 OA
ATOM    111  O   UNL A   1      39.335  39.860  42.702  1.00  0.00    -0.237 OA
ATOM    112  O   UNL A   1      41.475  40.877  42.021  1.00  0.00    -0.744 OA
ENDBRANCH 108 109
ENDBRANCH  76 101
ENDBRANCH  50  51
ENDBRANCH  42  45
ENDBRANCH  40  41
ENDBRANCH  39  40
ENDBRANCH   1  39
TORSDOF 19
ENDMDL
MODEL 3
REMARK VINA RESULT:     -10.7      3.265      9.464
REMARK SMILES COc1ccc([C@H]2[NH2+][C@@H](C(=O)NCCCCNC(=O)c3ccc(-c4c5nc(c(-c6c(F)cc(S(=O)(=O)[O-])cc6F)c6ccc([nH]6)c(-c6c(F)cc(S(=O)(=O)[O-])cc6F)c6nc(c(-c7c(F)cc(S(=O)(=O)[O-])cc7F)c7ccc4[nH]7)C=C6)C=C5)cc3)CC3=c4ccccc4=N[C@H]32)cc1Cn1cc([N+](=O)[O-])cn1
REMARK SMILES IDX 14 1 13 2 12 3 10 4 11 5 9 7 7 8 8 9 95 10 87 13 94 14 86 15
REMARK SMILES IDX 88 16 93 17 89 18 92 19 90 20 91 21 6 22 3 23 4 24 97 25
REMARK SMILES IDX 5 26 96 27 2 28 1 29 98 30 99 31 100 32 106 33 101 34 105 35
REMARK SMILES IDX 102 36 103 37 104 38 15 39 16 40 17 41 18 42 19 44 20 45
REMARK SMILES IDX 21 46 85 47 22 48 84 49 23 50 24 51 25 52 78 53 26 54 83 55
REMARK SMILES IDX 77 56 79 57 27 58 82 59 76 60 75 61 28 63 62 64 41 65 61 66
REMARK SMILES IDX 42 67 45 68 60 69 80 70 43 71 44 72 59 74 81 75 46 76 29 77
REMARK SMILES IDX 30 78 39 79 31 80 32 81 38 82 40 83 33 84 34 85 35 86 36 87
REMARK SMILES IDX 37 88 63 89 64 90 73 91 65 92 66 93 72 94 74 95 67 96 68 97
REMARK SMILES IDX 69 98 70 99 71 100 47 101 48 102 57 103 49 104 50 105 56 106
REMARK SMILES IDX 58 107 51 108 52 109 53 110 54 111 55 112
REMARK H PARENT 12 6 8 11 8 12 17 43 79 62 45 73
REMARK Flexibility Score: inf
ROOT
ATOM      1  C   UNL A   1      38.854  34.892  33.642  1.00  0.00     0.023 C 
ENDROOT
BRANCH   1   2
ATOM      2  C   UNL A   1      39.459  34.916  35.054  1.00  0.00     0.116 C 
BRANCH   2   3
ATOM      3  N   UNL A   1      40.386  36.003  35.341  1.00  0.00    -0.351 N 
ATOM      4  C   UNL A   1      41.677  36.245  34.961  1.00  0.00     0.278 C 
ATOM      5  O   UNL A   1      41.978  37.451  34.911  1.00  0.00    -0.268 OA
ATOM      6  H   UNL A   1      40.008  36.701  35.923  1.00  0.00     0.163 HD
BRANCH   4   7
ATOM      7  C   UNL A   1      42.794  35.212  34.605  1.00  0.00     0.277 C 
ATOM      8  C   UNL A   1      44.604  36.466  33.386  1.00  0.00     0.243 C 
ATOM      9  N   UNL A   1      44.195  35.701  34.589  1.00  0.00    -0.327 N 
ATOM     10  C   UNL A   1      44.255  35.570  32.095  1.00  0.00     0.196 C 
ATOM     11  H   UNL A   1      44.325  36.304  35.401  1.00  0.00     0.347 HD
ATOM     12  H   UNL A   1      44.779  34.864  34.593  1.00  0.00     0.347 HD
ATOM     13  C   UNL A   1      42.983  34.758  32.180  1.00  0.00    -0.024 C 
ATOM     14  N   UNL A   1      44.155  36.245  30.760  1.00  0.00    -0.270 NA
ATOM     15  C   UNL A   1      42.515  34.227  33.480  1.00  0.00     0.109 C 
ATOM     16  C   UNL A   1      42.312  34.765  31.037  1.00  0.00     0.002 A 
ATOM     17  C   UNL A   1      43.121  35.670  30.205  1.00  0.00     0.066 A 
ATOM     18  C   UNL A   1      40.998  34.336  30.673  1.00  0.00     0.010 A 
ATOM     19  C   UNL A   1      42.570  35.908  28.845  1.00  0.00     0.028 A 
ATOM     20  C   UNL A   1      40.504  34.732  29.492  1.00  0.00     0.001 A 
ATOM     21  C   UNL A   1      41.321  35.488  28.558  1.00  0.00     0.002 A 
BRANCH   8  22
ATOM     22  C   UNL A   1      44.269  37.963  33.530  1.00  0.00     0.012 A 
ATOM     23  C   UNL A   1      43.333  40.588  33.886  1.00  0.00     0.123 A 
ATOM     24  C   UNL A   1      44.012  39.965  34.920  1.00  0.00     0.047 A 
ATOM     25  C   UNL A   1      43.298  40.026  32.593  1.00  0.00     0.016 A 
ATOM     26  C   UNL A   1      44.498  38.678  34.727  1.00  0.00     0.014 A 
ATOM     27  C   UNL A   1      43.808  38.718  32.438  1.00  0.00     0.019 A 
BRANCH  23  28
ATOM     28  O   UNL A   1      42.745  41.801  34.140  1.00  0.00    -0.496 OA
ATOM     29  C   UNL A   1      43.519  42.558  35.081  1.00  0.00     0.278 C 
ENDBRANCH  23  28
BRANCH  25  30
ATOM     30  C   UNL A   1      42.730  40.911  31.507  1.00  0.00     0.183 C 
BRANCH  30  31
ATOM     31  N   UNL A   1      42.722  40.524  30.092  1.00  0.00    -0.261 N 
ATOM     32  C   UNL A   1      43.727  40.188  29.231  1.00  0.00     0.194 A 
ATOM     33  N   UNL A   1      41.497  40.281  29.555  1.00  0.00    -0.174 NA
ATOM     34  C   UNL A   1      43.123  39.813  28.049  1.00  0.00     0.307 A 
ATOM     35  C   UNL A   1      41.751  39.847  28.319  1.00  0.00     0.220 A 
BRANCH  34  36
ATOM     36  N   UNL A   1      43.773  39.447  26.832  1.00  0.00     0.066 N 
ATOM     37  O   UNL A   1      44.245  40.365  26.150  1.00  0.00    -0.258 OA
ATOM     38  O   UNL A   1      43.854  38.237  26.575  1.00  0.00    -0.258 OA
ENDBRANCH  34  36
ENDBRANCH  30  31
ENDBRANCH  25  30
ENDBRANCH   8  22
ENDBRANCH   4   7
ENDBRANCH   2   3
ENDBRANCH   1   2
BRANCH   1  39
ATOM     39  C   UNL A   1      38.574  33.474  33.052  1.00  0.00     0.023 C 
BRANCH  39  40
ATOM     40  C   UNL A   1      37.581  33.414  31.891  1.00  0.00     0.116 C 
BRANCH  40  41
ATOM     41  N   UNL A   1      36.810  32.191  31.728  1.00  0.00    -0.352 N 
ATOM     42  C   UNL A   1      37.040  30.871  31.455  1.00  0.00     0.251 C 
ATOM     43  H   UNL A   1      35.848  32.363  31.848  1.00  0.00     0.163 HD
ATOM     44  O   UNL A   1      36.096  30.110  31.688  1.00  0.00    -0.269 OA
BRANCH  42  45
ATOM     45  C   UNL A   1      38.294  30.295  30.909  1.00  0.00     0.039 A 
ATOM     46  C   UNL A   1      38.421  30.239  29.510  1.00  0.00     0.014 A 
ATOM     47  C   UNL A   1      39.336  29.803  31.684  1.00  0.00     0.014 A 
ATOM     48  C   UNL A   1      39.571  29.714  28.912  1.00  0.00     0.010 A 
ATOM     49  C   UNL A   1      40.481  29.258  31.097  1.00  0.00     0.010 A 
ATOM     50  C   UNL A   1      40.620  29.235  29.707  1.00  0.00    -0.014 A 
BRANCH  50  51
ATOM     51  C   UNL A   1      41.946  28.950  29.112  1.00  0.00     0.031 A 
ATOM     52  C   UNL A   1      42.994  30.007  28.938  1.00  0.00     0.074 A 
ATOM     53  C   UNL A   1      42.132  27.706  28.631  1.00  0.00     0.049 A 
ATOM     54  N   UNL A   1      44.216  29.881  28.486  1.00  0.00    -0.248 NA
ATOM     55  C   UNL A   1      42.619  31.387  29.278  1.00  0.00     0.031 C 
ATOM     56  C   UNL A   1      41.113  26.649  28.638  1.00  0.00     0.029 A 
ATOM     57  N   UNL A   1      43.215  27.116  28.038  1.00  0.00    -0.354 N 
ATOM     58  C   UNL A   1      44.764  31.159  28.492  1.00  0.00     0.074 A 
ATOM     59  C   UNL A   1      43.719  32.055  28.947  1.00  0.00     0.031 C 
ATOM     60  C   UNL A   1      41.628  25.535  28.100  1.00  0.00     0.029 A 
ATOM     61  C   UNL A   1      43.004  25.799  27.702  1.00  0.00     0.049 A 
ATOM     62  H   UNL A   1      44.061  27.588  27.867  1.00  0.00     0.167 HD
ATOM     63  C   UNL A   1      46.024  31.534  28.158  1.00  0.00     0.037 A 
ATOM     64  C   UNL A   1      43.837  24.896  27.155  1.00  0.00     0.037 A 
ATOM     65  C   UNL A   1      47.033  30.607  27.696  1.00  0.00     0.049 A 
ATOM     66  C   UNL A   1      45.252  25.313  26.882  1.00  0.00     0.074 A 
ATOM     67  C   UNL A   1      48.367  30.849  27.414  1.00  0.00     0.029 A 
ATOM     68  N   UNL A   1      46.812  29.260  27.435  1.00  0.00    -0.354 N 
ATOM     69  N   UNL A   1      45.798  26.497  27.022  1.00  0.00    -0.248 NA
ATOM     70  C   UNL A   1      46.169  24.271  26.412  1.00  0.00     0.031 C 
ATOM     71  C   UNL A   1      48.937  29.663  26.934  1.00  0.00     0.029 A 
ATOM     72  C   UNL A   1      47.977  28.664  26.976  1.00  0.00     0.049 A 
ATOM     73  H   UNL A   1      45.953  28.796  27.557  1.00  0.00     0.167 HD
ATOM     74  C   UNL A   1      47.135  26.341  26.678  1.00  0.00     0.074 A 
ATOM     75  C   UNL A   1      47.313  24.938  26.350  1.00  0.00     0.031 C 
ATOM     76  C   UNL A   1      48.124  27.268  26.637  1.00  0.00     0.037 A 
BRANCH  63  77
ATOM     77  C   UNL A   1      46.399  32.992  28.289  1.00  0.00     0.058 A 
ATOM     78  C   UNL A   1      46.207  33.901  27.235  1.00  0.00     0.135 A 
ATOM     79  C   UNL A   1      46.883  33.508  29.504  1.00  0.00     0.135 A 
ATOM     80  F   UNL A   1      45.749  33.473  26.048  1.00  0.00    -0.206 F 
ATOM     81  C   UNL A   1      46.502  35.256  27.371  1.00  0.00     0.059 A 
ATOM     82  C   UNL A   1      47.156  34.864  29.673  1.00  0.00     0.059 A 
ATOM     83  F   UNL A   1      47.082  32.694  30.553  1.00  0.00    -0.206 F 
ATOM     84  C   UNL A   1      46.974  35.730  28.596  1.00  0.00     0.060 A 
BRANCH  84  85
ATOM     85  S   UNL A   1      47.323  37.495  28.759  1.00  0.00     0.124 S 
ATOM     86  O   UNL A   1      47.276  37.933  27.368  1.00  0.00    -0.237 OA
ATOM     87  O   UNL A   1      46.230  37.954  29.606  1.00  0.00    -0.237 OA
ATOM     88  O   UNL A   1      48.648  37.524  29.379  1.00  0.00    -0.744 OA
ENDBRANCH  84  85
ENDBRANCH  63  77
BRANCH  64  89
ATOM     89  C   UNL A   1      43.360  23.509  26.915  1.00  0.00     0.058 A 
ATOM     90  C   UNL A   1      43.074  23.054  25.620  1.00  0.00     0.135 A 
ATOM     91  C   UNL A   1      43.244  22.589  27.970  1.00  0.00     0.135 A 
ATOM     92  F   UNL A   1      43.182  23.892  24.577  1.00  0.00    -0.206 F 
ATOM     93  C   UNL A   1      42.668  21.746  25.378  1.00  0.00     0.059 A 
ATOM     94  C   UNL A   1      42.868  21.266  27.750  1.00  0.00     0.059 A 
ATOM     95  F   UNL A   1      43.542  22.962  29.225  1.00  0.00    -0.206 F 
ATOM     96  C   UNL A   1      42.572  20.858  26.451  1.00  0.00     0.060 A 
BRANCH  96  97
ATOM     97  S   UNL A   1      42.093  19.149  26.120  1.00  0.00     0.124 S 
ATOM     98  O   UNL A   1      42.937  18.824  24.977  1.00  0.00    -0.237 OA
ATOM     99  O   UNL A   1      42.433  18.487  27.376  1.00  0.00    -0.237 OA
ATOM    100  O   UNL A   1      40.663  19.250  25.842  1.00  0.00    -0.744 OA
ENDBRANCH  96  97
ENDBRANCH  64  89
BRANCH  76 101
ATOM    101  C   UNL A   1      49.489  26.776  26.242  1.00  0.00     0.058 A 
ATOM    102  C   UNL A   1      50.343  26.145  27.161  1.00  0.00     0.135 A 
ATOM    103  C   UNL A   1      49.951  26.947  24.927  1.00  0.00     0.135 A 
ATOM    104  F   UNL A   1      49.953  25.962  28.432  1.00  0.00    -0.206 F 
ATOM    105  C   UNL A   1      51.628  25.749  26.804  1.00  0.00     0.059 A 
ATOM    106  C   UNL A   1      51.218  26.526  24.538  1.00  0.00     0.059 A 
ATOM    107  F   UNL A   1      49.170  27.531  24.005  1.00  0.00    -0.206 F 
ATOM    108  C   UNL A   1      52.057  25.950  25.491  1.00  0.00     0.060 A 
BRANCH 108 109
ATOM    109  S   UNL A   1      53.733  25.449  25.044  1.00  0.00     0.124 S 
ATOM    110  O   UNL A   1      53.696  24.019  25.328  1.00  0.00    -0.237 OA
ATOM    111  O   UNL A   1      53.802  25.815  23.633  1.00  0.00    -0.237 OA
ATOM    112  O   UNL A   1      54.574  26.245  25.934  1.00  0.00    -0.744 OA
ENDBRANCH 108 109
ENDBRANCH  76 101
ENDBRANCH  50  51
ENDBRANCH  42  45
ENDBRANCH  40  41
ENDBRANCH  39  40
ENDBRANCH   1  39
TORSDOF 19
ENDMDL
