MODEL 1
REMARK VINA RESULT:     -11.8      0.000      0.000
REMARK SMILES Cc1cc(F)ccc1NC(=O)[C@H]1CC=CC[C@@H]1C(=O)NCCCCNC(=O)c1ccc(-c2c3nc(c(-c4c(F)cc(S(=O)(=O)[O-])cc4F)c4ccc([nH]4)c(-c4c(F)cc(S(=O)(=O)[O-])cc4F)c4nc(c(-c5c(F)cc(S(=O)(=O)[O-])cc5F)c5ccc2[nH]5)C=C4)C=C3)cc1
REMARK SMILES IDX 23 1 22 2 21 3 20 4 18 5 19 6 17 8 12 9 13 10 14 11 16 12
REMARK SMILES IDX 15 13 10 14 9 15 11 17 8 18 1 19 2 20 3 21 4 22 7 23 5 24
REMARK SMILES IDX 6 25 24 26 25 27 26 28 27 30 28 31 29 32 93 33 30 34 92 35
REMARK SMILES IDX 31 36 32 37 33 38 86 39 34 40 91 41 85 42 87 43 35 44 90 45
REMARK SMILES IDX 84 46 83 47 36 49 70 50 49 51 69 52 50 53 53 54 68 55 88 56
REMARK SMILES IDX 51 57 52 58 67 60 89 61 54 62 37 63 38 64 47 65 39 66 40 67
REMARK SMILES IDX 46 68 48 69 41 70 42 71 43 72 44 73 45 74 71 75 72 76 81 77
REMARK SMILES IDX 73 78 74 79 80 80 82 81 75 82 76 83 77 84 78 85 79 86 55 87
REMARK SMILES IDX 56 88 65 89 57 90 58 91 64 92 66 93 59 94 60 95 61 96 62 97
REMARK SMILES IDX 63 98
REMARK H PARENT 20 7 9 16 25 29 87 48 53 59
REMARK Flexibility Score: inf
ROOT
ATOM      1  C   UNL A   1      32.230  28.259  26.739  1.00  0.00     0.023 C 
ENDROOT
BRANCH   1   2
ATOM      2  C   UNL A   1      31.503  29.068  25.688  1.00  0.00     0.023 C 
BRANCH   2   3
ATOM      3  C   UNL A   1      31.668  28.819  24.165  1.00  0.00     0.116 C 
BRANCH   3   4
ATOM      4  N   UNL A   1      30.732  27.902  23.450  1.00  0.00    -0.356 N 
ATOM      5  C   UNL A   1      30.651  26.508  23.575  1.00  0.00     0.224 C 
ATOM      6  O   UNL A   1      29.621  26.024  24.052  1.00  0.00    -0.275 OA
ATOM      7  H   UNL A   1      30.103  28.323  22.821  1.00  0.00     0.163 HD
BRANCH   5   8
ATOM      8  C   UNL A   1      31.663  25.593  22.831  1.00  0.00     0.095 C 
ATOM      9  C   UNL A   1      32.156  24.219  23.311  1.00  0.00     0.095 C 
ATOM     10  C   UNL A   1      32.353  24.308  24.833  1.00  0.00     0.041 C 
ATOM     11  C   UNL A   1      33.437  25.313  25.051  1.00  0.00    -0.030 C 
ATOM     12  C   UNL A   1      32.930  26.314  22.754  1.00  0.00     0.041 C 
ATOM     13  C   UNL A   1      33.772  26.142  24.046  1.00  0.00    -0.030 C 
BRANCH   9  14
ATOM     14  C   UNL A   1      33.536  23.562  22.680  1.00  0.00     0.228 C 
ATOM     15  N   UNL A   1      34.758  23.072  23.123  1.00  0.00    -0.326 N 
ATOM     16  H   UNL A   1      35.119  22.606  22.336  1.00  0.00     0.169 HD
ATOM     17  O   UNL A   1      33.426  23.337  21.447  1.00  0.00    -0.274 OA
BRANCH  15  18
ATOM     18  C   UNL A   1      35.805  22.877  24.150  1.00  0.00     0.044 A 
ATOM     19  C   UNL A   1      34.849  20.521  24.739  1.00  0.00     0.047 C 
ATOM     20  C   UNL A   1      35.903  21.599  24.773  1.00  0.00    -0.025 A 
ATOM     21  C   UNL A   1      37.007  21.260  25.624  1.00  0.00     0.044 A 
ATOM     22  C   UNL A   1      38.004  22.163  25.925  1.00  0.00     0.123 A 
ATOM     23  C   UNL A   1      36.814  23.757  24.609  1.00  0.00     0.029 A 
ATOM     24  F   UNL A   1      39.032  21.826  26.711  1.00  0.00    -0.207 F 
ATOM     25  C   UNL A   1      37.894  23.433  25.450  1.00  0.00     0.041 A 
ENDBRANCH  15  18
ENDBRANCH   9  14
ENDBRANCH   5   8
ENDBRANCH   3   4
ENDBRANCH   2   3
ENDBRANCH   1   2
BRANCH   1  26
ATOM     26  C   UNL A   1      33.556  28.828  27.148  1.00  0.00     0.116 C 
BRANCH  26  27
ATOM     27  N   UNL A   1      33.514  30.155  27.752  1.00  0.00    -0.352 N 
ATOM     28  C   UNL A   1      34.573  30.793  28.379  1.00  0.00     0.251 C 
ATOM     29  H   UNL A   1      32.658  30.639  27.709  1.00  0.00     0.163 HD
ATOM     30  O   UNL A   1      34.446  31.877  28.906  1.00  0.00    -0.269 OA
BRANCH  28  31
ATOM     31  C   UNL A   1      35.848  30.043  28.439  1.00  0.00     0.039 A 
ATOM     32  C   UNL A   1      36.718  30.104  27.352  1.00  0.00     0.014 A 
ATOM     33  C   UNL A   1      36.258  29.496  29.656  1.00  0.00     0.014 A 
ATOM     34  C   UNL A   1      38.042  29.697  27.522  1.00  0.00     0.010 A 
ATOM     35  C   UNL A   1      37.603  29.238  29.861  1.00  0.00     0.010 A 
ATOM     36  C   UNL A   1      38.507  29.316  28.793  1.00  0.00    -0.014 A 
BRANCH  36  37
ATOM     37  C   UNL A   1      39.923  28.947  29.033  1.00  0.00     0.031 A 
ATOM     38  C   UNL A   1      40.855  29.975  29.617  1.00  0.00     0.074 A 
ATOM     39  C   UNL A   1      40.386  27.738  28.655  1.00  0.00     0.049 A 
ATOM     40  N   UNL A   1      42.145  29.905  29.812  1.00  0.00    -0.248 NA
ATOM     41  C   UNL A   1      40.264  31.274  29.985  1.00  0.00     0.031 C 
ATOM     42  C   UNL A   1      39.595  26.686  28.009  1.00  0.00     0.029 A 
ATOM     43  N   UNL A   1      41.640  27.192  28.753  1.00  0.00    -0.354 N 
ATOM     44  C   UNL A   1      42.518  31.154  30.293  1.00  0.00     0.074 A 
ATOM     45  C   UNL A   1      41.338  31.986  30.289  1.00  0.00     0.031 C 
ATOM     46  C   UNL A   1      40.374  25.610  27.805  1.00  0.00     0.029 A 
ATOM     47  C   UNL A   1      41.726  25.906  28.271  1.00  0.00     0.049 A 
ATOM     48  H   UNL A   1      42.409  27.675  29.134  1.00  0.00     0.167 HD
ATOM     49  C   UNL A   1      43.729  31.563  30.739  1.00  0.00     0.037 A 
ATOM     50  C   UNL A   1      42.776  25.065  28.216  1.00  0.00     0.037 A 
ATOM     51  C   UNL A   1      44.883  30.709  30.799  1.00  0.00     0.049 A 
ATOM     52  C   UNL A   1      44.102  25.524  28.761  1.00  0.00     0.074 A 
ATOM     53  C   UNL A   1      46.138  30.994  31.303  1.00  0.00     0.029 A 
ATOM     54  N   UNL A   1      44.916  29.397  30.349  1.00  0.00    -0.354 N 
ATOM     55  N   UNL A   1      44.423  26.687  29.277  1.00  0.00    -0.248 NA
ATOM     56  C   UNL A   1      45.208  24.555  28.726  1.00  0.00     0.031 C 
ATOM     57  C   UNL A   1      46.941  29.861  31.131  1.00  0.00     0.029 A 
ATOM     58  C   UNL A   1      46.172  28.860  30.556  1.00  0.00     0.049 A 
ATOM     59  H   UNL A   1      44.156  28.919  29.944  1.00  0.00     0.167 HD
ATOM     60  C   UNL A   1      45.758  26.583  29.650  1.00  0.00     0.074 A 
ATOM     61  C   UNL A   1      46.181  25.239  29.313  1.00  0.00     0.031 C 
ATOM     62  C   UNL A   1      46.562  27.513  30.222  1.00  0.00     0.037 A 
BRANCH  49  63
ATOM     63  C   UNL A   1      43.848  32.982  31.218  1.00  0.00     0.058 A 
ATOM     64  C   UNL A   1      43.619  33.327  32.560  1.00  0.00     0.135 A 
ATOM     65  C   UNL A   1      44.195  34.010  30.328  1.00  0.00     0.135 A 
ATOM     66  F   UNL A   1      43.260  32.388  33.450  1.00  0.00    -0.206 F 
ATOM     67  C   UNL A   1      43.697  34.645  32.996  1.00  0.00     0.059 A 
ATOM     68  C   UNL A   1      44.309  35.332  30.748  1.00  0.00     0.059 A 
ATOM     69  F   UNL A   1      44.418  33.736  29.032  1.00  0.00    -0.206 F 
ATOM     70  C   UNL A   1      44.041  35.641  32.082  1.00  0.00     0.060 A 
BRANCH  70  71
ATOM     71  S   UNL A   1      44.138  37.347  32.663  1.00  0.00     0.124 S 
ATOM     72  O   UNL A   1      43.044  37.387  33.627  1.00  0.00    -0.237 OA
ATOM     73  O   UNL A   1      45.482  37.410  33.227  1.00  0.00    -0.237 OA
ATOM     74  O   UNL A   1      43.934  38.131  31.449  1.00  0.00    -0.744 OA
ENDBRANCH  70  71
ENDBRANCH  49  63
BRANCH  50  75
ATOM     75  C   UNL A   1      42.608  23.693  27.666  1.00  0.00     0.058 A 
ATOM     76  C   UNL A   1      42.433  22.592  28.520  1.00  0.00     0.135 A 
ATOM     77  C   UNL A   1      42.604  23.452  26.285  1.00  0.00     0.135 A 
ATOM     78  F   UNL A   1      42.433  22.770  29.850  1.00  0.00    -0.206 F 
ATOM     79  C   UNL A   1      42.279  21.301  28.026  1.00  0.00     0.059 A 
ATOM     80  C   UNL A   1      42.429  22.172  25.764  1.00  0.00     0.059 A 
ATOM     81  F   UNL A   1      42.749  24.472  25.424  1.00  0.00    -0.206 F 
ATOM     82  C   UNL A   1      42.276  21.101  26.645  1.00  0.00     0.060 A 
BRANCH  82  83
ATOM     83  S   UNL A   1      42.026  19.427  26.012  1.00  0.00     0.124 S 
ATOM     84  O   UNL A   1      42.867  19.435  24.822  1.00  0.00    -0.237 OA
ATOM     85  O   UNL A   1      42.497  18.605  27.122  1.00  0.00    -0.237 OA
ATOM     86  O   UNL A   1      40.587  19.374  25.769  1.00  0.00    -0.744 OA
ENDBRANCH  82  83
ENDBRANCH  50  75
BRANCH  62  87
ATOM     87  C   UNL A   1      47.969  27.103  30.549  1.00  0.00     0.058 A 
ATOM     88  C   UNL A   1      49.007  27.234  29.615  1.00  0.00     0.135 A 
ATOM     89  C   UNL A   1      48.290  26.638  31.834  1.00  0.00     0.135 A 
ATOM     90  F   UNL A   1      48.748  27.669  28.373  1.00  0.00    -0.206 F 
ATOM     91  C   UNL A   1      50.317  26.899  29.939  1.00  0.00     0.059 A 
ATOM     92  C   UNL A   1      49.597  26.321  32.188  1.00  0.00     0.059 A 
ATOM     93  F   UNL A   1      47.332  26.508  32.766  1.00  0.00    -0.206 F 
ATOM     94  C   UNL A   1      50.602  26.447  31.230  1.00  0.00     0.060 A 
BRANCH  94  95
ATOM     95  S   UNL A   1      52.314  26.058  31.652  1.00  0.00     0.124 S 
ATOM     96  O   UNL A   1      53.000  26.365  30.402  1.00  0.00    -0.237 OA
ATOM     97  O   UNL A   1      52.578  26.969  32.762  1.00  0.00    -0.237 OA
ATOM     98  O   UNL A   1      52.261  24.643  32.010  1.00  0.00    -0.744 OA
ENDBRANCH  94  95
ENDBRANCH  62  87
ENDBRANCH  36  37
ENDBRANCH  28  31
ENDBRANCH  26  27
ENDBRANCH   1  26
TORSDOF 16
ENDMDL
MODEL 2
REMARK VINA RESULT:     -11.7      3.122      6.528
REMARK SMILES Cc1cc(F)ccc1NC(=O)[C@H]1CC=CC[C@@H]1C(=O)NCCCCNC(=O)c1ccc(-c2c3nc(c(-c4c(F)cc(S(=O)(=O)[O-])cc4F)c4ccc([nH]4)c(-c4c(F)cc(S(=O)(=O)[O-])cc4F)c4nc(c(-c5c(F)cc(S(=O)(=O)[O-])cc5F)c5ccc2[nH]5)C=C4)C=C3)cc1
REMARK SMILES IDX 23 1 22 2 21 3 20 4 18 5 19 6 17 8 12 9 13 10 14 11 16 12
REMARK SMILES IDX 15 13 10 14 9 15 11 17 8 18 1 19 2 20 3 21 4 22 7 23 5 24
REMARK SMILES IDX 6 25 24 26 25 27 26 28 27 30 28 31 29 32 93 33 30 34 92 35
REMARK SMILES IDX 31 36 32 37 33 38 86 39 34 40 91 41 85 42 87 43 35 44 90 45
REMARK SMILES IDX 84 46 83 47 36 49 70 50 49 51 69 52 50 53 53 54 68 55 88 56
REMARK SMILES IDX 51 57 52 58 67 60 89 61 54 62 37 63 38 64 47 65 39 66 40 67
REMARK SMILES IDX 46 68 48 69 41 70 42 71 43 72 44 73 45 74 71 75 72 76 81 77
REMARK SMILES IDX 73 78 74 79 80 80 82 81 75 82 76 83 77 84 78 85 79 86 55 87
REMARK SMILES IDX 56 88 65 89 57 90 58 91 64 92 66 93 59 94 60 95 61 96 62 97
REMARK SMILES IDX 63 98
REMARK H PARENT 20 7 9 16 25 29 87 48 53 59
REMARK Flexibility Score: inf
ROOT
ATOM      1  C   UNL A   1      33.319  33.455  27.880  1.00  0.00     0.023 C 
ENDROOT
BRANCH   1   2
ATOM      2  C   UNL A   1      33.313  34.551  28.923  1.00  0.00     0.023 C 
BRANCH   2   3
ATOM      3  C   UNL A   1      34.043  34.424  30.287  1.00  0.00     0.116 C 
BRANCH   3   4
ATOM      4  N   UNL A   1      33.542  35.173  31.477  1.00  0.00    -0.356 N 
ATOM      5  C   UNL A   1      34.306  35.724  32.515  1.00  0.00     0.224 C 
ATOM      6  O   UNL A   1      34.317  36.951  32.644  1.00  0.00    -0.275 OA
ATOM      7  H   UNL A   1      32.567  35.293  31.540  1.00  0.00     0.163 HD
BRANCH   5   8
ATOM      8  C   UNL A   1      34.836  34.821  33.663  1.00  0.00     0.095 C 
ATOM      9  C   UNL A   1      36.314  34.588  34.016  1.00  0.00     0.095 C 
ATOM     10  C   UNL A   1      37.090  34.485  32.694  1.00  0.00     0.041 C 
ATOM     11  C   UNL A   1      36.562  33.273  31.997  1.00  0.00    -0.030 C 
ATOM     12  C   UNL A   1      34.416  33.454  33.375  1.00  0.00     0.041 C 
ATOM     13  C   UNL A   1      35.395  32.741  32.405  1.00  0.00    -0.030 C 
BRANCH   9  14
ATOM     14  C   UNL A   1      36.754  33.289  34.941  1.00  0.00     0.228 C 
ATOM     15  N   UNL A   1      37.594  32.185  34.860  1.00  0.00    -0.326 N 
ATOM     16  H   UNL A   1      37.628  31.853  35.785  1.00  0.00     0.169 HD
ATOM     17  O   UNL A   1      36.278  33.359  36.103  1.00  0.00    -0.274 OA
BRANCH  15  18
ATOM     18  C   UNL A   1      38.464  31.243  34.122  1.00  0.00     0.044 A 
ATOM     19  C   UNL A   1      40.508  32.840  34.409  1.00  0.00     0.047 C 
ATOM     20  C   UNL A   1      39.861  31.521  34.072  1.00  0.00    -0.025 A 
ATOM     21  C   UNL A   1      40.799  30.565  33.558  1.00  0.00     0.044 A 
ATOM     22  C   UNL A   1      40.400  29.351  33.041  1.00  0.00     0.123 A 
ATOM     23  C   UNL A   1      38.153  30.024  33.472  1.00  0.00     0.029 A 
ATOM     24  F   UNL A   1      41.290  28.467  32.578  1.00  0.00    -0.207 F 
ATOM     25  C   UNL A   1      39.068  29.088  32.959  1.00  0.00     0.041 A 
ENDBRANCH  15  18
ENDBRANCH   9  14
ENDBRANCH   5   8
ENDBRANCH   3   4
ENDBRANCH   2   3
ENDBRANCH   1   2
BRANCH   1  26
ATOM     26  C   UNL A   1      34.183  32.278  28.226  1.00  0.00     0.116 C 
BRANCH  26  27
ATOM     27  N   UNL A   1      33.648  30.973  27.857  1.00  0.00    -0.352 N 
ATOM     28  C   UNL A   1      34.354  29.780  27.849  1.00  0.00     0.251 C 
ATOM     29  H   UNL A   1      32.701  30.937  27.590  1.00  0.00     0.163 HD
ATOM     30  O   UNL A   1      33.853  28.742  27.477  1.00  0.00    -0.269 OA
BRANCH  28  31
ATOM     31  C   UNL A   1      35.779  29.860  28.246  1.00  0.00     0.039 A 
ATOM     32  C   UNL A   1      36.144  29.464  29.532  1.00  0.00     0.014 A 
ATOM     33  C   UNL A   1      36.744  30.096  27.266  1.00  0.00     0.014 A 
ATOM     34  C   UNL A   1      37.489  29.210  29.803  1.00  0.00     0.010 A 
ATOM     35  C   UNL A   1      38.050  29.699  27.497  1.00  0.00     0.010 A 
ATOM     36  C   UNL A   1      38.443  29.271  28.773  1.00  0.00    -0.014 A 
BRANCH  36  37
ATOM     37  C   UNL A   1      39.870  28.938  29.003  1.00  0.00     0.031 A 
ATOM     38  C   UNL A   1      40.781  29.992  29.574  1.00  0.00     0.074 A 
ATOM     39  C   UNL A   1      40.359  27.740  28.626  1.00  0.00     0.049 A 
ATOM     40  N   UNL A   1      42.073  29.956  29.759  1.00  0.00    -0.248 NA
ATOM     41  C   UNL A   1      40.160  31.278  29.942  1.00  0.00     0.031 C 
ATOM     42  C   UNL A   1      39.590  26.665  27.992  1.00  0.00     0.029 A 
ATOM     43  N   UNL A   1      41.628  27.226  28.716  1.00  0.00    -0.354 N 
ATOM     44  C   UNL A   1      42.419  31.216  30.232  1.00  0.00     0.074 A 
ATOM     45  C   UNL A   1      41.218  32.018  30.234  1.00  0.00     0.031 C 
ATOM     46  C   UNL A   1      40.394  25.608  27.785  1.00  0.00     0.029 A 
ATOM     47  C   UNL A   1      41.742  25.940  28.239  1.00  0.00     0.049 A 
ATOM     48  H   UNL A   1      42.387  27.729  29.089  1.00  0.00     0.167 HD
ATOM     49  C   UNL A   1      43.623  31.656  30.666  1.00  0.00     0.037 A 
ATOM     50  C   UNL A   1      42.813  25.125  28.179  1.00  0.00     0.037 A 
ATOM     51  C   UNL A   1      44.798  30.832  30.720  1.00  0.00     0.049 A 
ATOM     52  C   UNL A   1      44.131  25.620  28.711  1.00  0.00     0.074 A 
ATOM     53  C   UNL A   1      46.050  31.150  31.212  1.00  0.00     0.029 A 
ATOM     54  N   UNL A   1      44.860  29.519  30.276  1.00  0.00    -0.354 N 
ATOM     55  N   UNL A   1      44.427  26.793  29.219  1.00  0.00    -0.248 NA
ATOM     56  C   UNL A   1      45.260  24.679  28.671  1.00  0.00     0.031 C 
ATOM     57  C   UNL A   1      46.879  30.038  31.039  1.00  0.00     0.029 A 
ATOM     58  C   UNL A   1      46.131  29.015  30.474  1.00  0.00     0.049 A 
ATOM     59  H   UNL A   1      44.109  29.021  29.878  1.00  0.00     0.167 HD
ATOM     60  C   UNL A   1      45.767  26.724  29.582  1.00  0.00     0.074 A 
ATOM     61  C   UNL A   1      46.221  25.390  29.246  1.00  0.00     0.031 C 
ATOM     62  C   UNL A   1      46.552  27.676  30.143  1.00  0.00     0.037 A 
BRANCH  49  63
ATOM     63  C   UNL A   1      43.710  33.081  31.137  1.00  0.00     0.058 A 
ATOM     64  C   UNL A   1      43.840  34.148  30.234  1.00  0.00     0.135 A 
ATOM     65  C   UNL A   1      43.662  33.384  32.507  1.00  0.00     0.135 A 
ATOM     66  F   UNL A   1      43.916  33.913  28.914  1.00  0.00    -0.206 F 
ATOM     67  C   UNL A   1      43.954  35.463  30.672  1.00  0.00     0.059 A 
ATOM     68  C   UNL A   1      43.743  34.695  32.967  1.00  0.00     0.059 A 
ATOM     69  F   UNL A   1      43.544  32.401  33.414  1.00  0.00    -0.206 F 
ATOM     70  C   UNL A   1      43.906  35.726  32.041  1.00  0.00     0.060 A 
BRANCH  70  71
ATOM     71  S   UNL A   1      44.055  37.437  32.595  1.00  0.00     0.124 S 
ATOM     72  O   UNL A   1      43.778  38.166  31.361  1.00  0.00    -0.237 OA
ATOM     73  O   UNL A   1      43.027  37.524  33.626  1.00  0.00    -0.237 OA
ATOM     74  O   UNL A   1      45.431  37.519  33.077  1.00  0.00    -0.744 OA
ENDBRANCH  70  71
ENDBRANCH  49  63
BRANCH  50  75
ATOM     75  C   UNL A   1      42.674  23.747  27.637  1.00  0.00     0.058 A 
ATOM     76  C   UNL A   1      42.414  22.662  28.488  1.00  0.00     0.135 A 
ATOM     77  C   UNL A   1      42.784  23.485  26.263  1.00  0.00     0.135 A 
ATOM     78  F   UNL A   1      42.304  22.860  29.811  1.00  0.00    -0.206 F 
ATOM     79  C   UNL A   1      42.286  21.365  28.002  1.00  0.00     0.059 A 
ATOM     80  C   UNL A   1      42.637  22.200  25.749  1.00  0.00     0.059 A 
ATOM     81  F   UNL A   1      43.014  24.489  25.404  1.00  0.00    -0.206 F 
ATOM     82  C   UNL A   1      42.397  21.143  26.629  1.00  0.00     0.060 A 
BRANCH  82  83
ATOM     83  S   UNL A   1      42.180  19.464  26.001  1.00  0.00     0.124 S 
ATOM     84  O   UNL A   1      40.745  19.426  25.751  1.00  0.00    -0.237 OA
ATOM     85  O   UNL A   1      43.035  19.466  24.817  1.00  0.00    -0.237 OA
ATOM     86  O   UNL A   1      42.653  18.631  27.104  1.00  0.00    -0.744 OA
ENDBRANCH  82  83
ENDBRANCH  50  75
BRANCH  62  87
ATOM     87  C   UNL A   1      47.972  27.303  30.459  1.00  0.00     0.058 A 
ATOM     88  C   UNL A   1      48.316  26.694  31.675  1.00  0.00     0.135 A 
ATOM     89  C   UNL A   1      48.983  27.496  29.506  1.00  0.00     0.135 A 
ATOM     90  F   UNL A   1      47.384  26.494  32.619  1.00  0.00    -0.206 F 
ATOM     91  C   UNL A   1      49.624  26.305  31.943  1.00  0.00     0.059 A 
ATOM     92  C   UNL A   1      50.293  27.091  29.742  1.00  0.00     0.059 A 
ATOM     93  F   UNL A   1      48.700  28.062  28.322  1.00  0.00    -0.206 F 
ATOM     94  C   UNL A   1      50.605  26.505  30.968  1.00  0.00     0.060 A 
BRANCH  94  95
ATOM     95  S   UNL A   1      52.290  25.955  31.311  1.00  0.00     0.124 S 
ATOM     96  O   UNL A   1      52.875  25.954  29.975  1.00  0.00    -0.237 OA
ATOM     97  O   UNL A   1      52.778  26.991  32.217  1.00  0.00    -0.237 OA
ATOM     98  O   UNL A   1      52.100  24.640  31.916  1.00  0.00    -0.744 OA
ENDBRANCH  94  95
ENDBRANCH  62  87
ENDBRANCH  36  37
ENDBRANCH  28  31
ENDBRANCH  26  27
ENDBRANCH   1  26
TORSDOF 16
ENDMDL
MODEL 3
REMARK VINA RESULT:     -11.7      1.483      2.264
REMARK SMILES Cc1cc(F)ccc1NC(=O)[C@H]1CC=CC[C@@H]1C(=O)NCCCCNC(=O)c1ccc(-c2c3nc(c(-c4c(F)cc(S(=O)(=O)[O-])cc4F)c4ccc([nH]4)c(-c4c(F)cc(S(=O)(=O)[O-])cc4F)c4nc(c(-c5c(F)cc(S(=O)(=O)[O-])cc5F)c5ccc2[nH]5)C=C4)C=C3)cc1
REMARK SMILES IDX 23 1 22 2 21 3 20 4 18 5 19 6 17 8 12 9 13 10 14 11 16 12
REMARK SMILES IDX 15 13 10 14 9 15 11 17 8 18 1 19 2 20 3 21 4 22 7 23 5 24
REMARK SMILES IDX 6 25 24 26 25 27 26 28 27 30 28 31 29 32 93 33 30 34 92 35
REMARK SMILES IDX 31 36 32 37 33 38 86 39 34 40 91 41 85 42 87 43 35 44 90 45
REMARK SMILES IDX 84 46 83 47 36 49 70 50 49 51 69 52 50 53 53 54 68 55 88 56
REMARK SMILES IDX 51 57 52 58 67 60 89 61 54 62 37 63 38 64 47 65 39 66 40 67
REMARK SMILES IDX 46 68 48 69 41 70 42 71 43 72 44 73 45 74 71 75 72 76 81 77
REMARK SMILES IDX 73 78 74 79 80 80 82 81 75 82 76 83 77 84 78 85 79 86 55 87
REMARK SMILES IDX 56 88 65 89 57 90 58 91 64 92 66 93 59 94 60 95 61 96 62 97
REMARK SMILES IDX 63 98
REMARK H PARENT 20 7 9 16 25 29 87 48 53 59
REMARK Flexibility Score: inf
ROOT
ATOM      1  C   UNL A   1      33.658  28.524  25.753  1.00  0.00     0.023 C 
ENDROOT
BRANCH   1   2
ATOM      2  C   UNL A   1      32.328  28.244  25.090  1.00  0.00     0.023 C 
BRANCH   2   3
ATOM      3  C   UNL A   1      32.169  27.274  23.889  1.00  0.00     0.116 C 
BRANCH   3   4
ATOM      4  N   UNL A   1      33.323  26.439  23.443  1.00  0.00    -0.356 N 
ATOM      5  C   UNL A   1      33.283  25.120  22.971  1.00  0.00     0.224 C 
ATOM      6  O   UNL A   1      33.602  24.910  21.798  1.00  0.00    -0.275 OA
ATOM      7  H   UNL A   1      34.211  26.862  23.485  1.00  0.00     0.163 HD
BRANCH   5   8
ATOM      8  C   UNL A   1      33.177  23.933  23.968  1.00  0.00     0.095 C 
ATOM      9  C   UNL A   1      33.524  23.981  25.465  1.00  0.00     0.095 C 
ATOM     10  C   UNL A   1      34.781  24.852  25.617  1.00  0.00     0.041 C 
ATOM     11  C   UNL A   1      35.872  24.134  24.892  1.00  0.00    -0.030 C 
ATOM     12  C   UNL A   1      34.104  22.900  23.517  1.00  0.00     0.041 C 
ATOM     13  C   UNL A   1      35.548  23.157  24.025  1.00  0.00    -0.030 C 
BRANCH   9  14
ATOM     14  C   UNL A   1      33.797  22.581  26.301  1.00  0.00     0.228 C 
ATOM     15  N   UNL A   1      33.885  21.216  26.055  1.00  0.00    -0.326 N 
ATOM     16  H   UNL A   1      34.279  20.857  26.882  1.00  0.00     0.169 HD
ATOM     17  O   UNL A   1      34.127  22.805  27.494  1.00  0.00    -0.274 OA
BRANCH  15  18
ATOM     18  C   UNL A   1      33.701  20.016  25.210  1.00  0.00     0.044 A 
ATOM     19  C   UNL A   1      36.283  19.773  24.920  1.00  0.00     0.047 C 
ATOM     20  C   UNL A   1      34.861  19.280  24.831  1.00  0.00    -0.025 A 
ATOM     21  C   UNL A   1      34.764  18.001  24.189  1.00  0.00     0.044 A 
ATOM     22  C   UNL A   1      33.549  17.436  23.861  1.00  0.00     0.123 A 
ATOM     23  C   UNL A   1      32.518  19.402  24.734  1.00  0.00     0.029 A 
ATOM     24  F   UNL A   1      33.476  16.237  23.275  1.00  0.00    -0.207 F 
ATOM     25  C   UNL A   1      32.417  18.152  24.097  1.00  0.00     0.041 A 
ENDBRANCH  15  18
ENDBRANCH   9  14
ENDBRANCH   5   8
ENDBRANCH   3   4
ENDBRANCH   2   3
ENDBRANCH   1   2
BRANCH   1  26
ATOM     26  C   UNL A   1      33.589  28.651  27.246  1.00  0.00     0.116 C 
BRANCH  26  27
ATOM     27  N   UNL A   1      33.559  30.014  27.763  1.00  0.00    -0.352 N 
ATOM     28  C   UNL A   1      34.636  30.700  28.303  1.00  0.00     0.251 C 
ATOM     29  H   UNL A   1      32.698  30.489  27.724  1.00  0.00     0.163 HD
ATOM     30  O   UNL A   1      34.520  31.815  28.763  1.00  0.00    -0.269 OA
BRANCH  28  31
ATOM     31  C   UNL A   1      35.921  29.964  28.359  1.00  0.00     0.039 A 
ATOM     32  C   UNL A   1      36.803  30.065  27.285  1.00  0.00     0.014 A 
ATOM     33  C   UNL A   1      36.322  29.390  29.566  1.00  0.00     0.014 A 
ATOM     34  C   UNL A   1      38.130  29.670  27.461  1.00  0.00     0.010 A 
ATOM     35  C   UNL A   1      37.667  29.143  29.781  1.00  0.00     0.010 A 
ATOM     36  C   UNL A   1      38.584  29.261  28.727  1.00  0.00    -0.014 A 
BRANCH  36  37
ATOM     37  C   UNL A   1      40.001  28.903  28.975  1.00  0.00     0.031 A 
ATOM     38  C   UNL A   1      40.922  29.939  29.562  1.00  0.00     0.074 A 
ATOM     39  C   UNL A   1      40.475  27.697  28.601  1.00  0.00     0.049 A 
ATOM     40  N   UNL A   1      42.212  29.880  29.764  1.00  0.00    -0.248 NA
ATOM     41  C   UNL A   1      40.319  31.234  29.926  1.00  0.00     0.031 C 
ATOM     42  C   UNL A   1      39.696  26.638  27.953  1.00  0.00     0.029 A 
ATOM     43  N   UNL A   1      41.733  27.161  28.707  1.00  0.00    -0.354 N 
ATOM     44  C   UNL A   1      42.572  31.132  30.246  1.00  0.00     0.074 A 
ATOM     45  C   UNL A   1      41.386  31.955  30.234  1.00  0.00     0.031 C 
ATOM     46  C   UNL A   1      40.485  25.568  27.754  1.00  0.00     0.029 A 
ATOM     47  C   UNL A   1      41.831  25.875  28.227  1.00  0.00     0.049 A 
ATOM     48  H   UNL A   1      42.496  27.650  29.092  1.00  0.00     0.167 HD
ATOM     49  C   UNL A   1      43.777  31.551  30.698  1.00  0.00     0.037 A 
ATOM     50  C   UNL A   1      42.889  25.042  28.179  1.00  0.00     0.037 A 
ATOM     51  C   UNL A   1      44.938  30.706  30.765  1.00  0.00     0.049 A 
ATOM     52  C   UNL A   1      44.208  25.512  28.730  1.00  0.00     0.074 A 
ATOM     53  C   UNL A   1      46.188  31.001  31.275  1.00  0.00     0.029 A 
ATOM     54  N   UNL A   1      44.983  29.394  30.317  1.00  0.00    -0.354 N 
ATOM     55  N   UNL A   1      44.517  26.678  29.246  1.00  0.00    -0.248 NA
ATOM     56  C   UNL A   1      45.321  24.552  28.702  1.00  0.00     0.031 C 
ATOM     57  C   UNL A   1      47.000  29.874  31.109  1.00  0.00     0.029 A 
ATOM     58  C   UNL A   1      46.242  28.866  30.531  1.00  0.00     0.049 A 
ATOM     59  H   UNL A   1      44.229  28.910  29.908  1.00  0.00     0.167 HD
ATOM     60  C   UNL A   1      45.850  26.585  29.627  1.00  0.00     0.074 A 
ATOM     61  C   UNL A   1      46.286  25.244  29.293  1.00  0.00     0.031 C 
ATOM     62  C   UNL A   1      46.645  27.522  30.201  1.00  0.00     0.037 A 
BRANCH  49  63
ATOM     63  C   UNL A   1      43.883  32.972  31.175  1.00  0.00     0.058 A 
ATOM     64  C   UNL A   1      43.597  33.324  32.504  1.00  0.00     0.135 A 
ATOM     65  C   UNL A   1      44.276  33.993  30.297  1.00  0.00     0.135 A 
ATOM     66  F   UNL A   1      43.193  32.391  33.380  1.00  0.00    -0.206 F 
ATOM     67  C   UNL A   1      43.662  34.644  32.937  1.00  0.00     0.059 A 
ATOM     68  C   UNL A   1      44.378  35.317  30.716  1.00  0.00     0.059 A 
ATOM     69  F   UNL A   1      44.555  33.712  29.014  1.00  0.00    -0.206 F 
ATOM     70  C   UNL A   1      44.053  35.634  32.034  1.00  0.00     0.060 A 
BRANCH  70  71
ATOM     71  S   UNL A   1      44.133  37.342  32.612  1.00  0.00     0.124 S 
ATOM     72  O   UNL A   1      45.501  37.412  33.117  1.00  0.00    -0.237 OA
ATOM     73  O   UNL A   1      43.869  38.097  31.392  1.00  0.00    -0.237 OA
ATOM     74  O   UNL A   1      43.085  37.407  33.626  1.00  0.00    -0.744 OA
ENDBRANCH  70  71
ENDBRANCH  49  63
BRANCH  50  75
ATOM     75  C   UNL A   1      42.733  23.668  27.630  1.00  0.00     0.058 A 
ATOM     76  C   UNL A   1      42.472  22.580  28.479  1.00  0.00     0.135 A 
ATOM     77  C   UNL A   1      42.829  23.412  26.255  1.00  0.00     0.135 A 
ATOM     78  F   UNL A   1      42.375  22.772  29.803  1.00  0.00    -0.206 F 
ATOM     79  C   UNL A   1      42.328  21.287  27.986  1.00  0.00     0.059 A 
ATOM     80  C   UNL A   1      42.667  22.131  25.734  1.00  0.00     0.059 A 
ATOM     81  F   UNL A   1      43.060  24.420  25.399  1.00  0.00    -0.206 F 
ATOM     82  C   UNL A   1      42.426  21.072  26.611  1.00  0.00     0.060 A 
BRANCH  82  83
ATOM     83  S   UNL A   1      42.189  19.398  25.975  1.00  0.00     0.124 S 
ATOM     84  O   UNL A   1      42.686  18.591  27.083  1.00  0.00    -0.237 OA
ATOM     85  O   UNL A   1      40.748  19.356  25.750  1.00  0.00    -0.237 OA
ATOM     86  O   UNL A   1      43.006  19.382  24.765  1.00  0.00    -0.744 OA
ENDBRANCH  82  83
ENDBRANCH  50  75
BRANCH  62  87
ATOM     87  C   UNL A   1      48.053  27.123  30.536  1.00  0.00     0.058 A 
ATOM     88  C   UNL A   1      49.129  27.457  29.701  1.00  0.00     0.135 A 
ATOM     89  C   UNL A   1      48.332  26.459  31.741  1.00  0.00     0.135 A 
ATOM     90  F   UNL A   1      48.910  28.087  28.536  1.00  0.00    -0.206 F 
ATOM     91  C   UNL A   1      50.436  27.129  30.040  1.00  0.00     0.059 A 
ATOM     92  C   UNL A   1      49.635  26.144  32.113  1.00  0.00     0.059 A 
ATOM     93  F   UNL A   1      47.337  26.130  32.580  1.00  0.00    -0.206 F 
ATOM     94  C   UNL A   1      50.679  26.475  31.251  1.00  0.00     0.060 A 
BRANCH  94  95
ATOM     95  S   UNL A   1      52.385  26.093  31.700  1.00  0.00     0.124 S 
ATOM     96  O   UNL A   1      52.736  27.246  32.523  1.00  0.00    -0.237 OA
ATOM     97  O   UNL A   1      52.246  24.826  32.411  1.00  0.00    -0.237 OA
ATOM     98  O   UNL A   1      53.065  26.010  30.410  1.00  0.00    -0.744 OA
ENDBRANCH  94  95
ENDBRANCH  62  87
ENDBRANCH  36  37
ENDBRANCH  28  31
ENDBRANCH  26  27
ENDBRANCH   1  26
TORSDOF 16
ENDMDL
