MODEL 1
REMARK VINA RESULT:     -10.8      0.000      0.000
REMARK SMILES CCCc1nnc(SCC(=O)NCCCCNC(=O)c2ccc(-c3c4nc(c(-c5c(F)cc(S(=O)(=O)[O-])cc5F)c5ccc([nH]5)c(-c5c(F)cc(S(=O)(=O)[O-])cc5F)c5nc(c(-c6c(F)cc(S(=O)(=O)[O-])cc6F)c6ccc3[nH]6)C=C5)C=C4)cc2)n1C[C@H]1CCCO1
REMARK SMILES IDX 14 1 13 2 12 3 10 4 11 5 9 7 8 8 7 9 4 10 5 11 86 12 6 13
REMARK SMILES IDX 3 14 2 15 1 16 87 17 88 18 89 19 92 20 90 21 91 22 15 23
REMARK SMILES IDX 16 24 17 25 18 26 19 28 20 29 21 30 85 31 22 32 84 33 23 34
REMARK SMILES IDX 24 35 25 36 78 37 26 38 83 39 77 40 79 41 27 42 82 43 76 44
REMARK SMILES IDX 75 45 28 47 62 48 41 49 61 50 42 51 45 52 60 53 80 54 43 55
REMARK SMILES IDX 44 56 59 58 81 59 46 60 29 61 30 62 39 63 31 64 32 65 38 66
REMARK SMILES IDX 40 67 33 68 34 69 35 70 36 71 37 72 63 73 64 74 73 75 65 76
REMARK SMILES IDX 66 77 72 78 74 79 67 80 68 81 69 82 70 83 71 84 47 85 48 86
REMARK SMILES IDX 57 87 49 88 50 89 56 90 58 91 51 92 52 93 53 94 54 95 55 96
REMARK H PARENT 12 6 17 27 79 46 45 57
REMARK Flexibility Score: inf
ROOT
ATOM      1  C   UNL A   1      40.318  21.675  26.780  1.00  0.00     0.023 C 
ENDROOT
BRANCH   1   2
ATOM      2  C   UNL A   1      39.067  22.254  26.130  1.00  0.00     0.116 C 
BRANCH   2   3
ATOM      3  N   UNL A   1      38.222  21.227  25.575  1.00  0.00    -0.355 N 
ATOM      4  C   UNL A   1      36.941  21.363  25.153  1.00  0.00     0.230 C 
ATOM      5  O   UNL A   1      36.334  20.338  24.841  1.00  0.00    -0.274 OA
ATOM      6  H   UNL A   1      38.619  20.329  25.495  1.00  0.00     0.163 HD
BRANCH   4   7
ATOM      7  C   UNL A   1      36.349  22.745  24.977  1.00  0.00     0.178 C 
BRANCH   7   8
ATOM      8  S   UNL A   1      35.347  23.017  23.535  1.00  0.00    -0.076 SA
BRANCH   8   9
ATOM      9  C   UNL A   1      34.311  24.386  23.711  1.00  0.00     0.191 A 
ATOM     10  C   UNL A   1      33.438  26.263  24.396  1.00  0.00     0.133 A 
ATOM     11  N   UNL A   1      33.466  26.289  23.079  1.00  0.00    -0.134 NA
ATOM     12  N   UNL A   1      33.737  24.972  24.813  1.00  0.00    -0.303 N 
ATOM     13  N   UNL A   1      34.024  25.118  22.654  1.00  0.00    -0.123 NA
BRANCH  10  14
ATOM     14  C   UNL A   1      33.369  27.493  25.244  1.00  0.00     0.077 C 
BRANCH  14  15
ATOM     15  C   UNL A   1      31.980  27.922  25.708  1.00  0.00     0.005 C 
ATOM     16  C   UNL A   1      31.851  28.067  27.215  1.00  0.00     0.004 C 
ENDBRANCH  14  15
ENDBRANCH  10  14
BRANCH  12  17
ATOM     17  C   UNL A   1      33.537  24.468  26.148  1.00  0.00     0.158 C 
BRANCH  17  18
ATOM     18  C   UNL A   1      32.193  23.768  26.442  1.00  0.00     0.138 C 
ATOM     19  C   UNL A   1      31.060  23.849  25.429  1.00  0.00     0.036 C 
ATOM     20  O   UNL A   1      32.453  22.356  26.567  1.00  0.00    -0.376 OA
ATOM     21  C   UNL A   1      31.221  22.632  24.541  1.00  0.00     0.031 C 
ATOM     22  C   UNL A   1      32.070  21.683  25.358  1.00  0.00     0.160 C 
ENDBRANCH  17  18
ENDBRANCH  12  17
ENDBRANCH   8   9
ENDBRANCH   7   8
ENDBRANCH   4   7
ENDBRANCH   2   3
ENDBRANCH   1   2
BRANCH   1  23
ATOM     23  C   UNL A   1      40.743  20.283  26.301  1.00  0.00     0.023 C 
BRANCH  23  24
ATOM     24  C   UNL A   1      42.049  19.772  26.890  1.00  0.00     0.116 C 
BRANCH  24  25
ATOM     25  N   UNL A   1      43.062  19.544  25.866  1.00  0.00    -0.352 N 
ATOM     26  C   UNL A   1      43.785  20.470  25.147  1.00  0.00     0.251 C 
ATOM     27  H   UNL A   1      43.256  18.601  25.661  1.00  0.00     0.163 HD
ATOM     28  O   UNL A   1      44.403  20.135  24.140  1.00  0.00    -0.269 OA
BRANCH  26  29
ATOM     29  C   UNL A   1      43.796  21.867  25.601  1.00  0.00     0.039 A 
ATOM     30  C   UNL A   1      43.069  22.845  24.924  1.00  0.00     0.014 A 
ATOM     31  C   UNL A   1      44.498  22.180  26.763  1.00  0.00     0.014 A 
ATOM     32  C   UNL A   1      42.985  24.118  25.480  1.00  0.00     0.010 A 
ATOM     33  C   UNL A   1      44.315  23.393  27.375  1.00  0.00     0.010 A 
ATOM     34  C   UNL A   1      43.591  24.380  26.719  1.00  0.00    -0.014 A 
BRANCH  34  35
ATOM     35  C   UNL A   1      43.378  25.655  27.392  1.00  0.00     0.031 A 
ATOM     36  C   UNL A   1      44.366  26.719  27.062  1.00  0.00     0.074 A 
ATOM     37  C   UNL A   1      42.256  25.944  28.084  1.00  0.00     0.049 A 
ATOM     38  N   UNL A   1      45.252  27.243  27.843  1.00  0.00    -0.248 NA
ATOM     39  C   UNL A   1      44.465  27.174  25.665  1.00  0.00     0.031 C 
ATOM     40  C   UNL A   1      41.034  25.145  28.227  1.00  0.00     0.029 A 
ATOM     41  N   UNL A   1      41.933  27.099  28.722  1.00  0.00    -0.354 N 
ATOM     42  C   UNL A   1      45.882  28.240  27.104  1.00  0.00     0.074 A 
ATOM     43  C   UNL A   1      45.482  28.036  25.735  1.00  0.00     0.031 C 
ATOM     44  C   UNL A   1      40.036  25.928  28.693  1.00  0.00     0.029 A 
ATOM     45  C   UNL A   1      40.589  27.222  29.043  1.00  0.00     0.049 A 
ATOM     46  H   UNL A   1      42.599  27.791  28.940  1.00  0.00     0.167 HD
ATOM     47  C   UNL A   1      46.517  29.286  27.708  1.00  0.00     0.037 A 
ATOM     48  C   UNL A   1      39.972  28.330  29.524  1.00  0.00     0.037 A 
ATOM     49  C   UNL A   1      46.705  29.041  29.115  1.00  0.00     0.049 A 
ATOM     50  C   UNL A   1      41.028  29.184  30.128  1.00  0.00     0.074 A 
ATOM     51  C   UNL A   1      47.357  28.070  29.852  1.00  0.00     0.029 A 
ATOM     52  N   UNL A   1      45.842  29.654  29.992  1.00  0.00    -0.354 N 
ATOM     53  N   UNL A   1      41.717  28.852  31.186  1.00  0.00    -0.248 NA
ATOM     54  C   UNL A   1      41.634  30.213  29.294  1.00  0.00     0.031 C 
ATOM     55  C   UNL A   1      46.505  27.821  30.968  1.00  0.00     0.029 A 
ATOM     56  C   UNL A   1      45.422  28.699  30.883  1.00  0.00     0.049 A 
ATOM     57  H   UNL A   1      45.575  30.602  29.982  1.00  0.00     0.167 HD
ATOM     58  C   UNL A   1      43.007  29.289  30.924  1.00  0.00     0.074 A 
ATOM     59  C   UNL A   1      42.872  30.208  29.795  1.00  0.00     0.031 C 
ATOM     60  C   UNL A   1      44.095  28.656  31.459  1.00  0.00     0.037 A 
BRANCH  47  61
ATOM     61  C   UNL A   1      46.668  30.664  27.113  1.00  0.00     0.058 A 
ATOM     62  C   UNL A   1      47.935  31.288  27.115  1.00  0.00     0.135 A 
ATOM     63  C   UNL A   1      45.578  31.501  26.793  1.00  0.00     0.135 A 
ATOM     64  F   UNL A   1      49.041  30.589  27.419  1.00  0.00    -0.206 F 
ATOM     65  C   UNL A   1      48.095  32.654  26.877  1.00  0.00     0.059 A 
ATOM     66  C   UNL A   1      45.722  32.853  26.499  1.00  0.00     0.059 A 
ATOM     67  F   UNL A   1      44.312  31.070  26.848  1.00  0.00    -0.206 F 
ATOM     68  C   UNL A   1      46.979  33.430  26.585  1.00  0.00     0.060 A 
BRANCH  68  69
ATOM     69  S   UNL A   1      47.168  35.211  26.380  1.00  0.00     0.124 S 
ATOM     70  O   UNL A   1      48.178  35.275  25.330  1.00  0.00    -0.237 OA
ATOM     71  O   UNL A   1      45.820  35.617  25.997  1.00  0.00    -0.237 OA
ATOM     72  O   UNL A   1      47.599  35.656  27.701  1.00  0.00    -0.744 OA
ENDBRANCH  68  69
ENDBRANCH  47  61
BRANCH  48  73
ATOM     73  C   UNL A   1      38.617  28.837  29.181  1.00  0.00     0.058 A 
ATOM     74  C   UNL A   1      37.681  29.119  30.191  1.00  0.00     0.135 A 
ATOM     75  C   UNL A   1      38.318  29.336  27.896  1.00  0.00     0.135 A 
ATOM     76  F   UNL A   1      37.890  28.687  31.443  1.00  0.00    -0.206 F 
ATOM     77  C   UNL A   1      36.553  29.912  29.959  1.00  0.00     0.059 A 
ATOM     78  C   UNL A   1      37.193  30.119  27.640  1.00  0.00     0.059 A 
ATOM     79  F   UNL A   1      39.159  29.163  26.867  1.00  0.00    -0.206 F 
ATOM     80  C   UNL A   1      36.333  30.433  28.684  1.00  0.00     0.060 A 
BRANCH  80  81
ATOM     81  S   UNL A   1      35.008  31.636  28.432  1.00  0.00     0.124 S 
ATOM     82  O   UNL A   1      34.006  30.838  27.734  1.00  0.00    -0.237 OA
ATOM     83  O   UNL A   1      34.679  32.023  29.799  1.00  0.00    -0.237 OA
ATOM     84  O   UNL A   1      35.646  32.677  27.630  1.00  0.00    -0.744 OA
ENDBRANCH  80  81
ENDBRANCH  48  73
BRANCH  60  85
ATOM     85  C   UNL A   1      43.870  27.674  32.582  1.00  0.00     0.058 A 
ATOM     86  C   UNL A   1      43.763  26.280  32.421  1.00  0.00     0.135 A 
ATOM     87  C   UNL A   1      43.891  28.160  33.898  1.00  0.00     0.135 A 
ATOM     88  F   UNL A   1      43.849  25.715  31.209  1.00  0.00    -0.206 F 
ATOM     89  C   UNL A   1      43.623  25.420  33.512  1.00  0.00     0.059 A 
ATOM     90  C   UNL A   1      43.789  27.319  35.002  1.00  0.00     0.059 A 
ATOM     91  F   UNL A   1      44.057  29.474  34.126  1.00  0.00    -0.206 F 
ATOM     92  C   UNL A   1      43.634  25.950  34.801  1.00  0.00     0.060 A 
BRANCH  92  93
ATOM     93  S   UNL A   1      43.498  24.833  36.213  1.00  0.00     0.124 S 
ATOM     94  O   UNL A   1      43.380  23.532  35.563  1.00  0.00    -0.237 OA
ATOM     95  O   UNL A   1      44.748  25.071  36.930  1.00  0.00    -0.237 OA
ATOM     96  O   UNL A   1      42.297  25.298  36.902  1.00  0.00    -0.744 OA
ENDBRANCH  92  93
ENDBRANCH  60  85
ENDBRANCH  34  35
ENDBRANCH  26  29
ENDBRANCH  24  25
ENDBRANCH  23  24
ENDBRANCH   1  23
TORSDOF 20
ENDMDL
MODEL 2
REMARK VINA RESULT:     -10.6      2.303      3.274
REMARK SMILES CCCc1nnc(SCC(=O)NCCCCNC(=O)c2ccc(-c3c4nc(c(-c5c(F)cc(S(=O)(=O)[O-])cc5F)c5ccc([nH]5)c(-c5c(F)cc(S(=O)(=O)[O-])cc5F)c5nc(c(-c6c(F)cc(S(=O)(=O)[O-])cc6F)c6ccc3[nH]6)C=C5)C=C4)cc2)n1C[C@H]1CCCO1
REMARK SMILES IDX 14 1 13 2 12 3 10 4 11 5 9 7 8 8 7 9 4 10 5 11 86 12 6 13
REMARK SMILES IDX 3 14 2 15 1 16 87 17 88 18 89 19 92 20 90 21 91 22 15 23
REMARK SMILES IDX 16 24 17 25 18 26 19 28 20 29 21 30 85 31 22 32 84 33 23 34
REMARK SMILES IDX 24 35 25 36 78 37 26 38 83 39 77 40 79 41 27 42 82 43 76 44
REMARK SMILES IDX 75 45 28 47 62 48 41 49 61 50 42 51 45 52 60 53 80 54 43 55
REMARK SMILES IDX 44 56 59 58 81 59 46 60 29 61 30 62 39 63 31 64 32 65 38 66
REMARK SMILES IDX 40 67 33 68 34 69 35 70 36 71 37 72 63 73 64 74 73 75 65 76
REMARK SMILES IDX 66 77 72 78 74 79 67 80 68 81 69 82 70 83 71 84 47 85 48 86
REMARK SMILES IDX 57 87 49 88 50 89 56 90 58 91 51 92 52 93 53 94 54 95 55 96
REMARK H PARENT 12 6 17 27 79 46 45 57
REMARK Flexibility Score: inf
ROOT
ATOM      1  C   UNL A   1      38.227  23.761  26.143  1.00  0.00     0.023 C 
ENDROOT
BRANCH   1   2
ATOM      2  C   UNL A   1      36.743  23.820  25.802  1.00  0.00     0.116 C 
BRANCH   2   3
ATOM      3  N   UNL A   1      36.085  22.560  26.037  1.00  0.00    -0.355 N 
ATOM      4  C   UNL A   1      34.758  22.300  25.935  1.00  0.00     0.230 C 
ATOM      5  O   UNL A   1      34.364  21.196  26.314  1.00  0.00    -0.274 OA
ATOM      6  H   UNL A   1      36.661  21.806  26.301  1.00  0.00     0.163 HD
BRANCH   4   7
ATOM      7  C   UNL A   1      33.842  23.307  25.272  1.00  0.00     0.178 C 
BRANCH   7   8
ATOM      8  S   UNL A   1      33.174  24.591  26.303  1.00  0.00    -0.076 SA
BRANCH   8   9
ATOM      9  C   UNL A   1      32.002  25.547  25.473  1.00  0.00     0.191 A 
ATOM     10  C   UNL A   1      30.910  26.621  23.920  1.00  0.00     0.133 A 
ATOM     11  N   UNL A   1      30.039  25.913  24.608  1.00  0.00    -0.134 NA
ATOM     12  N   UNL A   1      32.123  26.601  24.599  1.00  0.00    -0.303 N 
ATOM     13  N   UNL A   1      30.726  25.234  25.572  1.00  0.00    -0.123 NA
BRANCH  10  14
ATOM     14  C   UNL A   1      30.667  27.102  22.525  1.00  0.00     0.077 C 
BRANCH  14  15
ATOM     15  C   UNL A   1      30.289  28.572  22.368  1.00  0.00     0.005 C 
ATOM     16  C   UNL A   1      28.852  28.883  22.751  1.00  0.00     0.004 C 
ENDBRANCH  14  15
ENDBRANCH  10  14
BRANCH  12  17
ATOM     17  C   UNL A   1      33.237  27.473  24.327  1.00  0.00     0.158 C 
BRANCH  17  18
ATOM     18  C   UNL A   1      33.251  28.841  25.041  1.00  0.00     0.138 C 
ATOM     19  C   UNL A   1      31.972  29.385  25.660  1.00  0.00     0.036 C 
ATOM     20  O   UNL A   1      34.166  28.747  26.152  1.00  0.00    -0.376 OA
ATOM     21  C   UNL A   1      31.981  28.909  27.098  1.00  0.00     0.031 C 
ATOM     22  C   UNL A   1      33.431  28.577  27.373  1.00  0.00     0.160 C 
ENDBRANCH  17  18
ENDBRANCH  12  17
ENDBRANCH   8   9
ENDBRANCH   7   8
ENDBRANCH   4   7
ENDBRANCH   2   3
ENDBRANCH   1   2
BRANCH   1  23
ATOM     23  C   UNL A   1      38.863  22.367  26.143  1.00  0.00     0.023 C 
BRANCH  23  24
ATOM     24  C   UNL A   1      40.128  22.238  26.977  1.00  0.00     0.116 C 
BRANCH  24  25
ATOM     25  N   UNL A   1      41.305  21.973  26.155  1.00  0.00    -0.352 N 
ATOM     26  C   UNL A   1      42.229  22.866  25.661  1.00  0.00     0.251 C 
ATOM     27  H   UNL A   1      41.458  21.030  25.923  1.00  0.00     0.163 HD
ATOM     28  O   UNL A   1      43.008  22.530  24.771  1.00  0.00    -0.269 OA
BRANCH  26  29
ATOM     29  C   UNL A   1      42.264  24.228  26.211  1.00  0.00     0.039 A 
ATOM     30  C   UNL A   1      41.547  25.260  25.608  1.00  0.00     0.014 A 
ATOM     31  C   UNL A   1      42.977  24.450  27.386  1.00  0.00     0.014 A 
ATOM     32  C   UNL A   1      41.484  26.493  26.251  1.00  0.00     0.010 A 
ATOM     33  C   UNL A   1      42.815  25.620  28.082  1.00  0.00     0.010 A 
ATOM     34  C   UNL A   1      42.102  26.660  27.501  1.00  0.00    -0.014 A 
BRANCH  34  35
ATOM     35  C   UNL A   1      41.911  27.887  28.261  1.00  0.00     0.031 A 
ATOM     36  C   UNL A   1      42.954  28.931  28.055  1.00  0.00     0.074 A 
ATOM     37  C   UNL A   1      40.773  28.172  28.929  1.00  0.00     0.049 A 
ATOM     38  N   UNL A   1      43.826  29.355  28.909  1.00  0.00    -0.248 NA
ATOM     39  C   UNL A   1      43.131  29.485  26.703  1.00  0.00     0.031 C 
ATOM     40  C   UNL A   1      39.515  27.417  28.961  1.00  0.00     0.029 A 
ATOM     41  N   UNL A   1      40.469  29.288  29.642  1.00  0.00    -0.354 N 
ATOM     42  C   UNL A   1      44.526  30.377  28.275  1.00  0.00     0.074 A 
ATOM     43  C   UNL A   1      44.178  30.295  26.879  1.00  0.00     0.031 C 
ATOM     44  C   UNL A   1      38.530  28.205  29.447  1.00  0.00     0.029 A 
ATOM     45  C   UNL A   1      39.118  29.444  29.918  1.00  0.00     0.049 A 
ATOM     46  H   UNL A   1      41.152  29.932  29.939  1.00  0.00     0.167 HD
ATOM     47  C   UNL A   1      45.176  31.346  28.983  1.00  0.00     0.037 A 
ATOM     48  C   UNL A   1      38.526  30.538  30.459  1.00  0.00     0.037 A 
ATOM     49  C   UNL A   1      45.294  30.986  30.373  1.00  0.00     0.049 A 
ATOM     50  C   UNL A   1      39.589  31.297  31.168  1.00  0.00     0.074 A 
ATOM     51  C   UNL A   1      45.875  29.935  31.057  1.00  0.00     0.029 A 
ATOM     52  N   UNL A   1      44.420  31.568  31.260  1.00  0.00    -0.354 N 
ATOM     53  N   UNL A   1      40.219  30.856  32.224  1.00  0.00    -0.248 NA
ATOM     54  C   UNL A   1      40.270  32.359  30.441  1.00  0.00     0.031 C 
ATOM     55  C   UNL A   1      44.966  29.640  32.116  1.00  0.00     0.029 A 
ATOM     56  C   UNL A   1      43.924  30.567  32.057  1.00  0.00     0.049 A 
ATOM     57  H   UNL A   1      44.190  32.524  31.313  1.00  0.00     0.167 HD
ATOM     58  C   UNL A   1      41.535  31.256  32.048  1.00  0.00     0.074 A 
ATOM     59  C   UNL A   1      41.484  32.263  30.990  1.00  0.00     0.031 C 
ATOM     60  C   UNL A   1      42.572  30.538  32.575  1.00  0.00     0.037 A 
BRANCH  47  61
ATOM     61  C   UNL A   1      45.408  32.757  28.504  1.00  0.00     0.058 A 
ATOM     62  C   UNL A   1      46.715  33.291  28.516  1.00  0.00     0.135 A 
ATOM     63  C   UNL A   1      44.370  33.691  28.293  1.00  0.00     0.135 A 
ATOM     64  F   UNL A   1      47.776  32.495  28.722  1.00  0.00    -0.206 F 
ATOM     65  C   UNL A   1      46.964  34.659  28.391  1.00  0.00     0.059 A 
ATOM     66  C   UNL A   1      44.602  35.051  28.111  1.00  0.00     0.059 A 
ATOM     67  F   UNL A   1      43.079  33.343  28.354  1.00  0.00    -0.206 F 
ATOM     68  C   UNL A   1      45.898  35.532  28.203  1.00  0.00     0.060 A 
BRANCH  68  69
ATOM     69  S   UNL A   1      46.206  37.306  28.146  1.00  0.00     0.124 S 
ATOM     70  O   UNL A   1      45.108  37.762  27.300  1.00  0.00    -0.237 OA
ATOM     71  O   UNL A   1      46.124  37.675  29.555  1.00  0.00    -0.237 OA
ATOM     72  O   UNL A   1      47.538  37.396  27.557  1.00  0.00    -0.744 OA
ENDBRANCH  68  69
ENDBRANCH  47  61
BRANCH  48  73
ATOM     73  C   UNL A   1      37.209  31.127  30.102  1.00  0.00     0.058 A 
ATOM     74  C   UNL A   1      36.423  31.767  31.077  1.00  0.00     0.135 A 
ATOM     75  C   UNL A   1      36.832  31.341  28.760  1.00  0.00     0.135 A 
ATOM     76  F   UNL A   1      36.715  31.623  32.379  1.00  0.00    -0.206 F 
ATOM     77  C   UNL A   1      35.375  32.628  30.740  1.00  0.00     0.059 A 
ATOM     78  C   UNL A   1      35.783  32.185  28.402  1.00  0.00     0.059 A 
ATOM     79  F   UNL A   1      37.534  30.814  27.747  1.00  0.00    -0.206 F 
ATOM     80  C   UNL A   1      35.081  32.853  29.396  1.00  0.00     0.060 A 
BRANCH  80  81
ATOM     81  S   UNL A   1      33.880  34.130  28.950  1.00  0.00     0.124 S 
ATOM     82  O   UNL A   1      33.278  34.441  30.242  1.00  0.00    -0.237 OA
ATOM     83  O   UNL A   1      34.733  35.166  28.376  1.00  0.00    -0.237 OA
ATOM     84  O   UNL A   1      33.004  33.452  27.999  1.00  0.00    -0.744 OA
ENDBRANCH  80  81
ENDBRANCH  48  73
BRANCH  60  85
ATOM     85  C   UNL A   1      42.260  29.484  33.608  1.00  0.00     0.058 A 
ATOM     86  C   UNL A   1      41.868  28.164  33.317  1.00  0.00     0.135 A 
ATOM     87  C   UNL A   1      42.495  29.792  34.957  1.00  0.00     0.135 A 
ATOM     88  F   UNL A   1      41.731  27.746  32.051  1.00  0.00    -0.206 F 
ATOM     89  C   UNL A   1      41.660  27.217  34.322  1.00  0.00     0.059 A 
ATOM     90  C   UNL A   1      42.329  28.855  35.973  1.00  0.00     0.059 A 
ATOM     91  F   UNL A   1      42.936  31.014  35.299  1.00  0.00    -0.206 F 
ATOM     92  C   UNL A   1      41.891  27.574  35.650  1.00  0.00     0.060 A 
BRANCH  92  93
ATOM     93  S   UNL A   1      41.665  26.336  36.945  1.00  0.00     0.124 S 
ATOM     94  O   UNL A   1      40.401  26.749  37.546  1.00  0.00    -0.237 OA
ATOM     95  O   UNL A   1      41.630  25.087  36.190  1.00  0.00    -0.237 OA
ATOM     96  O   UNL A   1      42.844  26.509  37.791  1.00  0.00    -0.744 OA
ENDBRANCH  92  93
ENDBRANCH  60  85
ENDBRANCH  34  35
ENDBRANCH  26  29
ENDBRANCH  24  25
ENDBRANCH  23  24
ENDBRANCH   1  23
TORSDOF 20
ENDMDL
MODEL 3
REMARK VINA RESULT:     -10.6      2.463      3.536
REMARK SMILES CCCc1nnc(SCC(=O)NCCCCNC(=O)c2ccc(-c3c4nc(c(-c5c(F)cc(S(=O)(=O)[O-])cc5F)c5ccc([nH]5)c(-c5c(F)cc(S(=O)(=O)[O-])cc5F)c5nc(c(-c6c(F)cc(S(=O)(=O)[O-])cc6F)c6ccc3[nH]6)C=C5)C=C4)cc2)n1C[C@H]1CCCO1
REMARK SMILES IDX 14 1 13 2 12 3 10 4 11 5 9 7 8 8 7 9 4 10 5 11 86 12 6 13
REMARK SMILES IDX 3 14 2 15 1 16 87 17 88 18 89 19 92 20 90 21 91 22 15 23
REMARK SMILES IDX 16 24 17 25 18 26 19 28 20 29 21 30 85 31 22 32 84 33 23 34
REMARK SMILES IDX 24 35 25 36 78 37 26 38 83 39 77 40 79 41 27 42 82 43 76 44
REMARK SMILES IDX 75 45 28 47 62 48 41 49 61 50 42 51 45 52 60 53 80 54 43 55
REMARK SMILES IDX 44 56 59 58 81 59 46 60 29 61 30 62 39 63 31 64 32 65 38 66
REMARK SMILES IDX 40 67 33 68 34 69 35 70 36 71 37 72 63 73 64 74 73 75 65 76
REMARK SMILES IDX 66 77 72 78 74 79 67 80 68 81 69 82 70 83 71 84 47 85 48 86
REMARK SMILES IDX 57 87 49 88 50 89 56 90 58 91 51 92 52 93 53 94 54 95 55 96
REMARK H PARENT 12 6 17 27 79 46 45 57
REMARK Flexibility Score: inf
ROOT
ATOM      1  C   UNL A   1      36.516  20.884  25.098  1.00  0.00     0.023 C 
ENDROOT
BRANCH   1   2
ATOM      2  C   UNL A   1      35.307  21.080  26.005  1.00  0.00     0.116 C 
BRANCH   2   3
ATOM      3  N   UNL A   1      34.242  20.163  25.690  1.00  0.00    -0.355 N 
ATOM      4  C   UNL A   1      32.956  20.474  25.393  1.00  0.00     0.230 C 
ATOM      5  O   UNL A   1      32.155  19.544  25.291  1.00  0.00    -0.274 OA
ATOM      6  H   UNL A   1      34.473  19.206  25.691  1.00  0.00     0.163 HD
BRANCH   4   7
ATOM      7  C   UNL A   1      32.579  21.910  25.095  1.00  0.00     0.178 C 
BRANCH   7   8
ATOM      8  S   UNL A   1      31.009  22.476  25.706  1.00  0.00    -0.076 SA
BRANCH   8   9
ATOM      9  C   UNL A   1      30.766  24.159  25.414  1.00  0.00     0.191 A 
ATOM     10  C   UNL A   1      30.071  26.050  24.577  1.00  0.00     0.133 A 
ATOM     11  N   UNL A   1      29.970  26.128  25.888  1.00  0.00    -0.134 NA
ATOM     12  N   UNL A   1      30.803  24.910  24.263  1.00  0.00    -0.303 N 
ATOM     13  N   UNL A   1      30.394  24.940  26.408  1.00  0.00    -0.123 NA
BRANCH  10  14
ATOM     14  C   UNL A   1      29.284  26.903  23.635  1.00  0.00     0.077 C 
BRANCH  14  15
ATOM     15  C   UNL A   1      29.699  28.368  23.535  1.00  0.00     0.005 C 
ATOM     16  C   UNL A   1      31.136  28.571  23.085  1.00  0.00     0.004 C 
ENDBRANCH  14  15
ENDBRANCH  10  14
BRANCH  12  17
ATOM     17  C   UNL A   1      31.366  24.620  22.970  1.00  0.00     0.158 C 
BRANCH  17  18
ATOM     18  C   UNL A   1      32.720  25.277  22.629  1.00  0.00     0.138 C 
ATOM     19  C   UNL A   1      33.570  25.881  23.738  1.00  0.00     0.036 C 
ATOM     20  O   UNL A   1      33.567  24.264  22.051  1.00  0.00    -0.376 OA
ATOM     21  C   UNL A   1      34.499  24.771  24.188  1.00  0.00     0.031 C 
ATOM     22  C   UNL A   1      34.506  23.797  23.031  1.00  0.00     0.160 C 
ENDBRANCH  17  18
ENDBRANCH  12  17
ENDBRANCH   8   9
ENDBRANCH   7   8
ENDBRANCH   4   7
ENDBRANCH   2   3
ENDBRANCH   1   2
BRANCH   1  23
ATOM     23  C   UNL A   1      37.252  22.159  24.672  1.00  0.00     0.023 C 
BRANCH  23  24
ATOM     24  C   UNL A   1      38.086  22.814  25.763  1.00  0.00     0.116 C 
BRANCH  24  25
ATOM     25  N   UNL A   1      39.196  21.969  26.188  1.00  0.00    -0.352 N 
ATOM     26  C   UNL A   1      40.438  22.345  26.651  1.00  0.00     0.251 C 
ATOM     27  H   UNL A   1      39.037  21.000  26.138  1.00  0.00     0.163 HD
ATOM     28  O   UNL A   1      41.353  21.529  26.718  1.00  0.00    -0.269 OA
BRANCH  26  29
ATOM     29  C   UNL A   1      40.649  23.742  27.057  1.00  0.00     0.039 A 
ATOM     30  C   UNL A   1      39.681  24.713  26.805  1.00  0.00     0.014 A 
ATOM     31  C   UNL A   1      41.810  24.060  27.756  1.00  0.00     0.014 A 
ATOM     32  C   UNL A   1      39.855  25.984  27.344  1.00  0.00     0.010 A 
ATOM     33  C   UNL A   1      41.925  25.270  28.390  1.00  0.00     0.010 A 
ATOM     34  C   UNL A   1      40.970  26.250  28.157  1.00  0.00    -0.014 A 
BRANCH  34  35
ATOM     35  C   UNL A   1      41.085  27.521  28.859  1.00  0.00     0.031 A 
ATOM     36  C   UNL A   1      42.137  28.439  28.341  1.00  0.00     0.074 A 
ATOM     37  C   UNL A   1      40.177  27.951  29.761  1.00  0.00     0.049 A 
ATOM     38  N   UNL A   1      43.228  28.803  28.932  1.00  0.00    -0.248 NA
ATOM     39  C   UNL A   1      42.028  28.917  26.953  1.00  0.00     0.031 C 
ATOM     40  C   UNL A   1      38.901  27.335  30.143  1.00  0.00     0.029 A 
ATOM     41  N   UNL A   1      40.162  29.120  30.451  1.00  0.00    -0.354 N 
ATOM     42  C   UNL A   1      43.843  29.719  28.083  1.00  0.00     0.074 A 
ATOM     43  C   UNL A   1      43.157  29.618  26.821  1.00  0.00     0.031 C 
ATOM     44  C   UNL A   1      38.143  28.241  30.798  1.00  0.00     0.029 A 
ATOM     45  C   UNL A   1      38.940  29.429  31.032  1.00  0.00     0.049 A 
ATOM     46  H   UNL A   1      40.953  29.701  30.533  1.00  0.00     0.167 HD
ATOM     47  C   UNL A   1      44.732  30.642  28.550  1.00  0.00     0.037 A 
ATOM     48  C   UNL A   1      38.602  30.600  31.627  1.00  0.00     0.037 A 
ATOM     49  C   UNL A   1      45.154  30.329  29.892  1.00  0.00     0.049 A 
ATOM     50  C   UNL A   1      39.872  31.272  32.010  1.00  0.00     0.074 A 
ATOM     51  C   UNL A   1      45.785  29.252  30.484  1.00  0.00     0.029 A 
ATOM     52  N   UNL A   1      44.581  31.035  30.923  1.00  0.00    -0.354 N 
ATOM     53  N   UNL A   1      40.698  30.810  32.910  1.00  0.00    -0.248 NA
ATOM     54  C   UNL A   1      40.449  32.226  31.074  1.00  0.00     0.031 C 
ATOM     55  C   UNL A   1      45.141  29.096  31.747  1.00  0.00     0.029 A 
ATOM     56  C   UNL A   1      44.206  30.125  31.879  1.00  0.00     0.049 A 
ATOM     57  H   UNL A   1      44.462  32.012  30.967  1.00  0.00     0.167 HD
ATOM     58  C   UNL A   1      41.962  31.062  32.398  1.00  0.00     0.074 A 
ATOM     59  C   UNL A   1      41.747  32.024  31.320  1.00  0.00     0.031 C 
ATOM     60  C   UNL A   1      43.026  30.260  32.706  1.00  0.00     0.037 A 
BRANCH  47  61
ATOM     61  C   UNL A   1      44.969  32.001  27.939  1.00  0.00     0.058 A 
ATOM     62  C   UNL A   1      46.219  32.292  27.351  1.00  0.00     0.135 A 
ATOM     63  C   UNL A   1      44.122  33.110  28.149  1.00  0.00     0.135 A 
ATOM     64  F   UNL A   1      47.110  31.314  27.119  1.00  0.00    -0.206 F 
ATOM     65  C   UNL A   1      46.619  33.596  27.052  1.00  0.00     0.059 A 
ATOM     66  C   UNL A   1      44.479  34.411  27.807  1.00  0.00     0.059 A 
ATOM     67  F   UNL A   1      42.950  32.998  28.785  1.00  0.00    -0.206 F 
ATOM     68  C   UNL A   1      45.746  34.649  27.298  1.00  0.00     0.060 A 
BRANCH  68  69
ATOM     69  S   UNL A   1      46.297  36.341  27.012  1.00  0.00     0.124 S 
ATOM     70  O   UNL A   1      47.033  36.197  25.761  1.00  0.00    -0.237 OA
ATOM     71  O   UNL A   1      45.032  37.063  26.930  1.00  0.00    -0.237 OA
ATOM     72  O   UNL A   1      47.104  36.635  28.191  1.00  0.00    -0.744 OA
ENDBRANCH  68  69
ENDBRANCH  47  61
BRANCH  48  73
ATOM     73  C   UNL A   1      37.298  31.311  31.560  1.00  0.00     0.058 A 
ATOM     74  C   UNL A   1      36.551  31.548  32.727  1.00  0.00     0.135 A 
ATOM     75  C   UNL A   1      36.904  32.027  30.411  1.00  0.00     0.135 A 
ATOM     76  F   UNL A   1      36.861  30.914  33.867  1.00  0.00    -0.206 F 
ATOM     77  C   UNL A   1      35.524  32.496  32.772  1.00  0.00     0.059 A 
ATOM     78  C   UNL A   1      35.876  32.968  30.430  1.00  0.00     0.059 A 
ATOM     79  F   UNL A   1      37.571  31.910  29.254  1.00  0.00    -0.206 F 
ATOM     80  C   UNL A   1      35.213  33.223  31.623  1.00  0.00     0.060 A 
BRANCH  80  81
ATOM     81  S   UNL A   1      34.046  34.600  31.731  1.00  0.00     0.124 S 
ATOM     82  O   UNL A   1      34.925  35.713  32.071  1.00  0.00    -0.237 OA
ATOM     83  O   UNL A   1      33.474  34.623  30.389  1.00  0.00    -0.237 OA
ATOM     84  O   UNL A   1      33.128  34.182  32.788  1.00  0.00    -0.744 OA
ENDBRANCH  80  81
ENDBRANCH  48  73
BRANCH  60  85
ATOM     85  C   UNL A   1      42.881  29.287  33.851  1.00  0.00     0.058 A 
ATOM     86  C   UNL A   1      43.039  29.616  35.210  1.00  0.00     0.135 A 
ATOM     87  C   UNL A   1      42.435  27.989  33.561  1.00  0.00     0.135 A 
ATOM     88  F   UNL A   1      43.351  30.863  35.588  1.00  0.00    -0.206 F 
ATOM     89  C   UNL A   1      42.823  28.681  36.225  1.00  0.00     0.059 A 
ATOM     90  C   UNL A   1      42.179  27.051  34.557  1.00  0.00     0.059 A 
ATOM     91  F   UNL A   1      42.199  27.628  32.288  1.00  0.00    -0.206 F 
ATOM     92  C   UNL A   1      42.396  27.398  35.888  1.00  0.00     0.060 A 
BRANCH  92  93
ATOM     93  S   UNL A   1      42.074  26.204  37.203  1.00  0.00     0.124 S 
ATOM     94  O   UNL A   1      42.234  24.932  36.508  1.00  0.00    -0.237 OA
ATOM     95  O   UNL A   1      43.108  26.523  38.184  1.00  0.00    -0.237 OA
ATOM     96  O   UNL A   1      40.711  26.518  37.623  1.00  0.00    -0.744 OA
ENDBRANCH  92  93
ENDBRANCH  60  85
ENDBRANCH  34  35
ENDBRANCH  26  29
ENDBRANCH  24  25
ENDBRANCH  23  24
ENDBRANCH   1  23
TORSDOF 20
ENDMDL
