MODEL 1
REMARK VINA RESULT:     -11.4      0.000      0.000
REMARK SMILES CC1(C)OC(=O)C(/C=N/[C@@H](CCC(N)=O)C(=O)NCCCCNC(=O)c2ccc(-c3c4nc(c(-c5c(F)cc(S(=O)(=O)[O-])cc5F)c5ccc([nH]5)c(-c5c(F)cc(S(=O)(=O)[O-])cc5F)c5nc(c(-c6c(F)cc(S(=O)(=O)[O-])cc6F)c6ccc3[nH]6)C=C5)C=C4)cc2)C(=O)O1
REMARK SMILES IDX 20 1 19 2 18 3 16 4 17 5 10 7 9 8 8 9 7 10 1 11 2 12 3 13
REMARK SMILES IDX 4 14 94 15 5 16 92 17 6 18 93 19 11 20 12 21 13 22 14 23
REMARK SMILES IDX 15 24 21 27 22 28 23 29 24 30 25 32 26 33 27 34 91 35 28 36
REMARK SMILES IDX 90 37 29 38 30 39 31 40 84 41 32 42 89 43 83 44 85 45 33 46
REMARK SMILES IDX 88 47 82 48 81 49 34 51 68 52 47 53 67 54 48 55 51 56 66 57
REMARK SMILES IDX 86 58 49 59 50 60 65 62 87 63 52 64 35 65 36 66 45 67 37 68
REMARK SMILES IDX 38 69 44 70 46 71 39 72 40 73 41 74 42 75 43 76 69 77 70 78
REMARK SMILES IDX 79 79 71 80 72 81 78 82 80 83 73 84 74 85 75 86 76 87 77 88
REMARK SMILES IDX 53 89 54 90 63 91 55 92 56 93 62 94 64 95 57 96 58 97 59 98
REMARK SMILES IDX 60 99 61 100
REMARK H PARENT 18 6 14 25 14 26 23 31 85 50 51 61
REMARK Flexibility Score: inf
ROOT
ATOM      1  C   UNL A   1      37.377  22.574  25.469  1.00  0.00     0.023 C 
ENDROOT
BRANCH   1   2
ATOM      2  C   UNL A   1      35.878  22.402  25.290  1.00  0.00     0.116 C 
BRANCH   2   3
ATOM      3  N   UNL A   1      35.178  22.149  26.520  1.00  0.00    -0.354 N 
ATOM      4  C   UNL A   1      33.875  21.799  26.721  1.00  0.00     0.244 C 
ATOM      5  O   UNL A   1      33.529  21.528  27.876  1.00  0.00    -0.273 OA
ATOM      6  H   UNL A   1      35.718  22.242  27.337  1.00  0.00     0.163 HD
BRANCH   4   7
ATOM      7  C   UNL A   1      32.854  21.754  25.567  1.00  0.00     0.194 C 
BRANCH   7   8
ATOM      8  N   UNL A   1      32.258  23.089  25.338  1.00  0.00    -0.283 NA
ATOM      9  C   UNL A   1      31.227  23.332  24.628  1.00  0.00     0.105 C 
BRANCH   9  10
ATOM     10  C   UNL A   1      30.680  24.736  24.520  1.00  0.00     0.250 C 
ATOM     11  C   UNL A   1      33.686  26.770  25.841  1.00  0.00     0.106 C 
ATOM     12  C   UNL A   1      32.229  26.930  25.409  1.00  0.00     0.252 C 
ATOM     13  C   UNL A   1      31.795  28.387  25.553  1.00  0.00     0.106 C 
ATOM     14  O   UNL A   1      31.434  26.160  26.303  1.00  0.00    -0.422 OA
ATOM     15  O   UNL A   1      32.145  26.607  24.020  1.00  0.00    -0.422 OA
ATOM     16  C   UNL A   1      30.447  25.386  25.834  1.00  0.00     0.329 C 
ATOM     17  C   UNL A   1      31.488  25.533  23.569  1.00  0.00     0.329 C 
ATOM     18  O   UNL A   1      29.459  25.161  26.523  1.00  0.00    -0.251 OA
ATOM     19  O   UNL A   1      31.593  25.199  22.391  1.00  0.00    -0.251 OA
ENDBRANCH   9  10
ENDBRANCH   7   8
BRANCH   7  20
ATOM     20  C   UNL A   1      33.134  20.846  24.356  1.00  0.00     0.047 C 
BRANCH  20  21
ATOM     21  C   UNL A   1      33.678  19.425  24.517  1.00  0.00     0.102 C 
BRANCH  21  22
ATOM     22  C   UNL A   1      32.724  18.441  25.158  1.00  0.00     0.217 C 
ATOM     23  N   UNL A   1      32.902  18.278  26.501  1.00  0.00    -0.370 N 
ATOM     24  O   UNL A   1      31.871  17.807  24.554  1.00  0.00    -0.275 OA
ATOM     25  H   UNL A   1      33.594  18.797  26.972  1.00  0.00     0.159 HD
ATOM     26  H   UNL A   1      32.338  17.643  26.999  1.00  0.00     0.159 HD
ENDBRANCH  21  22
ENDBRANCH  20  21
ENDBRANCH   7  20
ENDBRANCH   4   7
ENDBRANCH   2   3
ENDBRANCH   1   2
BRANCH   1  27
ATOM     27  C   UNL A   1      38.196  21.295  25.340  1.00  0.00     0.023 C 
BRANCH  27  28
ATOM     28  C   UNL A   1      39.416  21.201  26.251  1.00  0.00     0.116 C 
BRANCH  28  29
ATOM     29  N   UNL A   1      40.160  19.950  26.135  1.00  0.00    -0.352 N 
ATOM     30  C   UNL A   1      41.529  19.780  26.145  1.00  0.00     0.251 C 
ATOM     31  H   UNL A   1      39.621  19.131  26.036  1.00  0.00     0.163 HD
ATOM     32  O   UNL A   1      42.023  18.677  25.974  1.00  0.00    -0.269 OA
BRANCH  30  33
ATOM     33  C   UNL A   1      42.368  20.983  26.330  1.00  0.00     0.039 A 
ATOM     34  C   UNL A   1      42.771  21.709  25.208  1.00  0.00     0.014 A 
ATOM     35  C   UNL A   1      42.608  21.462  27.620  1.00  0.00     0.014 A 
ATOM     36  C   UNL A   1      43.326  22.979  25.383  1.00  0.00     0.010 A 
ATOM     37  C   UNL A   1      43.087  22.755  27.785  1.00  0.00     0.010 A 
ATOM     38  C   UNL A   1      43.435  23.534  26.669  1.00  0.00    -0.014 A 
BRANCH  38  39
ATOM     39  C   UNL A   1      43.880  24.934  26.882  1.00  0.00     0.031 A 
ATOM     40  C   UNL A   1      45.324  25.296  26.678  1.00  0.00     0.074 A 
ATOM     41  C   UNL A   1      43.012  25.849  27.358  1.00  0.00     0.049 A 
ATOM     42  N   UNL A   1      45.939  26.421  26.940  1.00  0.00    -0.248 NA
ATOM     43  C   UNL A   1      46.202  24.240  26.149  1.00  0.00     0.031 C 
ATOM     44  C   UNL A   1      41.599  25.605  27.663  1.00  0.00     0.029 A 
ATOM     45  N   UNL A   1      43.196  27.169  27.690  1.00  0.00    -0.354 N 
ATOM     46  C   UNL A   1      47.276  26.198  26.638  1.00  0.00     0.074 A 
ATOM     47  C   UNL A   1      47.392  24.819  26.217  1.00  0.00     0.031 C 
ATOM     48  C   UNL A   1      41.042  26.741  28.115  1.00  0.00     0.029 A 
ATOM     49  C   UNL A   1      42.062  27.784  28.166  1.00  0.00     0.049 A 
ATOM     50  H   UNL A   1      44.059  27.632  27.597  1.00  0.00     0.167 HD
ATOM     51  C   UNL A   1      48.311  27.070  26.684  1.00  0.00     0.037 A 
ATOM     52  C   UNL A   1      41.866  29.046  28.599  1.00  0.00     0.037 A 
ATOM     53  C   UNL A   1      48.183  28.454  27.052  1.00  0.00     0.049 A 
ATOM     54  C   UNL A   1      43.021  30.010  28.592  1.00  0.00     0.074 A 
ATOM     55  C   UNL A   1      49.158  29.436  27.061  1.00  0.00     0.029 A 
ATOM     56  N   UNL A   1      47.004  29.055  27.468  1.00  0.00    -0.354 N 
ATOM     57  N   UNL A   1      44.269  29.797  28.247  1.00  0.00    -0.248 NA
ATOM     58  C   UNL A   1      42.741  31.386  29.027  1.00  0.00     0.031 C 
ATOM     59  C   UNL A   1      48.571  30.629  27.501  1.00  0.00     0.029 A 
ATOM     60  C   UNL A   1      47.225  30.394  27.738  1.00  0.00     0.049 A 
ATOM     61  H   UNL A   1      46.138  28.596  27.558  1.00  0.00     0.167 HD
ATOM     62  C   UNL A   1      44.917  31.018  28.400  1.00  0.00     0.074 A 
ATOM     63  C   UNL A   1      43.923  31.966  28.861  1.00  0.00     0.031 C 
ATOM     64  C   UNL A   1      46.218  31.325  28.179  1.00  0.00     0.037 A 
BRANCH  51  65
ATOM     65  C   UNL A   1      49.668  26.549  26.304  1.00  0.00     0.058 A 
ATOM     66  C   UNL A   1      50.173  26.699  25.003  1.00  0.00     0.135 A 
ATOM     67  C   UNL A   1      50.476  25.900  27.252  1.00  0.00     0.135 A 
ATOM     68  F   UNL A   1      49.432  27.294  24.055  1.00  0.00    -0.206 F 
ATOM     69  C   UNL A   1      51.417  26.192  24.644  1.00  0.00     0.059 A 
ATOM     70  C   UNL A   1      51.735  25.409  26.922  1.00  0.00     0.059 A 
ATOM     71  F   UNL A   1      50.039  25.730  28.509  1.00  0.00    -0.206 F 
ATOM     72  C   UNL A   1      52.188  25.544  25.609  1.00  0.00     0.060 A 
BRANCH  72  73
ATOM     73  S   UNL A   1      53.795  24.880  25.126  1.00  0.00     0.124 S 
ATOM     74  O   UNL A   1      53.495  23.456  25.003  1.00  0.00    -0.237 OA
ATOM     75  O   UNL A   1      54.063  25.580  23.874  1.00  0.00    -0.237 OA
ATOM     76  O   UNL A   1      54.662  25.245  26.242  1.00  0.00    -0.744 OA
ENDBRANCH  72  73
ENDBRANCH  51  65
BRANCH  52  77
ATOM     77  C   UNL A   1      40.516  29.481  29.040  1.00  0.00     0.058 A 
ATOM     78  C   UNL A   1      40.249  29.715  30.397  1.00  0.00     0.135 A 
ATOM     79  C   UNL A   1      39.474  29.683  28.123  1.00  0.00     0.135 A 
ATOM     80  F   UNL A   1      41.213  29.530  31.311  1.00  0.00    -0.206 F 
ATOM     81  C   UNL A   1      38.991  30.119  30.833  1.00  0.00     0.059 A 
ATOM     82  C   UNL A   1      38.213  30.107  28.532  1.00  0.00     0.059 A 
ATOM     83  F   UNL A   1      39.686  29.490  26.811  1.00  0.00    -0.206 F 
ATOM     84  C   UNL A   1      37.979  30.313  29.892  1.00  0.00     0.060 A 
BRANCH  84  85
ATOM     85  S   UNL A   1      36.365  30.889  30.462  1.00  0.00     0.124 S 
ATOM     86  O   UNL A   1      35.709  29.633  30.806  1.00  0.00    -0.237 OA
ATOM     87  O   UNL A   1      36.724  31.752  31.585  1.00  0.00    -0.237 OA
ATOM     88  O   UNL A   1      35.829  31.585  29.296  1.00  0.00    -0.744 OA
ENDBRANCH  84  85
ENDBRANCH  52  77
BRANCH  64  89
ATOM     89  C   UNL A   1      46.638  32.749  28.395  1.00  0.00     0.058 A 
ATOM     90  C   UNL A   1      47.142  33.187  29.629  1.00  0.00     0.135 A 
ATOM     91  C   UNL A   1      46.595  33.669  27.336  1.00  0.00     0.135 A 
ATOM     92  F   UNL A   1      47.197  32.346  30.674  1.00  0.00    -0.206 F 
ATOM     93  C   UNL A   1      47.578  34.495  29.809  1.00  0.00     0.059 A 
ATOM     94  C   UNL A   1      47.044  34.977  27.488  1.00  0.00     0.059 A 
ATOM     95  F   UNL A   1      46.128  33.295  26.134  1.00  0.00    -0.206 F 
ATOM     96  C   UNL A   1      47.526  35.383  28.732  1.00  0.00     0.060 A 
BRANCH  96  97
ATOM     97  S   UNL A   1      48.139  37.066  28.961  1.00  0.00     0.124 S 
ATOM     98  O   UNL A   1      48.843  37.295  27.704  1.00  0.00    -0.237 OA
ATOM     99  O   UNL A   1      46.908  37.828  29.146  1.00  0.00    -0.237 OA
ATOM    100  O   UNL A   1      48.985  36.959  30.146  1.00  0.00    -0.744 OA
ENDBRANCH  96  97
ENDBRANCH  64  89
ENDBRANCH  38  39
ENDBRANCH  30  33
ENDBRANCH  28  29
ENDBRANCH  27  28
ENDBRANCH   1  27
TORSDOF 19
ENDMDL
MODEL 2
REMARK VINA RESULT:     -11.2      4.749      8.668
REMARK SMILES CC1(C)OC(=O)C(/C=N/[C@@H](CCC(N)=O)C(=O)NCCCCNC(=O)c2ccc(-c3c4nc(c(-c5c(F)cc(S(=O)(=O)[O-])cc5F)c5ccc([nH]5)c(-c5c(F)cc(S(=O)(=O)[O-])cc5F)c5nc(c(-c6c(F)cc(S(=O)(=O)[O-])cc6F)c6ccc3[nH]6)C=C5)C=C4)cc2)C(=O)O1
REMARK SMILES IDX 20 1 19 2 18 3 16 4 17 5 10 7 9 8 8 9 7 10 1 11 2 12 3 13
REMARK SMILES IDX 4 14 94 15 5 16 92 17 6 18 93 19 11 20 12 21 13 22 14 23
REMARK SMILES IDX 15 24 21 27 22 28 23 29 24 30 25 32 26 33 27 34 91 35 28 36
REMARK SMILES IDX 90 37 29 38 30 39 31 40 84 41 32 42 89 43 83 44 85 45 33 46
REMARK SMILES IDX 88 47 82 48 81 49 34 51 68 52 47 53 67 54 48 55 51 56 66 57
REMARK SMILES IDX 86 58 49 59 50 60 65 62 87 63 52 64 35 65 36 66 45 67 37 68
REMARK SMILES IDX 38 69 44 70 46 71 39 72 40 73 41 74 42 75 43 76 69 77 70 78
REMARK SMILES IDX 79 79 71 80 72 81 78 82 80 83 73 84 74 85 75 86 76 87 77 88
REMARK SMILES IDX 53 89 54 90 63 91 55 92 56 93 62 94 64 95 57 96 58 97 59 98
REMARK SMILES IDX 60 99 61 100
REMARK H PARENT 18 6 14 25 14 26 23 31 85 50 51 61
REMARK Flexibility Score: inf
ROOT
ATOM      1  C   UNL A   1      42.215  20.933  25.975  1.00  0.00     0.023 C 
ENDROOT
BRANCH   1   2
ATOM      2  C   UNL A   1      42.643  22.382  26.135  1.00  0.00     0.116 C 
BRANCH   2   3
ATOM      3  N   UNL A   1      43.674  22.570  27.118  1.00  0.00    -0.354 N 
ATOM      4  C   UNL A   1      44.962  22.990  26.955  1.00  0.00     0.244 C 
ATOM      5  O   UNL A   1      45.634  23.178  27.976  1.00  0.00    -0.273 OA
ATOM      6  H   UNL A   1      43.413  22.367  28.045  1.00  0.00     0.163 HD
BRANCH   4   7
ATOM      7  C   UNL A   1      45.580  23.209  25.560  1.00  0.00     0.194 C 
BRANCH   7   8
ATOM      8  N   UNL A   1      46.419  24.428  25.540  1.00  0.00    -0.283 NA
ATOM      9  C   UNL A   1      46.011  25.609  25.288  1.00  0.00     0.105 C 
BRANCH   9  10
ATOM     10  C   UNL A   1      46.958  26.784  25.359  1.00  0.00     0.250 C 
ATOM     11  C   UNL A   1      44.778  29.337  27.267  1.00  0.00     0.106 C 
ATOM     12  C   UNL A   1      46.113  29.213  26.535  1.00  0.00     0.252 C 
ATOM     13  C   UNL A   1      46.843  30.555  26.543  1.00  0.00     0.106 C 
ATOM     14  O   UNL A   1      45.826  28.895  25.178  1.00  0.00    -0.422 OA
ATOM     15  O   UNL A   1      46.929  28.292  27.261  1.00  0.00    -0.422 OA
ATOM     16  C   UNL A   1      46.526  27.945  24.544  1.00  0.00     0.329 C 
ATOM     17  C   UNL A   1      47.282  27.100  26.769  1.00  0.00     0.329 C 
ATOM     18  O   UNL A   1      46.696  28.010  23.332  1.00  0.00    -0.251 OA
ATOM     19  O   UNL A   1      47.830  26.274  27.494  1.00  0.00    -0.251 OA
ENDBRANCH   9  10
ENDBRANCH   7   8
BRANCH   7  20
ATOM     20  C   UNL A   1      46.025  21.985  24.739  1.00  0.00     0.047 C 
BRANCH  20  21
ATOM     21  C   UNL A   1      45.807  20.554  25.235  1.00  0.00     0.102 C 
BRANCH  21  22
ATOM     22  C   UNL A   1      45.555  19.531  24.150  1.00  0.00     0.217 C 
ATOM     23  N   UNL A   1      44.698  19.947  23.173  1.00  0.00    -0.370 N 
ATOM     24  O   UNL A   1      46.037  18.408  24.128  1.00  0.00    -0.275 OA
ATOM     25  H   UNL A   1      44.319  20.855  23.205  1.00  0.00     0.159 HD
ATOM     26  H   UNL A   1      44.460  19.340  22.435  1.00  0.00     0.159 HD
ENDBRANCH  21  22
ENDBRANCH  20  21
ENDBRANCH   7  20
ENDBRANCH   4   7
ENDBRANCH   2   3
ENDBRANCH   1   2
BRANCH   1  27
ATOM     27  C   UNL A   1      40.727  20.670  26.173  1.00  0.00     0.023 C 
BRANCH  27  28
ATOM     28  C   UNL A   1      39.960  21.760  26.917  1.00  0.00     0.116 C 
BRANCH  28  29
ATOM     29  N   UNL A   1      38.858  22.345  26.160  1.00  0.00    -0.352 N 
ATOM     30  C   UNL A   1      38.452  23.664  26.147  1.00  0.00     0.251 C 
ATOM     31  H   UNL A   1      38.342  21.727  25.593  1.00  0.00     0.163 HD
ATOM     32  O   UNL A   1      37.466  24.009  25.513  1.00  0.00    -0.269 OA
BRANCH  30  33
ATOM     33  C   UNL A   1      39.226  24.629  26.957  1.00  0.00     0.039 A 
ATOM     34  C   UNL A   1      40.099  25.507  26.314  1.00  0.00     0.014 A 
ATOM     35  C   UNL A   1      38.955  24.754  28.320  1.00  0.00     0.014 A 
ATOM     36  C   UNL A   1      40.624  26.588  27.027  1.00  0.00     0.010 A 
ATOM     37  C   UNL A   1      39.416  25.872  29.004  1.00  0.00     0.010 A 
ATOM     38  C   UNL A   1      40.241  26.810  28.360  1.00  0.00    -0.014 A 
BRANCH  38  39
ATOM     39  C   UNL A   1      40.658  28.026  29.103  1.00  0.00     0.031 A 
ATOM     40  C   UNL A   1      42.000  28.062  29.778  1.00  0.00     0.074 A 
ATOM     41  C   UNL A   1      39.793  29.048  29.258  1.00  0.00     0.049 A 
ATOM     42  N   UNL A   1      42.496  28.966  30.583  1.00  0.00    -0.248 NA
ATOM     43  C   UNL A   1      42.886  26.909  29.551  1.00  0.00     0.031 C 
ATOM     44  C   UNL A   1      38.435  29.105  28.710  1.00  0.00     0.029 A 
ATOM     45  N   UNL A   1      39.920  30.232  29.941  1.00  0.00    -0.354 N 
ATOM     46  C   UNL A   1      43.733  28.478  30.982  1.00  0.00     0.074 A 
ATOM     47  C   UNL A   1      43.894  27.178  30.368  1.00  0.00     0.031 C 
ATOM     48  C   UNL A   1      37.866  30.270  29.060  1.00  0.00     0.029 A 
ATOM     49  C   UNL A   1      38.800  31.028  29.885  1.00  0.00     0.049 A 
ATOM     50  H   UNL A   1      40.737  30.487  30.427  1.00  0.00     0.167 HD
ATOM     51  C   UNL A   1      44.663  29.069  31.769  1.00  0.00     0.037 A 
ATOM     52  C   UNL A   1      38.553  32.232  30.439  1.00  0.00     0.037 A 
ATOM     53  C   UNL A   1      44.522  30.383  32.335  1.00  0.00     0.049 A 
ATOM     54  C   UNL A   1      39.622  32.891  31.269  1.00  0.00     0.074 A 
ATOM     55  C   UNL A   1      45.437  31.099  33.087  1.00  0.00     0.029 A 
ATOM     56  N   UNL A   1      43.398  31.183  32.203  1.00  0.00    -0.354 N 
ATOM     57  N   UNL A   1      40.811  32.438  31.588  1.00  0.00    -0.248 NA
ATOM     58  C   UNL A   1      39.319  34.224  31.807  1.00  0.00     0.031 C 
ATOM     59  C   UNL A   1      44.857  32.327  33.426  1.00  0.00     0.029 A 
ATOM     60  C   UNL A   1      43.593  32.385  32.860  1.00  0.00     0.049 A 
ATOM     61  H   UNL A   1      42.581  30.933  31.713  1.00  0.00     0.167 HD
ATOM     62  C   UNL A   1      41.407  33.441  32.343  1.00  0.00     0.074 A 
ATOM     63  C   UNL A   1      40.452  34.527  32.428  1.00  0.00     0.031 C 
ATOM     64  C   UNL A   1      42.635  33.461  32.917  1.00  0.00     0.037 A 
BRANCH  51  65
ATOM     65  C   UNL A   1      45.923  28.298  32.043  1.00  0.00     0.058 A 
ATOM     66  C   UNL A   1      47.043  28.402  31.204  1.00  0.00     0.135 A 
ATOM     67  C   UNL A   1      46.016  27.453  33.162  1.00  0.00     0.135 A 
ATOM     68  F   UNL A   1      46.999  29.181  30.112  1.00  0.00    -0.206 F 
ATOM     69  C   UNL A   1      48.200  27.668  31.442  1.00  0.00     0.059 A 
ATOM     70  C   UNL A   1      47.173  26.729  33.433  1.00  0.00     0.059 A 
ATOM     71  F   UNL A   1      44.973  27.317  33.994  1.00  0.00    -0.206 F 
ATOM     72  C   UNL A   1      48.253  26.830  32.556  1.00  0.00     0.060 A 
BRANCH  72  73
ATOM     73  S   UNL A   1      49.756  25.874  32.845  1.00  0.00     0.124 S 
ATOM     74  O   UNL A   1      49.330  24.986  33.923  1.00  0.00    -0.237 OA
ATOM     75  O   UNL A   1      49.978  25.235  31.552  1.00  0.00    -0.237 OA
ATOM     76  O   UNL A   1      50.737  26.888  33.216  1.00  0.00    -0.744 OA
ENDBRANCH  72  73
ENDBRANCH  51  65
BRANCH  52  77
ATOM     77  C   UNL A   1      37.253  32.910  30.198  1.00  0.00     0.058 A 
ATOM     78  C   UNL A   1      36.209  32.804  31.128  1.00  0.00     0.135 A 
ATOM     79  C   UNL A   1      37.031  33.684  29.049  1.00  0.00     0.135 A 
ATOM     80  F   UNL A   1      36.374  32.071  32.240  1.00  0.00    -0.206 F 
ATOM     81  C   UNL A   1      34.983  33.427  30.922  1.00  0.00     0.059 A 
ATOM     82  C   UNL A   1      35.819  34.333  28.830  1.00  0.00     0.059 A 
ATOM     83  F   UNL A   1      38.006  33.830  28.138  1.00  0.00    -0.206 F 
ATOM     84  C   UNL A   1      34.798  34.190  29.768  1.00  0.00     0.060 A 
BRANCH  84  85
ATOM     85  S   UNL A   1      33.220  35.039  29.534  1.00  0.00     0.124 S 
ATOM     86  O   UNL A   1      33.661  36.378  29.162  1.00  0.00    -0.237 OA
ATOM     87  O   UNL A   1      32.601  34.251  28.472  1.00  0.00    -0.237 OA
ATOM     88  O   UNL A   1      32.582  34.922  30.842  1.00  0.00    -0.744 OA
ENDBRANCH  84  85
ENDBRANCH  52  77
BRANCH  64  89
ATOM     89  C   UNL A   1      43.033  34.705  33.655  1.00  0.00     0.058 A 
ATOM     90  C   UNL A   1      42.940  34.792  35.051  1.00  0.00     0.135 A 
ATOM     91  C   UNL A   1      43.575  35.798  32.959  1.00  0.00     0.135 A 
ATOM     92  F   UNL A   1      42.423  33.776  35.759  1.00  0.00    -0.206 F 
ATOM     93  C   UNL A   1      43.359  35.929  35.734  1.00  0.00     0.059 A 
ATOM     94  C   UNL A   1      44.018  36.937  33.624  1.00  0.00     0.059 A 
ATOM     95  F   UNL A   1      43.692  35.758  31.622  1.00  0.00    -0.206 F 
ATOM     96  C   UNL A   1      43.898  36.996  35.012  1.00  0.00     0.060 A 
BRANCH  96  97
ATOM     97  S   UNL A   1      44.484  38.448  35.912  1.00  0.00     0.124 S 
ATOM     98  O   UNL A   1      44.003  39.533  35.062  1.00  0.00    -0.237 OA
ATOM     99  O   UNL A   1      43.815  38.311  37.202  1.00  0.00    -0.237 OA
ATOM    100  O   UNL A   1      45.931  38.266  35.942  1.00  0.00    -0.744 OA
ENDBRANCH  96  97
ENDBRANCH  64  89
ENDBRANCH  38  39
ENDBRANCH  30  33
ENDBRANCH  28  29
ENDBRANCH  27  28
ENDBRANCH   1  27
TORSDOF 19
ENDMDL
MODEL 3
REMARK VINA RESULT:     -10.9      4.969      8.511
REMARK SMILES CC1(C)OC(=O)C(/C=N/[C@@H](CCC(N)=O)C(=O)NCCCCNC(=O)c2ccc(-c3c4nc(c(-c5c(F)cc(S(=O)(=O)[O-])cc5F)c5ccc([nH]5)c(-c5c(F)cc(S(=O)(=O)[O-])cc5F)c5nc(c(-c6c(F)cc(S(=O)(=O)[O-])cc6F)c6ccc3[nH]6)C=C5)C=C4)cc2)C(=O)O1
REMARK SMILES IDX 20 1 19 2 18 3 16 4 17 5 10 7 9 8 8 9 7 10 1 11 2 12 3 13
REMARK SMILES IDX 4 14 94 15 5 16 92 17 6 18 93 19 11 20 12 21 13 22 14 23
REMARK SMILES IDX 15 24 21 27 22 28 23 29 24 30 25 32 26 33 27 34 91 35 28 36
REMARK SMILES IDX 90 37 29 38 30 39 31 40 84 41 32 42 89 43 83 44 85 45 33 46
REMARK SMILES IDX 88 47 82 48 81 49 34 51 68 52 47 53 67 54 48 55 51 56 66 57
REMARK SMILES IDX 86 58 49 59 50 60 65 62 87 63 52 64 35 65 36 66 45 67 37 68
REMARK SMILES IDX 38 69 44 70 46 71 39 72 40 73 41 74 42 75 43 76 69 77 70 78
REMARK SMILES IDX 79 79 71 80 72 81 78 82 80 83 73 84 74 85 75 86 76 87 77 88
REMARK SMILES IDX 53 89 54 90 63 91 55 92 56 93 62 94 64 95 57 96 58 97 59 98
REMARK SMILES IDX 60 99 61 100
REMARK H PARENT 18 6 14 25 14 26 23 31 85 50 51 61
REMARK Flexibility Score: inf
ROOT
ATOM      1  C   UNL A   1      41.382  19.426  25.922  1.00  0.00     0.023 C 
ENDROOT
BRANCH   1   2
ATOM      2  C   UNL A   1      42.744  19.877  26.423  1.00  0.00     0.116 C 
BRANCH   2   3
ATOM      3  N   UNL A   1      43.780  18.901  26.226  1.00  0.00    -0.354 N 
ATOM      4  C   UNL A   1      44.858  18.936  25.390  1.00  0.00     0.244 C 
ATOM      5  O   UNL A   1      45.677  18.014  25.478  1.00  0.00    -0.273 OA
ATOM      6  H   UNL A   1      43.700  18.087  26.774  1.00  0.00     0.163 HD
BRANCH   4   7
ATOM      7  C   UNL A   1      45.055  20.063  24.358  1.00  0.00     0.194 C 
BRANCH   7   8
ATOM      8  N   UNL A   1      45.784  21.204  24.957  1.00  0.00    -0.283 NA
ATOM      9  C   UNL A   1      45.371  22.410  25.002  1.00  0.00     0.105 C 
BRANCH   9  10
ATOM     10  C   UNL A   1      46.184  23.477  25.697  1.00  0.00     0.250 C 
ATOM     11  C   UNL A   1      43.718  26.446  25.557  1.00  0.00     0.106 C 
ATOM     12  C   UNL A   1      45.154  26.100  25.947  1.00  0.00     0.252 C 
ATOM     13  C   UNL A   1      45.880  27.348  26.445  1.00  0.00     0.106 C 
ATOM     14  O   UNL A   1      45.821  25.664  24.769  1.00  0.00    -0.422 OA
ATOM     15  O   UNL A   1      45.103  25.185  27.043  1.00  0.00    -0.422 OA
ATOM     16  C   UNL A   1      46.607  24.579  24.799  1.00  0.00     0.329 C 
ATOM     17  C   UNL A   1      45.506  23.914  26.939  1.00  0.00     0.329 C 
ATOM     18  O   UNL A   1      47.563  24.489  24.037  1.00  0.00    -0.251 OA
ATOM     19  O   UNL A   1      45.279  23.121  27.849  1.00  0.00    -0.251 OA
ENDBRANCH   9  10
ENDBRANCH   7   8
BRANCH   7  20
ATOM     20  C   UNL A   1      45.330  19.692  22.890  1.00  0.00     0.047 C 
BRANCH  20  21
ATOM     21  C   UNL A   1      44.885  18.355  22.294  1.00  0.00     0.102 C 
BRANCH  21  22
ATOM     22  C   UNL A   1      45.857  17.732  21.317  1.00  0.00     0.217 C 
ATOM     23  N   UNL A   1      45.386  16.613  20.693  1.00  0.00    -0.370 N 
ATOM     24  O   UNL A   1      46.984  18.149  21.097  1.00  0.00    -0.275 OA
ATOM     25  H   UNL A   1      44.476  16.291  20.881  1.00  0.00     0.159 HD
ATOM     26  H   UNL A   1      45.958  16.129  20.053  1.00  0.00     0.159 HD
ENDBRANCH  21  22
ENDBRANCH  20  21
ENDBRANCH   7  20
ENDBRANCH   4   7
ENDBRANCH   2   3
ENDBRANCH   1   2
BRANCH   1  27
ATOM     27  C   UNL A   1      40.198  20.219  26.463  1.00  0.00     0.023 C 
BRANCH  27  28
ATOM     28  C   UNL A   1      40.225  21.718  26.180  1.00  0.00     0.116 C 
BRANCH  28  29
ATOM     29  N   UNL A   1      38.974  22.256  25.656  1.00  0.00    -0.352 N 
ATOM     30  C   UNL A   1      38.441  23.511  25.870  1.00  0.00     0.251 C 
ATOM     31  H   UNL A   1      38.447  21.653  25.082  1.00  0.00     0.163 HD
ATOM     32  O   UNL A   1      37.346  23.810  25.419  1.00  0.00    -0.269 OA
BRANCH  30  33
ATOM     33  C   UNL A   1      39.222  24.456  26.695  1.00  0.00     0.039 A 
ATOM     34  C   UNL A   1      40.070  25.368  26.063  1.00  0.00     0.014 A 
ATOM     35  C   UNL A   1      38.982  24.531  28.068  1.00  0.00     0.014 A 
ATOM     36  C   UNL A   1      40.598  26.430  26.801  1.00  0.00     0.010 A 
ATOM     37  C   UNL A   1      39.446  25.630  28.779  1.00  0.00     0.010 A 
ATOM     38  C   UNL A   1      40.243  26.600  28.150  1.00  0.00    -0.014 A 
BRANCH  38  39
ATOM     39  C   UNL A   1      40.664  27.796  28.924  1.00  0.00     0.031 A 
ATOM     40  C   UNL A   1      41.996  27.802  29.620  1.00  0.00     0.074 A 
ATOM     41  C   UNL A   1      39.808  28.824  29.088  1.00  0.00     0.049 A 
ATOM     42  N   UNL A   1      42.490  28.683  30.451  1.00  0.00    -0.248 NA
ATOM     43  C   UNL A   1      42.872  26.643  29.382  1.00  0.00     0.031 C 
ATOM     44  C   UNL A   1      38.459  28.909  28.521  1.00  0.00     0.029 A 
ATOM     45  N   UNL A   1      39.938  29.992  29.799  1.00  0.00    -0.354 N 
ATOM     46  C   UNL A   1      43.715  28.172  30.858  1.00  0.00     0.074 A 
ATOM     47  C   UNL A   1      43.870  26.883  30.219  1.00  0.00     0.031 C 
ATOM     48  C   UNL A   1      37.898  30.073  28.888  1.00  0.00     0.029 A 
ATOM     49  C   UNL A   1      38.829  30.802  29.743  1.00  0.00     0.049 A 
ATOM     50  H   UNL A   1      40.750  30.227  30.302  1.00  0.00     0.167 HD
ATOM     51  C   UNL A   1      44.640  28.734  31.671  1.00  0.00     0.037 A 
ATOM     52  C   UNL A   1      38.587  31.997  30.319  1.00  0.00     0.037 A 
ATOM     53  C   UNL A   1      44.505  30.037  32.263  1.00  0.00     0.049 A 
ATOM     54  C   UNL A   1      39.650  32.625  31.178  1.00  0.00     0.074 A 
ATOM     55  C   UNL A   1      45.417  30.727  33.044  1.00  0.00     0.029 A 
ATOM     56  N   UNL A   1      43.392  30.854  32.132  1.00  0.00    -0.354 N 
ATOM     57  N   UNL A   1      40.830  32.152  31.505  1.00  0.00    -0.248 NA
ATOM     58  C   UNL A   1      39.355  33.950  31.741  1.00  0.00     0.031 C 
ATOM     59  C   UNL A   1      44.846  31.954  33.401  1.00  0.00     0.029 A 
ATOM     60  C   UNL A   1      43.591  32.039  32.817  1.00  0.00     0.049 A 
ATOM     61  H   UNL A   1      42.580  30.624  31.625  1.00  0.00     0.167 HD
ATOM     62  C   UNL A   1      41.425  33.131  32.291  1.00  0.00     0.074 A 
ATOM     63  C   UNL A   1      40.481  34.226  32.385  1.00  0.00     0.031 C 
ATOM     64  C   UNL A   1      42.645  33.125  32.884  1.00  0.00     0.037 A 
BRANCH  51  65
ATOM     65  C   UNL A   1      45.886  27.943  31.948  1.00  0.00     0.058 A 
ATOM     66  C   UNL A   1      47.050  28.117  31.182  1.00  0.00     0.135 A 
ATOM     67  C   UNL A   1      45.923  27.008  32.995  1.00  0.00     0.135 A 
ATOM     68  F   UNL A   1      47.060  28.985  30.158  1.00  0.00    -0.206 F 
ATOM     69  C   UNL A   1      48.195  27.366  31.419  1.00  0.00     0.059 A 
ATOM     70  C   UNL A   1      47.067  26.264  33.267  1.00  0.00     0.059 A 
ATOM     71  F   UNL A   1      44.837  26.802  33.756  1.00  0.00    -0.206 F 
ATOM     72  C   UNL A   1      48.192  26.437  32.460  1.00  0.00     0.060 A 
BRANCH  72  73
ATOM     73  S   UNL A   1      49.681  25.460  32.750  1.00  0.00     0.124 S 
ATOM     74  O   UNL A   1      50.635  26.494  33.138  1.00  0.00    -0.237 OA
ATOM     75  O   UNL A   1      49.263  24.554  33.815  1.00  0.00    -0.237 OA
ATOM     76  O   UNL A   1      49.928  24.829  31.457  1.00  0.00    -0.744 OA
ENDBRANCH  72  73
ENDBRANCH  51  65
BRANCH  52  77
ATOM     77  C   UNL A   1      37.298  32.695  30.074  1.00  0.00     0.058 A 
ATOM     78  C   UNL A   1      37.217  33.735  29.137  1.00  0.00     0.135 A 
ATOM     79  C   UNL A   1      36.127  32.333  30.755  1.00  0.00     0.135 A 
ATOM     80  F   UNL A   1      38.313  34.119  28.465  1.00  0.00    -0.206 F 
ATOM     81  C   UNL A   1      36.023  34.405  28.894  1.00  0.00     0.059 A 
ATOM     82  C   UNL A   1      34.915  32.975  30.514  1.00  0.00     0.059 A 
ATOM     83  F   UNL A   1      36.150  31.331  31.648  1.00  0.00    -0.206 F 
ATOM     84  C   UNL A   1      34.876  34.017  29.588  1.00  0.00     0.060 A 
BRANCH  84  85
ATOM     85  S   UNL A   1      33.318  34.857  29.226  1.00  0.00     0.124 S 
ATOM     86  O   UNL A   1      33.787  36.107  28.643  1.00  0.00    -0.237 OA
ATOM     87  O   UNL A   1      32.671  33.925  28.306  1.00  0.00    -0.237 OA
ATOM     88  O   UNL A   1      32.686  34.966  30.538  1.00  0.00    -0.744 OA
ENDBRANCH  84  85
ENDBRANCH  52  77
BRANCH  64  89
ATOM     89  C   UNL A   1      43.046  34.348  33.653  1.00  0.00     0.058 A 
ATOM     90  C   UNL A   1      42.745  34.490  35.016  1.00  0.00     0.135 A 
ATOM     91  C   UNL A   1      43.797  35.360  33.034  1.00  0.00     0.135 A 
ATOM     92  F   UNL A   1      42.023  33.552  35.650  1.00  0.00    -0.206 F 
ATOM     93  C   UNL A   1      43.163  35.603  35.737  1.00  0.00     0.059 A 
ATOM     94  C   UNL A   1      44.243  36.472  33.741  1.00  0.00     0.059 A 
ATOM     95  F   UNL A   1      44.117  35.265  31.734  1.00  0.00    -0.206 F 
ATOM     96  C   UNL A   1      43.914  36.588  35.092  1.00  0.00     0.060 A 
BRANCH  96  97
ATOM     97  S   UNL A   1      44.494  38.005  36.047  1.00  0.00     0.124 S 
ATOM     98  O   UNL A   1      43.847  37.776  37.335  1.00  0.00    -0.237 OA
ATOM     99  O   UNL A   1      45.943  37.827  36.027  1.00  0.00    -0.237 OA
ATOM    100  O   UNL A   1      44.000  39.150  35.289  1.00  0.00    -0.744 OA
ENDBRANCH  96  97
ENDBRANCH  64  89
ENDBRANCH  38  39
ENDBRANCH  30  33
ENDBRANCH  28  29
ENDBRANCH  27  28
ENDBRANCH   1  27
TORSDOF 19
ENDMDL
