MODEL 1
REMARK VINA RESULT:     -11.6      0.000      0.000
REMARK SMILES CCOc1cc(NC(=O)c2c(C(=O)NCCCCNC(=O)c3ccc(-c4c5nc(c(-c6c(F)cc(S(=O)(=O)[O-])cc6F)c6ccc([nH]6)c(-c6c(F)cc(S(=O)(=O)[O-])cc6F)c6nc(c(-c7c(F)cc(S(=O)(=O)[O-])cc7F)c7ccc4[nH]7)C=C6)C=C5)cc3)cnn2C)ccc1OC(F)F
REMARK SMILES IDX 16 1 15 2 14 3 12 4 13 5 11 7 10 8 90 9 88 10 89 11 91 12
REMARK SMILES IDX 8 13 7 14 9 16 6 17 4 18 5 19 94 20 93 21 92 22 3 23 2 24
REMARK SMILES IDX 1 25 95 26 96 27 97 28 98 29 17 30 18 31 19 32 20 33 21 35
REMARK SMILES IDX 22 36 23 37 87 38 24 39 86 40 25 41 26 42 27 43 80 44 28 45
REMARK SMILES IDX 85 46 79 47 81 48 29 49 84 50 78 51 77 52 30 54 64 55 43 56
REMARK SMILES IDX 63 57 44 58 47 59 62 60 82 61 45 62 46 63 61 65 83 66 48 67
REMARK SMILES IDX 31 68 32 69 41 70 33 71 34 72 40 73 42 74 35 75 36 76 37 77
REMARK SMILES IDX 38 78 39 79 65 80 66 81 75 82 67 83 68 84 74 85 76 86 69 87
REMARK SMILES IDX 70 88 71 89 72 90 73 91 49 92 50 93 59 94 51 95 52 96 58 97
REMARK SMILES IDX 60 98 53 99 54 100 55 101 56 102 57 103
REMARK H PARENT 14 6 7 15 19 34 81 53 47 64
REMARK Flexibility Score: inf
ROOT
ATOM      1  C   UNL A   1      33.207  27.558  26.902  1.00  0.00     0.023 C 
ENDROOT
BRANCH   1   2
ATOM      2  C   UNL A   1      31.824  27.238  26.339  1.00  0.00     0.116 C 
BRANCH   2   3
ATOM      3  N   UNL A   1      31.253  26.001  26.811  1.00  0.00    -0.352 N 
ATOM      4  C   UNL A   1      31.605  24.694  26.606  1.00  0.00     0.255 C 
ATOM      5  O   UNL A   1      30.869  23.851  27.123  1.00  0.00    -0.269 OA
ATOM      6  H   UNL A   1      30.464  26.118  27.387  1.00  0.00     0.163 HD
BRANCH   4   7
ATOM      7  C   UNL A   1      32.725  24.263  25.781  1.00  0.00     0.090 A 
ATOM      8  C   UNL A   1      32.840  23.581  24.570  1.00  0.00     0.138 A 
ATOM      9  N   UNL A   1      34.176  23.636  24.240  1.00  0.00    -0.262 N 
ATOM     10  C   UNL A   1      34.073  24.583  26.104  1.00  0.00     0.149 A 
ATOM     11  N   UNL A   1      34.955  24.142  25.209  1.00  0.00    -0.180 NA
ATOM     12  C   UNL A   1      34.809  23.193  23.017  1.00  0.00     0.174 C 
BRANCH   8  13
ATOM     13  C   UNL A   1      31.852  23.054  23.682  1.00  0.00     0.274 C 
ATOM     14  N   UNL A   1      30.869  23.863  23.153  1.00  0.00    -0.321 N 
ATOM     15  H   UNL A   1      30.205  23.358  22.630  1.00  0.00     0.170 HD
ATOM     16  O   UNL A   1      31.831  21.864  23.372  1.00  0.00    -0.267 OA
BRANCH  14  17
ATOM     17  C   UNL A   1      30.597  25.247  23.188  1.00  0.00     0.045 A 
ATOM     18  C   UNL A   1      31.073  27.618  22.816  1.00  0.00     0.163 A 
ATOM     19  C   UNL A   1      31.430  26.260  22.712  1.00  0.00     0.076 A 
ATOM     20  C   UNL A   1      29.823  27.969  23.330  1.00  0.00     0.168 A 
ATOM     21  C   UNL A   1      28.963  26.957  23.763  1.00  0.00     0.053 A 
ATOM     22  C   UNL A   1      29.355  25.615  23.717  1.00  0.00     0.030 A 
BRANCH  18  23
ATOM     23  O   UNL A   1      31.894  28.601  22.332  1.00  0.00    -0.490 OA
BRANCH  23  24
ATOM     24  C   UNL A   1      32.962  28.973  23.213  1.00  0.00     0.226 C 
ATOM     25  C   UNL A   1      34.271  28.504  22.601  1.00  0.00     0.049 C 
ENDBRANCH  23  24
ENDBRANCH  18  23
BRANCH  20  26
ATOM     26  O   UNL A   1      29.291  29.225  23.409  1.00  0.00    -0.431 OA
BRANCH  26  27
ATOM     27  C   UNL A   1      28.288  29.585  22.466  1.00  0.00     0.542 C 
ATOM     28  F   UNL A   1      27.377  30.431  23.005  1.00  0.00    -0.167 F 
ATOM     29  F   UNL A   1      28.849  30.161  21.379  1.00  0.00    -0.167 F 
ENDBRANCH  26  27
ENDBRANCH  20  26
ENDBRANCH  14  17
ENDBRANCH   8  13
ENDBRANCH   4   7
ENDBRANCH   2   3
ENDBRANCH   1   2
BRANCH   1  30
ATOM     30  C   UNL A   1      33.647  29.025  26.884  1.00  0.00     0.023 C 
BRANCH  30  31
ATOM     31  C   UNL A   1      35.072  29.328  27.343  1.00  0.00     0.116 C 
BRANCH  31  32
ATOM     32  N   UNL A   1      35.131  30.084  28.582  1.00  0.00    -0.352 N 
ATOM     33  C   UNL A   1      36.151  30.287  29.478  1.00  0.00     0.251 C 
ATOM     34  H   UNL A   1      34.287  30.531  28.822  1.00  0.00     0.163 HD
ATOM     35  O   UNL A   1      35.899  30.876  30.529  1.00  0.00    -0.269 OA
BRANCH  33  36
ATOM     36  C   UNL A   1      37.528  29.792  29.232  1.00  0.00     0.039 A 
ATOM     37  C   UNL A   1      38.024  29.850  27.924  1.00  0.00     0.014 A 
ATOM     38  C   UNL A   1      38.314  29.222  30.237  1.00  0.00     0.014 A 
ATOM     39  C   UNL A   1      39.324  29.417  27.642  1.00  0.00     0.010 A 
ATOM     40  C   UNL A   1      39.633  28.841  29.967  1.00  0.00     0.010 A 
ATOM     41  C   UNL A   1      40.156  28.948  28.670  1.00  0.00    -0.014 A 
BRANCH  41  42
ATOM     42  C   UNL A   1      41.576  28.595  28.408  1.00  0.00     0.031 A 
ATOM     43  C   UNL A   1      42.655  29.639  28.474  1.00  0.00     0.074 A 
ATOM     44  C   UNL A   1      41.896  27.335  28.053  1.00  0.00     0.049 A 
ATOM     45  N   UNL A   1      43.914  29.545  28.131  1.00  0.00    -0.248 NA
ATOM     46  C   UNL A   1      42.262  30.966  28.972  1.00  0.00     0.031 C 
ATOM     47  C   UNL A   1      40.952  26.223  27.927  1.00  0.00     0.029 A 
ATOM     48  N   UNL A   1      43.109  26.780  27.729  1.00  0.00    -0.354 N 
ATOM     49  C   UNL A   1      44.453  30.812  28.312  1.00  0.00     0.074 A 
ATOM     50  C   UNL A   1      43.388  31.652  28.823  1.00  0.00     0.031 C 
ATOM     51  C   UNL A   1      41.625  25.114  27.582  1.00  0.00     0.029 A 
ATOM     52  C   UNL A   1      43.039  25.441  27.428  1.00  0.00     0.049 A 
ATOM     53  H   UNL A   1      43.949  27.293  27.713  1.00  0.00     0.167 HD
ATOM     54  C   UNL A   1      45.713  31.241  28.064  1.00  0.00     0.037 A 
ATOM     55  C   UNL A   1      44.002  24.575  27.062  1.00  0.00     0.037 A 
ATOM     56  C   UNL A   1      46.793  30.407  27.609  1.00  0.00     0.049 A 
ATOM     57  C   UNL A   1      45.414  25.048  26.899  1.00  0.00     0.074 A 
ATOM     58  C   UNL A   1      48.101  30.762  27.322  1.00  0.00     0.029 A 
ATOM     59  N   UNL A   1      46.696  29.040  27.397  1.00  0.00    -0.354 N 
ATOM     60  N   UNL A   1      45.893  26.261  27.031  1.00  0.00    -0.248 NA
ATOM     61  C   UNL A   1      46.415  24.037  26.530  1.00  0.00     0.031 C 
ATOM     62  C   UNL A   1      48.799  29.604  26.949  1.00  0.00     0.029 A 
ATOM     63  C   UNL A   1      47.924  28.533  27.003  1.00  0.00     0.049 A 
ATOM     64  H   UNL A   1      45.876  28.509  27.509  1.00  0.00     0.167 HD
ATOM     65  C   UNL A   1      47.250  26.162  26.753  1.00  0.00     0.074 A 
ATOM     66  C   UNL A   1      47.520  24.768  26.461  1.00  0.00     0.031 C 
ATOM     67  C   UNL A   1      48.183  27.144  26.729  1.00  0.00     0.037 A 
BRANCH  54  68
ATOM     68  C   UNL A   1      45.973  32.704  28.258  1.00  0.00     0.058 A 
ATOM     69  C   UNL A   1      45.798  33.624  27.213  1.00  0.00     0.135 A 
ATOM     70  C   UNL A   1      46.425  33.184  29.496  1.00  0.00     0.135 A 
ATOM     71  F   UNL A   1      45.385  33.205  26.007  1.00  0.00    -0.206 F 
ATOM     72  C   UNL A   1      46.090  34.973  27.383  1.00  0.00     0.059 A 
ATOM     73  C   UNL A   1      46.715  34.529  29.691  1.00  0.00     0.059 A 
ATOM     74  F   UNL A   1      46.614  32.337  30.521  1.00  0.00    -0.206 F 
ATOM     75  C   UNL A   1      46.563  35.413  28.621  1.00  0.00     0.060 A 
BRANCH  75  76
ATOM     76  S   UNL A   1      46.988  37.153  28.853  1.00  0.00     0.124 S 
ATOM     77  O   UNL A   1      45.666  37.758  28.979  1.00  0.00    -0.237 OA
ATOM     78  O   UNL A   1      47.793  37.138  30.070  1.00  0.00    -0.237 OA
ATOM     79  O   UNL A   1      47.717  37.475  27.630  1.00  0.00    -0.744 OA
ENDBRANCH  75  76
ENDBRANCH  54  68
BRANCH  55  80
ATOM     80  C   UNL A   1      43.646  23.156  26.836  1.00  0.00     0.058 A 
ATOM     81  C   UNL A   1      43.331  22.322  27.918  1.00  0.00     0.135 A 
ATOM     82  C   UNL A   1      43.560  22.626  25.542  1.00  0.00     0.135 A 
ATOM     83  F   UNL A   1      43.402  22.792  29.172  1.00  0.00    -0.206 F 
ATOM     84  C   UNL A   1      42.930  21.004  27.724  1.00  0.00     0.059 A 
ATOM     85  C   UNL A   1      43.155  21.314  25.323  1.00  0.00     0.059 A 
ATOM     86  F   UNL A   1      43.843  23.396  24.480  1.00  0.00    -0.206 F 
ATOM     87  C   UNL A   1      42.842  20.511  26.422  1.00  0.00     0.060 A 
BRANCH  87  88
ATOM     88  S   UNL A   1      42.230  18.833  26.147  1.00  0.00     0.124 S 
ATOM     89  O   UNL A   1      43.144  18.353  25.118  1.00  0.00    -0.237 OA
ATOM     90  O   UNL A   1      42.373  18.218  27.464  1.00  0.00    -0.237 OA
ATOM     91  O   UNL A   1      40.853  19.060  25.721  1.00  0.00    -0.744 OA
ENDBRANCH  87  88
ENDBRANCH  55  80
BRANCH  67  92
ATOM     92  C   UNL A   1      49.583  26.738  26.383  1.00  0.00     0.058 A 
ATOM     93  C   UNL A   1      50.060  26.842  25.068  1.00  0.00     0.135 A 
ATOM     94  C   UNL A   1      50.455  26.253  27.369  1.00  0.00     0.135 A 
ATOM     95  F   UNL A   1      49.258  27.295  24.093  1.00  0.00    -0.206 F 
ATOM     96  C   UNL A   1      51.359  26.468  24.738  1.00  0.00     0.059 A 
ATOM     97  C   UNL A   1      51.757  25.875  27.061  1.00  0.00     0.059 A 
ATOM     98  F   UNL A   1      50.038  26.132  28.639  1.00  0.00    -0.206 F 
ATOM     99  C   UNL A   1      52.197  25.977  25.740  1.00  0.00     0.060 A 
BRANCH  99 100
ATOM    100  S   UNL A   1      53.890  25.501  25.327  1.00  0.00     0.124 S 
ATOM    101  O   UNL A   1      53.861  24.065  25.587  1.00  0.00    -0.237 OA
ATOM    102  O   UNL A   1      54.006  25.886  23.924  1.00  0.00    -0.237 OA
ATOM    103  O   UNL A   1      54.690  26.295  26.255  1.00  0.00    -0.744 OA
ENDBRANCH  99 100
ENDBRANCH  67  92
ENDBRANCH  41  42
ENDBRANCH  33  36
ENDBRANCH  31  32
ENDBRANCH  30  31
ENDBRANCH   1  30
TORSDOF 20
ENDMDL
MODEL 2
REMARK VINA RESULT:     -11.4      4.630     10.063
REMARK SMILES CCOc1cc(NC(=O)c2c(C(=O)NCCCCNC(=O)c3ccc(-c4c5nc(c(-c6c(F)cc(S(=O)(=O)[O-])cc6F)c6ccc([nH]6)c(-c6c(F)cc(S(=O)(=O)[O-])cc6F)c6nc(c(-c7c(F)cc(S(=O)(=O)[O-])cc7F)c7ccc4[nH]7)C=C6)C=C5)cc3)cnn2C)ccc1OC(F)F
REMARK SMILES IDX 16 1 15 2 14 3 12 4 13 5 11 7 10 8 90 9 88 10 89 11 91 12
REMARK SMILES IDX 8 13 7 14 9 16 6 17 4 18 5 19 94 20 93 21 92 22 3 23 2 24
REMARK SMILES IDX 1 25 95 26 96 27 97 28 98 29 17 30 18 31 19 32 20 33 21 35
REMARK SMILES IDX 22 36 23 37 87 38 24 39 86 40 25 41 26 42 27 43 80 44 28 45
REMARK SMILES IDX 85 46 79 47 81 48 29 49 84 50 78 51 77 52 30 54 64 55 43 56
REMARK SMILES IDX 63 57 44 58 47 59 62 60 82 61 45 62 46 63 61 65 83 66 48 67
REMARK SMILES IDX 31 68 32 69 41 70 33 71 34 72 40 73 42 74 35 75 36 76 37 77
REMARK SMILES IDX 38 78 39 79 65 80 66 81 75 82 67 83 68 84 74 85 76 86 69 87
REMARK SMILES IDX 70 88 71 89 72 90 73 91 49 92 50 93 59 94 51 95 52 96 58 97
REMARK SMILES IDX 60 98 53 99 54 100 55 101 56 102 57 103
REMARK H PARENT 14 6 7 15 19 34 81 53 47 64
REMARK Flexibility Score: inf
ROOT
ATOM      1  C   UNL A   1      34.606  23.539  24.688  1.00  0.00     0.023 C 
ENDROOT
BRANCH   1   2
ATOM      2  C   UNL A   1      33.973  24.902  24.417  1.00  0.00     0.116 C 
BRANCH   2   3
ATOM      3  N   UNL A   1      33.938  25.282  23.026  1.00  0.00    -0.352 N 
ATOM      4  C   UNL A   1      33.560  26.442  22.404  1.00  0.00     0.255 C 
ATOM      5  O   UNL A   1      33.604  26.431  21.172  1.00  0.00    -0.269 OA
ATOM      6  H   UNL A   1      34.240  24.576  22.410  1.00  0.00     0.163 HD
BRANCH   4   7
ATOM      7  C   UNL A   1      33.063  27.623  23.096  1.00  0.00     0.090 A 
ATOM      8  C   UNL A   1      31.814  28.233  23.213  1.00  0.00     0.138 A 
ATOM      9  N   UNL A   1      31.974  29.228  24.151  1.00  0.00    -0.262 N 
ATOM     10  C   UNL A   1      33.892  28.411  23.942  1.00  0.00     0.149 A 
ATOM     11  N   UNL A   1      33.250  29.423  24.523  1.00  0.00    -0.180 NA
ATOM     12  C   UNL A   1      30.956  30.074  24.732  1.00  0.00     0.174 C 
BRANCH   8  13
ATOM     13  C   UNL A   1      30.538  27.887  22.672  1.00  0.00     0.274 C 
ATOM     14  N   UNL A   1      29.900  26.724  23.045  1.00  0.00    -0.321 N 
ATOM     15  H   UNL A   1      29.073  26.565  22.534  1.00  0.00     0.170 HD
ATOM     16  O   UNL A   1      29.970  28.602  21.846  1.00  0.00    -0.267 OA
BRANCH  14  17
ATOM     17  C   UNL A   1      30.159  25.709  23.989  1.00  0.00     0.045 A 
ATOM     18  C   UNL A   1      30.779  23.457  24.723  1.00  0.00     0.163 A 
ATOM     19  C   UNL A   1      30.568  24.405  23.703  1.00  0.00     0.076 A 
ATOM     20  C   UNL A   1      30.661  23.840  26.061  1.00  0.00     0.168 A 
ATOM     21  C   UNL A   1      30.301  25.157  26.356  1.00  0.00     0.053 A 
ATOM     22  C   UNL A   1      30.029  26.072  25.334  1.00  0.00     0.030 A 
BRANCH  18  23
ATOM     23  O   UNL A   1      31.193  22.186  24.428  1.00  0.00    -0.490 OA
BRANCH  23  24
ATOM     24  C   UNL A   1      31.763  22.032  23.122  1.00  0.00     0.226 C 
ATOM     25  C   UNL A   1      32.518  20.715  23.083  1.00  0.00     0.049 C 
ENDBRANCH  23  24
ENDBRANCH  18  23
BRANCH  20  26
ATOM     26  O   UNL A   1      30.924  23.074  27.160  1.00  0.00    -0.431 OA
BRANCH  26  27
ATOM     27  C   UNL A   1      32.284  22.886  27.533  1.00  0.00     0.542 C 
ATOM     28  F   UNL A   1      32.837  21.832  26.885  1.00  0.00    -0.167 F 
ATOM     29  F   UNL A   1      33.003  24.001  27.272  1.00  0.00    -0.167 F 
ENDBRANCH  26  27
ENDBRANCH  20  26
ENDBRANCH  14  17
ENDBRANCH   8  13
ENDBRANCH   4   7
ENDBRANCH   2   3
ENDBRANCH   1   2
BRANCH   1  30
ATOM     30  C   UNL A   1      35.860  23.515  25.568  1.00  0.00     0.023 C 
BRANCH  30  31
ATOM     31  C   UNL A   1      37.207  23.653  24.859  1.00  0.00     0.116 C 
BRANCH  31  32
ATOM     32  N   UNL A   1      38.196  22.689  25.308  1.00  0.00    -0.352 N 
ATOM     33  C   UNL A   1      39.315  22.829  26.093  1.00  0.00     0.251 C 
ATOM     34  H   UNL A   1      38.035  21.770  24.993  1.00  0.00     0.163 HD
ATOM     35  O   UNL A   1      40.065  21.861  26.222  1.00  0.00    -0.269 OA
BRANCH  33  36
ATOM     36  C   UNL A   1      39.659  24.111  26.755  1.00  0.00     0.039 A 
ATOM     37  C   UNL A   1      39.198  24.322  28.060  1.00  0.00     0.014 A 
ATOM     38  C   UNL A   1      40.367  25.127  26.107  1.00  0.00     0.014 A 
ATOM     39  C   UNL A   1      39.514  25.504  28.738  1.00  0.00     0.010 A 
ATOM     40  C   UNL A   1      40.730  26.285  26.802  1.00  0.00     0.010 A 
ATOM     41  C   UNL A   1      40.319  26.479  28.129  1.00  0.00    -0.014 A 
BRANCH  41  42
ATOM     42  C   UNL A   1      40.760  27.686  28.876  1.00  0.00     0.031 A 
ATOM     43  C   UNL A   1      42.138  27.764  29.472  1.00  0.00     0.074 A 
ATOM     44  C   UNL A   1      39.898  28.704  29.070  1.00  0.00     0.049 A 
ATOM     45  N   UNL A   1      42.638  28.666  30.277  1.00  0.00    -0.248 NA
ATOM     46  C   UNL A   1      43.068  26.675  29.133  1.00  0.00     0.031 C 
ATOM     47  C   UNL A   1      38.523  28.757  28.571  1.00  0.00     0.029 A 
ATOM     48  N   UNL A   1      40.053  29.888  29.747  1.00  0.00    -0.354 N 
ATOM     49  C   UNL A   1      43.917  28.228  30.592  1.00  0.00     0.074 A 
ATOM     50  C   UNL A   1      44.127  26.990  29.868  1.00  0.00     0.031 C 
ATOM     51  C   UNL A   1      37.971  29.927  28.932  1.00  0.00     0.029 A 
ATOM     52  C   UNL A   1      38.937  30.689  29.717  1.00  0.00     0.049 A 
ATOM     53  H   UNL A   1      40.884  30.139  30.210  1.00  0.00     0.167 HD
ATOM     54  C   UNL A   1      44.829  28.794  31.418  1.00  0.00     0.037 A 
ATOM     55  C   UNL A   1      38.712  31.897  30.265  1.00  0.00     0.037 A 
ATOM     56  C   UNL A   1      44.655  30.049  32.100  1.00  0.00     0.049 A 
ATOM     57  C   UNL A   1      39.777  32.558  31.087  1.00  0.00     0.074 A 
ATOM     58  C   UNL A   1      45.525  30.693  32.965  1.00  0.00     0.029 A 
ATOM     59  N   UNL A   1      43.542  30.866  31.974  1.00  0.00    -0.354 N 
ATOM     60  N   UNL A   1      40.962  32.104  31.410  1.00  0.00    -0.248 NA
ATOM     61  C   UNL A   1      39.469  33.891  31.624  1.00  0.00     0.031 C 
ATOM     62  C   UNL A   1      44.940  31.908  33.352  1.00  0.00     0.029 A 
ATOM     63  C   UNL A   1      43.709  32.017  32.728  1.00  0.00     0.049 A 
ATOM     64  H   UNL A   1      42.749  30.658  31.430  1.00  0.00     0.167 HD
ATOM     65  C   UNL A   1      41.542  33.092  32.196  1.00  0.00     0.074 A 
ATOM     66  C   UNL A   1      40.583  34.175  32.287  1.00  0.00     0.031 C 
ATOM     67  C   UNL A   1      42.755  33.092  32.799  1.00  0.00     0.037 A 
BRANCH  54  68
ATOM     68  C   UNL A   1      46.094  28.026  31.646  1.00  0.00     0.058 A 
ATOM     69  C   UNL A   1      47.247  28.272  30.886  1.00  0.00     0.135 A 
ATOM     70  C   UNL A   1      46.144  27.016  32.619  1.00  0.00     0.135 A 
ATOM     71  F   UNL A   1      47.238  29.216  29.932  1.00  0.00    -0.206 F 
ATOM     72  C   UNL A   1      48.404  27.521  31.066  1.00  0.00     0.059 A 
ATOM     73  C   UNL A   1      47.291  26.258  32.821  1.00  0.00     0.059 A 
ATOM     74  F   UNL A   1      45.060  26.741  33.364  1.00  0.00    -0.206 F 
ATOM     75  C   UNL A   1      48.411  26.506  32.025  1.00  0.00     0.060 A 
BRANCH  75  76
ATOM     76  S   UNL A   1      49.888  25.490  32.247  1.00  0.00     0.124 S 
ATOM     77  O   UNL A   1      50.048  24.921  30.913  1.00  0.00    -0.237 OA
ATOM     78  O   UNL A   1      50.902  26.463  32.644  1.00  0.00    -0.237 OA
ATOM     79  O   UNL A   1      49.484  24.553  33.290  1.00  0.00    -0.744 OA
ENDBRANCH  75  76
ENDBRANCH  54  68
BRANCH  55  80
ATOM     80  C   UNL A   1      37.409  32.562  30.035  1.00  0.00     0.058 A 
ATOM     81  C   UNL A   1      36.303  32.256  30.839  1.00  0.00     0.135 A 
ATOM     82  C   UNL A   1      37.263  33.549  29.052  1.00  0.00     0.135 A 
ATOM     83  F   UNL A   1      36.404  31.316  31.792  1.00  0.00    -0.206 F 
ATOM     84  C   UNL A   1      35.089  32.917  30.684  1.00  0.00     0.059 A 
ATOM     85  C   UNL A   1      36.061  34.228  28.882  1.00  0.00     0.059 A 
ATOM     86  F   UNL A   1      38.302  33.878  28.269  1.00  0.00    -0.206 F 
ATOM     87  C   UNL A   1      34.980  33.904  29.704  1.00  0.00     0.060 A 
BRANCH  87  88
ATOM     88  S   UNL A   1      33.441  34.839  29.553  1.00  0.00     0.124 S 
ATOM     89  O   UNL A   1      33.911  36.081  28.953  1.00  0.00    -0.237 OA
ATOM     90  O   UNL A   1      32.627  33.984  28.694  1.00  0.00    -0.237 OA
ATOM     91  O   UNL A   1      32.985  34.931  30.937  1.00  0.00    -0.744 OA
ENDBRANCH  87  88
ENDBRANCH  55  80
BRANCH  67  92
ATOM     92  C   UNL A   1      43.112  34.305  33.602  1.00  0.00     0.058 A 
ATOM     93  C   UNL A   1      42.798  34.385  34.967  1.00  0.00     0.135 A 
ATOM     94  C   UNL A   1      43.779  35.387  33.010  1.00  0.00     0.135 A 
ATOM     95  F   UNL A   1      42.155  33.375  35.572  1.00  0.00    -0.206 F 
ATOM     96  C   UNL A   1      43.126  35.507  35.720  1.00  0.00     0.059 A 
ATOM     97  C   UNL A   1      44.117  36.518  33.745  1.00  0.00     0.059 A 
ATOM     98  F   UNL A   1      44.094  35.355  31.705  1.00  0.00    -0.206 F 
ATOM     99  C   UNL A   1      43.778  36.573  35.098  1.00  0.00     0.060 A 
BRANCH  99 100
ATOM    100  S   UNL A   1      44.222  38.031  36.067  1.00  0.00     0.124 S 
ATOM    101  O   UNL A   1      45.655  37.830  36.256  1.00  0.00    -0.237 OA
ATOM    102  O   UNL A   1      43.849  39.135  35.188  1.00  0.00    -0.237 OA
ATOM    103  O   UNL A   1      43.400  37.891  37.266  1.00  0.00    -0.744 OA
ENDBRANCH  99 100
ENDBRANCH  67  92
ENDBRANCH  41  42
ENDBRANCH  33  36
ENDBRANCH  31  32
ENDBRANCH  30  31
ENDBRANCH   1  30
TORSDOF 20
ENDMDL
MODEL 3
REMARK VINA RESULT:     -11.3      2.245      4.009
REMARK SMILES CCOc1cc(NC(=O)c2c(C(=O)NCCCCNC(=O)c3ccc(-c4c5nc(c(-c6c(F)cc(S(=O)(=O)[O-])cc6F)c6ccc([nH]6)c(-c6c(F)cc(S(=O)(=O)[O-])cc6F)c6nc(c(-c7c(F)cc(S(=O)(=O)[O-])cc7F)c7ccc4[nH]7)C=C6)C=C5)cc3)cnn2C)ccc1OC(F)F
REMARK SMILES IDX 16 1 15 2 14 3 12 4 13 5 11 7 10 8 90 9 88 10 89 11 91 12
REMARK SMILES IDX 8 13 7 14 9 16 6 17 4 18 5 19 94 20 93 21 92 22 3 23 2 24
REMARK SMILES IDX 1 25 95 26 96 27 97 28 98 29 17 30 18 31 19 32 20 33 21 35
REMARK SMILES IDX 22 36 23 37 87 38 24 39 86 40 25 41 26 42 27 43 80 44 28 45
REMARK SMILES IDX 85 46 79 47 81 48 29 49 84 50 78 51 77 52 30 54 64 55 43 56
REMARK SMILES IDX 63 57 44 58 47 59 62 60 82 61 45 62 46 63 61 65 83 66 48 67
REMARK SMILES IDX 31 68 32 69 41 70 33 71 34 72 40 73 42 74 35 75 36 76 37 77
REMARK SMILES IDX 38 78 39 79 65 80 66 81 75 82 67 83 68 84 74 85 76 86 69 87
REMARK SMILES IDX 70 88 71 89 72 90 73 91 49 92 50 93 59 94 51 95 52 96 58 97
REMARK SMILES IDX 60 98 53 99 54 100 55 101 56 102 57 103
REMARK H PARENT 14 6 7 15 19 34 81 53 47 64
REMARK Flexibility Score: inf
ROOT
ATOM      1  C   UNL A   1      33.631  29.404  26.574  1.00  0.00     0.023 C 
ENDROOT
BRANCH   1   2
ATOM      2  C   UNL A   1      33.610  28.488  25.353  1.00  0.00     0.116 C 
BRANCH   2   3
ATOM      3  N   UNL A   1      32.960  29.046  24.193  1.00  0.00    -0.352 N 
ATOM      4  C   UNL A   1      31.946  28.581  23.400  1.00  0.00     0.255 C 
ATOM      5  O   UNL A   1      31.645  29.291  22.438  1.00  0.00    -0.269 OA
ATOM      6  H   UNL A   1      33.312  29.924  23.920  1.00  0.00     0.163 HD
BRANCH   4   7
ATOM      7  C   UNL A   1      31.274  27.303  23.589  1.00  0.00     0.090 A 
ATOM      8  C   UNL A   1      31.278  26.087  22.907  1.00  0.00     0.138 A 
ATOM      9  N   UNL A   1      30.557  25.217  23.693  1.00  0.00    -0.262 N 
ATOM     10  C   UNL A   1      30.437  27.045  24.710  1.00  0.00     0.149 A 
ATOM     11  N   UNL A   1      29.947  25.806  24.735  1.00  0.00    -0.180 NA
ATOM     12  C   UNL A   1      30.368  23.796  23.507  1.00  0.00     0.174 C 
BRANCH   8  13
ATOM     13  C   UNL A   1      31.981  25.660  21.738  1.00  0.00     0.274 C 
ATOM     14  N   UNL A   1      33.110  24.874  21.836  1.00  0.00    -0.321 N 
ATOM     15  H   UNL A   1      33.544  24.726  20.965  1.00  0.00     0.170 HD
ATOM     16  O   UNL A   1      31.619  25.988  20.609  1.00  0.00    -0.267 OA
BRANCH  14  17
ATOM     17  C   UNL A   1      33.785  24.235  22.897  1.00  0.00     0.045 A 
ATOM     18  C   UNL A   1      34.469  22.329  24.272  1.00  0.00     0.163 A 
ATOM     19  C   UNL A   1      33.777  22.866  23.169  1.00  0.00     0.076 A 
ATOM     20  C   UNL A   1      35.254  23.163  25.071  1.00  0.00     0.168 A 
ATOM     21  C   UNL A   1      35.308  24.527  24.774  1.00  0.00     0.053 A 
ATOM     22  C   UNL A   1      34.562  25.060  23.717  1.00  0.00     0.030 A 
BRANCH  18  23
ATOM     23  O   UNL A   1      34.463  20.982  24.519  1.00  0.00    -0.490 OA
BRANCH  23  24
ATOM     24  C   UNL A   1      33.186  20.451  24.894  1.00  0.00     0.226 C 
ATOM     25  C   UNL A   1      33.038  19.076  24.266  1.00  0.00     0.049 C 
ENDBRANCH  23  24
ENDBRANCH  18  23
BRANCH  20  26
ATOM     26  O   UNL A   1      36.056  22.787  26.110  1.00  0.00    -0.431 OA
BRANCH  26  27
ATOM     27  C   UNL A   1      37.433  23.144  26.054  1.00  0.00     0.542 C 
ATOM     28  F   UNL A   1      37.758  24.028  27.029  1.00  0.00    -0.167 F 
ATOM     29  F   UNL A   1      38.210  22.044  26.167  1.00  0.00    -0.167 F 
ENDBRANCH  26  27
ENDBRANCH  20  26
ENDBRANCH  14  17
ENDBRANCH   8  13
ENDBRANCH   4   7
ENDBRANCH   2   3
ENDBRANCH   1   2
BRANCH   1  30
ATOM     30  C   UNL A   1      34.909  29.411  27.420  1.00  0.00     0.023 C 
BRANCH  30  31
ATOM     31  C   UNL A   1      35.326  30.746  28.035  1.00  0.00     0.116 C 
BRANCH  31  32
ATOM     32  N   UNL A   1      35.295  30.746  29.488  1.00  0.00    -0.352 N 
ATOM     33  C   UNL A   1      36.260  30.449  30.420  1.00  0.00     0.251 C 
ATOM     34  H   UNL A   1      34.427  31.006  29.872  1.00  0.00     0.163 HD
ATOM     35  O   UNL A   1      35.934  30.406  31.606  1.00  0.00    -0.269 OA
BRANCH  33  36
ATOM     36  C   UNL A   1      37.661  30.150  30.037  1.00  0.00     0.039 A 
ATOM     37  C   UNL A   1      38.542  29.726  31.040  1.00  0.00     0.014 A 
ATOM     38  C   UNL A   1      38.142  30.333  28.738  1.00  0.00     0.014 A 
ATOM     39  C   UNL A   1      39.868  29.409  30.729  1.00  0.00     0.010 A 
ATOM     40  C   UNL A   1      39.452  29.963  28.414  1.00  0.00     0.010 A 
ATOM     41  C   UNL A   1      40.324  29.484  29.404  1.00  0.00    -0.014 A 
BRANCH  41  42
ATOM     42  C   UNL A   1      41.694  29.041  29.037  1.00  0.00     0.031 A 
ATOM     43  C   UNL A   1      42.854  29.995  29.092  1.00  0.00     0.074 A 
ATOM     44  C   UNL A   1      41.893  27.783  28.595  1.00  0.00     0.049 A 
ATOM     45  N   UNL A   1      44.080  29.827  28.667  1.00  0.00    -0.248 NA
ATOM     46  C   UNL A   1      42.596  31.317  29.684  1.00  0.00     0.031 C 
ATOM     47  C   UNL A   1      40.859  26.755  28.467  1.00  0.00     0.029 A 
ATOM     48  N   UNL A   1      43.038  27.158  28.168  1.00  0.00    -0.354 N 
ATOM     49  C   UNL A   1      44.727  31.036  28.883  1.00  0.00     0.074 A 
ATOM     50  C   UNL A   1      43.762  31.923  29.503  1.00  0.00     0.031 C 
ATOM     51  C   UNL A   1      41.423  25.620  28.022  1.00  0.00     0.029 A 
ATOM     52  C   UNL A   1      42.847  25.849  27.800  1.00  0.00     0.049 A 
ATOM     53  H   UNL A   1      43.914  27.606  28.128  1.00  0.00     0.167 HD
ATOM     54  C   UNL A   1      46.001  31.384  28.581  1.00  0.00     0.037 A 
ATOM     55  C   UNL A   1      43.716  24.936  27.329  1.00  0.00     0.037 A 
ATOM     56  C   UNL A   1      46.984  30.499  28.017  1.00  0.00     0.049 A 
ATOM     57  C   UNL A   1      45.150  25.309  27.106  1.00  0.00     0.074 A 
ATOM     58  C   UNL A   1      48.298  30.770  27.670  1.00  0.00     0.029 A 
ATOM     59  N   UNL A   1      46.768  29.158  27.738  1.00  0.00    -0.354 N 
ATOM     60  N   UNL A   1      45.729  26.472  27.273  1.00  0.00    -0.248 NA
ATOM     61  C   UNL A   1      46.044  24.249  26.622  1.00  0.00     0.031 C 
ATOM     62  C   UNL A   1      48.880  29.587  27.193  1.00  0.00     0.029 A 
ATOM     63  C   UNL A   1      47.928  28.583  27.243  1.00  0.00     0.049 A 
ATOM     64  H   UNL A   1      45.916  28.684  27.872  1.00  0.00     0.167 HD
ATOM     65  C   UNL A   1      47.056  26.288  26.908  1.00  0.00     0.074 A 
ATOM     66  C   UNL A   1      47.198  24.898  26.525  1.00  0.00     0.031 C 
ATOM     67  C   UNL A   1      48.061  27.196  26.879  1.00  0.00     0.037 A 
BRANCH  54  68
ATOM     68  C   UNL A   1      46.385  32.809  28.838  1.00  0.00     0.058 A 
ATOM     69  C   UNL A   1      46.927  33.211  30.068  1.00  0.00     0.135 A 
ATOM     70  C   UNL A   1      46.185  33.784  27.850  1.00  0.00     0.135 A 
ATOM     71  F   UNL A   1      47.117  32.314  31.047  1.00  0.00    -0.206 F 
ATOM     72  C   UNL A   1      47.234  34.544  30.319  1.00  0.00     0.059 A 
ATOM     73  C   UNL A   1      46.492  35.121  28.077  1.00  0.00     0.059 A 
ATOM     74  F   UNL A   1      45.661  33.445  26.660  1.00  0.00    -0.206 F 
ATOM     75  C   UNL A   1      46.998  35.494  29.323  1.00  0.00     0.060 A 
BRANCH  75  76
ATOM     76  S   UNL A   1      47.350  37.236  29.642  1.00  0.00     0.124 S 
ATOM     77  O   UNL A   1      46.178  37.878  29.056  1.00  0.00    -0.237 OA
ATOM     78  O   UNL A   1      47.439  37.295  31.098  1.00  0.00    -0.237 OA
ATOM     79  O   UNL A   1      48.608  37.449  28.934  1.00  0.00    -0.744 OA
ENDBRANCH  75  76
ENDBRANCH  54  68
BRANCH  55  80
ATOM     80  C   UNL A   1      43.238  23.562  27.049  1.00  0.00     0.058 A 
ATOM     81  C   UNL A   1      43.031  23.137  25.729  1.00  0.00     0.135 A 
ATOM     82  C   UNL A   1      43.035  22.640  28.084  1.00  0.00     0.135 A 
ATOM     83  F   UNL A   1      43.214  23.992  24.712  1.00  0.00    -0.206 F 
ATOM     84  C   UNL A   1      42.647  21.832  25.440  1.00  0.00     0.059 A 
ATOM     85  C   UNL A   1      42.658  21.328  27.819  1.00  0.00     0.059 A 
ATOM     86  F   UNL A   1      43.233  23.006  29.359  1.00  0.00    -0.206 F 
ATOM     87  C   UNL A   1      42.466  20.934  26.493  1.00  0.00     0.060 A 
BRANCH  87  88
ATOM     88  S   UNL A   1      42.061  19.211  26.130  1.00  0.00     0.124 S 
ATOM     89  O   UNL A   1      42.382  18.563  27.396  1.00  0.00    -0.237 OA
ATOM     90  O   UNL A   1      40.643  19.277  25.788  1.00  0.00    -0.237 OA
ATOM     91  O   UNL A   1      42.949  18.901  25.013  1.00  0.00    -0.744 OA
ENDBRANCH  87  88
ENDBRANCH  55  80
BRANCH  67  92
ATOM     92  C   UNL A   1      49.402  26.707  26.426  1.00  0.00     0.058 A 
ATOM     93  C   UNL A   1      50.248  26.009  27.300  1.00  0.00     0.135 A 
ATOM     94  C   UNL A   1      49.840  26.927  25.112  1.00  0.00     0.135 A 
ATOM     95  F   UNL A   1      49.871  25.782  28.567  1.00  0.00    -0.206 F 
ATOM     96  C   UNL A   1      51.495  25.550  26.887  1.00  0.00     0.059 A 
ATOM     97  C   UNL A   1      51.082  26.476  24.679  1.00  0.00     0.059 A 
ATOM     98  F   UNL A   1      49.065  27.595  24.244  1.00  0.00    -0.206 F 
ATOM     99  C   UNL A   1      51.907  25.797  25.577  1.00  0.00     0.060 A 
BRANCH  99 100
ATOM    100  S   UNL A   1      53.518  25.195  25.024  1.00  0.00     0.124 S 
ATOM    101  O   UNL A   1      54.422  25.938  25.895  1.00  0.00    -0.237 OA
ATOM    102  O   UNL A   1      53.435  23.760  25.277  1.00  0.00    -0.237 OA
ATOM    103  O   UNL A   1      53.544  25.573  23.614  1.00  0.00    -0.744 OA
ENDBRANCH  99 100
ENDBRANCH  67  92
ENDBRANCH  41  42
ENDBRANCH  33  36
ENDBRANCH  31  32
ENDBRANCH  30  31
ENDBRANCH   1  30
TORSDOF 20
ENDMDL
