MODEL 1
REMARK VINA RESULT:     -10.5      0.000      0.000
REMARK SMILES O=C(NCCCCNC(=O)c1ccc(OCc2sccc2Br)cn1)c1ccc(-c2c3nc(c(-c4c(F)cc(S(=O)(=O)[O-])cc4F)c4ccc([nH]4)c(-c4c(F)cc(S(=O)(=O)[O-])cc4F)c4nc(c(-c5c(F)cc(S(=O)(=O)[O-])cc5F)c5ccc2[nH]5)C=C4)C=C3)cc1
REMARK SMILES IDX 5 1 4 2 3 3 1 4 2 5 25 7 26 8 90 9 27 10 89 11 28 12 29 13
REMARK SMILES IDX 30 14 83 15 31 16 88 17 82 18 84 19 32 20 87 21 81 22 80 23
REMARK SMILES IDX 33 25 67 26 46 27 66 28 47 29 50 30 65 31 85 32 48 33 49 34
REMARK SMILES IDX 64 36 86 37 51 38 34 39 35 40 44 41 36 42 37 43 43 44 45 45
REMARK SMILES IDX 38 46 39 47 40 48 41 49 42 50 68 51 69 52 78 53 70 54 71 55
REMARK SMILES IDX 77 56 79 57 72 58 73 59 74 60 75 61 76 62 52 63 53 64 62 65
REMARK SMILES IDX 54 66 55 67 61 68 63 69 56 70 57 71 58 72 59 73 60 74 6 75
REMARK SMILES IDX 7 76 8 77 9 78 10 80 11 81 12 82 24 83 13 84 23 85 14 86
REMARK SMILES IDX 15 87 16 88 17 89 18 90 21 91 19 92 20 93 22 94
REMARK H PARENT 3 6 84 24 50 35 8 79
REMARK Flexibility Score: inf
ROOT
ATOM      1  C   UNL A   1      34.344  33.736  28.024  1.00  0.00     0.023 C 
ENDROOT
BRANCH   1   2
ATOM      2  C   UNL A   1      34.568  32.517  28.912  1.00  0.00     0.116 C 
BRANCH   2   3
ATOM      3  N   UNL A   1      33.915  31.323  28.399  1.00  0.00    -0.352 N 
ATOM      4  O   UNL A   1      33.765  29.281  27.464  1.00  0.00    -0.269 OA
ATOM      5  C   UNL A   1      34.462  30.117  28.035  1.00  0.00     0.251 C 
ATOM      6  H   UNL A   1      32.937  31.389  28.298  1.00  0.00     0.163 HD
BRANCH   5   7
ATOM      7  C   UNL A   1      35.889  29.832  28.307  1.00  0.00     0.039 A 
ATOM      8  C   UNL A   1      36.865  30.049  27.329  1.00  0.00     0.014 A 
ATOM      9  C   UNL A   1      36.257  29.358  29.568  1.00  0.00     0.014 A 
ATOM     10  C   UNL A   1      38.183  29.670  27.566  1.00  0.00     0.010 A 
ATOM     11  C   UNL A   1      37.594  29.049  29.831  1.00  0.00     0.010 A 
ATOM     12  C   UNL A   1      38.564  29.177  28.824  1.00  0.00    -0.014 A 
BRANCH  12  13
ATOM     13  C   UNL A   1      39.986  28.853  29.101  1.00  0.00     0.031 A 
ATOM     14  C   UNL A   1      40.921  29.892  29.653  1.00  0.00     0.074 A 
ATOM     15  C   UNL A   1      40.440  27.618  28.816  1.00  0.00     0.049 A 
ATOM     16  N   UNL A   1      42.208  29.809  29.875  1.00  0.00    -0.248 NA
ATOM     17  C   UNL A   1      40.336  31.199  29.987  1.00  0.00     0.031 C 
ATOM     18  C   UNL A   1      39.628  26.529  28.269  1.00  0.00     0.029 A 
ATOM     19  N   UNL A   1      41.695  27.073  28.928  1.00  0.00    -0.354 N 
ATOM     20  C   UNL A   1      42.594  31.056  30.351  1.00  0.00     0.074 A 
ATOM     21  C   UNL A   1      41.407  31.885  30.363  1.00  0.00     0.031 C 
ATOM     22  C   UNL A   1      40.402  25.449  28.092  1.00  0.00     0.029 A 
ATOM     23  C   UNL A   1      41.775  25.785  28.453  1.00  0.00     0.049 A 
ATOM     24  H   UNL A   1      42.462  27.557  29.311  1.00  0.00     0.167 HD
ATOM     25  C   UNL A   1      43.826  31.468  30.741  1.00  0.00     0.037 A 
ATOM     26  C   UNL A   1      42.838  24.976  28.284  1.00  0.00     0.037 A 
ATOM     27  C   UNL A   1      44.997  30.629  30.723  1.00  0.00     0.049 A 
ATOM     28  C   UNL A   1      44.199  25.457  28.693  1.00  0.00     0.074 A 
ATOM     29  C   UNL A   1      46.281  30.935  31.142  1.00  0.00     0.029 A 
ATOM     30  N   UNL A   1      45.036  29.326  30.244  1.00  0.00    -0.354 N 
ATOM     31  N   UNL A   1      44.540  26.623  29.188  1.00  0.00    -0.248 NA
ATOM     32  C   UNL A   1      45.317  24.521  28.526  1.00  0.00     0.031 C 
ATOM     33  C   UNL A   1      47.105  29.839  30.865  1.00  0.00     0.029 A 
ATOM     34  C   UNL A   1      46.325  28.825  30.329  1.00  0.00     0.049 A 
ATOM     35  H   UNL A   1      44.260  28.830  29.896  1.00  0.00     0.167 HD
ATOM     36  C   UNL A   1      45.909  26.555  29.414  1.00  0.00     0.074 A 
ATOM     37  C   UNL A   1      46.333  25.231  29.002  1.00  0.00     0.031 C 
ATOM     38  C   UNL A   1      46.735  27.502  29.922  1.00  0.00     0.037 A 
BRANCH  25  39
ATOM     39  C   UNL A   1      43.974  32.901  31.179  1.00  0.00     0.058 A 
ATOM     40  C   UNL A   1      44.145  33.949  30.259  1.00  0.00     0.135 A 
ATOM     41  C   UNL A   1      43.941  33.232  32.544  1.00  0.00     0.135 A 
ATOM     42  F   UNL A   1      44.191  33.692  28.943  1.00  0.00    -0.206 F 
ATOM     43  C   UNL A   1      44.332  35.263  30.679  1.00  0.00     0.059 A 
ATOM     44  C   UNL A   1      44.096  34.544  32.984  1.00  0.00     0.059 A 
ATOM     45  F   UNL A   1      43.772  32.274  33.469  1.00  0.00    -0.206 F 
ATOM     46  C   UNL A   1      44.317  35.549  32.044  1.00  0.00     0.060 A 
BRANCH  46  47
ATOM     47  S   UNL A   1      44.614  37.248  32.577  1.00  0.00     0.124 S 
ATOM     48  O   UNL A   1      45.803  37.086  33.409  1.00  0.00    -0.237 OA
ATOM     49  O   UNL A   1      44.818  37.943  31.310  1.00  0.00    -0.237 OA
ATOM     50  O   UNL A   1      43.392  37.600  33.293  1.00  0.00    -0.744 OA
ENDBRANCH  46  47
ENDBRANCH  25  39
BRANCH  26  51
ATOM     51  C   UNL A   1      42.627  23.635  27.681  1.00  0.00     0.058 A 
ATOM     52  C   UNL A   1      42.750  23.433  26.300  1.00  0.00     0.135 A 
ATOM     53  C   UNL A   1      42.397  22.510  28.491  1.00  0.00     0.135 A 
ATOM     54  F   UNL A   1      42.966  24.477  25.486  1.00  0.00    -0.206 F 
ATOM     55  C   UNL A   1      42.665  22.161  25.743  1.00  0.00     0.059 A 
ATOM     56  C   UNL A   1      42.333  21.227  27.961  1.00  0.00     0.059 A 
ATOM     57  F   UNL A   1      42.292  22.652  29.822  1.00  0.00    -0.206 F 
ATOM     58  C   UNL A   1      42.470  21.062  26.583  1.00  0.00     0.060 A 
BRANCH  58  59
ATOM     59  S   UNL A   1      42.469  19.407  25.860  1.00  0.00     0.124 S 
ATOM     60  O   UNL A   1      41.057  19.224  25.548  1.00  0.00    -0.237 OA
ATOM     61  O   UNL A   1      43.361  19.574  24.716  1.00  0.00    -0.237 OA
ATOM     62  O   UNL A   1      42.994  18.571  26.935  1.00  0.00    -0.744 OA
ENDBRANCH  58  59
ENDBRANCH  26  51
BRANCH  38  63
ATOM     63  C   UNL A   1      48.184  27.144  30.105  1.00  0.00     0.058 A 
ATOM     64  C   UNL A   1      49.128  27.343  29.088  1.00  0.00     0.135 A 
ATOM     65  C   UNL A   1      48.646  26.693  31.352  1.00  0.00     0.135 A 
ATOM     66  F   UNL A   1      48.736  27.760  27.873  1.00  0.00    -0.206 F 
ATOM     67  C   UNL A   1      50.484  27.112  29.301  1.00  0.00     0.059 A 
ATOM     68  C   UNL A   1      49.999  26.480  31.596  1.00  0.00     0.059 A 
ATOM     69  F   UNL A   1      47.782  26.491  32.360  1.00  0.00    -0.206 F 
ATOM     70  C   UNL A   1      50.911  26.693  30.563  1.00  0.00     0.060 A 
BRANCH  70  71
ATOM     71  S   UNL A   1      52.680  26.480  30.853  1.00  0.00     0.124 S 
ATOM     72  O   UNL A   1      52.705  25.258  31.648  1.00  0.00    -0.237 OA
ATOM     73  O   UNL A   1      53.206  26.365  29.496  1.00  0.00    -0.237 OA
ATOM     74  O   UNL A   1      53.058  27.699  31.562  1.00  0.00    -0.744 OA
ENDBRANCH  70  71
ENDBRANCH  38  63
ENDBRANCH  12  13
ENDBRANCH   5   7
ENDBRANCH   2   3
ENDBRANCH   1   2
BRANCH   1  75
ATOM     75  C   UNL A   1      33.317  34.744  28.543  1.00  0.00     0.023 C 
BRANCH  75  76
ATOM     76  C   UNL A   1      33.795  35.645  29.679  1.00  0.00     0.116 C 
BRANCH  76  77
ATOM     77  N   UNL A   1      32.704  36.201  30.463  1.00  0.00    -0.351 N 
ATOM     78  C   UNL A   1      32.444  36.045  31.809  1.00  0.00     0.269 C 
ATOM     79  H   UNL A   1      32.066  36.764  29.968  1.00  0.00     0.163 HD
ATOM     80  O   UNL A   1      31.443  36.555  32.304  1.00  0.00    -0.268 OA
BRANCH  78  81
ATOM     81  C   UNL A   1      33.395  35.266  32.648  1.00  0.00     0.128 A 
ATOM     82  C   UNL A   1      34.475  35.908  33.246  1.00  0.00     0.038 A 
ATOM     83  N   UNL A   1      33.177  33.933  32.720  1.00  0.00    -0.247 NA
ATOM     84  C   UNL A   1      35.436  35.128  33.889  1.00  0.00     0.050 A 
ATOM     85  C   UNL A   1      34.123  33.210  33.359  1.00  0.00     0.158 A 
ATOM     86  C   UNL A   1      35.285  33.745  33.911  1.00  0.00     0.138 A 
BRANCH  86  87
ATOM     87  O   UNL A   1      36.190  32.835  34.373  1.00  0.00    -0.486 OA
BRANCH  87  88
ATOM     88  C   UNL A   1      37.404  33.306  34.973  1.00  0.00     0.277 C 
BRANCH  88  89
ATOM     89  C   UNL A   1      38.580  32.419  34.660  1.00  0.00     0.056 A 
ATOM     90  S   UNL A   1      38.540  30.797  35.251  1.00  0.00    -0.144 S 
ATOM     91  C   UNL A   1      39.738  32.634  33.941  1.00  0.00     0.035 A 
ATOM     92  C   UNL A   1      40.082  30.445  34.607  1.00  0.00     0.066 A 
ATOM     93  C   UNL A   1      40.618  31.518  33.934  1.00  0.00     0.028 A 
ATOM     94  Br  UNL A   1      40.232  34.210  33.017  1.00  0.00    -0.049 Br
ENDBRANCH  88  89
ENDBRANCH  87  88
ENDBRANCH  86  87
ENDBRANCH  78  81
ENDBRANCH  76  77
ENDBRANCH  75  76
ENDBRANCH   1  75
TORSDOF 17
ENDMDL
MODEL 2
REMARK VINA RESULT:     -10.2      3.708     12.063
REMARK SMILES O=C(NCCCCNC(=O)c1ccc(OCc2sccc2Br)cn1)c1ccc(-c2c3nc(c(-c4c(F)cc(S(=O)(=O)[O-])cc4F)c4ccc([nH]4)c(-c4c(F)cc(S(=O)(=O)[O-])cc4F)c4nc(c(-c5c(F)cc(S(=O)(=O)[O-])cc5F)c5ccc2[nH]5)C=C4)C=C3)cc1
REMARK SMILES IDX 5 1 4 2 3 3 1 4 2 5 25 7 26 8 90 9 27 10 89 11 28 12 29 13
REMARK SMILES IDX 30 14 83 15 31 16 88 17 82 18 84 19 32 20 87 21 81 22 80 23
REMARK SMILES IDX 33 25 67 26 46 27 66 28 47 29 50 30 65 31 85 32 48 33 49 34
REMARK SMILES IDX 64 36 86 37 51 38 34 39 35 40 44 41 36 42 37 43 43 44 45 45
REMARK SMILES IDX 38 46 39 47 40 48 41 49 42 50 68 51 69 52 78 53 70 54 71 55
REMARK SMILES IDX 77 56 79 57 72 58 73 59 74 60 75 61 76 62 52 63 53 64 62 65
REMARK SMILES IDX 54 66 55 67 61 68 63 69 56 70 57 71 58 72 59 73 60 74 6 75
REMARK SMILES IDX 7 76 8 77 9 78 10 80 11 81 12 82 24 83 13 84 23 85 14 86
REMARK SMILES IDX 15 87 16 88 17 89 18 90 21 91 19 92 20 93 22 94
REMARK H PARENT 3 6 84 24 50 35 8 79
REMARK Flexibility Score: inf
ROOT
ATOM      1  C   UNL A   1      41.906  21.154  26.124  1.00  0.00     0.023 C 
ENDROOT
BRANCH   1   2
ATOM      2  C   UNL A   1      40.613  21.537  26.833  1.00  0.00     0.116 C 
BRANCH   2   3
ATOM      3  N   UNL A   1      39.580  21.985  25.912  1.00  0.00    -0.352 N 
ATOM      4  O   UNL A   1      37.961  23.323  25.103  1.00  0.00    -0.269 OA
ATOM      5  C   UNL A   1      38.927  23.192  25.852  1.00  0.00     0.251 C 
ATOM      6  H   UNL A   1      39.308  21.326  25.232  1.00  0.00     0.163 HD
BRANCH   5   7
ATOM      7  C   UNL A   1      39.369  24.322  26.700  1.00  0.00     0.039 A 
ATOM      8  C   UNL A   1      38.930  24.443  28.022  1.00  0.00     0.014 A 
ATOM      9  C   UNL A   1      40.251  25.265  26.167  1.00  0.00     0.014 A 
ATOM     10  C   UNL A   1      39.267  25.570  28.766  1.00  0.00     0.010 A 
ATOM     11  C   UNL A   1      40.649  26.357  26.941  1.00  0.00     0.010 A 
ATOM     12  C   UNL A   1      40.139  26.534  28.237  1.00  0.00    -0.014 A 
BRANCH  12  13
ATOM     13  C   UNL A   1      40.564  27.692  29.063  1.00  0.00     0.031 A 
ATOM     14  C   UNL A   1      41.852  27.659  29.836  1.00  0.00     0.074 A 
ATOM     15  C   UNL A   1      39.757  28.768  29.141  1.00  0.00     0.049 A 
ATOM     16  N   UNL A   1      42.335  28.542  30.672  1.00  0.00    -0.248 NA
ATOM     17  C   UNL A   1      42.701  26.472  29.657  1.00  0.00     0.031 C 
ATOM     18  C   UNL A   1      38.477  28.910  28.443  1.00  0.00     0.029 A 
ATOM     19  N   UNL A   1      39.879  29.935  29.853  1.00  0.00    -0.354 N 
ATOM     20  C   UNL A   1      43.533  28.010  31.138  1.00  0.00     0.074 A 
ATOM     21  C   UNL A   1      43.688  26.716  30.508  1.00  0.00     0.031 C 
ATOM     22  C   UNL A   1      37.933  30.094  28.760  1.00  0.00     0.029 A 
ATOM     23  C   UNL A   1      38.791  30.766  29.729  1.00  0.00     0.049 A 
ATOM     24  H   UNL A   1      40.669  30.155  30.398  1.00  0.00     0.167 HD
ATOM     25  C   UNL A   1      44.417  28.555  32.011  1.00  0.00     0.037 A 
ATOM     26  C   UNL A   1      38.491  31.919  30.356  1.00  0.00     0.037 A 
ATOM     27  C   UNL A   1      44.245  29.846  32.628  1.00  0.00     0.049 A 
ATOM     28  C   UNL A   1      39.467  32.494  31.341  1.00  0.00     0.074 A 
ATOM     29  C   UNL A   1      45.105  30.509  33.488  1.00  0.00     0.029 A 
ATOM     30  N   UNL A   1      43.134  30.663  32.469  1.00  0.00    -0.354 N 
ATOM     31  N   UNL A   1      40.618  32.003  31.734  1.00  0.00    -0.248 NA
ATOM     32  C   UNL A   1      39.111  33.774  31.966  1.00  0.00     0.031 C 
ATOM     33  C   UNL A   1      44.489  31.698  33.891  1.00  0.00     0.029 A 
ATOM     34  C   UNL A   1      43.271  31.808  33.237  1.00  0.00     0.049 A 
ATOM     35  H   UNL A   1      42.362  30.459  31.894  1.00  0.00     0.167 HD
ATOM     36  C   UNL A   1      41.137  32.924  32.636  1.00  0.00     0.074 A 
ATOM     37  C   UNL A   1      40.173  34.004  32.728  1.00  0.00     0.031 C 
ATOM     38  C   UNL A   1      42.307  32.880  33.317  1.00  0.00     0.037 A 
BRANCH  25  39
ATOM     39  C   UNL A   1      45.625  27.736  32.379  1.00  0.00     0.058 A 
ATOM     40  C   UNL A   1      46.857  27.886  31.721  1.00  0.00     0.135 A 
ATOM     41  C   UNL A   1      45.550  26.784  33.410  1.00  0.00     0.135 A 
ATOM     42  F   UNL A   1      46.987  28.775  30.724  1.00  0.00    -0.206 F 
ATOM     43  C   UNL A   1      47.953  27.087  32.036  1.00  0.00     0.059 A 
ATOM     44  C   UNL A   1      46.641  25.995  33.761  1.00  0.00     0.059 A 
ATOM     45  F   UNL A   1      44.400  26.603  34.080  1.00  0.00    -0.206 F 
ATOM     46  C   UNL A   1      47.831  26.137  33.050  1.00  0.00     0.060 A 
BRANCH  46  47
ATOM     47  S   UNL A   1      49.243  25.071  33.411  1.00  0.00     0.124 S 
ATOM     48  O   UNL A   1      49.821  24.897  32.082  1.00  0.00    -0.237 OA
ATOM     49  O   UNL A   1      50.023  25.886  34.338  1.00  0.00    -0.237 OA
ATOM     50  O   UNL A   1      48.632  23.879  33.989  1.00  0.00    -0.744 OA
ENDBRANCH  46  47
ENDBRANCH  25  39
BRANCH  26  51
ATOM     51  C   UNL A   1      37.193  32.577  30.062  1.00  0.00     0.058 A 
ATOM     52  C   UNL A   1      36.057  32.322  30.840  1.00  0.00     0.135 A 
ATOM     53  C   UNL A   1      37.093  33.552  29.054  1.00  0.00     0.135 A 
ATOM     54  F   UNL A   1      36.103  31.397  31.811  1.00  0.00    -0.206 F 
ATOM     55  C   UNL A   1      34.868  33.017  30.640  1.00  0.00     0.059 A 
ATOM     56  C   UNL A   1      35.925  34.277  28.852  1.00  0.00     0.059 A 
ATOM     57  F   UNL A   1      38.160  33.845  28.295  1.00  0.00    -0.206 F 
ATOM     58  C   UNL A   1      34.817  34.004  29.652  1.00  0.00     0.060 A 
BRANCH  58  59
ATOM     59  S   UNL A   1      33.303  34.973  29.475  1.00  0.00     0.124 S 
ATOM     60  O   UNL A   1      33.825  36.247  28.994  1.00  0.00    -0.237 OA
ATOM     61  O   UNL A   1      32.548  34.185  28.505  1.00  0.00    -0.237 OA
ATOM     62  O   UNL A   1      32.751  34.985  30.826  1.00  0.00    -0.744 OA
ENDBRANCH  58  59
ENDBRANCH  26  51
BRANCH  38  63
ATOM     63  C   UNL A   1      42.647  34.046  34.204  1.00  0.00     0.058 A 
ATOM     64  C   UNL A   1      42.463  33.997  35.593  1.00  0.00     0.135 A 
ATOM     65  C   UNL A   1      43.262  35.187  33.662  1.00  0.00     0.135 A 
ATOM     66  F   UNL A   1      41.868  32.935  36.159  1.00  0.00    -0.206 F 
ATOM     67  C   UNL A   1      42.881  35.037  36.417  1.00  0.00     0.059 A 
ATOM     68  C   UNL A   1      43.711  36.227  34.469  1.00  0.00     0.059 A 
ATOM     69  F   UNL A   1      43.465  35.281  32.338  1.00  0.00    -0.206 F 
ATOM     70  C   UNL A   1      43.516  36.143  35.847  1.00  0.00     0.060 A 
BRANCH  70  71
ATOM     71  S   UNL A   1      44.131  37.445  36.935  1.00  0.00     0.124 S 
ATOM     72  O   UNL A   1      44.418  38.514  35.985  1.00  0.00    -0.237 OA
ATOM     73  O   UNL A   1      42.994  37.673  37.821  1.00  0.00    -0.237 OA
ATOM     74  O   UNL A   1      45.298  36.838  37.568  1.00  0.00    -0.744 OA
ENDBRANCH  70  71
ENDBRANCH  38  63
ENDBRANCH  12  13
ENDBRANCH   5   7
ENDBRANCH   2   3
ENDBRANCH   1   2
BRANCH   1  75
ATOM     75  C   UNL A   1      42.036  19.676  25.752  1.00  0.00     0.023 C 
BRANCH  75  76
ATOM     76  C   UNL A   1      43.316  18.988  26.223  1.00  0.00     0.116 C 
BRANCH  76  77
ATOM     77  N   UNL A   1      44.152  18.528  25.128  1.00  0.00    -0.351 N 
ATOM     78  C   UNL A   1      44.941  19.272  24.274  1.00  0.00     0.269 C 
ATOM     79  H   UNL A   1      44.157  17.555  24.973  1.00  0.00     0.163 HD
ATOM     80  O   UNL A   1      45.555  18.718  23.366  1.00  0.00    -0.268 OA
BRANCH  78  81
ATOM     81  C   UNL A   1      45.047  20.742  24.478  1.00  0.00     0.128 A 
ATOM     82  C   UNL A   1      45.658  21.238  25.625  1.00  0.00     0.038 A 
ATOM     83  N   UNL A   1      44.463  21.521  23.538  1.00  0.00    -0.247 NA
ATOM     84  C   UNL A   1      45.598  22.611  25.866  1.00  0.00     0.050 A 
ATOM     85  C   UNL A   1      44.433  22.846  23.800  1.00  0.00     0.158 A 
ATOM     86  C   UNL A   1      44.935  23.432  24.961  1.00  0.00     0.138 A 
BRANCH  86  87
ATOM     87  O   UNL A   1      44.668  24.761  25.111  1.00  0.00    -0.486 OA
BRANCH  87  88
ATOM     88  C   UNL A   1      44.244  25.244  26.392  1.00  0.00     0.277 C 
BRANCH  88  89
ATOM     89  C   UNL A   1      44.990  26.481  26.815  1.00  0.00     0.056 A 
ATOM     90  S   UNL A   1      44.421  28.001  26.225  1.00  0.00    -0.144 S 
ATOM     91  C   UNL A   1      46.081  26.671  27.639  1.00  0.00     0.035 A 
ATOM     92  C   UNL A   1      45.670  28.860  27.011  1.00  0.00     0.066 A 
ATOM     93  C   UNL A   1      46.496  28.027  27.730  1.00  0.00     0.028 A 
ATOM     94  Br  UNL A   1      47.027  25.346  28.603  1.00  0.00    -0.049 Br
ENDBRANCH  88  89
ENDBRANCH  87  88
ENDBRANCH  86  87
ENDBRANCH  78  81
ENDBRANCH  76  77
ENDBRANCH  75  76
ENDBRANCH   1  75
TORSDOF 17
ENDMDL
MODEL 3
REMARK VINA RESULT:     -10.2      5.749     12.377
REMARK SMILES O=C(NCCCCNC(=O)c1ccc(OCc2sccc2Br)cn1)c1ccc(-c2c3nc(c(-c4c(F)cc(S(=O)(=O)[O-])cc4F)c4ccc([nH]4)c(-c4c(F)cc(S(=O)(=O)[O-])cc4F)c4nc(c(-c5c(F)cc(S(=O)(=O)[O-])cc5F)c5ccc2[nH]5)C=C4)C=C3)cc1
REMARK SMILES IDX 5 1 4 2 3 3 1 4 2 5 25 7 26 8 90 9 27 10 89 11 28 12 29 13
REMARK SMILES IDX 30 14 83 15 31 16 88 17 82 18 84 19 32 20 87 21 81 22 80 23
REMARK SMILES IDX 33 25 67 26 46 27 66 28 47 29 50 30 65 31 85 32 48 33 49 34
REMARK SMILES IDX 64 36 86 37 51 38 34 39 35 40 44 41 36 42 37 43 43 44 45 45
REMARK SMILES IDX 38 46 39 47 40 48 41 49 42 50 68 51 69 52 78 53 70 54 71 55
REMARK SMILES IDX 77 56 79 57 72 58 73 59 74 60 75 61 76 62 52 63 53 64 62 65
REMARK SMILES IDX 54 66 55 67 61 68 63 69 56 70 57 71 58 72 59 73 60 74 6 75
REMARK SMILES IDX 7 76 8 77 9 78 10 80 11 81 12 82 24 83 13 84 23 85 14 86
REMARK SMILES IDX 15 87 16 88 17 89 18 90 21 91 19 92 20 93 22 94
REMARK H PARENT 3 6 84 24 50 35 8 79
REMARK Flexibility Score: inf
ROOT
ATOM      1  C   UNL A   1      37.404  23.223  25.808  1.00  0.00     0.023 C 
ENDROOT
BRANCH   1   2
ATOM      2  C   UNL A   1      38.354  24.190  26.505  1.00  0.00     0.116 C 
BRANCH   2   3
ATOM      3  N   UNL A   1      39.748  23.944  26.172  1.00  0.00    -0.352 N 
ATOM      4  O   UNL A   1      41.955  24.369  26.040  1.00  0.00    -0.269 OA
ATOM      5  C   UNL A   1      40.873  24.629  26.563  1.00  0.00     0.251 C 
ATOM      6  H   UNL A   1      39.910  23.174  25.580  1.00  0.00     0.163 HD
BRANCH   5   7
ATOM      7  C   UNL A   1      40.781  25.691  27.590  1.00  0.00     0.039 A 
ATOM      8  C   UNL A   1      41.678  26.764  27.597  1.00  0.00     0.014 A 
ATOM      9  C   UNL A   1      39.769  25.619  28.549  1.00  0.00     0.014 A 
ATOM     10  C   UNL A   1      41.645  27.690  28.636  1.00  0.00     0.010 A 
ATOM     11  C   UNL A   1      39.689  26.592  29.549  1.00  0.00     0.010 A 
ATOM     12  C   UNL A   1      40.643  27.621  29.617  1.00  0.00    -0.014 A 
BRANCH  12  13
ATOM     13  C   UNL A   1      40.559  28.658  30.675  1.00  0.00     0.031 A 
ATOM     14  C   UNL A   1      41.412  28.572  31.909  1.00  0.00     0.074 A 
ATOM     15  C   UNL A   1      39.676  29.665  30.532  1.00  0.00     0.049 A 
ATOM     16  N   UNL A   1      41.409  29.340  32.969  1.00  0.00    -0.248 NA
ATOM     17  C   UNL A   1      42.387  27.474  31.966  1.00  0.00     0.031 C 
ATOM     18  C   UNL A   1      38.788  29.846  29.383  1.00  0.00     0.029 A 
ATOM     19  N   UNL A   1      39.364  30.712  31.362  1.00  0.00    -0.354 N 
ATOM     20  C   UNL A   1      42.361  28.806  33.829  1.00  0.00     0.074 A 
ATOM     21  C   UNL A   1      42.905  27.635  33.175  1.00  0.00     0.031 C 
ATOM     22  C   UNL A   1      38.032  30.936  29.578  1.00  0.00     0.029 A 
ATOM     23  C   UNL A   1      38.337  31.495  30.892  1.00  0.00     0.049 A 
ATOM     24  H   UNL A   1      39.831  30.887  32.212  1.00  0.00     0.167 HD
ATOM     25  C   UNL A   1      42.743  29.255  35.051  1.00  0.00     0.037 A 
ATOM     26  C   UNL A   1      37.679  32.520  31.465  1.00  0.00     0.037 A 
ATOM     27  C   UNL A   1      42.191  30.424  35.687  1.00  0.00     0.049 A 
ATOM     28  C   UNL A   1      38.095  32.986  32.830  1.00  0.00     0.074 A 
ATOM     29  C   UNL A   1      42.543  30.990  36.901  1.00  0.00     0.029 A 
ATOM     30  N   UNL A   1      41.158  31.197  35.173  1.00  0.00    -0.354 N 
ATOM     31  N   UNL A   1      39.031  32.501  33.610  1.00  0.00    -0.248 NA
ATOM     32  C   UNL A   1      37.373  34.133  33.393  1.00  0.00     0.031 C 
ATOM     33  C   UNL A   1      41.686  32.068  37.145  1.00  0.00     0.029 A 
ATOM     34  C   UNL A   1      40.839  32.215  36.057  1.00  0.00     0.049 A 
ATOM     35  H   UNL A   1      40.717  31.043  34.306  1.00  0.00     0.167 HD
ATOM     36  C   UNL A   1      39.028  33.297  34.749  1.00  0.00     0.074 A 
ATOM     37  C   UNL A   1      37.997  34.298  34.554  1.00  0.00     0.031 C 
ATOM     38  C   UNL A   1      39.814  33.210  35.849  1.00  0.00     0.037 A 
BRANCH  25  39
ATOM     39  C   UNL A   1      43.778  28.453  35.794  1.00  0.00     0.058 A 
ATOM     40  C   UNL A   1      45.155  28.690  35.646  1.00  0.00     0.135 A 
ATOM     41  C   UNL A   1      43.386  27.429  36.673  1.00  0.00     0.135 A 
ATOM     42  F   UNL A   1      45.589  29.650  34.814  1.00  0.00    -0.206 F 
ATOM     43  C   UNL A   1      46.104  27.908  36.298  1.00  0.00     0.059 A 
ATOM     44  C   UNL A   1      44.317  26.655  37.359  1.00  0.00     0.059 A 
ATOM     45  F   UNL A   1      42.084  27.162  36.862  1.00  0.00    -0.206 F 
ATOM     46  C   UNL A   1      45.675  26.885  37.144  1.00  0.00     0.060 A 
BRANCH  46  47
ATOM     47  S   UNL A   1      46.915  25.845  37.943  1.00  0.00     0.124 S 
ATOM     48  O   UNL A   1      47.597  26.814  38.797  1.00  0.00    -0.237 OA
ATOM     49  O   UNL A   1      46.096  24.856  38.638  1.00  0.00    -0.237 OA
ATOM     50  O   UNL A   1      47.702  25.332  36.827  1.00  0.00    -0.744 OA
ENDBRANCH  46  47
ENDBRANCH  25  39
BRANCH  26  51
ATOM     51  C   UNL A   1      36.550  33.147  30.731  1.00  0.00     0.058 A 
ATOM     52  C   UNL A   1      35.224  32.950  31.135  1.00  0.00     0.135 A 
ATOM     53  C   UNL A   1      36.788  34.036  29.670  1.00  0.00     0.135 A 
ATOM     54  F   UNL A   1      34.946  32.107  32.141  1.00  0.00    -0.206 F 
ATOM     55  C   UNL A   1      34.171  33.622  30.522  1.00  0.00     0.059 A 
ATOM     56  C   UNL A   1      35.757  34.739  29.059  1.00  0.00     0.059 A 
ATOM     57  F   UNL A   1      38.045  34.272  29.260  1.00  0.00    -0.206 F 
ATOM     58  C   UNL A   1      34.449  34.526  29.493  1.00  0.00     0.060 A 
BRANCH  58  59
ATOM     59  S   UNL A   1      33.087  35.472  28.779  1.00  0.00     0.124 S 
ATOM     60  O   UNL A   1      33.802  36.495  28.026  1.00  0.00    -0.237 OA
ATOM     61  O   UNL A   1      32.396  34.459  27.985  1.00  0.00    -0.237 OA
ATOM     62  O   UNL A   1      32.355  35.943  29.951  1.00  0.00    -0.744 OA
ENDBRANCH  58  59
ENDBRANCH  26  51
BRANCH  38  63
ATOM     63  C   UNL A   1      39.628  34.241  36.928  1.00  0.00     0.058 A 
ATOM     64  C   UNL A   1      38.875  33.977  38.081  1.00  0.00     0.135 A 
ATOM     65  C   UNL A   1      40.300  35.472  36.849  1.00  0.00     0.135 A 
ATOM     66  F   UNL A   1      38.201  32.821  38.200  1.00  0.00    -0.206 F 
ATOM     67  C   UNL A   1      38.798  34.896  39.123  1.00  0.00     0.059 A 
ATOM     68  C   UNL A   1      40.258  36.394  37.890  1.00  0.00     0.059 A 
ATOM     69  F   UNL A   1      41.038  35.770  35.768  1.00  0.00    -0.206 F 
ATOM     70  C   UNL A   1      39.504  36.097  39.023  1.00  0.00     0.060 A 
BRANCH  70  71
ATOM     71  S   UNL A   1      39.466  37.243  40.418  1.00  0.00     0.124 S 
ATOM     72  O   UNL A   1      38.783  36.450  41.434  1.00  0.00    -0.237 OA
ATOM     73  O   UNL A   1      40.884  37.492  40.655  1.00  0.00    -0.237 OA
ATOM     74  O   UNL A   1      38.714  38.383  39.902  1.00  0.00    -0.744 OA
ENDBRANCH  70  71
ENDBRANCH  38  63
ENDBRANCH  12  13
ENDBRANCH   5   7
ENDBRANCH   2   3
ENDBRANCH   1   2
BRANCH   1  75
ATOM     75  C   UNL A   1      35.948  23.683  25.721  1.00  0.00     0.023 C 
BRANCH  75  76
ATOM     76  C   UNL A   1      34.968  22.943  26.630  1.00  0.00     0.116 C 
BRANCH  76  77
ATOM     77  N   UNL A   1      34.782  21.552  26.255  1.00  0.00    -0.351 N 
ATOM     78  C   UNL A   1      33.887  21.015  25.352  1.00  0.00     0.269 C 
ATOM     79  H   UNL A   1      35.374  20.905  26.705  1.00  0.00     0.163 HD
ATOM     80  O   UNL A   1      33.836  19.799  25.188  1.00  0.00    -0.268 OA
BRANCH  78  81
ATOM     81  C   UNL A   1      33.003  21.926  24.576  1.00  0.00     0.128 A 
ATOM     82  C   UNL A   1      33.404  22.377  23.322  1.00  0.00     0.038 A 
ATOM     83  N   UNL A   1      31.864  22.321  25.190  1.00  0.00    -0.247 NA
ATOM     84  C   UNL A   1      32.634  23.354  22.692  1.00  0.00     0.050 A 
ATOM     85  C   UNL A   1      31.137  23.260  24.545  1.00  0.00     0.158 A 
ATOM     86  C   UNL A   1      31.499  23.842  23.331  1.00  0.00     0.138 A 
BRANCH  86  87
ATOM     87  O   UNL A   1      30.718  24.882  22.921  1.00  0.00    -0.486 OA
BRANCH  87  88
ATOM     88  C   UNL A   1      29.899  25.557  23.884  1.00  0.00     0.277 C 
BRANCH  88  89
ATOM     89  C   UNL A   1      30.328  26.984  24.104  1.00  0.00     0.056 A 
ATOM     90  S   UNL A   1      29.653  28.192  23.071  1.00  0.00    -0.144 S 
ATOM     91  C   UNL A   1      31.177  27.566  25.023  1.00  0.00     0.035 A 
ATOM     92  C   UNL A   1      30.555  29.438  23.814  1.00  0.00     0.066 A 
ATOM     93  C   UNL A   1      31.337  28.966  24.842  1.00  0.00     0.028 A 
ATOM     94  Br  UNL A   1      32.107  26.701  26.426  1.00  0.00    -0.049 Br
ENDBRANCH  88  89
ENDBRANCH  87  88
ENDBRANCH  86  87
ENDBRANCH  78  81
ENDBRANCH  76  77
ENDBRANCH  75  76
ENDBRANCH   1  75
TORSDOF 17
ENDMDL
