MODEL 1
REMARK VINA RESULT:     -12.1      0.000      0.000
REMARK SMILES Cc1ccc(S(=O)(=O)Nc2cc(C(=O)NCCCCNC(=O)c3ccc(-c4c5nc(c(-c6c(F)cc(S(=O)(=O)[O-])cc6F)c6ccc([nH]6)c(-c6c(F)cc(S(=O)(=O)[O-])cc6F)c6nc(c(-c7c(F)cc(S(=O)(=O)[O-])cc7F)c7ccc4[nH]7)C=C6)C=C5)cc3)cnc2N2CCCC2)c(C)c1
REMARK SMILES IDX 17 1 16 2 15 3 13 4 14 5 12 7 10 8 11 9 91 10 90 11 89 12
REMARK SMILES IDX 9 13 6 15 7 16 8 17 5 18 1 19 2 20 3 21 99 22 4 23 97 24
REMARK SMILES IDX 98 25 92 26 93 27 96 28 94 29 95 30 18 31 19 32 20 33 21 34
REMARK SMILES IDX 22 36 23 37 24 38 88 39 25 40 87 41 26 42 27 43 28 44 81 45
REMARK SMILES IDX 29 46 86 47 80 48 82 49 30 50 85 51 79 52 78 53 31 55 65 56
REMARK SMILES IDX 44 57 64 58 45 59 48 60 63 61 83 62 46 63 47 64 62 66 84 67
REMARK SMILES IDX 49 68 32 69 33 70 42 71 34 72 35 73 41 74 43 75 36 76 37 77
REMARK SMILES IDX 38 78 39 79 40 80 66 81 67 82 76 83 68 84 69 85 75 86 77 87
REMARK SMILES IDX 70 88 71 89 72 90 73 91 74 92 50 93 51 94 60 95 52 96 53 97
REMARK SMILES IDX 59 98 61 99 54 100 55 101 56 102 57 103 58 104
REMARK H PARENT 15 6 9 14 20 35 82 54 48 65
REMARK Flexibility Score: inf
ROOT
ATOM      1  C   UNL A   1      34.553  32.721  28.770  1.00  0.00     0.023 C 
ENDROOT
BRANCH   1   2
ATOM      2  C   UNL A   1      34.237  31.955  27.485  1.00  0.00     0.116 C 
BRANCH   2   3
ATOM      3  N   UNL A   1      34.719  30.589  27.565  1.00  0.00    -0.352 N 
ATOM      4  C   UNL A   1      34.379  29.449  26.883  1.00  0.00     0.252 C 
ATOM      5  O   UNL A   1      34.997  28.416  27.144  1.00  0.00    -0.269 OA
ATOM      6  H   UNL A   1      35.426  30.455  28.237  1.00  0.00     0.163 HD
BRANCH   4   7
ATOM      7  C   UNL A   1      33.357  29.407  25.809  1.00  0.00     0.060 A 
ATOM      8  C   UNL A   1      32.403  28.674  23.735  1.00  0.00     0.092 A 
ATOM      9  C   UNL A   1      33.514  28.820  24.559  1.00  0.00     0.046 A 
ATOM     10  C   UNL A   1      31.188  29.313  24.067  1.00  0.00     0.153 A 
ATOM     11  N   UNL A   1      31.058  29.986  25.225  1.00  0.00    -0.236 NA
ATOM     12  C   UNL A   1      32.118  29.982  26.080  1.00  0.00     0.127 A 
BRANCH   8  13
ATOM     13  N   UNL A   1      32.455  27.880  22.556  1.00  0.00    -0.276 N 
ATOM     14  H   UNL A   1      32.380  28.345  21.691  1.00  0.00     0.180 HD
BRANCH  13  15
ATOM     15  S   UNL A   1      32.635  26.218  22.528  1.00  0.00     0.262 S 
ATOM     16  O   UNL A   1      33.731  25.964  21.608  1.00  0.00    -0.201 OA
ATOM     17  O   UNL A   1      31.304  25.716  22.268  1.00  0.00    -0.201 OA
BRANCH  15  18
ATOM     18  C   UNL A   1      33.144  25.523  24.102  1.00  0.00     0.090 A 
ATOM     19  C   UNL A   1      33.986  22.745  27.300  1.00  0.00     0.044 C 
ATOM     20  C   UNL A   1      33.721  23.769  26.235  1.00  0.00    -0.051 A 
ATOM     21  C   UNL A   1      34.742  24.233  25.403  1.00  0.00     0.005 A 
ATOM     22  C   UNL A   1      32.443  24.313  26.091  1.00  0.00     0.008 A 
ATOM     23  C   UNL A   1      34.460  25.124  24.358  1.00  0.00     0.023 A 
ATOM     24  C   UNL A   1      32.140  25.202  25.043  1.00  0.00    -0.030 A 
ATOM     25  C   UNL A   1      30.749  25.781  25.029  1.00  0.00     0.046 C 
ENDBRANCH  15  18
ENDBRANCH  13  15
ENDBRANCH   8  13
BRANCH  10  26
ATOM     26  N   UNL A   1      30.136  29.326  23.192  1.00  0.00    -0.355 N 
ATOM     27  C   UNL A   1      30.005  30.076  21.960  1.00  0.00     0.118 C 
ATOM     28  C   UNL A   1      28.986  28.477  23.453  1.00  0.00     0.118 C 
ATOM     29  C   UNL A   1      28.490  30.244  21.877  1.00  0.00     0.023 C 
ATOM     30  C   UNL A   1      27.975  28.898  22.380  1.00  0.00     0.023 C 
ENDBRANCH  10  26
ENDBRANCH   4   7
ENDBRANCH   2   3
ENDBRANCH   1   2
BRANCH   1  31
ATOM     31  C   UNL A   1      35.927  33.392  28.765  1.00  0.00     0.023 C 
BRANCH  31  32
ATOM     32  C   UNL A   1      36.858  32.939  29.885  1.00  0.00     0.116 C 
BRANCH  32  33
ATOM     33  N   UNL A   1      36.225  32.034  30.830  1.00  0.00    -0.352 N 
ATOM     34  C   UNL A   1      36.637  30.776  31.202  1.00  0.00     0.251 C 
ATOM     35  H   UNL A   1      35.400  32.361  31.255  1.00  0.00     0.163 HD
ATOM     36  O   UNL A   1      35.942  30.088  31.942  1.00  0.00    -0.269 OA
BRANCH  34  37
ATOM     37  C   UNL A   1      37.910  30.249  30.669  1.00  0.00     0.039 A 
ATOM     38  C   UNL A   1      38.098  30.217  29.285  1.00  0.00     0.014 A 
ATOM     39  C   UNL A   1      38.922  29.820  31.533  1.00  0.00     0.014 A 
ATOM     40  C   UNL A   1      39.328  29.805  28.768  1.00  0.00     0.010 A 
ATOM     41  C   UNL A   1      40.166  29.471  31.017  1.00  0.00     0.010 A 
ATOM     42  C   UNL A   1      40.380  29.458  29.630  1.00  0.00    -0.014 A 
BRANCH  42  43
ATOM     43  C   UNL A   1      41.708  29.061  29.100  1.00  0.00     0.031 A 
ATOM     44  C   UNL A   1      42.810  30.080  28.998  1.00  0.00     0.074 A 
ATOM     45  C   UNL A   1      41.900  27.804  28.652  1.00  0.00     0.049 A 
ATOM     46  N   UNL A   1      44.012  29.948  28.502  1.00  0.00    -0.248 NA
ATOM     47  C   UNL A   1      42.510  31.434  29.491  1.00  0.00     0.031 C 
ATOM     48  C   UNL A   1      40.892  26.741  28.649  1.00  0.00     0.029 A 
ATOM     49  N   UNL A   1      43.008  27.210  28.103  1.00  0.00    -0.354 N 
ATOM     50  C   UNL A   1      44.601  31.204  28.597  1.00  0.00     0.074 A 
ATOM     51  C   UNL A   1      43.611  32.094  29.164  1.00  0.00     0.031 C 
ATOM     52  C   UNL A   1      41.435  25.620  28.145  1.00  0.00     0.029 A 
ATOM     53  C   UNL A   1      42.818  25.890  27.764  1.00  0.00     0.049 A 
ATOM     54  H   UNL A   1      43.860  27.684  27.965  1.00  0.00     0.167 HD
ATOM     55  C   UNL A   1      45.859  31.576  28.261  1.00  0.00     0.037 A 
ATOM     56  C   UNL A   1      43.665  25.002  27.211  1.00  0.00     0.037 A 
ATOM     57  C   UNL A   1      46.857  30.674  27.750  1.00  0.00     0.049 A 
ATOM     58  C   UNL A   1      45.071  25.431  26.890  1.00  0.00     0.074 A 
ATOM     59  C   UNL A   1      48.183  30.937  27.454  1.00  0.00     0.029 A 
ATOM     60  N   UNL A   1      46.640  29.335  27.467  1.00  0.00    -0.354 N 
ATOM     61  N   UNL A   1      45.632  26.606  27.050  1.00  0.00    -0.248 NA
ATOM     62  C   UNL A   1      45.965  24.410  26.324  1.00  0.00     0.031 C 
ATOM     63  C   UNL A   1      48.762  29.760  26.967  1.00  0.00     0.029 A 
ATOM     64  C   UNL A   1      47.805  28.757  26.991  1.00  0.00     0.049 A 
ATOM     65  H   UNL A   1      45.784  28.863  27.586  1.00  0.00     0.167 HD
ATOM     66  C   UNL A   1      46.951  26.456  26.639  1.00  0.00     0.074 A 
ATOM     67  C   UNL A   1      47.106  25.076  26.227  1.00  0.00     0.031 C 
ATOM     68  C   UNL A   1      47.946  27.377  26.609  1.00  0.00     0.037 A 
BRANCH  55  69
ATOM     69  C   UNL A   1      46.233  33.019  28.449  1.00  0.00     0.058 A 
ATOM     70  C   UNL A   1      46.019  33.972  27.441  1.00  0.00     0.135 A 
ATOM     71  C   UNL A   1      46.773  33.462  29.667  1.00  0.00     0.135 A 
ATOM     72  F   UNL A   1      45.521  33.598  26.251  1.00  0.00    -0.206 F 
ATOM     73  C   UNL A   1      46.349  35.311  27.625  1.00  0.00     0.059 A 
ATOM     74  C   UNL A   1      47.088  34.801  29.881  1.00  0.00     0.059 A 
ATOM     75  F   UNL A   1      47.001  32.591  30.662  1.00  0.00    -0.206 F 
ATOM     76  C   UNL A   1      46.884  35.715  28.849  1.00  0.00     0.060 A 
BRANCH  76  77
ATOM     77  S   UNL A   1      47.293  37.458  29.080  1.00  0.00     0.124 S 
ATOM     78  O   UNL A   1      46.009  38.003  29.509  1.00  0.00    -0.237 OA
ATOM     79  O   UNL A   1      48.332  37.404  30.105  1.00  0.00    -0.237 OA
ATOM     80  O   UNL A   1      47.745  37.879  27.757  1.00  0.00    -0.744 OA
ENDBRANCH  76  77
ENDBRANCH  55  69
BRANCH  56  81
ATOM     81  C   UNL A   1      43.227  23.604  26.960  1.00  0.00     0.058 A 
ATOM     82  C   UNL A   1      43.090  22.695  28.019  1.00  0.00     0.135 A 
ATOM     83  C   UNL A   1      42.954  23.145  25.663  1.00  0.00     0.135 A 
ATOM     84  F   UNL A   1      43.345  23.089  29.277  1.00  0.00    -0.206 F 
ATOM     85  C   UNL A   1      42.726  21.370  27.802  1.00  0.00     0.059 A 
ATOM     86  C   UNL A   1      42.567  21.830  25.422  1.00  0.00     0.059 A 
ATOM     87  F   UNL A   1      43.052  23.980  24.618  1.00  0.00    -0.206 F 
ATOM     88  C   UNL A   1      42.472  20.946  26.497  1.00  0.00     0.060 A 
BRANCH  88  89
ATOM     89  S   UNL A   1      41.979  19.229  26.222  1.00  0.00     0.124 S 
ATOM     90  O   UNL A   1      42.275  18.631  27.518  1.00  0.00    -0.237 OA
ATOM     91  O   UNL A   1      40.564  19.363  25.888  1.00  0.00    -0.237 OA
ATOM     92  O   UNL A   1      42.838  18.810  25.119  1.00  0.00    -0.744 OA
ENDBRANCH  88  89
ENDBRANCH  56  81
BRANCH  68  93
ATOM     93  C   UNL A   1      49.303  26.909  26.167  1.00  0.00     0.058 A 
ATOM     94  C   UNL A   1      49.742  27.064  24.843  1.00  0.00     0.135 A 
ATOM     95  C   UNL A   1      50.190  26.338  27.093  1.00  0.00     0.135 A 
ATOM     96  F   UNL A   1      48.928  27.599  23.920  1.00  0.00    -0.206 F 
ATOM     97  C   UNL A   1      51.006  26.645  24.447  1.00  0.00     0.059 A 
ATOM     98  C   UNL A   1      51.467  25.933  26.723  1.00  0.00     0.059 A 
ATOM     99  F   UNL A   1      49.820  26.179  28.374  1.00  0.00    -0.206 F 
ATOM    100  C   UNL A   1      51.863  26.078  25.394  1.00  0.00     0.060 A 
BRANCH 100 101
ATOM    101  S   UNL A   1      53.513  25.561  24.877  1.00  0.00     0.124 S 
ATOM    102  O   UNL A   1      53.486  25.873  23.452  1.00  0.00    -0.237 OA
ATOM    103  O   UNL A   1      54.379  26.406  25.694  1.00  0.00    -0.237 OA
ATOM    104  O   UNL A   1      53.541  24.140  25.210  1.00  0.00    -0.744 OA
ENDBRANCH 100 101
ENDBRANCH  68  93
ENDBRANCH  42  43
ENDBRANCH  34  37
ENDBRANCH  32  33
ENDBRANCH  31  32
ENDBRANCH   1  31
TORSDOF 18
ENDMDL
MODEL 2
REMARK VINA RESULT:     -11.9      6.014      8.485
REMARK SMILES Cc1ccc(S(=O)(=O)Nc2cc(C(=O)NCCCCNC(=O)c3ccc(-c4c5nc(c(-c6c(F)cc(S(=O)(=O)[O-])cc6F)c6ccc([nH]6)c(-c6c(F)cc(S(=O)(=O)[O-])cc6F)c6nc(c(-c7c(F)cc(S(=O)(=O)[O-])cc7F)c7ccc4[nH]7)C=C6)C=C5)cc3)cnc2N2CCCC2)c(C)c1
REMARK SMILES IDX 17 1 16 2 15 3 13 4 14 5 12 7 10 8 11 9 91 10 90 11 89 12
REMARK SMILES IDX 9 13 6 15 7 16 8 17 5 18 1 19 2 20 3 21 99 22 4 23 97 24
REMARK SMILES IDX 98 25 92 26 93 27 96 28 94 29 95 30 18 31 19 32 20 33 21 34
REMARK SMILES IDX 22 36 23 37 24 38 88 39 25 40 87 41 26 42 27 43 28 44 81 45
REMARK SMILES IDX 29 46 86 47 80 48 82 49 30 50 85 51 79 52 78 53 31 55 65 56
REMARK SMILES IDX 44 57 64 58 45 59 48 60 63 61 83 62 46 63 47 64 62 66 84 67
REMARK SMILES IDX 49 68 32 69 33 70 42 71 34 72 35 73 41 74 43 75 36 76 37 77
REMARK SMILES IDX 38 78 39 79 40 80 66 81 67 82 76 83 68 84 69 85 75 86 77 87
REMARK SMILES IDX 70 88 71 89 72 90 73 91 74 92 50 93 51 94 60 95 52 96 53 97
REMARK SMILES IDX 59 98 61 99 54 100 55 101 56 102 57 103 58 104
REMARK H PARENT 15 6 9 14 20 35 82 54 48 65
REMARK Flexibility Score: inf
ROOT
ATOM      1  C   UNL A   1      34.076  31.684  27.943  1.00  0.00     0.023 C 
ENDROOT
BRANCH   1   2
ATOM      2  C   UNL A   1      33.799  30.462  27.068  1.00  0.00     0.116 C 
BRANCH   2   3
ATOM      3  N   UNL A   1      32.650  30.689  26.212  1.00  0.00    -0.352 N 
ATOM      4  C   UNL A   1      31.802  29.831  25.558  1.00  0.00     0.252 C 
ATOM      5  O   UNL A   1      30.870  30.319  24.918  1.00  0.00    -0.269 OA
ATOM      6  H   UNL A   1      32.438  31.640  26.073  1.00  0.00     0.163 HD
BRANCH   4   7
ATOM      7  C   UNL A   1      31.907  28.354  25.635  1.00  0.00     0.060 A 
ATOM      8  C   UNL A   1      32.713  26.189  24.993  1.00  0.00     0.092 A 
ATOM      9  C   UNL A   1      32.503  27.530  24.689  1.00  0.00     0.046 A 
ATOM     10  C   UNL A   1      32.127  25.627  26.148  1.00  0.00     0.153 A 
ATOM     11  N   UNL A   1      31.444  26.395  27.017  1.00  0.00    -0.236 NA
ATOM     12  C   UNL A   1      31.387  27.732  26.768  1.00  0.00     0.127 A 
BRANCH   8  13
ATOM     13  N   UNL A   1      33.520  25.359  24.166  1.00  0.00    -0.276 N 
ATOM     14  H   UNL A   1      34.486  25.332  24.355  1.00  0.00     0.180 HD
BRANCH  13  15
ATOM     15  S   UNL A   1      32.953  24.427  22.899  1.00  0.00     0.262 S 
ATOM     16  O   UNL A   1      33.773  24.791  21.756  1.00  0.00    -0.201 OA
ATOM     17  O   UNL A   1      31.524  24.647  22.901  1.00  0.00    -0.201 OA
BRANCH  15  18
ATOM     18  C   UNL A   1      33.199  22.665  23.138  1.00  0.00     0.090 A 
ATOM     19  C   UNL A   1      33.358  18.731  24.914  1.00  0.00     0.044 C 
ATOM     20  C   UNL A   1      33.329  20.067  24.228  1.00  0.00    -0.051 A 
ATOM     21  C   UNL A   1      32.263  20.438  23.406  1.00  0.00     0.005 A 
ATOM     22  C   UNL A   1      34.402  20.948  24.368  1.00  0.00     0.008 A 
ATOM     23  C   UNL A   1      32.210  21.721  22.844  1.00  0.00     0.023 A 
ATOM     24  C   UNL A   1      34.363  22.243  23.819  1.00  0.00    -0.030 A 
ATOM     25  C   UNL A   1      35.606  23.080  23.971  1.00  0.00     0.046 C 
ENDBRANCH  15  18
ENDBRANCH  13  15
ENDBRANCH   8  13
BRANCH  10  26
ATOM     26  N   UNL A   1      32.175  24.279  26.379  1.00  0.00    -0.355 N 
ATOM     27  C   UNL A   1      31.183  23.277  26.049  1.00  0.00     0.118 C 
ATOM     28  C   UNL A   1      33.358  23.708  27.001  1.00  0.00     0.118 C 
ATOM     29  C   UNL A   1      31.444  22.235  27.133  1.00  0.00     0.023 C 
ATOM     30  C   UNL A   1      32.967  22.247  27.250  1.00  0.00     0.023 C 
ENDBRANCH  10  26
ENDBRANCH   4   7
ENDBRANCH   2   3
ENDBRANCH   1   2
BRANCH   1  31
ATOM     31  C   UNL A   1      32.924  32.689  27.980  1.00  0.00     0.023 C 
BRANCH  31  32
ATOM     32  C   UNL A   1      33.291  34.091  27.502  1.00  0.00     0.116 C 
BRANCH  32  33
ATOM     33  N   UNL A   1      32.836  35.143  28.397  1.00  0.00    -0.352 N 
ATOM     34  C   UNL A   1      33.257  35.404  29.679  1.00  0.00     0.251 C 
ATOM     35  H   UNL A   1      32.140  35.741  28.041  1.00  0.00     0.163 HD
ATOM     36  O   UNL A   1      32.708  36.271  30.349  1.00  0.00    -0.269 OA
BRANCH  34  37
ATOM     37  C   UNL A   1      34.357  34.601  30.252  1.00  0.00     0.039 A 
ATOM     38  C   UNL A   1      35.632  34.710  29.694  1.00  0.00     0.014 A 
ATOM     39  C   UNL A   1      34.133  33.770  31.354  1.00  0.00     0.014 A 
ATOM     40  C   UNL A   1      36.700  34.026  30.279  1.00  0.00     0.010 A 
ATOM     41  C   UNL A   1      35.208  33.140  31.972  1.00  0.00     0.010 A 
ATOM     42  C   UNL A   1      36.502  33.260  31.439  1.00  0.00    -0.014 A 
BRANCH  42  43
ATOM     43  C   UNL A   1      37.631  32.562  32.101  1.00  0.00     0.031 A 
ATOM     44  C   UNL A   1      38.139  33.051  33.430  1.00  0.00     0.074 A 
ATOM     45  C   UNL A   1      38.238  31.533  31.477  1.00  0.00     0.049 A 
ATOM     46  N   UNL A   1      39.154  32.622  34.134  1.00  0.00    -0.248 NA
ATOM     47  C   UNL A   1      37.431  34.192  34.033  1.00  0.00     0.031 C 
ATOM     48  C   UNL A   1      37.871  31.002  30.162  1.00  0.00     0.029 A 
ATOM     49  N   UNL A   1      39.301  30.756  31.862  1.00  0.00    -0.354 N 
ATOM     50  C   UNL A   1      39.224  33.455  35.245  1.00  0.00     0.074 A 
ATOM     51  C   UNL A   1      38.173  34.438  35.103  1.00  0.00     0.031 C 
ATOM     52  C   UNL A   1      38.680  29.973  29.861  1.00  0.00     0.029 A 
ATOM     53  C   UNL A   1      39.639  29.787  30.946  1.00  0.00     0.049 A 
ATOM     54  H   UNL A   1      39.777  30.879  32.715  1.00  0.00     0.167 HD
ATOM     55  C   UNL A   1      40.074  33.392  36.297  1.00  0.00     0.037 A 
ATOM     56  C   UNL A   1      40.611  28.856  30.980  1.00  0.00     0.037 A 
ATOM     57  C   UNL A   1      41.083  32.378  36.459  1.00  0.00     0.049 A 
ATOM     58  C   UNL A   1      41.513  28.781  32.182  1.00  0.00     0.074 A 
ATOM     59  C   UNL A   1      41.941  32.182  37.527  1.00  0.00     0.029 A 
ATOM     60  N   UNL A   1      41.361  31.386  35.532  1.00  0.00    -0.354 N 
ATOM     61  N   UNL A   1      41.521  29.535  33.256  1.00  0.00    -0.248 NA
ATOM     62  C   UNL A   1      42.532  27.721  32.184  1.00  0.00     0.031 C 
ATOM     63  C   UNL A   1      42.758  31.084  37.233  1.00  0.00     0.029 A 
ATOM     64  C   UNL A   1      42.384  30.578  35.998  1.00  0.00     0.049 A 
ATOM     65  H   UNL A   1      40.900  31.272  34.670  1.00  0.00     0.167 HD
ATOM     66  C   UNL A   1      42.518  29.018  34.075  1.00  0.00     0.074 A 
ATOM     67  C   UNL A   1      43.089  27.886  33.375  1.00  0.00     0.031 C 
ATOM     68  C   UNL A   1      42.922  29.441  35.298  1.00  0.00     0.037 A 
BRANCH  55  69
ATOM     69  C   UNL A   1      39.944  34.443  37.363  1.00  0.00     0.058 A 
ATOM     70  C   UNL A   1      40.627  35.666  37.278  1.00  0.00     0.135 A 
ATOM     71  C   UNL A   1      39.092  34.241  38.460  1.00  0.00     0.135 A 
ATOM     72  F   UNL A   1      41.468  35.903  36.259  1.00  0.00    -0.206 F 
ATOM     73  C   UNL A   1      40.488  36.645  38.258  1.00  0.00     0.059 A 
ATOM     74  C   UNL A   1      38.920  35.216  39.439  1.00  0.00     0.059 A 
ATOM     75  F   UNL A   1      38.418  33.088  38.590  1.00  0.00    -0.206 F 
ATOM     76  C   UNL A   1      39.632  36.409  39.335  1.00  0.00     0.060 A 
BRANCH  76  77
ATOM     77  S   UNL A   1      39.450  37.693  40.591  1.00  0.00     0.124 S 
ATOM     78  O   UNL A   1      40.751  38.352  40.521  1.00  0.00    -0.237 OA
ATOM     79  O   UNL A   1      38.320  38.468  40.087  1.00  0.00    -0.237 OA
ATOM     80  O   UNL A   1      39.193  36.938  41.813  1.00  0.00    -0.744 OA
ENDBRANCH  76  77
ENDBRANCH  55  69
BRANCH  56  81
ATOM     81  C   UNL A   1      40.763  27.889  29.862  1.00  0.00     0.058 A 
ATOM     82  C   UNL A   1      41.840  27.990  28.968  1.00  0.00     0.135 A 
ATOM     83  C   UNL A   1      39.833  26.860  29.652  1.00  0.00     0.135 A 
ATOM     84  F   UNL A   1      42.752  28.961  29.127  1.00  0.00    -0.206 F 
ATOM     85  C   UNL A   1      41.976  27.125  27.888  1.00  0.00     0.059 A 
ATOM     86  C   UNL A   1      39.959  25.968  28.591  1.00  0.00     0.059 A 
ATOM     87  F   UNL A   1      38.795  26.709  30.490  1.00  0.00    -0.206 F 
ATOM     88  C   UNL A   1      41.026  26.119  27.705  1.00  0.00     0.060 A 
BRANCH  88  89
ATOM     89  S   UNL A   1      41.219  24.985  26.312  1.00  0.00     0.124 S 
ATOM     90  O   UNL A   1      40.127  24.047  26.547  1.00  0.00    -0.237 OA
ATOM     91  O   UNL A   1      41.062  25.874  25.164  1.00  0.00    -0.237 OA
ATOM     92  O   UNL A   1      42.564  24.451  26.502  1.00  0.00    -0.744 OA
ENDBRANCH  88  89
ENDBRANCH  56  81
BRANCH  68  93
ATOM     93  C   UNL A   1      43.996  28.643  35.981  1.00  0.00     0.058 A 
ATOM     94  C   UNL A   1      45.352  28.991  35.878  1.00  0.00     0.135 A 
ATOM     95  C   UNL A   1      43.656  27.543  36.784  1.00  0.00     0.135 A 
ATOM     96  F   UNL A   1      45.727  30.032  35.118  1.00  0.00    -0.206 F 
ATOM     97  C   UNL A   1      46.337  28.258  36.529  1.00  0.00     0.059 A 
ATOM     98  C   UNL A   1      44.623  26.810  37.461  1.00  0.00     0.059 A 
ATOM     99  F   UNL A   1      42.372  27.179  36.922  1.00  0.00    -0.206 F 
ATOM    100  C   UNL A   1      45.964  27.167  37.318  1.00  0.00     0.060 A 
BRANCH 100 101
ATOM    101  S   UNL A   1      47.247  26.237  38.181  1.00  0.00     0.124 S 
ATOM    102  O   UNL A   1      48.407  26.475  37.329  1.00  0.00    -0.237 OA
ATOM    103  O   UNL A   1      47.279  26.883  39.490  1.00  0.00    -0.237 OA
ATOM    104  O   UNL A   1      46.734  24.870  38.177  1.00  0.00    -0.744 OA
ENDBRANCH 100 101
ENDBRANCH  68  93
ENDBRANCH  42  43
ENDBRANCH  34  37
ENDBRANCH  32  33
ENDBRANCH  31  32
ENDBRANCH   1  31
TORSDOF 18
ENDMDL
MODEL 3
REMARK VINA RESULT:     -11.8      1.564      2.641
REMARK SMILES Cc1ccc(S(=O)(=O)Nc2cc(C(=O)NCCCCNC(=O)c3ccc(-c4c5nc(c(-c6c(F)cc(S(=O)(=O)[O-])cc6F)c6ccc([nH]6)c(-c6c(F)cc(S(=O)(=O)[O-])cc6F)c6nc(c(-c7c(F)cc(S(=O)(=O)[O-])cc7F)c7ccc4[nH]7)C=C6)C=C5)cc3)cnc2N2CCCC2)c(C)c1
REMARK SMILES IDX 17 1 16 2 15 3 13 4 14 5 12 7 10 8 11 9 91 10 90 11 89 12
REMARK SMILES IDX 9 13 6 15 7 16 8 17 5 18 1 19 2 20 3 21 99 22 4 23 97 24
REMARK SMILES IDX 98 25 92 26 93 27 96 28 94 29 95 30 18 31 19 32 20 33 21 34
REMARK SMILES IDX 22 36 23 37 24 38 88 39 25 40 87 41 26 42 27 43 28 44 81 45
REMARK SMILES IDX 29 46 86 47 80 48 82 49 30 50 85 51 79 52 78 53 31 55 65 56
REMARK SMILES IDX 44 57 64 58 45 59 48 60 63 61 83 62 46 63 47 64 62 66 84 67
REMARK SMILES IDX 49 68 32 69 33 70 42 71 34 72 35 73 41 74 43 75 36 76 37 77
REMARK SMILES IDX 38 78 39 79 40 80 66 81 67 82 76 83 68 84 69 85 75 86 77 87
REMARK SMILES IDX 70 88 71 89 72 90 73 91 74 92 50 93 51 94 60 95 52 96 53 97
REMARK SMILES IDX 59 98 61 99 54 100 55 101 56 102 57 103 58 104
REMARK H PARENT 15 6 9 14 20 35 82 54 48 65
REMARK Flexibility Score: inf
ROOT
ATOM      1  C   UNL A   1      35.381  31.468  27.738  1.00  0.00     0.023 C 
ENDROOT
BRANCH   1   2
ATOM      2  C   UNL A   1      34.402  30.380  27.295  1.00  0.00     0.116 C 
BRANCH   2   3
ATOM      3  N   UNL A   1      33.195  30.964  26.742  1.00  0.00    -0.352 N 
ATOM      4  C   UNL A   1      32.068  30.408  26.193  1.00  0.00     0.252 C 
ATOM      5  O   UNL A   1      31.168  31.167  25.832  1.00  0.00    -0.269 OA
ATOM      6  H   UNL A   1      33.182  31.949  26.764  1.00  0.00     0.163 HD
BRANCH   4   7
ATOM      7  C   UNL A   1      31.848  28.946  26.072  1.00  0.00     0.060 A 
ATOM      8  C   UNL A   1      31.865  26.823  24.958  1.00  0.00     0.092 A 
ATOM      9  C   UNL A   1      31.881  28.213  24.893  1.00  0.00     0.046 A 
ATOM     10  C   UNL A   1      31.591  26.177  26.183  1.00  0.00     0.153 A 
ATOM     11  N   UNL A   1      31.439  26.886  27.317  1.00  0.00    -0.236 NA
ATOM     12  C   UNL A   1      31.612  28.235  27.246  1.00  0.00     0.127 A 
BRANCH   8  13
ATOM     13  N   UNL A   1      32.130  26.025  23.811  1.00  0.00    -0.276 N 
ATOM     14  H   UNL A   1      31.388  25.872  23.182  1.00  0.00     0.180 HD
BRANCH  13  15
ATOM     15  S   UNL A   1      33.607  25.329  23.450  1.00  0.00     0.262 S 
ATOM     16  O   UNL A   1      34.479  25.677  24.558  1.00  0.00    -0.201 OA
ATOM     17  O   UNL A   1      33.892  25.768  22.102  1.00  0.00    -0.201 OA
BRANCH  15  18
ATOM     18  C   UNL A   1      33.563  23.535  23.403  1.00  0.00     0.090 A 
ATOM     19  C   UNL A   1      33.205  19.392  24.568  1.00  0.00     0.044 C 
ATOM     20  C   UNL A   1      33.342  20.808  24.089  1.00  0.00    -0.051 A 
ATOM     21  C   UNL A   1      32.283  21.469  23.464  1.00  0.00     0.005 A 
ATOM     22  C   UNL A   1      34.562  21.475  24.220  1.00  0.00     0.008 A 
ATOM     23  C   UNL A   1      32.400  22.818  23.100  1.00  0.00     0.023 A 
ATOM     24  C   UNL A   1      34.695  22.831  23.869  1.00  0.00    -0.030 A 
ATOM     25  C   UNL A   1      36.075  23.426  23.986  1.00  0.00     0.046 C 
ENDBRANCH  15  18
ENDBRANCH  13  15
ENDBRANCH   8  13
BRANCH  10  26
ATOM     26  N   UNL A   1      31.401  24.823  26.239  1.00  0.00    -0.355 N 
ATOM     27  C   UNL A   1      30.271  24.056  25.757  1.00  0.00     0.118 C 
ATOM     28  C   UNL A   1      32.441  23.985  26.812  1.00  0.00     0.118 C 
ATOM     29  C   UNL A   1      30.302  22.859  26.703  1.00  0.00     0.023 C 
ATOM     30  C   UNL A   1      31.798  22.594  26.861  1.00  0.00     0.023 C 
ENDBRANCH  10  26
ENDBRANCH   4   7
ENDBRANCH   2   3
ENDBRANCH   1   2
BRANCH   1  31
ATOM     31  C   UNL A   1      35.246  31.856  29.211  1.00  0.00     0.023 C 
BRANCH  31  32
ATOM     32  C   UNL A   1      35.882  30.869  30.186  1.00  0.00     0.116 C 
BRANCH  32  33
ATOM     33  N   UNL A   1      36.185  31.454  31.482  1.00  0.00    -0.352 N 
ATOM     34  C   UNL A   1      37.388  31.460  32.148  1.00  0.00     0.251 C 
ATOM     35  H   UNL A   1      35.436  31.899  31.941  1.00  0.00     0.163 HD
ATOM     36  O   UNL A   1      37.467  31.910  33.285  1.00  0.00    -0.269 OA
BRANCH  34  37
ATOM     37  C   UNL A   1      38.577  30.883  31.487  1.00  0.00     0.039 A 
ATOM     38  C   UNL A   1      38.815  31.185  30.145  1.00  0.00     0.014 A 
ATOM     39  C   UNL A   1      39.468  30.075  32.202  1.00  0.00     0.014 A 
ATOM     40  C   UNL A   1      39.980  30.721  29.531  1.00  0.00     0.010 A 
ATOM     41  C   UNL A   1      40.657  29.668  31.607  1.00  0.00     0.010 A 
ATOM     42  C   UNL A   1      40.923  29.984  30.265  1.00  0.00    -0.014 A 
BRANCH  42  43
ATOM     43  C   UNL A   1      42.188  29.520  29.643  1.00  0.00     0.031 A 
ATOM     44  C   UNL A   1      43.347  30.469  29.503  1.00  0.00     0.074 A 
ATOM     45  C   UNL A   1      42.269  28.269  29.148  1.00  0.00     0.049 A 
ATOM     46  N   UNL A   1      44.506  30.276  28.930  1.00  0.00    -0.248 NA
ATOM     47  C   UNL A   1      43.167  31.822  30.053  1.00  0.00     0.031 C 
ATOM     48  C   UNL A   1      41.194  27.274  29.176  1.00  0.00     0.029 A 
ATOM     49  N   UNL A   1      43.300  27.623  28.515  1.00  0.00    -0.354 N 
ATOM     50  C   UNL A   1      45.181  31.488  29.026  1.00  0.00     0.074 A 
ATOM     51  C   UNL A   1      44.289  32.420  29.677  1.00  0.00     0.031 C 
ATOM     52  C   UNL A   1      41.631  26.137  28.607  1.00  0.00     0.029 A 
ATOM     53  C   UNL A   1      43.004  26.330  28.150  1.00  0.00     0.049 A 
ATOM     54  H   UNL A   1      44.172  28.045  28.338  1.00  0.00     0.167 HD
ATOM     55  C   UNL A   1      46.439  31.788  28.624  1.00  0.00     0.037 A 
ATOM     56  C   UNL A   1      43.756  25.408  27.520  1.00  0.00     0.037 A 
ATOM     57  C   UNL A   1      47.343  30.841  28.026  1.00  0.00     0.049 A 
ATOM     58  C   UNL A   1      45.165  25.755  27.126  1.00  0.00     0.074 A 
ATOM     59  C   UNL A   1      48.664  31.027  27.657  1.00  0.00     0.029 A 
ATOM     60  N   UNL A   1      47.021  29.529  27.718  1.00  0.00    -0.354 N 
ATOM     61  N   UNL A   1      45.811  26.886  27.285  1.00  0.00    -0.248 NA
ATOM     62  C   UNL A   1      45.954  24.699  26.476  1.00  0.00     0.031 C 
ATOM     63  C   UNL A   1      49.133  29.832  27.100  1.00  0.00     0.029 A 
ATOM     64  C   UNL A   1      48.115  28.894  27.155  1.00  0.00     0.049 A 
ATOM     65  H   UNL A   1      46.144  29.109  27.875  1.00  0.00     0.167 HD
ATOM     66  C   UNL A   1      47.091  26.665  26.790  1.00  0.00     0.074 A 
ATOM     67  C   UNL A   1      47.129  25.292  26.328  1.00  0.00     0.031 C 
ATOM     68  C   UNL A   1      48.141  27.520  26.725  1.00  0.00     0.037 A 
BRANCH  55  69
ATOM     69  C   UNL A   1      46.919  33.197  28.829  1.00  0.00     0.058 A 
ATOM     70  C   UNL A   1      46.750  34.184  27.845  1.00  0.00     0.135 A 
ATOM     71  C   UNL A   1      47.517  33.575  30.043  1.00  0.00     0.135 A 
ATOM     72  F   UNL A   1      46.201  33.870  26.661  1.00  0.00    -0.206 F 
ATOM     73  C   UNL A   1      47.178  35.492  28.047  1.00  0.00     0.059 A 
ATOM     74  C   UNL A   1      47.931  34.885  30.275  1.00  0.00     0.059 A 
ATOM     75  F   UNL A   1      47.704  32.670  31.015  1.00  0.00    -0.206 F 
ATOM     76  C   UNL A   1      47.768  35.832  29.266  1.00  0.00     0.060 A 
BRANCH  76  77
ATOM     77  S   UNL A   1      48.305  37.536  29.520  1.00  0.00     0.124 S 
ATOM     78  O   UNL A   1      48.701  37.509  30.925  1.00  0.00    -0.237 OA
ATOM     79  O   UNL A   1      49.395  37.670  28.558  1.00  0.00    -0.237 OA
ATOM     80  O   UNL A   1      47.109  38.318  29.219  1.00  0.00    -0.744 OA
ENDBRANCH  76  77
ENDBRANCH  55  69
BRANCH  56  81
ATOM     81  C   UNL A   1      43.211  24.050  27.256  1.00  0.00     0.058 A 
ATOM     82  C   UNL A   1      42.686  23.722  25.998  1.00  0.00     0.135 A 
ATOM     83  C   UNL A   1      43.189  23.064  28.253  1.00  0.00     0.135 A 
ATOM     84  F   UNL A   1      42.683  24.635  25.015  1.00  0.00    -0.206 F 
ATOM     85  C   UNL A   1      42.130  22.472  25.743  1.00  0.00     0.059 A 
ATOM     86  C   UNL A   1      42.658  21.799  28.016  1.00  0.00     0.059 A 
ATOM     87  F   UNL A   1      43.697  23.322  29.468  1.00  0.00    -0.206 F 
ATOM     88  C   UNL A   1      42.115  21.519  26.762  1.00  0.00     0.060 A 
BRANCH  88  89
ATOM     89  S   UNL A   1      41.411  19.891  26.419  1.00  0.00     0.124 S 
ATOM     90  O   UNL A   1      40.036  20.236  26.076  1.00  0.00    -0.237 OA
ATOM     91  O   UNL A   1      42.245  19.418  25.317  1.00  0.00    -0.237 OA
ATOM     92  O   UNL A   1      41.590  19.180  27.680  1.00  0.00    -0.744 OA
ENDBRANCH  88  89
ENDBRANCH  56  81
BRANCH  68  93
ATOM     93  C   UNL A   1      49.435  26.981  26.186  1.00  0.00     0.058 A 
ATOM     94  C   UNL A   1      49.794  27.133  24.838  1.00  0.00     0.135 A 
ATOM     95  C   UNL A   1      50.346  26.341  27.043  1.00  0.00     0.135 A 
ATOM     96  F   UNL A   1      48.955  27.732  23.979  1.00  0.00    -0.206 F 
ATOM     97  C   UNL A   1      51.002  26.646  24.352  1.00  0.00     0.059 A 
ATOM     98  C   UNL A   1      51.568  25.868  26.583  1.00  0.00     0.059 A 
ATOM     99  F   UNL A   1      50.052  26.182  28.343  1.00  0.00    -0.206 F 
ATOM    100  C   UNL A   1      51.883  26.014  25.232  1.00  0.00     0.060 A 
BRANCH 100 101
ATOM    101  S   UNL A   1      53.462  25.409  24.600  1.00  0.00     0.124 S 
ATOM    102  O   UNL A   1      53.435  24.015  25.027  1.00  0.00    -0.237 OA
ATOM    103  O   UNL A   1      53.334  25.634  23.163  1.00  0.00    -0.237 OA
ATOM    104  O   UNL A   1      54.442  26.254  25.274  1.00  0.00    -0.744 OA
ENDBRANCH 100 101
ENDBRANCH  68  93
ENDBRANCH  42  43
ENDBRANCH  34  37
ENDBRANCH  32  33
ENDBRANCH  31  32
ENDBRANCH   1  31
TORSDOF 18
ENDMDL
