MODEL 1
REMARK VINA RESULT:     -12.7      0.000      0.000
REMARK SMILES Cc1nnc(SCC(=O)Nc2cccc(C(=O)NCCCCNC(=O)c3ccc(-c4c5nc(c(-c6c(F)cc(S(=O)(=O)[O-])cc6F)c6ccc([nH]6)c(-c6c(F)cc(S(=O)(=O)[O-])cc6F)c6nc(c(-c7c(F)cc(S(=O)(=O)[O-])cc7F)c7ccc4[nH]7)C=C6)C=C5)cc3)c2)n1-c1ccccc1
REMARK SMILES IDX 19 1 18 2 16 3 17 4 15 6 11 7 12 8 92 9 13 10 14 11 10 12
REMARK SMILES IDX 8 13 9 14 7 16 6 17 5 18 1 19 2 20 3 21 93 22 4 23 94 24
REMARK SMILES IDX 95 25 99 26 96 27 98 28 97 29 20 30 21 31 22 32 23 33 24 34
REMARK SMILES IDX 25 36 26 37 27 38 91 39 28 40 90 41 29 42 30 43 31 44 84 45
REMARK SMILES IDX 32 46 89 47 83 48 85 49 33 50 88 51 82 52 81 53 34 55 68 56
REMARK SMILES IDX 47 57 67 58 48 59 51 60 66 61 86 62 49 63 50 64 65 66 87 67
REMARK SMILES IDX 52 68 35 69 36 70 45 71 37 72 38 73 44 74 46 75 39 76 40 77
REMARK SMILES IDX 41 78 42 79 43 80 69 81 70 82 79 83 71 84 72 85 78 86 80 87
REMARK SMILES IDX 73 88 74 89 75 90 76 91 77 92 53 93 54 94 63 95 55 96 56 97
REMARK SMILES IDX 62 98 64 99 57 100 58 101 59 102 60 103 61 104
REMARK H PARENT 18 5 10 15 23 35 85 54 51 65
REMARK Flexibility Score: inf
ROOT
ATOM      1  C   UNL A   1      33.912  28.144  24.785  1.00  0.00     0.116 C 
ENDROOT
BRANCH   1   2
ATOM      2  N   UNL A   1      33.992  27.982  23.340  1.00  0.00    -0.352 N 
ATOM      3  C   UNL A   1      33.371  27.107  22.467  1.00  0.00     0.251 C 
ATOM      4  O   UNL A   1      33.648  27.203  21.270  1.00  0.00    -0.269 OA
ATOM      5  H   UNL A   1      34.604  28.617  22.902  1.00  0.00     0.163 HD
BRANCH   3   6
ATOM      6  C   UNL A   1      32.436  26.011  22.879  1.00  0.00     0.041 A 
ATOM      7  C   UNL A   1      31.644  23.718  22.845  1.00  0.00     0.041 A 
ATOM      8  C   UNL A   1      30.466  24.105  23.486  1.00  0.00     0.026 A 
ATOM      9  C   UNL A   1      32.634  24.663  22.583  1.00  0.00     0.040 A 
ATOM     10  C   UNL A   1      30.318  25.413  23.932  1.00  0.00     0.003 A 
ATOM     11  C   UNL A   1      31.296  26.361  23.622  1.00  0.00     0.014 A 
BRANCH   7  12
ATOM     12  N   UNL A   1      31.715  22.393  22.420  1.00  0.00    -0.325 N 
ATOM     13  C   UNL A   1      32.303  21.283  22.936  1.00  0.00     0.234 C 
ATOM     14  O   UNL A   1      32.172  20.271  22.237  1.00  0.00    -0.274 OA
ATOM     15  H   UNL A   1      31.243  22.227  21.573  1.00  0.00     0.169 HD
BRANCH  13  16
ATOM     16  C   UNL A   1      32.823  21.198  24.354  1.00  0.00     0.178 C 
BRANCH  16  17
ATOM     17  S   UNL A   1      34.040  19.967  24.826  1.00  0.00    -0.076 SA
BRANCH  17  18
ATOM     18  C   UNL A   1      35.534  20.715  25.269  1.00  0.00     0.196 A 
ATOM     19  C   UNL A   1      37.549  23.706  25.674  1.00  0.00     0.090 C 
ATOM     20  C   UNL A   1      36.969  22.364  25.448  1.00  0.00     0.135 A 
ATOM     21  N   UNL A   1      37.610  21.310  24.979  1.00  0.00    -0.134 NA
ATOM     22  N   UNL A   1      35.658  22.019  25.698  1.00  0.00    -0.274 N 
ATOM     23  N   UNL A   1      36.706  20.285  24.861  1.00  0.00    -0.123 NA
BRANCH  22  24
ATOM     24  C   UNL A   1      34.691  22.739  26.409  1.00  0.00     0.049 A 
ATOM     25  C   UNL A   1      34.065  22.084  27.469  1.00  0.00     0.027 A 
ATOM     26  C   UNL A   1      34.161  23.903  25.860  1.00  0.00     0.027 A 
ATOM     27  C   UNL A   1      32.822  22.524  27.908  1.00  0.00     0.002 A 
ATOM     28  C   UNL A   1      32.933  24.362  26.336  1.00  0.00     0.002 A 
ATOM     29  C   UNL A   1      32.248  23.652  27.329  1.00  0.00     0.000 A 
ENDBRANCH  22  24
ENDBRANCH  17  18
ENDBRANCH  16  17
ENDBRANCH  13  16
ENDBRANCH   7  12
ENDBRANCH   3   6
ENDBRANCH   1   2
BRANCH   1  30
ATOM     30  C   UNL A   1      32.812  29.077  25.309  1.00  0.00     0.023 C 
BRANCH  30  31
ATOM     31  C   UNL A   1      32.596  29.245  26.821  1.00  0.00     0.023 C 
BRANCH  31  32
ATOM     32  C   UNL A   1      33.716  29.879  27.636  1.00  0.00     0.116 C 
BRANCH  32  33
ATOM     33  N   UNL A   1      34.029  31.277  27.339  1.00  0.00    -0.352 N 
ATOM     34  C   UNL A   1      35.176  31.977  27.717  1.00  0.00     0.251 C 
ATOM     35  H   UNL A   1      33.361  31.776  26.816  1.00  0.00     0.163 HD
ATOM     36  O   UNL A   1      35.260  33.188  27.639  1.00  0.00    -0.269 OA
BRANCH  34  37
ATOM     37  C   UNL A   1      36.340  31.178  28.169  1.00  0.00     0.039 A 
ATOM     38  C   UNL A   1      36.646  29.916  27.650  1.00  0.00     0.014 A 
ATOM     39  C   UNL A   1      37.164  31.769  29.125  1.00  0.00     0.014 A 
ATOM     40  C   UNL A   1      37.848  29.309  28.025  1.00  0.00     0.010 A 
ATOM     41  C   UNL A   1      38.408  31.249  29.370  1.00  0.00     0.010 A 
ATOM     42  C   UNL A   1      38.742  29.999  28.862  1.00  0.00    -0.014 A 
BRANCH  42  43
ATOM     43  C   UNL A   1      40.100  29.511  29.096  1.00  0.00     0.031 A 
ATOM     44  C   UNL A   1      40.448  29.348  30.539  1.00  0.00     0.074 A 
ATOM     45  C   UNL A   1      40.864  28.987  28.110  1.00  0.00     0.049 A 
ATOM     46  N   UNL A   1      41.316  30.014  31.227  1.00  0.00    -0.248 NA
ATOM     47  C   UNL A   1      39.615  28.449  31.360  1.00  0.00     0.031 C 
ATOM     48  C   UNL A   1      40.509  28.769  26.702  1.00  0.00     0.029 A 
ATOM     49  N   UNL A   1      42.097  28.415  28.185  1.00  0.00    -0.354 N 
ATOM     50  C   UNL A   1      41.313  29.446  32.501  1.00  0.00     0.074 A 
ATOM     51  C   UNL A   1      40.112  28.659  32.581  1.00  0.00     0.031 C 
ATOM     52  C   UNL A   1      41.382  27.904  26.139  1.00  0.00     0.029 A 
ATOM     53  C   UNL A   1      42.448  27.637  27.085  1.00  0.00     0.049 A 
ATOM     54  H   UNL A   1      42.694  28.542  28.958  1.00  0.00     0.167 HD
ATOM     55  C   UNL A   1      42.428  29.466  33.286  1.00  0.00     0.037 A 
ATOM     56  C   UNL A   1      43.520  26.806  26.983  1.00  0.00     0.037 A 
ATOM     57  C   UNL A   1      43.392  30.414  32.783  1.00  0.00     0.049 A 
ATOM     58  C   UNL A   1      44.488  27.227  28.034  1.00  0.00     0.074 A 
ATOM     59  C   UNL A   1      43.368  31.770  32.519  1.00  0.00     0.029 A 
ATOM     60  N   UNL A   1      44.466  29.918  32.079  1.00  0.00    -0.354 N 
ATOM     61  N   UNL A   1      45.099  28.381  28.032  1.00  0.00    -0.248 NA
ATOM     62  C   UNL A   1      44.382  26.581  29.335  1.00  0.00     0.031 C 
ATOM     63  C   UNL A   1      44.078  31.915  31.292  1.00  0.00     0.029 A 
ATOM     64  C   UNL A   1      44.578  30.662  30.933  1.00  0.00     0.049 A 
ATOM     65  H   UNL A   1      45.045  29.169  32.349  1.00  0.00     0.167 HD
ATOM     66  C   UNL A   1      45.063  28.806  29.353  1.00  0.00     0.074 A 
ATOM     67  C   UNL A   1      44.666  27.625  30.119  1.00  0.00     0.031 C 
ATOM     68  C   UNL A   1      45.062  30.134  29.675  1.00  0.00     0.037 A 
BRANCH  55  69
ATOM     69  C   UNL A   1      42.818  28.380  34.271  1.00  0.00     0.058 A 
ATOM     70  C   UNL A   1      43.043  28.728  35.622  1.00  0.00     0.135 A 
ATOM     71  C   UNL A   1      43.253  27.089  33.903  1.00  0.00     0.135 A 
ATOM     72  F   UNL A   1      42.670  29.930  36.091  1.00  0.00    -0.206 F 
ATOM     73  C   UNL A   1      43.723  27.893  36.510  1.00  0.00     0.059 A 
ATOM     74  C   UNL A   1      43.885  26.219  34.786  1.00  0.00     0.059 A 
ATOM     75  F   UNL A   1      43.178  26.634  32.648  1.00  0.00    -0.206 F 
ATOM     76  C   UNL A   1      44.156  26.645  36.075  1.00  0.00     0.060 A 
BRANCH  76  77
ATOM     77  S   UNL A   1      45.121  25.606  37.184  1.00  0.00     0.124 S 
ATOM     78  O   UNL A   1      45.968  24.883  36.242  1.00  0.00    -0.237 OA
ATOM     79  O   UNL A   1      45.791  26.599  38.018  1.00  0.00    -0.237 OA
ATOM     80  O   UNL A   1      44.105  24.808  37.864  1.00  0.00    -0.744 OA
ENDBRANCH  76  77
ENDBRANCH  55  69
BRANCH  56  81
ATOM     81  C   UNL A   1      43.596  25.478  26.305  1.00  0.00     0.058 A 
ATOM     82  C   UNL A   1      44.524  25.226  25.278  1.00  0.00     0.135 A 
ATOM     83  C   UNL A   1      42.952  24.343  26.842  1.00  0.00     0.135 A 
ATOM     84  F   UNL A   1      45.199  26.241  24.718  1.00  0.00    -0.206 F 
ATOM     85  C   UNL A   1      44.832  23.928  24.844  1.00  0.00     0.059 A 
ATOM     86  C   UNL A   1      43.236  23.043  26.422  1.00  0.00     0.059 A 
ATOM     87  F   UNL A   1      42.089  24.456  27.862  1.00  0.00    -0.206 F 
ATOM     88  C   UNL A   1      44.197  22.839  25.440  1.00  0.00     0.060 A 
BRANCH  88  89
ATOM     89  S   UNL A   1      44.713  21.156  25.013  1.00  0.00     0.124 S 
ATOM     90  O   UNL A   1      46.054  21.096  25.587  1.00  0.00    -0.237 OA
ATOM     91  O   UNL A   1      43.699  20.344  25.676  1.00  0.00    -0.237 OA
ATOM     92  O   UNL A   1      44.659  21.145  23.554  1.00  0.00    -0.744 OA
ENDBRANCH  88  89
ENDBRANCH  56  81
BRANCH  68  93
ATOM     93  C   UNL A   1      45.384  31.146  28.603  1.00  0.00     0.058 A 
ATOM     94  C   UNL A   1      44.503  31.551  27.584  1.00  0.00     0.135 A 
ATOM     95  C   UNL A   1      46.586  31.861  28.724  1.00  0.00     0.135 A 
ATOM     96  F   UNL A   1      43.288  30.998  27.460  1.00  0.00    -0.206 F 
ATOM     97  C   UNL A   1      44.821  32.588  26.703  1.00  0.00     0.059 A 
ATOM     98  C   UNL A   1      46.909  32.919  27.880  1.00  0.00     0.059 A 
ATOM     99  F   UNL A   1      47.444  31.568  29.714  1.00  0.00    -0.206 F 
ATOM    100  C   UNL A   1      46.028  33.268  26.860  1.00  0.00     0.060 A 
BRANCH 100 101
ATOM    101  S   UNL A   1      46.419  34.647  25.761  1.00  0.00     0.124 S 
ATOM    102  O   UNL A   1      47.788  34.339  25.360  1.00  0.00    -0.237 OA
ATOM    103  O   UNL A   1      45.408  34.517  24.715  1.00  0.00    -0.237 OA
ATOM    104  O   UNL A   1      46.269  35.820  26.619  1.00  0.00    -0.744 OA
ENDBRANCH 100 101
ENDBRANCH  68  93
ENDBRANCH  42  43
ENDBRANCH  34  37
ENDBRANCH  32  33
ENDBRANCH  31  32
ENDBRANCH  30  31
ENDBRANCH   1  30
TORSDOF 19
ENDMDL
MODEL 2
REMARK VINA RESULT:     -12.6      1.869      2.757
REMARK SMILES Cc1nnc(SCC(=O)Nc2cccc(C(=O)NCCCCNC(=O)c3ccc(-c4c5nc(c(-c6c(F)cc(S(=O)(=O)[O-])cc6F)c6ccc([nH]6)c(-c6c(F)cc(S(=O)(=O)[O-])cc6F)c6nc(c(-c7c(F)cc(S(=O)(=O)[O-])cc7F)c7ccc4[nH]7)C=C6)C=C5)cc3)c2)n1-c1ccccc1
REMARK SMILES IDX 19 1 18 2 16 3 17 4 15 6 11 7 12 8 92 9 13 10 14 11 10 12
REMARK SMILES IDX 8 13 9 14 7 16 6 17 5 18 1 19 2 20 3 21 93 22 4 23 94 24
REMARK SMILES IDX 95 25 99 26 96 27 98 28 97 29 20 30 21 31 22 32 23 33 24 34
REMARK SMILES IDX 25 36 26 37 27 38 91 39 28 40 90 41 29 42 30 43 31 44 84 45
REMARK SMILES IDX 32 46 89 47 83 48 85 49 33 50 88 51 82 52 81 53 34 55 68 56
REMARK SMILES IDX 47 57 67 58 48 59 51 60 66 61 86 62 49 63 50 64 65 66 87 67
REMARK SMILES IDX 52 68 35 69 36 70 45 71 37 72 38 73 44 74 46 75 39 76 40 77
REMARK SMILES IDX 41 78 42 79 43 80 69 81 70 82 79 83 71 84 72 85 78 86 80 87
REMARK SMILES IDX 73 88 74 89 75 90 76 91 77 92 53 93 54 94 63 95 55 96 56 97
REMARK SMILES IDX 62 98 64 99 57 100 58 101 59 102 60 103 61 104
REMARK H PARENT 18 5 10 15 23 35 85 54 51 65
REMARK Flexibility Score: inf
ROOT
ATOM      1  C   UNL A   1      33.638  28.899  25.751  1.00  0.00     0.116 C 
ENDROOT
BRANCH   1   2
ATOM      2  N   UNL A   1      32.504  29.641  25.217  1.00  0.00    -0.352 N 
ATOM      3  C   UNL A   1      31.325  29.233  24.621  1.00  0.00     0.251 C 
ATOM      4  O   UNL A   1      30.539  30.108  24.253  1.00  0.00    -0.269 OA
ATOM      5  H   UNL A   1      32.595  30.618  25.296  1.00  0.00     0.163 HD
BRANCH   3   6
ATOM      6  C   UNL A   1      30.962  27.808  24.333  1.00  0.00     0.041 A 
ATOM      7  C   UNL A   1      30.261  25.580  24.991  1.00  0.00     0.041 A 
ATOM      8  C   UNL A   1      30.583  25.093  23.723  1.00  0.00     0.026 A 
ATOM      9  C   UNL A   1      30.414  26.936  25.274  1.00  0.00     0.040 A 
ATOM     10  C   UNL A   1      30.980  25.974  22.724  1.00  0.00     0.003 A 
ATOM     11  C   UNL A   1      31.176  27.323  23.032  1.00  0.00     0.014 A 
BRANCH   7  12
ATOM     12  N   UNL A   1      29.879  24.636  25.942  1.00  0.00    -0.325 N 
ATOM     13  C   UNL A   1      30.572  23.754  26.706  1.00  0.00     0.234 C 
ATOM     14  O   UNL A   1      29.861  23.041  27.425  1.00  0.00    -0.274 OA
ATOM     15  H   UNL A   1      28.906  24.600  26.088  1.00  0.00     0.169 HD
BRANCH  13  16
ATOM     16  C   UNL A   1      32.072  23.813  26.894  1.00  0.00     0.178 C 
BRANCH  16  17
ATOM     17  S   UNL A   1      32.997  22.379  27.449  1.00  0.00    -0.076 SA
BRANCH  17  18
ATOM     18  C   UNL A   1      34.385  22.117  26.452  1.00  0.00     0.196 A 
ATOM     19  C   UNL A   1      36.621  19.845  24.718  1.00  0.00     0.090 C 
ATOM     20  C   UNL A   1      35.936  20.929  25.456  1.00  0.00     0.135 A 
ATOM     21  N   UNL A   1      36.517  21.964  26.032  1.00  0.00    -0.134 NA
ATOM     22  N   UNL A   1      34.573  21.012  25.651  1.00  0.00    -0.274 N 
ATOM     23  N   UNL A   1      35.544  22.699  26.661  1.00  0.00    -0.123 NA
BRANCH  22  24
ATOM     24  C   UNL A   1      33.561  20.274  25.028  1.00  0.00     0.049 A 
ATOM     25  C   UNL A   1      33.434  18.935  25.397  1.00  0.00     0.027 A 
ATOM     26  C   UNL A   1      32.962  20.768  23.873  1.00  0.00     0.027 A 
ATOM     27  C   UNL A   1      32.807  18.043  24.535  1.00  0.00     0.002 A 
ATOM     28  C   UNL A   1      32.298  19.873  23.035  1.00  0.00     0.002 A 
ATOM     29  C   UNL A   1      32.255  18.509  23.345  1.00  0.00     0.000 A 
ENDBRANCH  22  24
ENDBRANCH  17  18
ENDBRANCH  16  17
ENDBRANCH  13  16
ENDBRANCH   7  12
ENDBRANCH   3   6
ENDBRANCH   1   2
BRANCH   1  30
ATOM     30  C   UNL A   1      34.428  29.575  26.879  1.00  0.00     0.023 C 
BRANCH  30  31
ATOM     31  C   UNL A   1      33.816  30.753  27.653  1.00  0.00     0.023 C 
BRANCH  31  32
ATOM     32  C   UNL A   1      34.661  32.008  27.829  1.00  0.00     0.116 C 
BRANCH  32  33
ATOM     33  N   UNL A   1      34.204  32.966  28.836  1.00  0.00    -0.352 N 
ATOM     34  C   UNL A   1      34.606  33.036  30.170  1.00  0.00     0.251 C 
ATOM     35  H   UNL A   1      33.543  33.633  28.540  1.00  0.00     0.163 HD
ATOM     36  O   UNL A   1      34.015  33.700  31.000  1.00  0.00    -0.269 OA
BRANCH  34  37
ATOM     37  C   UNL A   1      35.842  32.307  30.545  1.00  0.00     0.039 A 
ATOM     38  C   UNL A   1      35.851  30.955  30.899  1.00  0.00     0.014 A 
ATOM     39  C   UNL A   1      37.030  33.032  30.487  1.00  0.00     0.014 A 
ATOM     40  C   UNL A   1      37.082  30.317  31.084  1.00  0.00     0.010 A 
ATOM     41  C   UNL A   1      38.233  32.375  30.513  1.00  0.00     0.010 A 
ATOM     42  C   UNL A   1      38.272  31.029  30.856  1.00  0.00    -0.014 A 
BRANCH  42  43
ATOM     43  C   UNL A   1      39.569  30.353  30.812  1.00  0.00     0.031 A 
ATOM     44  C   UNL A   1      40.186  30.134  32.154  1.00  0.00     0.074 A 
ATOM     45  C   UNL A   1      40.028  29.733  29.701  1.00  0.00     0.049 A 
ATOM     46  N   UNL A   1      41.263  30.668  32.629  1.00  0.00    -0.248 NA
ATOM     47  C   UNL A   1      39.429  29.356  33.152  1.00  0.00     0.031 C 
ATOM     48  C   UNL A   1      39.358  29.577  28.404  1.00  0.00     0.029 A 
ATOM     49  N   UNL A   1      41.158  28.994  29.529  1.00  0.00    -0.354 N 
ATOM     50  C   UNL A   1      41.450  30.097  33.888  1.00  0.00     0.074 A 
ATOM     51  C   UNL A   1      40.196  29.486  34.236  1.00  0.00     0.031 C 
ATOM     52  C   UNL A   1      39.964  28.602  27.691  1.00  0.00     0.029 A 
ATOM     53  C   UNL A   1      41.158  28.182  28.398  1.00  0.00     0.049 A 
ATOM     54  H   UNL A   1      41.915  29.031  30.157  1.00  0.00     0.167 HD
ATOM     55  C   UNL A   1      42.697  29.955  34.422  1.00  0.00     0.037 A 
ATOM     56  C   UNL A   1      42.059  27.209  28.094  1.00  0.00     0.037 A 
ATOM     57  C   UNL A   1      43.656  30.762  33.706  1.00  0.00     0.049 A 
ATOM     58  C   UNL A   1      43.275  27.483  28.909  1.00  0.00     0.074 A 
ATOM     59  C   UNL A   1      43.764  32.110  33.422  1.00  0.00     0.029 A 
ATOM     60  N   UNL A   1      44.478  30.125  32.805  1.00  0.00    -0.354 N 
ATOM     61  N   UNL A   1      44.026  28.541  28.752  1.00  0.00    -0.248 NA
ATOM     62  C   UNL A   1      43.357  26.851  30.218  1.00  0.00     0.031 C 
ATOM     63  C   UNL A   1      44.214  32.161  32.070  1.00  0.00     0.029 A 
ATOM     64  C   UNL A   1      44.448  30.853  31.644  1.00  0.00     0.049 A 
ATOM     65  H   UNL A   1      44.991  29.301  32.965  1.00  0.00     0.167 HD
ATOM     66  C   UNL A   1      44.327  28.957  30.041  1.00  0.00     0.074 A 
ATOM     67  C   UNL A   1      43.942  27.839  30.901  1.00  0.00     0.031 C 
ATOM     68  C   UNL A   1      44.579  30.271  30.325  1.00  0.00     0.037 A 
BRANCH  55  69
ATOM     69  C   UNL A   1      43.132  28.820  35.329  1.00  0.00     0.058 A 
ATOM     70  C   UNL A   1      43.832  29.121  36.518  1.00  0.00     0.135 A 
ATOM     71  C   UNL A   1      43.144  27.459  34.952  1.00  0.00     0.135 A 
ATOM     72  F   UNL A   1      43.889  30.381  36.980  1.00  0.00    -0.206 F 
ATOM     73  C   UNL A   1      44.559  28.162  37.225  1.00  0.00     0.059 A 
ATOM     74  C   UNL A   1      43.818  26.478  35.672  1.00  0.00     0.059 A 
ATOM     75  F   UNL A   1      42.589  27.021  33.817  1.00  0.00    -0.206 F 
ATOM     76  C   UNL A   1      44.559  26.843  36.782  1.00  0.00     0.060 A 
BRANCH  76  77
ATOM     77  S   UNL A   1      45.575  25.623  37.631  1.00  0.00     0.124 S 
ATOM     78  O   UNL A   1      46.700  26.439  38.074  1.00  0.00    -0.237 OA
ATOM     79  O   UNL A   1      44.671  25.156  38.677  1.00  0.00    -0.237 OA
ATOM     80  O   UNL A   1      45.871  24.649  36.585  1.00  0.00    -0.744 OA
ENDBRANCH  76  77
ENDBRANCH  55  69
BRANCH  56  81
ATOM     81  C   UNL A   1      41.806  25.888  27.447  1.00  0.00     0.058 A 
ATOM     82  C   UNL A   1      42.707  25.338  26.516  1.00  0.00     0.135 A 
ATOM     83  C   UNL A   1      40.818  25.008  27.937  1.00  0.00     0.135 A 
ATOM     84  F   UNL A   1      43.692  26.092  26.007  1.00  0.00    -0.206 F 
ATOM     85  C   UNL A   1      42.662  23.989  26.133  1.00  0.00     0.059 A 
ATOM     86  C   UNL A   1      40.748  23.665  27.565  1.00  0.00     0.059 A 
ATOM     87  F   UNL A   1      39.939  25.406  28.868  1.00  0.00    -0.206 F 
ATOM     88  C   UNL A   1      41.690  23.154  26.682  1.00  0.00     0.060 A 
BRANCH  88  89
ATOM     89  S   UNL A   1      41.733  21.377  26.332  1.00  0.00     0.124 S 
ATOM     90  O   UNL A   1      42.755  21.296  25.293  1.00  0.00    -0.237 OA
ATOM     91  O   UNL A   1      42.095  20.815  27.628  1.00  0.00    -0.237 OA
ATOM     92  O   UNL A   1      40.371  21.086  25.889  1.00  0.00    -0.744 OA
ENDBRANCH  88  89
ENDBRANCH  56  81
BRANCH  68  93
ATOM     93  C   UNL A   1      44.805  31.234  29.187  1.00  0.00     0.058 A 
ATOM     94  C   UNL A   1      45.999  31.347  28.449  1.00  0.00     0.135 A 
ATOM     95  C   UNL A   1      43.697  31.956  28.715  1.00  0.00     0.135 A 
ATOM     96  F   UNL A   1      47.076  30.615  28.761  1.00  0.00    -0.206 F 
ATOM     97  C   UNL A   1      46.095  32.170  27.324  1.00  0.00     0.059 A 
ATOM     98  C   UNL A   1      43.760  32.754  27.577  1.00  0.00     0.059 A 
ATOM     99  F   UNL A   1      42.511  31.843  29.335  1.00  0.00    -0.206 F 
ATOM    100  C   UNL A   1      44.967  32.870  26.895  1.00  0.00     0.060 A 
BRANCH 100 101
ATOM    101  S   UNL A   1      45.070  33.889  25.407  1.00  0.00     0.124 S 
ATOM    102  O   UNL A   1      44.253  35.043  25.771  1.00  0.00    -0.237 OA
ATOM    103  O   UNL A   1      46.504  34.139  25.289  1.00  0.00    -0.237 OA
ATOM    104  O   UNL A   1      44.508  33.032  24.366  1.00  0.00    -0.744 OA
ENDBRANCH 100 101
ENDBRANCH  68  93
ENDBRANCH  42  43
ENDBRANCH  34  37
ENDBRANCH  32  33
ENDBRANCH  31  32
ENDBRANCH  30  31
ENDBRANCH   1  30
TORSDOF 19
ENDMDL
MODEL 3
REMARK VINA RESULT:     -12.5      1.508      2.297
REMARK SMILES Cc1nnc(SCC(=O)Nc2cccc(C(=O)NCCCCNC(=O)c3ccc(-c4c5nc(c(-c6c(F)cc(S(=O)(=O)[O-])cc6F)c6ccc([nH]6)c(-c6c(F)cc(S(=O)(=O)[O-])cc6F)c6nc(c(-c7c(F)cc(S(=O)(=O)[O-])cc7F)c7ccc4[nH]7)C=C6)C=C5)cc3)c2)n1-c1ccccc1
REMARK SMILES IDX 19 1 18 2 16 3 17 4 15 6 11 7 12 8 92 9 13 10 14 11 10 12
REMARK SMILES IDX 8 13 9 14 7 16 6 17 5 18 1 19 2 20 3 21 93 22 4 23 94 24
REMARK SMILES IDX 95 25 99 26 96 27 98 28 97 29 20 30 21 31 22 32 23 33 24 34
REMARK SMILES IDX 25 36 26 37 27 38 91 39 28 40 90 41 29 42 30 43 31 44 84 45
REMARK SMILES IDX 32 46 89 47 83 48 85 49 33 50 88 51 82 52 81 53 34 55 68 56
REMARK SMILES IDX 47 57 67 58 48 59 51 60 66 61 86 62 49 63 50 64 65 66 87 67
REMARK SMILES IDX 52 68 35 69 36 70 45 71 37 72 38 73 44 74 46 75 39 76 40 77
REMARK SMILES IDX 41 78 42 79 43 80 69 81 70 82 79 83 71 84 72 85 78 86 80 87
REMARK SMILES IDX 73 88 74 89 75 90 76 91 77 92 53 93 54 94 63 95 55 96 56 97
REMARK SMILES IDX 62 98 64 99 57 100 58 101 59 102 60 103 61 104
REMARK H PARENT 18 5 10 15 23 35 85 54 51 65
REMARK Flexibility Score: inf
ROOT
ATOM      1  C   UNL A   1      33.664  28.743  25.009  1.00  0.00     0.116 C 
ENDROOT
BRANCH   1   2
ATOM      2  N   UNL A   1      32.446  29.405  24.559  1.00  0.00    -0.352 N 
ATOM      3  C   UNL A   1      31.210  28.915  24.177  1.00  0.00     0.251 C 
ATOM      4  O   UNL A   1      30.356  29.733  23.828  1.00  0.00    -0.269 OA
ATOM      5  H   UNL A   1      32.518  30.386  24.520  1.00  0.00     0.163 HD
BRANCH   3   6
ATOM      6  C   UNL A   1      30.855  27.462  24.096  1.00  0.00     0.041 A 
ATOM      7  C   UNL A   1      30.289  25.317  25.079  1.00  0.00     0.041 A 
ATOM      8  C   UNL A   1      30.481  24.690  23.846  1.00  0.00     0.026 A 
ATOM      9  C   UNL A   1      30.437  26.699  25.186  1.00  0.00     0.040 A 
ATOM     10  C   UNL A   1      30.742  25.454  22.715  1.00  0.00     0.003 A 
ATOM     11  C   UNL A   1      30.936  26.832  22.843  1.00  0.00     0.014 A 
BRANCH   7  12
ATOM     12  N   UNL A   1      30.039  24.485  26.168  1.00  0.00    -0.325 N 
ATOM     13  C   UNL A   1      30.747  23.488  26.757  1.00  0.00     0.234 C 
ATOM     14  O   UNL A   1      30.165  22.947  27.705  1.00  0.00    -0.274 OA
ATOM     15  H   UNL A   1      29.170  24.653  26.597  1.00  0.00     0.169 HD
BRANCH  13  16
ATOM     16  C   UNL A   1      32.215  23.237  26.489  1.00  0.00     0.178 C 
BRANCH  16  17
ATOM     17  S   UNL A   1      33.298  24.555  25.936  1.00  0.00    -0.076 SA
BRANCH  17  18
ATOM     18  C   UNL A   1      34.870  23.943  25.555  1.00  0.00     0.196 A 
ATOM     19  C   UNL A   1      37.058  21.137  24.840  1.00  0.00     0.090 C 
ATOM     20  C   UNL A   1      36.392  22.394  25.246  1.00  0.00     0.135 A 
ATOM     21  N   UNL A   1      36.919  23.347  25.993  1.00  0.00    -0.134 NA
ATOM     22  N   UNL A   1      35.106  22.754  24.899  1.00  0.00    -0.274 N 
ATOM     23  N   UNL A   1      35.960  24.308  26.190  1.00  0.00    -0.123 NA
BRANCH  22  24
ATOM     24  C   UNL A   1      34.270  22.171  23.940  1.00  0.00     0.049 A 
ATOM     25  C   UNL A   1      33.985  22.927  22.804  1.00  0.00     0.027 A 
ATOM     26  C   UNL A   1      33.512  21.055  24.280  1.00  0.00     0.027 A 
ATOM     27  C   UNL A   1      32.846  22.644  22.061  1.00  0.00     0.002 A 
ATOM     28  C   UNL A   1      32.393  20.753  23.503  1.00  0.00     0.002 A 
ATOM     29  C   UNL A   1      32.039  21.567  22.422  1.00  0.00     0.000 A 
ENDBRANCH  22  24
ENDBRANCH  17  18
ENDBRANCH  16  17
ENDBRANCH  13  16
ENDBRANCH   7  12
ENDBRANCH   3   6
ENDBRANCH   1   2
BRANCH   1  30
ATOM     30  C   UNL A   1      33.976  28.832  26.509  1.00  0.00     0.023 C 
BRANCH  30  31
ATOM     31  C   UNL A   1      33.330  29.928  27.369  1.00  0.00     0.023 C 
BRANCH  31  32
ATOM     32  C   UNL A   1      34.079  31.245  27.529  1.00  0.00     0.116 C 
BRANCH  32  33
ATOM     33  N   UNL A   1      33.913  31.939  28.806  1.00  0.00    -0.352 N 
ATOM     34  C   UNL A   1      34.799  31.932  29.885  1.00  0.00     0.251 C 
ATOM     35  H   UNL A   1      33.090  32.467  28.917  1.00  0.00     0.163 HD
ATOM     36  O   UNL A   1      34.490  32.333  30.990  1.00  0.00    -0.269 OA
BRANCH  34  37
ATOM     37  C   UNL A   1      36.183  31.467  29.623  1.00  0.00     0.039 A 
ATOM     38  C   UNL A   1      37.240  32.340  29.348  1.00  0.00     0.014 A 
ATOM     39  C   UNL A   1      36.402  30.094  29.706  1.00  0.00     0.014 A 
ATOM     40  C   UNL A   1      38.536  31.821  29.269  1.00  0.00     0.010 A 
ATOM     41  C   UNL A   1      37.682  29.610  29.785  1.00  0.00     0.010 A 
ATOM     42  C   UNL A   1      38.753  30.456  29.522  1.00  0.00    -0.014 A 
BRANCH  42  43
ATOM     43  C   UNL A   1      40.102  29.913  29.678  1.00  0.00     0.031 A 
ATOM     44  C   UNL A   1      40.476  29.612  31.092  1.00  0.00     0.074 A 
ATOM     45  C   UNL A   1      40.828  29.459  28.631  1.00  0.00     0.049 A 
ATOM     46  N   UNL A   1      41.378  30.192  31.815  1.00  0.00    -0.248 NA
ATOM     47  C   UNL A   1      39.637  28.666  31.850  1.00  0.00     0.031 C 
ATOM     48  C   UNL A   1      40.437  29.378  27.219  1.00  0.00     0.029 A 
ATOM     49  N   UNL A   1      42.046  28.851  28.625  1.00  0.00    -0.354 N 
ATOM     50  C   UNL A   1      41.387  29.512  33.033  1.00  0.00     0.074 A 
ATOM     51  C   UNL A   1      40.167  28.753  33.072  1.00  0.00     0.031 C 
ATOM     52  C   UNL A   1      41.271  28.545  26.560  1.00  0.00     0.029 A 
ATOM     53  C   UNL A   1      42.351  28.166  27.451  1.00  0.00     0.049 A 
ATOM     54  H   UNL A   1      42.663  28.893  29.392  1.00  0.00     0.167 HD
ATOM     55  C   UNL A   1      42.520  29.431  33.790  1.00  0.00     0.037 A 
ATOM     56  C   UNL A   1      43.396  27.319  27.250  1.00  0.00     0.037 A 
ATOM     57  C   UNL A   1      43.499  30.395  33.349  1.00  0.00     0.049 A 
ATOM     58  C   UNL A   1      44.398  27.618  28.310  1.00  0.00     0.074 A 
ATOM     59  C   UNL A   1      43.508  31.770  33.207  1.00  0.00     0.029 A 
ATOM     60  N   UNL A   1      44.542  29.936  32.578  1.00  0.00    -0.354 N 
ATOM     61  N   UNL A   1      45.042  28.752  28.396  1.00  0.00    -0.248 NA
ATOM     62  C   UNL A   1      44.302  26.862  29.551  1.00  0.00     0.031 C 
ATOM     63  C   UNL A   1      44.195  32.005  31.981  1.00  0.00     0.029 A 
ATOM     64  C   UNL A   1      44.650  30.777  31.500  1.00  0.00     0.049 A 
ATOM     65  H   UNL A   1      45.105  29.151  32.765  1.00  0.00     0.167 HD
ATOM     66  C   UNL A   1      45.047  29.057  29.749  1.00  0.00     0.074 A 
ATOM     67  C   UNL A   1      44.634  27.823  30.418  1.00  0.00     0.031 C 
ATOM     68  C   UNL A   1      45.091  30.351  30.188  1.00  0.00     0.037 A 
BRANCH  55  69
ATOM     69  C   UNL A   1      42.900  28.253  34.665  1.00  0.00     0.058 A 
ATOM     70  C   UNL A   1      43.248  28.484  36.014  1.00  0.00     0.135 A 
ATOM     71  C   UNL A   1      43.210  26.965  34.176  1.00  0.00     0.135 A 
ATOM     72  F   UNL A   1      43.001  29.670  36.592  1.00  0.00    -0.206 F 
ATOM     73  C   UNL A   1      43.929  27.541  36.786  1.00  0.00     0.059 A 
ATOM     74  C   UNL A   1      43.840  25.992  34.945  1.00  0.00     0.059 A 
ATOM     75  F   UNL A   1      43.010  26.610  32.902  1.00  0.00    -0.206 F 
ATOM     76  C   UNL A   1      44.236  26.302  36.235  1.00  0.00     0.060 A 
BRANCH  76  77
ATOM     77  S   UNL A   1      45.201  25.121  37.191  1.00  0.00     0.124 S 
ATOM     78  O   UNL A   1      45.055  23.910  36.391  1.00  0.00    -0.237 OA
ATOM     79  O   UNL A   1      46.523  25.738  37.183  1.00  0.00    -0.237 OA
ATOM     80  O   UNL A   1      44.528  25.109  38.486  1.00  0.00    -0.744 OA
ENDBRANCH  76  77
ENDBRANCH  55  69
BRANCH  56  81
ATOM     81  C   UNL A   1      43.418  26.056  26.455  1.00  0.00     0.058 A 
ATOM     82  C   UNL A   1      44.426  25.799  25.507  1.00  0.00     0.135 A 
ATOM     83  C   UNL A   1      42.614  24.952  26.809  1.00  0.00     0.135 A 
ATOM     84  F   UNL A   1      45.253  26.782  25.121  1.00  0.00    -0.206 F 
ATOM     85  C   UNL A   1      44.655  24.519  24.980  1.00  0.00     0.059 A 
ATOM     86  C   UNL A   1      42.817  23.671  26.293  1.00  0.00     0.059 A 
ATOM     87  F   UNL A   1      41.658  25.065  27.743  1.00  0.00    -0.206 F 
ATOM     88  C   UNL A   1      43.856  23.455  25.398  1.00  0.00     0.060 A 
BRANCH  88  89
ATOM     89  S   UNL A   1      44.253  21.770  24.861  1.00  0.00     0.124 S 
ATOM     90  O   UNL A   1      43.099  21.019  25.344  1.00  0.00    -0.237 OA
ATOM     91  O   UNL A   1      44.356  21.923  23.415  1.00  0.00    -0.237 OA
ATOM     92  O   UNL A   1      45.512  21.485  25.545  1.00  0.00    -0.744 OA
ENDBRANCH  88  89
ENDBRANCH  56  81
BRANCH  68  93
ATOM     93  C   UNL A   1      45.418  31.446  29.204  1.00  0.00     0.058 A 
ATOM     94  C   UNL A   1      46.717  31.805  28.797  1.00  0.00     0.135 A 
ATOM     95  C   UNL A   1      44.350  32.041  28.514  1.00  0.00     0.135 A 
ATOM     96  F   UNL A   1      47.796  31.211  29.325  1.00  0.00    -0.206 F 
ATOM     97  C   UNL A   1      46.940  32.741  27.784  1.00  0.00     0.059 A 
ATOM     98  C   UNL A   1      44.548  32.949  27.479  1.00  0.00     0.059 A 
ATOM     99  F   UNL A   1      43.087  31.695  28.809  1.00  0.00    -0.206 F 
ATOM    100  C   UNL A   1      45.847  33.308  27.129  1.00  0.00     0.060 A 
BRANCH 100 101
ATOM    101  S   UNL A   1      46.129  34.474  25.779  1.00  0.00     0.124 S 
ATOM    102  O   UNL A   1      47.538  34.249  25.470  1.00  0.00    -0.237 OA
ATOM    103  O   UNL A   1      45.179  34.025  24.766  1.00  0.00    -0.237 OA
ATOM    104  O   UNL A   1      45.822  35.771  26.378  1.00  0.00    -0.744 OA
ENDBRANCH 100 101
ENDBRANCH  68  93
ENDBRANCH  42  43
ENDBRANCH  34  37
ENDBRANCH  32  33
ENDBRANCH  31  32
ENDBRANCH  30  31
ENDBRANCH   1  30
TORSDOF 19
ENDMDL
