MODEL 1
REMARK VINA RESULT:     -12.0      0.000      0.000
REMARK SMILES COc1ccccc1C[C@@H](C(=O)NCCCCNC(=O)c1ccc(-c2c3nc(c(-c4c(F)cc(S(=O)(=O)[O-])cc4F)c4ccc([nH]4)c(-c4c(F)cc(S(=O)(=O)[O-])cc4F)c4nc(c(-c5c(F)cc(S(=O)(=O)[O-])cc5F)c5ccc2[nH]5)C=C4)C=C3)cc1)[C@@H]1C[C@H](C)C[C@H](C)C1
REMARK SMILES IDX 15 1 14 2 13 3 11 4 12 5 10 7 9 8 8 9 3 10 4 11 5 12 7 13
REMARK SMILES IDX 6 14 2 15 1 16 87 17 94 18 88 19 92 20 89 21 93 22 91 23
REMARK SMILES IDX 90 24 16 25 17 26 18 27 19 28 20 30 21 31 22 32 86 33 23 34
REMARK SMILES IDX 85 35 24 36 25 37 26 38 79 39 27 40 84 41 78 42 80 43 28 44
REMARK SMILES IDX 83 45 77 46 76 47 29 49 63 50 42 51 62 52 43 53 46 54 61 55
REMARK SMILES IDX 81 56 44 57 45 58 60 60 82 61 47 62 30 63 31 64 40 65 32 66
REMARK SMILES IDX 33 67 39 68 41 69 34 70 35 71 36 72 37 73 38 74 64 75 65 76
REMARK SMILES IDX 74 77 66 78 67 79 73 80 75 81 68 82 69 83 70 84 71 85 72 86
REMARK SMILES IDX 48 87 49 88 58 89 50 90 51 91 57 92 59 93 52 94 53 95 54 96
REMARK SMILES IDX 55 97 56 98
REMARK H PARENT 13 6 18 29 80 48 46 59
REMARK Flexibility Score: inf
ROOT
ATOM      1  C   UNL A   1      38.726  23.020  26.544  1.00  0.00     0.023 C 
ENDROOT
BRANCH   1   2
ATOM      2  C   UNL A   1      37.700  22.366  25.617  1.00  0.00     0.116 C 
BRANCH   2   3
ATOM      3  N   UNL A   1      37.452  23.226  24.486  1.00  0.00    -0.356 N 
ATOM      4  C   UNL A   1      36.286  23.177  23.775  1.00  0.00     0.223 C 
ATOM      5  O   UNL A   1      36.409  22.932  22.581  1.00  0.00    -0.275 OA
ATOM      6  H   UNL A   1      38.147  23.870  24.217  1.00  0.00     0.163 HD
BRANCH   4   7
ATOM      7  C   UNL A   1      34.948  23.461  24.464  1.00  0.00     0.086 C 
BRANCH   7   8
ATOM      8  C   UNL A   1      34.942  24.766  25.315  1.00  0.00     0.053 C 
BRANCH   8   9
ATOM      9  C   UNL A   1      34.087  25.936  24.883  1.00  0.00    -0.005 A 
ATOM     10  C   UNL A   1      33.749  26.191  23.549  1.00  0.00     0.122 A 
ATOM     11  C   UNL A   1      33.089  27.368  23.177  1.00  0.00     0.047 A 
ATOM     12  C   UNL A   1      32.666  28.264  24.154  1.00  0.00     0.004 A 
ATOM     13  C   UNL A   1      33.567  26.803  25.859  1.00  0.00     0.007 A 
ATOM     14  C   UNL A   1      32.874  27.964  25.499  1.00  0.00     0.001 A 
BRANCH  10  15
ATOM     15  O   UNL A   1      34.040  25.280  22.570  1.00  0.00    -0.496 OA
ATOM     16  C   UNL A   1      32.827  24.916  21.899  1.00  0.00     0.278 C 
ENDBRANCH  10  15
ENDBRANCH   8   9
ENDBRANCH   7   8
BRANCH   7  17
ATOM     17  C   UNL A   1      34.481  22.259  25.375  1.00  0.00     0.002 C 
ATOM     18  C   UNL A   1      33.614  22.609  26.590  1.00  0.00     0.007 C 
ATOM     19  C   UNL A   1      33.913  20.996  24.703  1.00  0.00     0.007 C 
ATOM     20  C   UNL A   1      32.090  22.633  26.389  1.00  0.00    -0.014 C 
ATOM     21  C   UNL A   1      32.431  21.001  24.320  1.00  0.00    -0.014 C 
ATOM     22  C   UNL A   1      31.539  24.061  26.559  1.00  0.00     0.007 C 
ATOM     23  C   UNL A   1      31.524  21.943  25.132  1.00  0.00     0.006 C 
ATOM     24  C   UNL A   1      32.242  21.160  22.801  1.00  0.00     0.007 C 
ENDBRANCH   7  17
ENDBRANCH   4   7
ENDBRANCH   2   3
ENDBRANCH   1   2
BRANCH   1  25
ATOM     25  C   UNL A   1      39.998  22.239  26.817  1.00  0.00     0.023 C 
BRANCH  25  26
ATOM     26  C   UNL A   1      41.209  23.100  27.099  1.00  0.00     0.116 C 
BRANCH  26  27
ATOM     27  N   UNL A   1      41.560  23.982  25.989  1.00  0.00    -0.352 N 
ATOM     28  C   UNL A   1      41.749  25.342  25.970  1.00  0.00     0.251 C 
ATOM     29  H   UNL A   1      41.681  23.533  25.122  1.00  0.00     0.163 HD
ATOM     30  O   UNL A   1      41.916  25.929  24.904  1.00  0.00    -0.269 OA
BRANCH  28  31
ATOM     31  C   UNL A   1      41.703  26.090  27.241  1.00  0.00     0.039 A 
ATOM     32  C   UNL A   1      42.726  26.989  27.546  1.00  0.00     0.014 A 
ATOM     33  C   UNL A   1      40.599  25.961  28.083  1.00  0.00     0.014 A 
ATOM     34  C   UNL A   1      42.587  27.832  28.649  1.00  0.00     0.010 A 
ATOM     35  C   UNL A   1      40.400  26.892  29.088  1.00  0.00     0.010 A 
ATOM     36  C   UNL A   1      41.395  27.831  29.393  1.00  0.00    -0.014 A 
BRANCH  36  37
ATOM     37  C   UNL A   1      41.158  28.778  30.511  1.00  0.00     0.031 A 
ATOM     38  C   UNL A   1      42.001  28.674  31.756  1.00  0.00     0.074 A 
ATOM     39  C   UNL A   1      40.130  29.648  30.453  1.00  0.00     0.049 A 
ATOM     40  N   UNL A   1      41.861  29.282  32.903  1.00  0.00    -0.248 NA
ATOM     41  C   UNL A   1      43.118  27.712  31.723  1.00  0.00     0.031 C 
ATOM     42  C   UNL A   1      39.194  29.790  29.334  1.00  0.00     0.029 A 
ATOM     43  N   UNL A   1      39.687  30.570  31.368  1.00  0.00    -0.354 N 
ATOM     44  C   UNL A   1      42.835  28.743  33.736  1.00  0.00     0.074 A 
ATOM     45  C   UNL A   1      43.516  27.713  32.985  1.00  0.00     0.031 C 
ATOM     46  C   UNL A   1      38.316  30.767  29.612  1.00  0.00     0.029 A 
ATOM     47  C   UNL A   1      38.595  31.291  30.944  1.00  0.00     0.049 A 
ATOM     48  H   UNL A   1      40.112  30.704  32.246  1.00  0.00     0.167 HD
ATOM     49  C   UNL A   1      43.160  29.099  35.001  1.00  0.00     0.037 A 
ATOM     50  C   UNL A   1      37.898  32.263  31.564  1.00  0.00     0.037 A 
ATOM     51  C   UNL A   1      42.528  30.178  35.709  1.00  0.00     0.049 A 
ATOM     52  C   UNL A   1      38.317  32.687  32.945  1.00  0.00     0.074 A 
ATOM     53  C   UNL A   1      42.836  30.686  36.957  1.00  0.00     0.029 A 
ATOM     54  N   UNL A   1      41.468  30.928  35.219  1.00  0.00    -0.354 N 
ATOM     55  N   UNL A   1      39.282  32.208  33.696  1.00  0.00    -0.248 NA
ATOM     56  C   UNL A   1      37.560  33.783  33.563  1.00  0.00     0.031 C 
ATOM     57  C   UNL A   1      41.945  31.728  37.234  1.00  0.00     0.029 A 
ATOM     58  C   UNL A   1      41.106  31.893  36.143  1.00  0.00     0.049 A 
ATOM     59  H   UNL A   1      41.038  30.794  34.344  1.00  0.00     0.167 HD
ATOM     60  C   UNL A   1      39.263  32.963  34.864  1.00  0.00     0.074 A 
ATOM     61  C   UNL A   1      38.200  33.936  34.715  1.00  0.00     0.031 C 
ATOM     62  C   UNL A   1      40.054  32.860  35.961  1.00  0.00     0.037 A 
BRANCH  49  63
ATOM     63  C   UNL A   1      44.259  28.330  35.680  1.00  0.00     0.058 A 
ATOM     64  C   UNL A   1      45.609  28.696  35.541  1.00  0.00     0.135 A 
ATOM     65  C   UNL A   1      43.964  27.219  36.485  1.00  0.00     0.135 A 
ATOM     66  F   UNL A   1      45.950  29.739  34.767  1.00  0.00    -0.206 F 
ATOM     67  C   UNL A   1      46.627  27.965  36.142  1.00  0.00     0.059 A 
ATOM     68  C   UNL A   1      44.965  26.492  37.123  1.00  0.00     0.059 A 
ATOM     69  F   UNL A   1      42.692  26.823  36.652  1.00  0.00    -0.206 F 
ATOM     70  C   UNL A   1      46.295  26.862  36.930  1.00  0.00     0.060 A 
BRANCH  70  71
ATOM     71  S   UNL A   1      47.629  25.923  37.703  1.00  0.00     0.124 S 
ATOM     72  O   UNL A   1      48.805  26.527  37.085  1.00  0.00    -0.237 OA
ATOM     73  O   UNL A   1      47.439  26.216  39.120  1.00  0.00    -0.237 OA
ATOM     74  O   UNL A   1      47.348  24.546  37.307  1.00  0.00    -0.744 OA
ENDBRANCH  70  71
ENDBRANCH  49  63
BRANCH  50  75
ATOM     75  C   UNL A   1      36.765  32.929  30.868  1.00  0.00     0.058 A 
ATOM     76  C   UNL A   1      35.439  32.661  31.241  1.00  0.00     0.135 A 
ATOM     77  C   UNL A   1      36.977  33.851  29.832  1.00  0.00     0.135 A 
ATOM     78  F   UNL A   1      35.184  31.783  32.223  1.00  0.00    -0.206 F 
ATOM     79  C   UNL A   1      34.364  33.269  30.603  1.00  0.00     0.059 A 
ATOM     80  C   UNL A   1      35.918  34.491  29.194  1.00  0.00     0.059 A 
ATOM     81  F   UNL A   1      38.227  34.157  29.450  1.00  0.00    -0.206 F 
ATOM     82  C   UNL A   1      34.613  34.185  29.580  1.00  0.00     0.060 A 
BRANCH  82  83
ATOM     83  S   UNL A   1      33.210  35.004  28.790  1.00  0.00     0.124 S 
ATOM     84  O   UNL A   1      33.859  36.139  28.144  1.00  0.00    -0.237 OA
ATOM     85  O   UNL A   1      32.709  33.963  27.898  1.00  0.00    -0.237 OA
ATOM     86  O   UNL A   1      32.337  35.331  29.914  1.00  0.00    -0.744 OA
ENDBRANCH  82  83
ENDBRANCH  50  75
BRANCH  62  87
ATOM     87  C   UNL A   1      39.824  33.844  37.070  1.00  0.00     0.058 A 
ATOM     88  C   UNL A   1      39.103  33.499  38.222  1.00  0.00     0.135 A 
ATOM     89  C   UNL A   1      40.392  35.128  37.007  1.00  0.00     0.135 A 
ATOM     90  F   UNL A   1      38.536  32.286  38.326  1.00  0.00    -0.206 F 
ATOM     91  C   UNL A   1      38.939  34.397  39.270  1.00  0.00     0.059 A 
ATOM     92  C   UNL A   1      40.261  36.033  38.054  1.00  0.00     0.059 A 
ATOM     93  F   UNL A   1      41.100  35.501  35.929  1.00  0.00    -0.206 F 
ATOM     94  C   UNL A   1      39.525  35.662  39.177  1.00  0.00     0.060 A 
BRANCH  94  95
ATOM     95  S   UNL A   1      39.344  36.802  40.564  1.00  0.00     0.124 S 
ATOM     96  O   UNL A   1      38.914  38.022  39.888  1.00  0.00    -0.237 OA
ATOM     97  O   UNL A   1      38.334  36.141  41.384  1.00  0.00    -0.237 OA
ATOM     98  O   UNL A   1      40.683  36.845  41.145  1.00  0.00    -0.744 OA
ENDBRANCH  94  95
ENDBRANCH  62  87
ENDBRANCH  36  37
ENDBRANCH  28  31
ENDBRANCH  26  27
ENDBRANCH  25  26
ENDBRANCH   1  25
TORSDOF 18
ENDMDL
MODEL 2
REMARK VINA RESULT:     -12.0      6.395     11.631
REMARK SMILES COc1ccccc1C[C@@H](C(=O)NCCCCNC(=O)c1ccc(-c2c3nc(c(-c4c(F)cc(S(=O)(=O)[O-])cc4F)c4ccc([nH]4)c(-c4c(F)cc(S(=O)(=O)[O-])cc4F)c4nc(c(-c5c(F)cc(S(=O)(=O)[O-])cc5F)c5ccc2[nH]5)C=C4)C=C3)cc1)[C@@H]1C[C@H](C)C[C@H](C)C1
REMARK SMILES IDX 15 1 14 2 13 3 11 4 12 5 10 7 9 8 8 9 3 10 4 11 5 12 7 13
REMARK SMILES IDX 6 14 2 15 1 16 87 17 94 18 88 19 92 20 89 21 93 22 91 23
REMARK SMILES IDX 90 24 16 25 17 26 18 27 19 28 20 30 21 31 22 32 86 33 23 34
REMARK SMILES IDX 85 35 24 36 25 37 26 38 79 39 27 40 84 41 78 42 80 43 28 44
REMARK SMILES IDX 83 45 77 46 76 47 29 49 63 50 42 51 62 52 43 53 46 54 61 55
REMARK SMILES IDX 81 56 44 57 45 58 60 60 82 61 47 62 30 63 31 64 40 65 32 66
REMARK SMILES IDX 33 67 39 68 41 69 34 70 35 71 36 72 37 73 38 74 64 75 65 76
REMARK SMILES IDX 74 77 66 78 67 79 73 80 75 81 68 82 69 83 70 84 71 85 72 86
REMARK SMILES IDX 48 87 49 88 58 89 50 90 51 91 57 92 59 93 52 94 53 95 54 96
REMARK SMILES IDX 55 97 56 98
REMARK H PARENT 13 6 18 29 80 48 46 59
REMARK Flexibility Score: inf
ROOT
ATOM      1  C   UNL A   1      33.962  29.191  26.215  1.00  0.00     0.023 C 
ENDROOT
BRANCH   1   2
ATOM      2  C   UNL A   1      33.377  27.939  25.559  1.00  0.00     0.116 C 
BRANCH   2   3
ATOM      3  N   UNL A   1      32.831  27.072  26.574  1.00  0.00    -0.356 N 
ATOM      4  C   UNL A   1      31.859  26.152  26.300  1.00  0.00     0.223 C 
ATOM      5  O   UNL A   1      30.822  26.276  26.942  1.00  0.00    -0.275 OA
ATOM      6  H   UNL A   1      33.170  27.146  27.496  1.00  0.00     0.163 HD
BRANCH   4   7
ATOM      7  C   UNL A   1      32.116  25.034  25.286  1.00  0.00     0.086 C 
BRANCH   7   8
ATOM      8  C   UNL A   1      31.028  24.927  24.176  1.00  0.00     0.053 C 
BRANCH   8   9
ATOM      9  C   UNL A   1      30.429  26.187  23.592  1.00  0.00    -0.005 A 
ATOM     10  C   UNL A   1      31.133  27.051  22.745  1.00  0.00     0.122 A 
ATOM     11  C   UNL A   1      30.596  28.283  22.353  1.00  0.00     0.047 A 
ATOM     12  C   UNL A   1      29.298  28.623  22.724  1.00  0.00     0.004 A 
ATOM     13  C   UNL A   1      29.090  26.505  23.873  1.00  0.00     0.007 A 
ATOM     14  C   UNL A   1      28.532  27.718  23.455  1.00  0.00     0.001 A 
BRANCH  10  15
ATOM     15  O   UNL A   1      32.364  26.702  22.260  1.00  0.00    -0.496 OA
ATOM     16  C   UNL A   1      32.190  25.901  21.084  1.00  0.00     0.278 C 
ENDBRANCH  10  15
ENDBRANCH   8   9
ENDBRANCH   7   8
BRANCH   7  17
ATOM     17  C   UNL A   1      32.272  23.625  25.981  1.00  0.00     0.002 C 
ATOM     18  C   UNL A   1      31.770  22.408  25.195  1.00  0.00     0.007 C 
ATOM     19  C   UNL A   1      33.614  23.271  26.647  1.00  0.00     0.007 C 
ATOM     20  C   UNL A   1      32.770  21.704  24.264  1.00  0.00    -0.014 C 
ATOM     21  C   UNL A   1      34.725  22.714  25.754  1.00  0.00    -0.014 C 
ATOM     22  C   UNL A   1      32.346  21.856  22.792  1.00  0.00     0.007 C 
ATOM     23  C   UNL A   1      34.268  22.006  24.465  1.00  0.00     0.006 C 
ATOM     24  C   UNL A   1      35.821  23.763  25.496  1.00  0.00     0.007 C 
ENDBRANCH   7  17
ENDBRANCH   4   7
ENDBRANCH   2   3
ENDBRANCH   1   2
BRANCH   1  25
ATOM     25  C   UNL A   1      34.981  28.974  27.318  1.00  0.00     0.023 C 
BRANCH  25  26
ATOM     26  C   UNL A   1      35.582  30.248  27.870  1.00  0.00     0.116 C 
BRANCH  26  27
ATOM     27  N   UNL A   1      35.394  30.398  29.310  1.00  0.00    -0.352 N 
ATOM     28  C   UNL A   1      36.313  30.337  30.329  1.00  0.00     0.251 C 
ATOM     29  H   UNL A   1      34.468  30.569  29.594  1.00  0.00     0.163 HD
ATOM     30  O   UNL A   1      35.941  30.361  31.499  1.00  0.00    -0.269 OA
BRANCH  28  31
ATOM     31  C   UNL A   1      37.743  30.200  29.997  1.00  0.00     0.039 A 
ATOM     32  C   UNL A   1      38.663  29.935  31.013  1.00  0.00     0.014 A 
ATOM     33  C   UNL A   1      38.155  30.247  28.665  1.00  0.00     0.014 A 
ATOM     34  C   UNL A   1      39.979  29.616  30.677  1.00  0.00     0.010 A 
ATOM     35  C   UNL A   1      39.419  29.793  28.328  1.00  0.00     0.010 A 
ATOM     36  C   UNL A   1      40.352  29.484  29.329  1.00  0.00    -0.014 A 
BRANCH  36  37
ATOM     37  C   UNL A   1      41.710  29.048  28.921  1.00  0.00     0.031 A 
ATOM     38  C   UNL A   1      42.824  30.063  28.869  1.00  0.00     0.074 A 
ATOM     39  C   UNL A   1      41.917  27.785  28.499  1.00  0.00     0.049 A 
ATOM     40  N   UNL A   1      44.033  29.940  28.391  1.00  0.00    -0.248 NA
ATOM     41  C   UNL A   1      42.515  31.414  29.370  1.00  0.00     0.031 C 
ATOM     42  C   UNL A   1      40.900  26.732  28.430  1.00  0.00     0.029 A 
ATOM     43  N   UNL A   1      43.053  27.173  28.033  1.00  0.00    -0.354 N 
ATOM     44  C   UNL A   1      44.606  31.202  28.489  1.00  0.00     0.074 A 
ATOM     45  C   UNL A   1      43.593  32.092  29.010  1.00  0.00     0.031 C 
ATOM     46  C   UNL A   1      41.466  25.597  27.987  1.00  0.00     0.029 A 
ATOM     47  C   UNL A   1      42.873  25.851  27.699  1.00  0.00     0.049 A 
ATOM     48  H   UNL A   1      43.917  27.637  27.945  1.00  0.00     0.167 HD
ATOM     49  C   UNL A   1      45.875  31.581  28.207  1.00  0.00     0.037 A 
ATOM     50  C   UNL A   1      43.747  24.949  27.212  1.00  0.00     0.037 A 
ATOM     51  C   UNL A   1      46.896  30.671  27.764  1.00  0.00     0.049 A 
ATOM     52  C   UNL A   1      45.168  25.375  26.966  1.00  0.00     0.074 A 
ATOM     53  C   UNL A   1      48.235  30.924  27.536  1.00  0.00     0.029 A 
ATOM     54  N   UNL A   1      46.689  29.324  27.501  1.00  0.00    -0.354 N 
ATOM     55  N   UNL A   1      45.711  26.560  27.124  1.00  0.00    -0.248 NA
ATOM     56  C   UNL A   1      46.097  24.346  26.482  1.00  0.00     0.031 C 
ATOM     57  C   UNL A   1      48.836  29.735  27.109  1.00  0.00     0.029 A 
ATOM     58  C   UNL A   1      47.877  28.733  27.107  1.00  0.00     0.049 A 
ATOM     59  H   UNL A   1      45.826  28.858  27.583  1.00  0.00     0.167 HD
ATOM     60  C   UNL A   1      47.051  26.412  26.783  1.00  0.00     0.074 A 
ATOM     61  C   UNL A   1      47.238  25.021  26.422  1.00  0.00     0.031 C 
ATOM     62  C   UNL A   1      48.038  27.342  26.769  1.00  0.00     0.037 A 
BRANCH  49  63
ATOM     63  C   UNL A   1      46.227  33.031  28.395  1.00  0.00     0.058 A 
ATOM     64  C   UNL A   1      46.105  33.961  27.349  1.00  0.00     0.135 A 
ATOM     65  C   UNL A   1      46.686  33.500  29.635  1.00  0.00     0.135 A 
ATOM     66  F   UNL A   1      45.690  33.563  26.136  1.00  0.00    -0.206 F 
ATOM     67  C   UNL A   1      46.463  35.294  27.514  1.00  0.00     0.059 A 
ATOM     68  C   UNL A   1      47.019  34.837  29.833  1.00  0.00     0.059 A 
ATOM     69  F   UNL A   1      46.824  32.656  30.670  1.00  0.00    -0.206 F 
ATOM     70  C   UNL A   1      46.922  35.722  28.760  1.00  0.00     0.060 A 
BRANCH  70  71
ATOM     71  S   UNL A   1      47.383  37.457  28.958  1.00  0.00     0.124 S 
ATOM     72  O   UNL A   1      48.512  37.353  29.876  1.00  0.00    -0.237 OA
ATOM     73  O   UNL A   1      47.713  37.851  27.592  1.00  0.00    -0.237 OA
ATOM     74  O   UNL A   1      46.177  38.067  29.510  1.00  0.00    -0.744 OA
ENDBRANCH  70  71
ENDBRANCH  49  63
BRANCH  50  75
ATOM     75  C   UNL A   1      43.314  23.547  26.968  1.00  0.00     0.058 A 
ATOM     76  C   UNL A   1      43.124  23.073  25.662  1.00  0.00     0.135 A 
ATOM     77  C   UNL A   1      43.095  22.650  28.025  1.00  0.00     0.135 A 
ATOM     78  F   UNL A   1      43.316  23.894  24.617  1.00  0.00    -0.206 F 
ATOM     79  C   UNL A   1      42.716  21.768  25.409  1.00  0.00     0.059 A 
ATOM     80  C   UNL A   1      42.710  21.331  27.798  1.00  0.00     0.059 A 
ATOM     81  F   UNL A   1      43.281  23.048  29.294  1.00  0.00    -0.206 F 
ATOM     82  C   UNL A   1      42.513  20.902  26.485  1.00  0.00     0.060 A 
BRANCH  82  83
ATOM     83  S   UNL A   1      42.030  19.195  26.145  1.00  0.00     0.124 S 
ATOM     84  O   UNL A   1      40.596  19.336  25.921  1.00  0.00    -0.237 OA
ATOM     85  O   UNL A   1      42.832  18.878  24.967  1.00  0.00    -0.237 OA
ATOM     86  O   UNL A   1      42.413  18.489  27.364  1.00  0.00    -0.744 OA
ENDBRANCH  82  83
ENDBRANCH  50  75
BRANCH  62  87
ATOM     87  C   UNL A   1      49.414  26.881  26.385  1.00  0.00     0.058 A 
ATOM     88  C   UNL A   1      50.292  26.324  27.326  1.00  0.00     0.135 A 
ATOM     89  C   UNL A   1      49.830  26.934  25.045  1.00  0.00     0.135 A 
ATOM     90  F   UNL A   1      49.941  26.256  28.620  1.00  0.00    -0.206 F 
ATOM     91  C   UNL A   1      51.544  25.849  26.955  1.00  0.00     0.059 A 
ATOM     92  C   UNL A   1      51.068  26.443  24.647  1.00  0.00     0.059 A 
ATOM     93  F   UNL A   1      49.019  27.449  24.105  1.00  0.00    -0.206 F 
ATOM     94  C   UNL A   1      51.922  25.910  25.611  1.00  0.00     0.060 A 
BRANCH  94  95
ATOM     95  S   UNL A   1      53.531  25.247  25.134  1.00  0.00     0.124 S 
ATOM     96  O   UNL A   1      54.415  25.903  26.092  1.00  0.00    -0.237 OA
ATOM     97  O   UNL A   1      53.347  23.812  25.320  1.00  0.00    -0.237 OA
ATOM     98  O   UNL A   1      53.678  25.680  23.747  1.00  0.00    -0.744 OA
ENDBRANCH  94  95
ENDBRANCH  62  87
ENDBRANCH  36  37
ENDBRANCH  28  31
ENDBRANCH  26  27
ENDBRANCH  25  26
ENDBRANCH   1  25
TORSDOF 18
ENDMDL
MODEL 3
REMARK VINA RESULT:     -11.8      3.048      4.372
REMARK SMILES COc1ccccc1C[C@@H](C(=O)NCCCCNC(=O)c1ccc(-c2c3nc(c(-c4c(F)cc(S(=O)(=O)[O-])cc4F)c4ccc([nH]4)c(-c4c(F)cc(S(=O)(=O)[O-])cc4F)c4nc(c(-c5c(F)cc(S(=O)(=O)[O-])cc5F)c5ccc2[nH]5)C=C4)C=C3)cc1)[C@@H]1C[C@H](C)C[C@H](C)C1
REMARK SMILES IDX 15 1 14 2 13 3 11 4 12 5 10 7 9 8 8 9 3 10 4 11 5 12 7 13
REMARK SMILES IDX 6 14 2 15 1 16 87 17 94 18 88 19 92 20 89 21 93 22 91 23
REMARK SMILES IDX 90 24 16 25 17 26 18 27 19 28 20 30 21 31 22 32 86 33 23 34
REMARK SMILES IDX 85 35 24 36 25 37 26 38 79 39 27 40 84 41 78 42 80 43 28 44
REMARK SMILES IDX 83 45 77 46 76 47 29 49 63 50 42 51 62 52 43 53 46 54 61 55
REMARK SMILES IDX 81 56 44 57 45 58 60 60 82 61 47 62 30 63 31 64 40 65 32 66
REMARK SMILES IDX 33 67 39 68 41 69 34 70 35 71 36 72 37 73 38 74 64 75 65 76
REMARK SMILES IDX 74 77 66 78 67 79 73 80 75 81 68 82 69 83 70 84 71 85 72 86
REMARK SMILES IDX 48 87 49 88 58 89 50 90 51 91 57 92 59 93 52 94 53 95 54 96
REMARK SMILES IDX 55 97 56 98
REMARK H PARENT 13 6 18 29 80 48 46 59
REMARK Flexibility Score: inf
ROOT
ATOM      1  C   UNL A   1      34.743  22.735  24.455  1.00  0.00     0.023 C 
ENDROOT
BRANCH   1   2
ATOM      2  C   UNL A   1      33.271  22.995  24.781  1.00  0.00     0.116 C 
BRANCH   2   3
ATOM      3  N   UNL A   1      32.587  23.451  23.597  1.00  0.00    -0.356 N 
ATOM      4  C   UNL A   1      31.485  24.257  23.656  1.00  0.00     0.223 C 
ATOM      5  O   UNL A   1      30.475  23.806  23.130  1.00  0.00    -0.275 OA
ATOM      6  H   UNL A   1      32.925  23.172  22.715  1.00  0.00     0.163 HD
BRANCH   4   7
ATOM      7  C   UNL A   1      31.573  25.640  24.308  1.00  0.00     0.086 C 
BRANCH   7   8
ATOM      8  C   UNL A   1      31.151  26.808  23.368  1.00  0.00     0.053 C 
BRANCH   8   9
ATOM      9  C   UNL A   1      29.709  27.265  23.345  1.00  0.00    -0.005 A 
ATOM     10  C   UNL A   1      29.286  28.447  22.725  1.00  0.00     0.122 A 
ATOM     11  C   UNL A   1      27.973  28.911  22.861  1.00  0.00     0.047 A 
ATOM     12  C   UNL A   1      27.033  28.142  23.541  1.00  0.00     0.004 A 
ATOM     13  C   UNL A   1      28.724  26.460  23.942  1.00  0.00     0.007 A 
ATOM     14  C   UNL A   1      27.400  26.899  24.052  1.00  0.00     0.001 A 
BRANCH  10  15
ATOM     15  O   UNL A   1      30.148  29.172  21.947  1.00  0.00    -0.496 OA
ATOM     16  C   UNL A   1      29.534  30.425  21.619  1.00  0.00     0.278 C 
ENDBRANCH  10  15
ENDBRANCH   8   9
ENDBRANCH   7   8
BRANCH   7  17
ATOM     17  C   UNL A   1      33.018  25.941  24.871  1.00  0.00     0.002 C 
ATOM     18  C   UNL A   1      33.942  26.786  23.987  1.00  0.00     0.007 C 
ATOM     19  C   UNL A   1      33.163  26.402  26.332  1.00  0.00     0.007 C 
ATOM     20  C   UNL A   1      33.899  28.312  24.173  1.00  0.00    -0.014 C 
ATOM     21  C   UNL A   1      32.971  27.892  26.628  1.00  0.00    -0.014 C 
ATOM     22  C   UNL A   1      33.344  29.000  22.913  1.00  0.00     0.007 C 
ATOM     23  C   UNL A   1      33.248  28.856  25.460  1.00  0.00     0.006 C 
ATOM     24  C   UNL A   1      31.619  28.162  27.312  1.00  0.00     0.007 C 
ENDBRANCH   7  17
ENDBRANCH   4   7
ENDBRANCH   2   3
ENDBRANCH   1   2
BRANCH   1  25
ATOM     25  C   UNL A   1      35.751  23.045  25.547  1.00  0.00     0.023 C 
BRANCH  25  26
ATOM     26  C   UNL A   1      37.081  23.555  25.038  1.00  0.00     0.116 C 
BRANCH  26  27
ATOM     27  N   UNL A   1      38.201  22.681  25.374  1.00  0.00    -0.352 N 
ATOM     28  C   UNL A   1      39.320  22.934  26.129  1.00  0.00     0.251 C 
ATOM     29  H   UNL A   1      38.145  21.771  25.004  1.00  0.00     0.163 HD
ATOM     30  O   UNL A   1      40.223  22.103  26.194  1.00  0.00    -0.269 OA
BRANCH  28  31
ATOM     31  C   UNL A   1      39.440  24.231  26.821  1.00  0.00     0.039 A 
ATOM     32  C   UNL A   1      38.896  24.381  28.098  1.00  0.00     0.014 A 
ATOM     33  C   UNL A   1      40.170  25.265  26.237  1.00  0.00     0.014 A 
ATOM     34  C   UNL A   1      39.174  25.538  28.827  1.00  0.00     0.010 A 
ATOM     35  C   UNL A   1      40.561  26.343  27.013  1.00  0.00     0.010 A 
ATOM     36  C   UNL A   1      40.058  26.501  28.313  1.00  0.00    -0.014 A 
BRANCH  36  37
ATOM     37  C   UNL A   1      40.466  27.698  29.090  1.00  0.00     0.031 A 
ATOM     38  C   UNL A   1      41.790  27.692  29.810  1.00  0.00     0.074 A 
ATOM     39  C   UNL A   1      39.613  28.732  29.236  1.00  0.00     0.049 A 
ATOM     40  N   UNL A   1      42.268  28.552  30.670  1.00  0.00    -0.248 NA
ATOM     41  C   UNL A   1      42.669  26.532  29.576  1.00  0.00     0.031 C 
ATOM     42  C   UNL A   1      38.272  28.820  28.651  1.00  0.00     0.029 A 
ATOM     43  N   UNL A   1      39.742  29.904  29.937  1.00  0.00    -0.354 N 
ATOM     44  C   UNL A   1      43.472  28.014  31.110  1.00  0.00     0.074 A 
ATOM     45  C   UNL A   1      43.620  26.724  30.475  1.00  0.00     0.031 C 
ATOM     46  C   UNL A   1      37.720  29.998  28.985  1.00  0.00     0.029 A 
ATOM     47  C   UNL A   1      38.646  30.729  29.843  1.00  0.00     0.049 A 
ATOM     48  H   UNL A   1      40.545  30.133  30.459  1.00  0.00     0.167 HD
ATOM     49  C   UNL A   1      44.391  28.561  31.940  1.00  0.00     0.037 A 
ATOM     50  C   UNL A   1      38.416  31.938  30.391  1.00  0.00     0.037 A 
ATOM     51  C   UNL A   1      44.269  29.878  32.502  1.00  0.00     0.049 A 
ATOM     52  C   UNL A   1      39.479  32.555  31.258  1.00  0.00     0.074 A 
ATOM     53  C   UNL A   1      45.178  30.570  33.280  1.00  0.00     0.029 A 
ATOM     54  N   UNL A   1      43.171  30.710  32.329  1.00  0.00    -0.354 N 
ATOM     55  N   UNL A   1      40.641  32.060  31.614  1.00  0.00    -0.248 NA
ATOM     56  C   UNL A   1      39.205  33.896  31.793  1.00  0.00     0.031 C 
ATOM     57  C   UNL A   1      44.621  31.812  33.600  1.00  0.00     0.029 A 
ATOM     58  C   UNL A   1      43.379  31.907  32.990  1.00  0.00     0.049 A 
ATOM     59  H   UNL A   1      42.366  30.482  31.811  1.00  0.00     0.167 HD
ATOM     60  C   UNL A   1      41.247  33.038  32.395  1.00  0.00     0.074 A 
ATOM     61  C   UNL A   1      40.329  34.157  32.448  1.00  0.00     0.031 C 
ATOM     62  C   UNL A   1      42.454  33.012  33.012  1.00  0.00     0.037 A 
BRANCH  49  63
ATOM     63  C   UNL A   1      45.612  27.744  32.262  1.00  0.00     0.058 A 
ATOM     64  C   UNL A   1      46.754  27.773  31.445  1.00  0.00     0.135 A 
ATOM     65  C   UNL A   1      45.646  26.928  33.403  1.00  0.00     0.135 A 
ATOM     66  F   UNL A   1      46.769  28.521  30.330  1.00  0.00    -0.206 F 
ATOM     67  C   UNL A   1      47.870  26.992  31.724  1.00  0.00     0.059 A 
ATOM     68  C   UNL A   1      46.764  26.163  33.720  1.00  0.00     0.059 A 
ATOM     69  F   UNL A   1      44.582  26.860  34.219  1.00  0.00    -0.206 F 
ATOM     70  C   UNL A   1      47.864  26.187  32.865  1.00  0.00     0.060 A 
BRANCH  70  71
ATOM     71  S   UNL A   1      49.320  25.179  33.214  1.00  0.00     0.124 S 
ATOM     72  O   UNL A   1      48.728  24.051  33.926  1.00  0.00    -0.237 OA
ATOM     73  O   UNL A   1      49.827  24.885  31.876  1.00  0.00    -0.237 OA
ATOM     74  O   UNL A   1      50.159  26.061  34.019  1.00  0.00    -0.744 OA
ENDBRANCH  70  71
ENDBRANCH  49  63
BRANCH  50  75
ATOM     75  C   UNL A   1      37.149  32.661  30.098  1.00  0.00     0.058 A 
ATOM     76  C   UNL A   1      37.114  33.688  29.144  1.00  0.00     0.135 A 
ATOM     77  C   UNL A   1      35.949  32.335  30.749  1.00  0.00     0.135 A 
ATOM     78  F   UNL A   1      38.237  34.040  28.498  1.00  0.00    -0.206 F 
ATOM     79  C   UNL A   1      35.943  34.380  28.856  1.00  0.00     0.059 A 
ATOM     80  C   UNL A   1      34.758  32.996  30.461  1.00  0.00     0.059 A 
ATOM     81  F   UNL A   1      35.924  31.346  31.656  1.00  0.00    -0.206 F 
ATOM     82  C   UNL A   1      34.767  34.024  29.519  1.00  0.00     0.060 A 
BRANCH  82  83
ATOM     83  S   UNL A   1      33.241  34.897  29.103  1.00  0.00     0.124 S 
ATOM     84  O   UNL A   1      33.757  36.099  28.459  1.00  0.00    -0.237 OA
ATOM     85  O   UNL A   1      32.570  33.941  28.227  1.00  0.00    -0.237 OA
ATOM     86  O   UNL A   1      32.606  35.098  30.402  1.00  0.00    -0.744 OA
ENDBRANCH  82  83
ENDBRANCH  50  75
BRANCH  62  87
ATOM     87  C   UNL A   1      42.867  34.241  33.768  1.00  0.00     0.058 A 
ATOM     88  C   UNL A   1      42.574  34.400  35.130  1.00  0.00     0.135 A 
ATOM     89  C   UNL A   1      43.626  35.240  33.136  1.00  0.00     0.135 A 
ATOM     90  F   UNL A   1      41.847  33.475  35.777  1.00  0.00    -0.206 F 
ATOM     91  C   UNL A   1      43.006  35.515  35.838  1.00  0.00     0.059 A 
ATOM     92  C   UNL A   1      44.089  36.352  33.830  1.00  0.00     0.059 A 
ATOM     93  F   UNL A   1      43.941  35.127  31.835  1.00  0.00    -0.206 F 
ATOM     94  C   UNL A   1      43.766  36.485  35.179  1.00  0.00     0.060 A 
BRANCH  94  95
ATOM     95  S   UNL A   1      44.359  37.905  36.121  1.00  0.00     0.124 S 
ATOM     96  O   UNL A   1      44.006  39.012  35.238  1.00  0.00    -0.237 OA
ATOM     97  O   UNL A   1      43.589  37.807  37.356  1.00  0.00    -0.237 OA
ATOM     98  O   UNL A   1      45.790  37.645  36.259  1.00  0.00    -0.744 OA
ENDBRANCH  94  95
ENDBRANCH  62  87
ENDBRANCH  36  37
ENDBRANCH  28  31
ENDBRANCH  26  27
ENDBRANCH  25  26
ENDBRANCH   1  25
TORSDOF 18
ENDMDL
