MODEL 1
REMARK VINA RESULT:     -12.0      0.000      0.000
REMARK SMILES [NH3+][C@H]1CCCN(C(=O)NC[C@H]2CC[C@@H](C(=O)NCCCCNC(=O)c3ccc(-c4c5nc(c(-c6c(F)cc(S(=O)(=O)[O-])cc6F)c6ccc([nH]6)c(-c6c(F)cc(S(=O)(=O)[O-])cc6F)c6nc(c(-c7c(F)cc(S(=O)(=O)[O-])cc7F)c7ccc4[nH]7)C=C6)C=C5)cc3)CC2)C1
REMARK SMILES IDX 19 1 18 2 17 3 15 4 16 5 14 7 11 8 12 9 92 10 13 11 91 12
REMARK SMILES IDX 10 13 9 14 7 15 8 16 6 18 2 19 3 20 93 21 4 22 5 23 1 24
REMARK SMILES IDX 20 28 21 29 22 30 23 31 24 33 25 34 26 35 90 36 27 37 89 38
REMARK SMILES IDX 28 39 29 40 30 41 83 42 31 43 88 44 82 45 84 46 32 47 87 48
REMARK SMILES IDX 81 49 80 50 33 52 67 53 46 54 66 55 47 56 50 57 65 58 85 59
REMARK SMILES IDX 48 60 49 61 64 63 86 64 51 65 34 66 35 67 44 68 36 69 37 70
REMARK SMILES IDX 43 71 45 72 38 73 39 74 40 75 41 76 42 77 68 78 69 79 78 80
REMARK SMILES IDX 70 81 71 82 77 83 79 84 72 85 73 86 74 87 75 88 76 89 52 90
REMARK SMILES IDX 53 91 62 92 54 93 55 94 61 95 63 96 56 97 57 98 58 99 59 100
REMARK SMILES IDX 60 101
REMARK H PARENT 17 6 9 17 1 25 1 26 1 27 22 32 84 51 50 62
REMARK Flexibility Score: inf
ROOT
ATOM      1  C   UNL A   1      36.622  21.882  25.466  1.00  0.00     0.023 C 
ENDROOT
BRANCH   1   2
ATOM      2  C   UNL A   1      35.313  21.590  26.195  1.00  0.00     0.116 C 
BRANCH   2   3
ATOM      3  N   UNL A   1      34.601  20.471  25.614  1.00  0.00    -0.356 N 
ATOM      4  C   UNL A   1      33.616  20.375  24.691  1.00  0.00     0.223 C 
ATOM      5  O   UNL A   1      33.245  19.229  24.408  1.00  0.00    -0.275 OA
ATOM      6  H   UNL A   1      34.893  19.599  25.965  1.00  0.00     0.163 HD
BRANCH   4   7
ATOM      7  C   UNL A   1      32.926  21.560  24.016  1.00  0.00     0.078 C 
ATOM      8  C   UNL A   1      31.853  24.209  23.174  1.00  0.00     0.008 C 
ATOM      9  C   UNL A   1      32.903  23.437  22.335  1.00  0.00     0.006 C 
ATOM     10  C   UNL A   1      31.093  23.253  24.112  1.00  0.00     0.006 C 
ATOM     11  C   UNL A   1      33.791  22.494  23.171  1.00  0.00     0.014 C 
ATOM     12  C   UNL A   1      32.013  22.357  24.946  1.00  0.00     0.014 C 
BRANCH   8  13
ATOM     13  C   UNL A   1      32.531  25.395  23.887  1.00  0.00     0.121 C 
BRANCH  13  14
ATOM     14  N   UNL A   1      33.372  26.211  23.029  1.00  0.00    -0.338 N 
ATOM     15  C   UNL A   1      33.348  27.501  22.625  1.00  0.00     0.317 C 
ATOM     16  O   UNL A   1      34.028  27.755  21.627  1.00  0.00    -0.249 OA
ATOM     17  H   UNL A   1      34.134  25.710  22.657  1.00  0.00     0.165 HD
BRANCH  15  18
ATOM     18  N   UNL A   1      32.601  28.457  23.265  1.00  0.00    -0.319 N 
ATOM     19  C   UNL A   1      32.220  29.479  25.553  1.00  0.00     0.200 C 
ATOM     20  C   UNL A   1      31.024  30.216  24.976  1.00  0.00     0.068 C 
ATOM     21  C   UNL A   1      33.212  29.105  24.436  1.00  0.00     0.186 C 
ATOM     22  C   UNL A   1      30.358  29.426  23.871  1.00  0.00     0.028 C 
ATOM     23  C   UNL A   1      31.338  29.005  22.791  1.00  0.00     0.122 C 
BRANCH  19  24
ATOM     24  N   UNL A   1      32.818  30.343  26.579  1.00  0.00    -0.354 N 
ATOM     25  H   UNL A   1      32.082  30.857  27.062  1.00  0.00     0.344 HD
ATOM     26  H   UNL A   1      33.460  31.002  26.138  1.00  0.00     0.344 HD
ATOM     27  H   UNL A   1      33.329  29.769  27.251  1.00  0.00     0.344 HD
ENDBRANCH  19  24
ENDBRANCH  15  18
ENDBRANCH  13  14
ENDBRANCH   8  13
ENDBRANCH   4   7
ENDBRANCH   2   3
ENDBRANCH   1   2
BRANCH   1  28
ATOM     28  C   UNL A   1      37.005  23.350  25.243  1.00  0.00     0.023 C 
BRANCH  28  29
ATOM     29  C   UNL A   1      37.936  24.056  26.231  1.00  0.00     0.116 C 
BRANCH  29  30
ATOM     30  N   UNL A   1      39.354  23.725  26.127  1.00  0.00    -0.352 N 
ATOM     31  C   UNL A   1      40.449  24.369  26.675  1.00  0.00     0.251 C 
ATOM     32  H   UNL A   1      39.561  22.927  25.588  1.00  0.00     0.163 HD
ATOM     33  O   UNL A   1      41.591  23.979  26.453  1.00  0.00    -0.269 OA
BRANCH  31  34
ATOM     34  C   UNL A   1      40.227  25.518  27.566  1.00  0.00     0.039 A 
ATOM     35  C   UNL A   1      39.338  25.451  28.643  1.00  0.00     0.014 A 
ATOM     36  C   UNL A   1      40.982  26.663  27.329  1.00  0.00     0.014 A 
ATOM     37  C   UNL A   1      39.286  26.514  29.551  1.00  0.00     0.010 A 
ATOM     38  C   UNL A   1      41.013  27.656  28.286  1.00  0.00     0.010 A 
ATOM     39  C   UNL A   1      40.164  27.599  29.403  1.00  0.00    -0.014 A 
BRANCH  39  40
ATOM     40  C   UNL A   1      40.264  28.726  30.362  1.00  0.00     0.031 A 
ATOM     41  C   UNL A   1      41.192  28.573  31.537  1.00  0.00     0.074 A 
ATOM     42  C   UNL A   1      39.384  29.742  30.293  1.00  0.00     0.049 A 
ATOM     43  N   UNL A   1      41.202  29.210  32.676  1.00  0.00    -0.248 NA
ATOM     44  C   UNL A   1      42.186  27.487  31.445  1.00  0.00     0.031 C 
ATOM     45  C   UNL A   1      38.399  29.947  29.227  1.00  0.00     0.029 A 
ATOM     46  N   UNL A   1      39.138  30.770  31.168  1.00  0.00    -0.354 N 
ATOM     47  C   UNL A   1      42.158  28.565  33.454  1.00  0.00     0.074 A 
ATOM     48  C   UNL A   1      42.661  27.453  32.681  1.00  0.00     0.031 C 
ATOM     49  C   UNL A   1      37.661  31.032  29.508  1.00  0.00     0.029 A 
ATOM     50  C   UNL A   1      38.081  31.569  30.797  1.00  0.00     0.049 A 
ATOM     51  H   UNL A   1      39.667  30.921  31.985  1.00  0.00     0.167 HD
ATOM     52  C   UNL A   1      42.588  28.891  34.696  1.00  0.00     0.037 A 
ATOM     53  C   UNL A   1      37.504  32.602  31.441  1.00  0.00     0.037 A 
ATOM     54  C   UNL A   1      42.113  30.046  35.409  1.00  0.00     0.049 A 
ATOM     55  C   UNL A   1      38.042  32.989  32.793  1.00  0.00     0.074 A 
ATOM     56  C   UNL A   1      42.539  30.547  36.624  1.00  0.00     0.029 A 
ATOM     57  N   UNL A   1      41.110  30.892  34.952  1.00  0.00    -0.354 N 
ATOM     58  N   UNL A   1      38.988  32.410  33.496  1.00  0.00    -0.248 NA
ATOM     59  C   UNL A   1      37.440  34.161  33.440  1.00  0.00     0.031 C 
ATOM     60  C   UNL A   1      41.773  31.680  36.917  1.00  0.00     0.029 A 
ATOM     61  C   UNL A   1      40.897  31.908  35.866  1.00  0.00     0.049 A 
ATOM     62  H   UNL A   1      40.624  30.785  34.103  1.00  0.00     0.167 HD
ATOM     63  C   UNL A   1      39.111  33.161  34.659  1.00  0.00     0.074 A 
ATOM     64  C   UNL A   1      38.150  34.243  34.558  1.00  0.00     0.031 C 
ATOM     65  C   UNL A   1      39.937  32.974  35.718  1.00  0.00     0.037 A 
BRANCH  52  66
ATOM     66  C   UNL A   1      43.627  28.009  35.336  1.00  0.00     0.058 A 
ATOM     67  C   UNL A   1      45.001  28.211  35.120  1.00  0.00     0.135 A 
ATOM     68  C   UNL A   1      43.252  26.955  36.184  1.00  0.00     0.135 A 
ATOM     69  F   UNL A   1      45.420  29.193  34.305  1.00  0.00    -0.206 F 
ATOM     70  C   UNL A   1      45.960  27.378  35.684  1.00  0.00     0.059 A 
ATOM     71  C   UNL A   1      44.197  26.127  36.788  1.00  0.00     0.059 A 
ATOM     72  F   UNL A   1      41.955  26.711  36.428  1.00  0.00    -0.206 F 
ATOM     73  C   UNL A   1      45.549  26.337  36.516  1.00  0.00     0.060 A 
BRANCH  73  74
ATOM     74  S   UNL A   1      46.809  25.267  37.243  1.00  0.00     0.124 S 
ATOM     75  O   UNL A   1      45.987  24.234  37.867  1.00  0.00    -0.237 OA
ATOM     76  O   UNL A   1      47.574  24.847  36.073  1.00  0.00    -0.237 OA
ATOM     77  O   UNL A   1      47.514  26.150  38.167  1.00  0.00    -0.744 OA
ENDBRANCH  73  74
ENDBRANCH  52  66
BRANCH  53  78
ATOM     78  C   UNL A   1      36.390  33.354  30.802  1.00  0.00     0.058 A 
ATOM     79  C   UNL A   1      35.085  33.261  31.312  1.00  0.00     0.135 A 
ATOM     80  C   UNL A   1      36.600  34.207  29.708  1.00  0.00     0.135 A 
ATOM     81  F   UNL A   1      34.831  32.457  32.357  1.00  0.00    -0.206 F 
ATOM     82  C   UNL A   1      34.029  33.975  30.756  1.00  0.00     0.059 A 
ATOM     83  C   UNL A   1      35.563  34.950  29.148  1.00  0.00     0.059 A 
ATOM     84  F   UNL A   1      37.832  34.350  29.194  1.00  0.00    -0.206 F 
ATOM     85  C   UNL A   1      34.279  34.821  29.675  1.00  0.00     0.060 A 
BRANCH  85  86
ATOM     86  S   UNL A   1      32.908  35.785  29.000  1.00  0.00     0.124 S 
ATOM     87  O   UNL A   1      32.303  34.830  28.079  1.00  0.00    -0.237 OA
ATOM     88  O   UNL A   1      32.134  36.097  30.197  1.00  0.00    -0.237 OA
ATOM     89  O   UNL A   1      33.575  36.927  28.379  1.00  0.00    -0.744 OA
ENDBRANCH  85  86
ENDBRANCH  53  78
BRANCH  65  90
ATOM     90  C   UNL A   1      39.854  33.972  36.836  1.00  0.00     0.058 A 
ATOM     91  C   UNL A   1      40.484  35.221  36.746  1.00  0.00     0.135 A 
ATOM     92  C   UNL A   1      39.059  33.709  37.963  1.00  0.00     0.135 A 
ATOM     93  F   UNL A   1      41.262  35.513  35.690  1.00  0.00    -0.206 F 
ATOM     94  C   UNL A   1      40.334  36.179  37.741  1.00  0.00     0.059 A 
ATOM     95  C   UNL A   1      38.874  34.662  38.957  1.00  0.00     0.059 A 
ATOM     96  F   UNL A   1      38.428  32.530  38.087  1.00  0.00    -0.206 F 
ATOM     97  C   UNL A   1      39.518  35.892  38.839  1.00  0.00     0.060 A 
BRANCH  97  98
ATOM     98  S   UNL A   1      39.275  37.172  40.088  1.00  0.00     0.124 S 
ATOM     99  O   UNL A   1      38.528  36.447  41.109  1.00  0.00    -0.237 OA
ATOM    100  O   UNL A   1      40.647  37.529  40.438  1.00  0.00    -0.237 OA
ATOM    101  O   UNL A   1      38.528  38.204  39.375  1.00  0.00    -0.744 OA
ENDBRANCH  97  98
ENDBRANCH  65  90
ENDBRANCH  39  40
ENDBRANCH  31  34
ENDBRANCH  29  30
ENDBRANCH  28  29
ENDBRANCH   1  28
TORSDOF 18
ENDMDL
MODEL 2
REMARK VINA RESULT:     -11.9      3.866      7.073
REMARK SMILES [NH3+][C@H]1CCCN(C(=O)NC[C@H]2CC[C@@H](C(=O)NCCCCNC(=O)c3ccc(-c4c5nc(c(-c6c(F)cc(S(=O)(=O)[O-])cc6F)c6ccc([nH]6)c(-c6c(F)cc(S(=O)(=O)[O-])cc6F)c6nc(c(-c7c(F)cc(S(=O)(=O)[O-])cc7F)c7ccc4[nH]7)C=C6)C=C5)cc3)CC2)C1
REMARK SMILES IDX 19 1 18 2 17 3 15 4 16 5 14 7 11 8 12 9 92 10 13 11 91 12
REMARK SMILES IDX 10 13 9 14 7 15 8 16 6 18 2 19 3 20 93 21 4 22 5 23 1 24
REMARK SMILES IDX 20 28 21 29 22 30 23 31 24 33 25 34 26 35 90 36 27 37 89 38
REMARK SMILES IDX 28 39 29 40 30 41 83 42 31 43 88 44 82 45 84 46 32 47 87 48
REMARK SMILES IDX 81 49 80 50 33 52 67 53 46 54 66 55 47 56 50 57 65 58 85 59
REMARK SMILES IDX 48 60 49 61 64 63 86 64 51 65 34 66 35 67 44 68 36 69 37 70
REMARK SMILES IDX 43 71 45 72 38 73 39 74 40 75 41 76 42 77 68 78 69 79 78 80
REMARK SMILES IDX 70 81 71 82 77 83 79 84 72 85 73 86 74 87 75 88 76 89 52 90
REMARK SMILES IDX 53 91 62 92 54 93 55 94 61 95 63 96 56 97 57 98 58 99 59 100
REMARK SMILES IDX 60 101
REMARK H PARENT 17 6 9 17 1 25 1 26 1 27 22 32 84 51 50 62
REMARK Flexibility Score: inf
ROOT
ATOM      1  C   UNL A   1      42.657  22.031  27.271  1.00  0.00     0.023 C 
ENDROOT
BRANCH   1   2
ATOM      2  C   UNL A   1      43.261  23.433  27.289  1.00  0.00     0.116 C 
BRANCH   2   3
ATOM      3  N   UNL A   1      44.045  23.706  26.103  1.00  0.00    -0.356 N 
ATOM      4  C   UNL A   1      44.731  24.790  25.672  1.00  0.00     0.223 C 
ATOM      5  O   UNL A   1      45.320  24.667  24.591  1.00  0.00    -0.275 OA
ATOM      6  H   UNL A   1      44.087  22.945  25.480  1.00  0.00     0.163 HD
BRANCH   4   7
ATOM      7  C   UNL A   1      44.800  26.132  26.400  1.00  0.00     0.078 C 
ATOM      8  C   UNL A   1      45.417  28.865  27.413  1.00  0.00     0.008 C 
ATOM      9  C   UNL A   1      44.097  28.536  26.670  1.00  0.00     0.006 C 
ATOM     10  C   UNL A   1      46.046  27.589  28.001  1.00  0.00     0.006 C 
ATOM     11  C   UNL A   1      44.217  27.352  25.690  1.00  0.00     0.014 C 
ATOM     12  C   UNL A   1      46.175  26.448  26.986  1.00  0.00     0.014 C 
BRANCH   8  13
ATOM     13  C   UNL A   1      46.349  29.663  26.480  1.00  0.00     0.121 C 
BRANCH  13  14
ATOM     14  N   UNL A   1      45.754  30.862  25.917  1.00  0.00    -0.338 N 
ATOM     15  C   UNL A   1      44.987  31.861  26.406  1.00  0.00     0.317 C 
ATOM     16  O   UNL A   1      44.385  32.530  25.561  1.00  0.00    -0.249 OA
ATOM     17  H   UNL A   1      45.956  30.972  24.959  1.00  0.00     0.165 HD
BRANCH  15  18
ATOM     18  N   UNL A   1      44.864  32.102  27.751  1.00  0.00    -0.319 N 
ATOM     19  C   UNL A   1      46.247  32.321  29.864  1.00  0.00     0.200 C 
ATOM     20  C   UNL A   1      44.951  32.338  30.657  1.00  0.00     0.068 C 
ATOM     21  C   UNL A   1      45.995  32.769  28.413  1.00  0.00     0.186 C 
ATOM     22  C   UNL A   1      43.873  31.513  29.990  1.00  0.00     0.028 C 
ATOM     23  C   UNL A   1      43.656  31.912  28.541  1.00  0.00     0.122 C 
BRANCH  19  24
ATOM     24  N   UNL A   1      47.208  33.180  30.568  1.00  0.00    -0.354 N 
ATOM     25  H   UNL A   1      48.154  32.842  30.398  1.00  0.00     0.344 HD
ATOM     26  H   UNL A   1      47.014  33.158  31.570  1.00  0.00     0.344 HD
ATOM     27  H   UNL A   1      47.122  34.137  30.226  1.00  0.00     0.344 HD
ENDBRANCH  19  24
ENDBRANCH  15  18
ENDBRANCH  13  14
ENDBRANCH   8  13
ENDBRANCH   4   7
ENDBRANCH   2   3
ENDBRANCH   1   2
BRANCH   1  28
ATOM     28  C   UNL A   1      41.520  21.753  26.280  1.00  0.00     0.023 C 
BRANCH  28  29
ATOM     29  C   UNL A   1      40.095  21.536  26.793  1.00  0.00     0.116 C 
BRANCH  29  30
ATOM     30  N   UNL A   1      39.025  22.098  25.975  1.00  0.00    -0.352 N 
ATOM     31  C   UNL A   1      38.574  23.403  25.894  1.00  0.00     0.251 C 
ATOM     32  H   UNL A   1      38.556  21.454  25.396  1.00  0.00     0.163 HD
ATOM     33  O   UNL A   1      37.625  23.704  25.177  1.00  0.00    -0.269 OA
BRANCH  31  34
ATOM     34  C   UNL A   1      39.274  24.447  26.659  1.00  0.00     0.039 A 
ATOM     35  C   UNL A   1      40.220  25.284  26.061  1.00  0.00     0.014 A 
ATOM     36  C   UNL A   1      38.914  24.608  27.994  1.00  0.00     0.014 A 
ATOM     37  C   UNL A   1      40.736  26.361  26.791  1.00  0.00     0.010 A 
ATOM     38  C   UNL A   1      39.335  25.734  28.671  1.00  0.00     0.010 A 
ATOM     39  C   UNL A   1      40.252  26.620  28.083  1.00  0.00    -0.014 A 
BRANCH  39  40
ATOM     40  C   UNL A   1      40.652  27.789  28.903  1.00  0.00     0.031 A 
ATOM     41  C   UNL A   1      41.887  27.664  29.755  1.00  0.00     0.074 A 
ATOM     42  C   UNL A   1      39.807  28.828  29.043  1.00  0.00     0.049 A 
ATOM     43  N   UNL A   1      42.247  28.356  30.801  1.00  0.00    -0.248 NA
ATOM     44  C   UNL A   1      42.791  26.545  29.432  1.00  0.00     0.031 C 
ATOM     45  C   UNL A   1      38.552  29.011  28.309  1.00  0.00     0.029 A 
ATOM     46  N   UNL A   1      39.850  29.905  29.893  1.00  0.00    -0.354 N 
ATOM     47  C   UNL A   1      43.382  27.721  31.295  1.00  0.00     0.074 A 
ATOM     48  C   UNL A   1      43.613  26.557  30.470  1.00  0.00     0.031 C 
ATOM     49  C   UNL A   1      37.949  30.132  28.737  1.00  0.00     0.029 A 
ATOM     50  C   UNL A   1      38.744  30.718  29.809  1.00  0.00     0.049 A 
ATOM     51  H   UNL A   1      40.602  30.079  30.504  1.00  0.00     0.167 HD
ATOM     52  C   UNL A   1      44.169  28.093  32.331  1.00  0.00     0.037 A 
ATOM     53  C   UNL A   1      38.402  31.799  30.537  1.00  0.00     0.037 A 
ATOM     54  C   UNL A   1      43.947  29.296  33.087  1.00  0.00     0.049 A 
ATOM     55  C   UNL A   1      39.326  32.234  31.643  1.00  0.00     0.074 A 
ATOM     56  C   UNL A   1      44.725  29.843  34.090  1.00  0.00     0.029 A 
ATOM     57  N   UNL A   1      42.867  30.150  32.903  1.00  0.00    -0.354 N 
ATOM     58  N   UNL A   1      40.430  31.661  32.064  1.00  0.00    -0.248 NA
ATOM     59  C   UNL A   1      38.963  33.455  32.372  1.00  0.00     0.031 C 
ATOM     60  C   UNL A   1      44.100  31.012  34.534  1.00  0.00     0.029 A 
ATOM     61  C   UNL A   1      42.953  31.216  33.780  1.00  0.00     0.049 A 
ATOM     62  H   UNL A   1      42.147  30.017  32.245  1.00  0.00     0.167 HD
ATOM     63  C   UNL A   1      40.907  32.463  33.092  1.00  0.00     0.074 A 
ATOM     64  C   UNL A   1      39.977  33.569  33.222  1.00  0.00     0.031 C 
ATOM     65  C   UNL A   1      42.009  32.303  33.866  1.00  0.00     0.037 A 
BRANCH  52  66
ATOM     66  C   UNL A   1      45.338  27.212  32.681  1.00  0.00     0.058 A 
ATOM     67  C   UNL A   1      45.213  26.144  33.586  1.00  0.00     0.135 A 
ATOM     68  C   UNL A   1      46.599  27.424  32.099  1.00  0.00     0.135 A 
ATOM     69  F   UNL A   1      44.037  25.902  34.187  1.00  0.00    -0.206 F 
ATOM     70  C   UNL A   1      46.299  25.348  33.934  1.00  0.00     0.059 A 
ATOM     71  C   UNL A   1      47.694  26.618  32.406  1.00  0.00     0.059 A 
ATOM     72  F   UNL A   1      46.782  28.428  31.227  1.00  0.00    -0.206 F 
ATOM     73  C   UNL A   1      47.537  25.594  33.340  1.00  0.00     0.060 A 
BRANCH  73  74
ATOM     74  S   UNL A   1      48.935  24.548  33.800  1.00  0.00     0.124 S 
ATOM     75  O   UNL A   1      49.577  25.360  34.831  1.00  0.00    -0.237 OA
ATOM     76  O   UNL A   1      48.275  23.335  34.271  1.00  0.00    -0.237 OA
ATOM     77  O   UNL A   1      49.683  24.411  32.555  1.00  0.00    -0.744 OA
ENDBRANCH  73  74
ENDBRANCH  52  66
BRANCH  53  78
ATOM     78  C   UNL A   1      37.159  32.553  30.218  1.00  0.00     0.058 A 
ATOM     79  C   UNL A   1      37.173  33.568  29.249  1.00  0.00     0.135 A 
ATOM     80  C   UNL A   1      35.932  32.257  30.832  1.00  0.00     0.135 A 
ATOM     81  F   UNL A   1      38.322  33.890  28.633  1.00  0.00    -0.206 F 
ATOM     82  C   UNL A   1      36.021  34.270  28.907  1.00  0.00     0.059 A 
ATOM     83  C   UNL A   1      34.761  32.931  30.491  1.00  0.00     0.059 A 
ATOM     84  F   UNL A   1      35.858  31.281  31.751  1.00  0.00    -0.206 F 
ATOM     85  C   UNL A   1      34.818  33.941  29.532  1.00  0.00     0.060 A 
BRANCH  85  86
ATOM     86  S   UNL A   1      33.320  34.822  29.036  1.00  0.00     0.124 S 
ATOM     87  O   UNL A   1      32.726  33.884  28.092  1.00  0.00    -0.237 OA
ATOM     88  O   UNL A   1      32.622  34.978  30.308  1.00  0.00    -0.237 OA
ATOM     89  O   UNL A   1      33.836  36.060  28.457  1.00  0.00    -0.744 OA
ENDBRANCH  85  86
ENDBRANCH  53  78
BRANCH  65  90
ATOM     90  C   UNL A   1      42.280  33.356  34.899  1.00  0.00     0.058 A 
ATOM     91  C   UNL A   1      42.991  34.523  34.583  1.00  0.00     0.135 A 
ATOM     92  C   UNL A   1      41.741  33.238  36.191  1.00  0.00     0.135 A 
ATOM     93  F   UNL A   1      43.532  34.675  33.363  1.00  0.00    -0.206 F 
ATOM     94  C   UNL A   1      43.164  35.538  35.515  1.00  0.00     0.059 A 
ATOM     95  C   UNL A   1      41.880  34.252  37.130  1.00  0.00     0.059 A 
ATOM     96  F   UNL A   1      41.044  32.143  36.536  1.00  0.00    -0.206 F 
ATOM     97  C   UNL A   1      42.597  35.396  36.784  1.00  0.00     0.060 A 
BRANCH  97  98
ATOM     98  S   UNL A   1      42.770  36.754  37.961  1.00  0.00     0.124 S 
ATOM     99  O   UNL A   1      43.471  37.750  37.158  1.00  0.00    -0.237 OA
ATOM    100  O   UNL A   1      41.381  37.064  38.285  1.00  0.00    -0.237 OA
ATOM    101  O   UNL A   1      43.545  36.164  39.048  1.00  0.00    -0.744 OA
ENDBRANCH  97  98
ENDBRANCH  65  90
ENDBRANCH  39  40
ENDBRANCH  31  34
ENDBRANCH  29  30
ENDBRANCH  28  29
ENDBRANCH   1  28
TORSDOF 18
ENDMDL
MODEL 3
REMARK VINA RESULT:     -11.8      5.508     12.941
REMARK SMILES [NH3+][C@H]1CCCN(C(=O)NC[C@H]2CC[C@@H](C(=O)NCCCCNC(=O)c3ccc(-c4c5nc(c(-c6c(F)cc(S(=O)(=O)[O-])cc6F)c6ccc([nH]6)c(-c6c(F)cc(S(=O)(=O)[O-])cc6F)c6nc(c(-c7c(F)cc(S(=O)(=O)[O-])cc7F)c7ccc4[nH]7)C=C6)C=C5)cc3)CC2)C1
REMARK SMILES IDX 19 1 18 2 17 3 15 4 16 5 14 7 11 8 12 9 92 10 13 11 91 12
REMARK SMILES IDX 10 13 9 14 7 15 8 16 6 18 2 19 3 20 93 21 4 22 5 23 1 24
REMARK SMILES IDX 20 28 21 29 22 30 23 31 24 33 25 34 26 35 90 36 27 37 89 38
REMARK SMILES IDX 28 39 29 40 30 41 83 42 31 43 88 44 82 45 84 46 32 47 87 48
REMARK SMILES IDX 81 49 80 50 33 52 67 53 46 54 66 55 47 56 50 57 65 58 85 59
REMARK SMILES IDX 48 60 49 61 64 63 86 64 51 65 34 66 35 67 44 68 36 69 37 70
REMARK SMILES IDX 43 71 45 72 38 73 39 74 40 75 41 76 42 77 68 78 69 79 78 80
REMARK SMILES IDX 70 81 71 82 77 83 79 84 72 85 73 86 74 87 75 88 76 89 52 90
REMARK SMILES IDX 53 91 62 92 54 93 55 94 61 95 63 96 56 97 57 98 58 99 59 100
REMARK SMILES IDX 60 101
REMARK H PARENT 17 6 9 17 1 25 1 26 1 27 22 32 84 51 50 62
REMARK Flexibility Score: inf
ROOT
ATOM      1  C   UNL A   1      33.393  34.701  28.351  1.00  0.00     0.023 C 
ENDROOT
BRANCH   1   2
ATOM      2  C   UNL A   1      33.863  35.805  29.295  1.00  0.00     0.116 C 
BRANCH   2   3
ATOM      3  N   UNL A   1      32.813  36.239  30.194  1.00  0.00    -0.356 N 
ATOM      4  C   UNL A   1      32.574  36.034  31.510  1.00  0.00     0.223 C 
ATOM      5  O   UNL A   1      31.567  36.584  31.972  1.00  0.00    -0.275 OA
ATOM      6  H   UNL A   1      32.131  36.798  29.755  1.00  0.00     0.163 HD
BRANCH   4   7
ATOM      7  C   UNL A   1      33.427  35.165  32.432  1.00  0.00     0.078 C 
ATOM      8  C   UNL A   1      35.530  33.529  33.768  1.00  0.00     0.008 C 
ATOM      9  C   UNL A   1      35.074  34.904  34.321  1.00  0.00     0.006 C 
ATOM     10  C   UNL A   1      34.451  32.925  32.850  1.00  0.00     0.006 C 
ATOM     11  C   UNL A   1      34.525  35.855  33.240  1.00  0.00     0.014 C 
ATOM     12  C   UNL A   1      33.955  33.893  31.771  1.00  0.00     0.014 C 
BRANCH   8  13
ATOM     13  C   UNL A   1      36.917  33.671  33.112  1.00  0.00     0.121 C 
BRANCH  13  14
ATOM     14  N   UNL A   1      37.809  34.597  33.786  1.00  0.00    -0.338 N 
ATOM     15  C   UNL A   1      38.986  34.476  34.441  1.00  0.00     0.317 C 
ATOM     16  O   UNL A   1      39.281  35.421  35.179  1.00  0.00    -0.249 OA
ATOM     17  H   UNL A   1      37.482  35.525  33.761  1.00  0.00     0.165 HD
BRANCH  15  18
ATOM     18  N   UNL A   1      39.787  33.370  34.314  1.00  0.00    -0.319 N 
ATOM     19  C   UNL A   1      40.511  31.287  35.564  1.00  0.00     0.200 C 
ATOM     20  C   UNL A   1      41.553  31.054  34.484  1.00  0.00     0.068 C 
ATOM     21  C   UNL A   1      39.359  32.155  35.023  1.00  0.00     0.186 C 
ATOM     22  C   UNL A   1      42.054  32.355  33.897  1.00  0.00     0.028 C 
ATOM     23  C   UNL A   1      40.922  33.242  33.410  1.00  0.00     0.122 C 
BRANCH  19  24
ATOM     24  N   UNL A   1      40.060  29.971  36.035  1.00  0.00    -0.354 N 
ATOM     25  H   UNL A   1      40.090  29.305  35.264  1.00  0.00     0.344 HD
ATOM     26  H   UNL A   1      39.104  30.044  36.385  1.00  0.00     0.344 HD
ATOM     27  H   UNL A   1      40.673  29.651  36.785  1.00  0.00     0.344 HD
ENDBRANCH  19  24
ENDBRANCH  15  18
ENDBRANCH  13  14
ENDBRANCH   8  13
ENDBRANCH   4   7
ENDBRANCH   2   3
ENDBRANCH   1   2
BRANCH   1  28
ATOM     28  C   UNL A   1      34.391  33.592  27.995  1.00  0.00     0.023 C 
BRANCH  28  29
ATOM     29  C   UNL A   1      34.500  32.348  28.879  1.00  0.00     0.116 C 
BRANCH  29  30
ATOM     30  N   UNL A   1      33.988  31.107  28.307  1.00  0.00    -0.352 N 
ATOM     31  C   UNL A   1      34.649  29.919  28.050  1.00  0.00     0.251 C 
ATOM     32  H   UNL A   1      33.032  31.116  28.070  1.00  0.00     0.163 HD
ATOM     33  O   UNL A   1      34.073  28.973  27.522  1.00  0.00    -0.269 OA
BRANCH  31  34
ATOM     34  C   UNL A   1      36.058  29.788  28.453  1.00  0.00     0.039 A 
ATOM     35  C   UNL A   1      36.417  29.347  29.731  1.00  0.00     0.014 A 
ATOM     36  C   UNL A   1      37.025  30.064  27.491  1.00  0.00     0.014 A 
ATOM     37  C   UNL A   1      37.764  29.086  30.008  1.00  0.00     0.010 A 
ATOM     38  C   UNL A   1      38.333  29.697  27.729  1.00  0.00     0.010 A 
ATOM     39  C   UNL A   1      38.720  29.210  28.988  1.00  0.00    -0.014 A 
BRANCH  39  40
ATOM     40  C   UNL A   1      40.154  28.862  29.144  1.00  0.00     0.031 A 
ATOM     41  C   UNL A   1      41.121  29.974  29.449  1.00  0.00     0.074 A 
ATOM     42  C   UNL A   1      40.585  27.634  28.796  1.00  0.00     0.049 A 
ATOM     43  N   UNL A   1      42.414  30.019  29.280  1.00  0.00    -0.248 NA
ATOM     44  C   UNL A   1      40.531  31.238  29.926  1.00  0.00     0.031 C 
ATOM     45  C   UNL A   1      39.730  26.505  28.422  1.00  0.00     0.029 A 
ATOM     46  N   UNL A   1      41.858  27.145  28.650  1.00  0.00    -0.354 N 
ATOM     47  C   UNL A   1      42.782  31.329  29.570  1.00  0.00     0.074 A 
ATOM     48  C   UNL A   1      41.570  32.057  29.867  1.00  0.00     0.031 C 
ATOM     49  C   UNL A   1      40.501  25.456  28.093  1.00  0.00     0.029 A 
ATOM     50  C   UNL A   1      41.901  25.851  28.182  1.00  0.00     0.049 A 
ATOM     51  H   UNL A   1      42.665  27.669  28.860  1.00  0.00     0.167 HD
ATOM     52  C   UNL A   1      44.025  31.864  29.605  1.00  0.00     0.037 A 
ATOM     53  C   UNL A   1      42.955  25.085  27.839  1.00  0.00     0.037 A 
ATOM     54  C   UNL A   1      45.214  31.091  29.370  1.00  0.00     0.049 A 
ATOM     55  C   UNL A   1      44.334  25.680  27.949  1.00  0.00     0.074 A 
ATOM     56  C   UNL A   1      46.535  31.484  29.476  1.00  0.00     0.029 A 
ATOM     57  N   UNL A   1      45.220  29.753  28.997  1.00  0.00    -0.354 N 
ATOM     58  N   UNL A   1      44.676  26.903  28.283  1.00  0.00    -0.248 NA
ATOM     59  C   UNL A   1      45.466  24.800  27.636  1.00  0.00     0.031 C 
ATOM     60  C   UNL A   1      47.340  30.391  29.139  1.00  0.00     0.029 A 
ATOM     61  C   UNL A   1      46.521  29.306  28.860  1.00  0.00     0.049 A 
ATOM     62  H   UNL A   1      44.416  29.204  28.852  1.00  0.00     0.167 HD
ATOM     63  C   UNL A   1      46.064  26.934  28.244  1.00  0.00     0.074 A 
ATOM     64  C   UNL A   1      46.498  25.603  27.864  1.00  0.00     0.031 C 
ATOM     65  C   UNL A   1      46.908  27.967  28.492  1.00  0.00     0.037 A 
BRANCH  52  66
ATOM     66  C   UNL A   1      44.152  33.329  29.930  1.00  0.00     0.058 A 
ATOM     67  C   UNL A   1      44.438  33.774  31.231  1.00  0.00     0.135 A 
ATOM     68  C   UNL A   1      43.998  34.303  28.930  1.00  0.00     0.135 A 
ATOM     69  F   UNL A   1      44.580  32.891  32.232  1.00  0.00    -0.206 F 
ATOM     70  C   UNL A   1      44.525  35.128  31.539  1.00  0.00     0.059 A 
ATOM     71  C   UNL A   1      44.114  35.664  29.208  1.00  0.00     0.059 A 
ATOM     72  F   UNL A   1      43.723  33.940  27.667  1.00  0.00    -0.206 F 
ATOM     73  C   UNL A   1      44.360  36.066  30.520  1.00  0.00     0.060 A 
BRANCH  73  74
ATOM     74  S   UNL A   1      44.479  37.819  30.937  1.00  0.00     0.124 S 
ATOM     75  O   UNL A   1      43.713  38.427  29.853  1.00  0.00    -0.237 OA
ATOM     76  O   UNL A   1      43.858  37.868  32.257  1.00  0.00    -0.237 OA
ATOM     77  O   UNL A   1      45.915  38.078  30.912  1.00  0.00    -0.744 OA
ENDBRANCH  73  74
ENDBRANCH  52  66
BRANCH  53  78
ATOM     78  C   UNL A   1      42.747  23.678  27.402  1.00  0.00     0.058 A 
ATOM     79  C   UNL A   1      42.706  23.357  26.036  1.00  0.00     0.135 A 
ATOM     80  C   UNL A   1      42.627  22.625  28.321  1.00  0.00     0.135 A 
ATOM     81  F   UNL A   1      42.815  24.329  25.117  1.00  0.00    -0.206 F 
ATOM     82  C   UNL A   1      42.544  22.047  25.596  1.00  0.00     0.059 A 
ATOM     83  C   UNL A   1      42.485  21.302  27.906  1.00  0.00     0.059 A 
ATOM     84  F   UNL A   1      42.680  22.873  29.640  1.00  0.00    -0.206 F 
ATOM     85  C   UNL A   1      42.438  21.025  26.540  1.00  0.00     0.060 A 
BRANCH  85  86
ATOM     86  S   UNL A   1      42.284  19.322  25.954  1.00  0.00     0.124 S 
ATOM     87  O   UNL A   1      40.850  19.225  25.707  1.00  0.00    -0.237 OA
ATOM     88  O   UNL A   1      43.137  19.328  24.770  1.00  0.00    -0.237 OA
ATOM     89  O   UNL A   1      42.788  18.535  27.076  1.00  0.00    -0.744 OA
ENDBRANCH  85  86
ENDBRANCH  53  78
BRANCH  65  90
ATOM     90  C   UNL A   1      48.379  27.691  28.385  1.00  0.00     0.058 A 
ATOM     91  C   UNL A   1      49.115  27.225  29.484  1.00  0.00     0.135 A 
ATOM     92  C   UNL A   1      49.033  27.804  27.148  1.00  0.00     0.135 A 
ATOM     93  F   UNL A   1      48.533  27.109  30.688  1.00  0.00    -0.206 F 
ATOM     94  C   UNL A   1      50.456  26.884  29.362  1.00  0.00     0.059 A 
ATOM     95  C   UNL A   1      50.367  27.444  26.997  1.00  0.00     0.059 A 
ATOM     96  F   UNL A   1      48.366  28.236  26.066  1.00  0.00    -0.206 F 
ATOM     97  C   UNL A   1      51.071  26.989  28.111  1.00  0.00     0.060 A 
BRANCH  97  98
ATOM     98  S   UNL A   1      52.794  26.475  27.953  1.00  0.00     0.124 S 
ATOM     99  O   UNL A   1      53.415  27.688  27.434  1.00  0.00    -0.237 OA
ATOM    100  O   UNL A   1      53.140  26.123  29.327  1.00  0.00    -0.237 OA
ATOM    101  O   UNL A   1      52.729  25.353  27.022  1.00  0.00    -0.744 OA
ENDBRANCH  97  98
ENDBRANCH  65  90
ENDBRANCH  39  40
ENDBRANCH  31  34
ENDBRANCH  29  30
ENDBRANCH  28  29
ENDBRANCH   1  28
TORSDOF 18
ENDMDL
