MODEL 1
REMARK VINA RESULT:     -10.5      0.000      0.000
REMARK SMILES CCC[NH2+][C@@]1(C(=O)NCCCCNC(=O)c2ccc(-c3c4nc(c(-c5c(F)cc(S(=O)(=O)[O-])cc5F)c5ccc([nH]5)c(-c5c(F)cc(S(=O)(=O)[O-])cc5F)c5nc(c(-c6c(F)cc(S(=O)(=O)[O-])cc6F)c6ccc3[nH]6)C=C5)C=C4)cc2)CC[C@@H](Sc2ccc(OC)cc2)C1
REMARK SMILES IDX 10 1 9 2 8 3 6 4 7 5 5 7 82 8 94 9 83 10 84 11 4 12 3 15
REMARK SMILES IDX 2 16 1 17 85 18 86 19 87 20 93 21 88 22 92 23 89 24 90 25
REMARK SMILES IDX 91 26 11 27 12 28 13 29 14 30 15 32 16 33 17 34 81 35 18 36
REMARK SMILES IDX 80 37 19 38 20 39 21 40 74 41 22 42 79 43 73 44 75 45 23 46
REMARK SMILES IDX 78 47 72 48 71 49 24 51 58 52 37 53 57 54 38 55 41 56 56 57
REMARK SMILES IDX 76 58 39 59 40 60 55 62 77 63 42 64 25 65 26 66 35 67 27 68
REMARK SMILES IDX 28 69 34 70 36 71 29 72 30 73 31 74 32 75 33 76 59 77 60 78
REMARK SMILES IDX 69 79 61 80 62 81 68 82 70 83 63 84 64 85 65 86 66 87 67 88
REMARK SMILES IDX 43 89 44 90 53 91 45 92 46 93 52 94 54 95 47 96 48 97 49 98
REMARK SMILES IDX 50 99 51 100
REMARK H PARENT 8 6 4 13 4 14 13 31 75 50 41 61
REMARK Flexibility Score: inf
ROOT
ATOM      1  C   UNL A   1      33.276  29.315  24.798  1.00  0.00     0.023 C 
ENDROOT
BRANCH   1   2
ATOM      2  C   UNL A   1      33.508  28.959  23.332  1.00  0.00     0.116 C 
BRANCH   2   3
ATOM      3  N   UNL A   1      32.279  28.605  22.658  1.00  0.00    -0.351 N 
ATOM      4  C   UNL A   1      31.576  27.446  22.581  1.00  0.00     0.281 C 
ATOM      5  O   UNL A   1      30.487  27.528  21.994  1.00  0.00    -0.268 OA
ATOM      6  H   UNL A   1      31.873  29.349  22.158  1.00  0.00     0.163 HD
BRANCH   4   7
ATOM      7  C   UNL A   1      32.045  26.068  23.199  1.00  0.00     0.176 C 
ATOM      8  C   UNL A   1      31.374  24.869  22.501  1.00  0.00     0.080 C 
ATOM      9  C   UNL A   1      31.715  25.938  24.698  1.00  0.00     0.094 C 
ATOM     10  C   UNL A   1      30.550  24.102  23.536  1.00  0.00     0.022 C 
ATOM     11  C   UNL A   1      30.623  24.883  24.845  1.00  0.00     0.058 C 
BRANCH   7  12
ATOM     12  N   UNL A   1      33.511  25.939  22.885  1.00  0.00    -0.334 N 
ATOM     13  H   UNL A   1      33.739  26.626  22.167  1.00  0.00     0.347 HD
ATOM     14  H   UNL A   1      33.998  26.087  23.770  1.00  0.00     0.347 HD
BRANCH  12  15
ATOM     15  C   UNL A   1      33.948  24.625  22.406  1.00  0.00     0.261 C 
BRANCH  15  16
ATOM     16  C   UNL A   1      34.661  23.825  23.502  1.00  0.00     0.058 C 
ATOM     17  C   UNL A   1      36.021  23.300  23.066  1.00  0.00     0.010 C 
ENDBRANCH  15  16
ENDBRANCH  12  15
ENDBRANCH   7  12
BRANCH  11  18
ATOM     18  S   UNL A   1      30.773  23.896  26.393  1.00  0.00    -0.122 SA
BRANCH  18  19
ATOM     19  C   UNL A   1      32.071  22.748  25.981  1.00  0.00     0.008 A 
ATOM     20  C   UNL A   1      33.276  22.813  26.683  1.00  0.00     0.019 A 
ATOM     21  C   UNL A   1      31.902  21.761  25.009  1.00  0.00     0.019 A 
ATOM     22  C   UNL A   1      34.276  21.868  26.449  1.00  0.00     0.047 A 
ATOM     23  C   UNL A   1      32.903  20.812  24.777  1.00  0.00     0.047 A 
ATOM     24  C   UNL A   1      34.091  20.855  25.507  1.00  0.00     0.118 A 
BRANCH  24  25
ATOM     25  O   UNL A   1      35.137  19.980  25.391  1.00  0.00    -0.497 OA
ATOM     26  C   UNL A   1      36.409  20.544  25.102  1.00  0.00     0.278 C 
ENDBRANCH  24  25
ENDBRANCH  18  19
ENDBRANCH  11  18
ENDBRANCH   4   7
ENDBRANCH   2   3
ENDBRANCH   1   2
BRANCH   1  27
ATOM     27  C   UNL A   1      33.955  28.368  25.786  1.00  0.00     0.023 C 
BRANCH  27  28
ATOM     28  C   UNL A   1      33.557  28.557  27.248  1.00  0.00     0.116 C 
BRANCH  28  29
ATOM     29  N   UNL A   1      33.487  29.950  27.668  1.00  0.00    -0.352 N 
ATOM     30  C   UNL A   1      34.489  30.716  28.225  1.00  0.00     0.251 C 
ATOM     31  H   UNL A   1      32.621  30.399  27.539  1.00  0.00     0.163 HD
ATOM     32  O   UNL A   1      34.271  31.858  28.598  1.00  0.00    -0.269 OA
BRANCH  30  33
ATOM     33  C   UNL A   1      35.822  30.103  28.402  1.00  0.00     0.039 A 
ATOM     34  C   UNL A   1      36.734  30.156  27.348  1.00  0.00     0.014 A 
ATOM     35  C   UNL A   1      36.191  29.573  29.641  1.00  0.00     0.014 A 
ATOM     36  C   UNL A   1      38.052  29.750  27.563  1.00  0.00     0.010 A 
ATOM     37  C   UNL A   1      37.521  29.240  29.873  1.00  0.00     0.010 A 
ATOM     38  C   UNL A   1      38.465  29.333  28.839  1.00  0.00    -0.014 A 
BRANCH  38  39
ATOM     39  C   UNL A   1      39.885  29.005  29.122  1.00  0.00     0.031 A 
ATOM     40  C   UNL A   1      40.794  30.048  29.711  1.00  0.00     0.074 A 
ATOM     41  C   UNL A   1      40.376  27.801  28.765  1.00  0.00     0.049 A 
ATOM     42  N   UNL A   1      42.078  29.985  29.946  1.00  0.00    -0.248 NA
ATOM     43  C   UNL A   1      40.184  31.345  30.043  1.00  0.00     0.031 C 
ATOM     44  C   UNL A   1      39.610  26.731  28.120  1.00  0.00     0.029 A 
ATOM     45  N   UNL A   1      41.639  27.279  28.878  1.00  0.00    -0.354 N 
ATOM     46  C   UNL A   1      42.435  31.239  30.428  1.00  0.00     0.074 A 
ATOM     47  C   UNL A   1      41.242  32.056  30.406  1.00  0.00     0.031 C 
ATOM     48  C   UNL A   1      40.414  25.676  27.914  1.00  0.00     0.029 A 
ATOM     49  C   UNL A   1      41.758  26.003  28.381  1.00  0.00     0.049 A 
ATOM     50  H   UNL A   1      42.391  27.774  29.279  1.00  0.00     0.167 HD
ATOM     51  C   UNL A   1      43.643  31.662  30.871  1.00  0.00     0.037 A 
ATOM     52  C   UNL A   1      42.829  25.189  28.308  1.00  0.00     0.037 A 
ATOM     53  C   UNL A   1      44.815  30.830  30.933  1.00  0.00     0.049 A 
ATOM     54  C   UNL A   1      44.149  25.663  28.852  1.00  0.00     0.074 A 
ATOM     55  C   UNL A   1      46.063  31.139  31.442  1.00  0.00     0.029 A 
ATOM     56  N   UNL A   1      44.882  29.524  30.470  1.00  0.00    -0.354 N 
ATOM     57  N   UNL A   1      44.451  26.827  29.377  1.00  0.00    -0.248 NA
ATOM     58  C   UNL A   1      45.268  24.714  28.804  1.00  0.00     0.031 C 
ATOM     59  C   UNL A   1      46.896  30.028  31.261  1.00  0.00     0.029 A 
ATOM     60  C   UNL A   1      46.155  29.016  30.671  1.00  0.00     0.049 A 
ATOM     61  H   UNL A   1      44.134  29.031  30.060  1.00  0.00     0.167 HD
ATOM     62  C   UNL A   1      45.790  26.743  29.740  1.00  0.00     0.074 A 
ATOM     63  C   UNL A   1      46.236  25.411  29.386  1.00  0.00     0.031 C 
ATOM     64  C   UNL A   1      46.578  27.685  30.316  1.00  0.00     0.037 A 
BRANCH  51  65
ATOM     65  C   UNL A   1      43.747  33.089  31.332  1.00  0.00     0.058 A 
ATOM     66  C   UNL A   1      44.163  34.114  30.465  1.00  0.00     0.135 A 
ATOM     67  C   UNL A   1      43.420  33.440  32.651  1.00  0.00     0.135 A 
ATOM     68  F   UNL A   1      44.503  33.830  29.197  1.00  0.00    -0.206 F 
ATOM     69  C   UNL A   1      44.288  35.428  30.900  1.00  0.00     0.059 A 
ATOM     70  C   UNL A   1      43.513  34.754  33.101  1.00  0.00     0.059 A 
ATOM     71  F   UNL A   1      43.018  32.500  33.520  1.00  0.00    -0.206 F 
ATOM     72  C   UNL A   1      43.966  35.738  32.223  1.00  0.00     0.060 A 
BRANCH  72  73
ATOM     73  S   UNL A   1      44.147  37.446  32.780  1.00  0.00     0.124 S 
ATOM     74  O   UNL A   1      43.110  37.527  33.804  1.00  0.00    -0.237 OA
ATOM     75  O   UNL A   1      45.522  37.472  33.266  1.00  0.00    -0.237 OA
ATOM     76  O   UNL A   1      43.896  38.224  31.571  1.00  0.00    -0.744 OA
ENDBRANCH  72  73
ENDBRANCH  51  65
BRANCH  52  77
ATOM     77  C   UNL A   1      42.685  23.829  27.727  1.00  0.00     0.058 A 
ATOM     78  C   UNL A   1      42.769  23.627  26.342  1.00  0.00     0.135 A 
ATOM     79  C   UNL A   1      42.493  22.705  28.543  1.00  0.00     0.135 A 
ATOM     80  F   UNL A   1      42.947  24.673  25.521  1.00  0.00    -0.206 F 
ATOM     81  C   UNL A   1      42.661  22.357  25.784  1.00  0.00     0.059 A 
ATOM     82  C   UNL A   1      42.401  21.422  28.009  1.00  0.00     0.059 A 
ATOM     83  F   UNL A   1      42.422  22.845  29.876  1.00  0.00    -0.206 F 
ATOM     84  C   UNL A   1      42.481  21.259  26.626  1.00  0.00     0.060 A 
BRANCH  84  85
ATOM     85  S   UNL A   1      42.408  19.608  25.898  1.00  0.00     0.124 S 
ATOM     86  O   UNL A   1      42.778  18.770  27.031  1.00  0.00    -0.237 OA
ATOM     87  O   UNL A   1      41.016  19.524  25.467  1.00  0.00    -0.237 OA
ATOM     88  O   UNL A   1      43.387  19.677  24.816  1.00  0.00    -0.744 OA
ENDBRANCH  84  85
ENDBRANCH  52  77
BRANCH  64  89
ATOM     89  C   UNL A   1      47.998  27.301  30.623  1.00  0.00     0.058 A 
ATOM     90  C   UNL A   1      48.341  26.658  31.822  1.00  0.00     0.135 A 
ATOM     91  C   UNL A   1      49.015  27.527  29.682  1.00  0.00     0.135 A 
ATOM     92  F   UNL A   1      47.405  26.425  32.756  1.00  0.00    -0.206 F 
ATOM     93  C   UNL A   1      49.650  26.268  32.085  1.00  0.00     0.059 A 
ATOM     94  C   UNL A   1      50.326  27.125  29.915  1.00  0.00     0.059 A 
ATOM     95  F   UNL A   1      48.735  28.130  28.516  1.00  0.00    -0.206 F 
ATOM     96  C   UNL A   1      50.635  26.505  31.125  1.00  0.00     0.060 A 
BRANCH  96  97
ATOM     97  S   UNL A   1      52.324  25.960  31.461  1.00  0.00     0.124 S 
ATOM     98  O   UNL A   1      52.931  26.056  30.138  1.00  0.00    -0.237 OA
ATOM     99  O   UNL A   1      52.781  26.940  32.442  1.00  0.00    -0.237 OA
ATOM    100  O   UNL A   1      52.145  24.605  31.974  1.00  0.00    -0.744 OA
ENDBRANCH  96  97
ENDBRANCH  64  89
ENDBRANCH  38  39
ENDBRANCH  30  33
ENDBRANCH  28  29
ENDBRANCH  27  28
ENDBRANCH   1  27
TORSDOF 20
ENDMDL
MODEL 2
REMARK VINA RESULT:     -10.5      3.088      8.911
REMARK SMILES CCC[NH2+][C@@]1(C(=O)NCCCCNC(=O)c2ccc(-c3c4nc(c(-c5c(F)cc(S(=O)(=O)[O-])cc5F)c5ccc([nH]5)c(-c5c(F)cc(S(=O)(=O)[O-])cc5F)c5nc(c(-c6c(F)cc(S(=O)(=O)[O-])cc6F)c6ccc3[nH]6)C=C5)C=C4)cc2)CC[C@@H](Sc2ccc(OC)cc2)C1
REMARK SMILES IDX 10 1 9 2 8 3 6 4 7 5 5 7 82 8 94 9 83 10 84 11 4 12 3 15
REMARK SMILES IDX 2 16 1 17 85 18 86 19 87 20 93 21 88 22 92 23 89 24 90 25
REMARK SMILES IDX 91 26 11 27 12 28 13 29 14 30 15 32 16 33 17 34 81 35 18 36
REMARK SMILES IDX 80 37 19 38 20 39 21 40 74 41 22 42 79 43 73 44 75 45 23 46
REMARK SMILES IDX 78 47 72 48 71 49 24 51 58 52 37 53 57 54 38 55 41 56 56 57
REMARK SMILES IDX 76 58 39 59 40 60 55 62 77 63 42 64 25 65 26 66 35 67 27 68
REMARK SMILES IDX 28 69 34 70 36 71 29 72 30 73 31 74 32 75 33 76 59 77 60 78
REMARK SMILES IDX 69 79 61 80 62 81 68 82 70 83 63 84 64 85 65 86 66 87 67 88
REMARK SMILES IDX 43 89 44 90 53 91 45 92 46 93 52 94 54 95 47 96 48 97 49 98
REMARK SMILES IDX 50 99 51 100
REMARK H PARENT 8 6 4 13 4 14 13 31 75 50 41 61
REMARK Flexibility Score: inf
ROOT
ATOM      1  C   UNL A   1      34.775  30.371  27.555  1.00  0.00     0.023 C 
ENDROOT
BRANCH   1   2
ATOM      2  C   UNL A   1      33.478  30.223  26.763  1.00  0.00     0.116 C 
BRANCH   2   3
ATOM      3  N   UNL A   1      32.475  29.484  27.497  1.00  0.00    -0.351 N 
ATOM      4  C   UNL A   1      31.793  28.343  27.223  1.00  0.00     0.281 C 
ATOM      5  O   UNL A   1      31.072  27.925  28.141  1.00  0.00    -0.268 OA
ATOM      6  H   UNL A   1      32.241  29.887  28.364  1.00  0.00     0.163 HD
BRANCH   4   7
ATOM      7  C   UNL A   1      31.891  27.542  25.862  1.00  0.00     0.176 C 
ATOM      8  C   UNL A   1      30.865  26.394  25.798  1.00  0.00     0.080 C 
ATOM      9  C   UNL A   1      33.274  26.902  25.640  1.00  0.00     0.094 C 
ATOM     10  C   UNL A   1      31.622  25.072  25.667  1.00  0.00     0.022 C 
ATOM     11  C   UNL A   1      33.112  25.389  25.759  1.00  0.00     0.058 C 
BRANCH   7  12
ATOM     12  N   UNL A   1      31.481  28.500  24.776  1.00  0.00    -0.334 N 
ATOM     13  H   UNL A   1      30.649  28.996  25.093  1.00  0.00     0.347 HD
ATOM     14  H   UNL A   1      32.289  29.103  24.619  1.00  0.00     0.347 HD
BRANCH  12  15
ATOM     15  C   UNL A   1      31.177  27.897  23.476  1.00  0.00     0.261 C 
BRANCH  15  16
ATOM     16  C   UNL A   1      29.837  28.391  22.917  1.00  0.00     0.058 C 
ATOM     17  C   UNL A   1      29.968  29.662  22.091  1.00  0.00     0.010 C 
ENDBRANCH  15  16
ENDBRANCH  12  15
ENDBRANCH   7  12
BRANCH  11  18
ATOM     18  S   UNL A   1      34.231  24.450  24.636  1.00  0.00    -0.122 SA
BRANCH  18  19
ATOM     19  C   UNL A   1      33.555  22.805  24.725  1.00  0.00     0.008 A 
ATOM     20  C   UNL A   1      32.906  22.281  23.605  1.00  0.00     0.019 A 
ATOM     21  C   UNL A   1      33.694  22.011  25.864  1.00  0.00     0.019 A 
ATOM     22  C   UNL A   1      32.450  20.962  23.611  1.00  0.00     0.047 A 
ATOM     23  C   UNL A   1      33.240  20.687  25.868  1.00  0.00     0.047 A 
ATOM     24  C   UNL A   1      32.626  20.154  24.735  1.00  0.00     0.118 A 
BRANCH  24  25
ATOM     25  O   UNL A   1      32.156  18.876  24.602  1.00  0.00    -0.497 OA
ATOM     26  C   UNL A   1      32.673  18.117  23.518  1.00  0.00     0.278 C 
ENDBRANCH  24  25
ENDBRANCH  18  19
ENDBRANCH  11  18
ENDBRANCH   4   7
ENDBRANCH   2   3
ENDBRANCH   1   2
BRANCH   1  27
ATOM     27  C   UNL A   1      35.098  31.809  27.959  1.00  0.00     0.023 C 
BRANCH  27  28
ATOM     28  C   UNL A   1      36.066  31.952  29.132  1.00  0.00     0.116 C 
BRANCH  28  29
ATOM     29  N   UNL A   1      35.826  31.011  30.218  1.00  0.00    -0.352 N 
ATOM     30  C   UNL A   1      36.711  30.103  30.759  1.00  0.00     0.251 C 
ATOM     31  H   UNL A   1      34.925  31.025  30.612  1.00  0.00     0.163 HD
ATOM     32  O   UNL A   1      36.353  29.320  31.625  1.00  0.00    -0.269 OA
BRANCH  30  33
ATOM     33  C   UNL A   1      38.090  30.070  30.231  1.00  0.00     0.039 A 
ATOM     34  C   UNL A   1      39.155  29.988  31.129  1.00  0.00     0.014 A 
ATOM     35  C   UNL A   1      38.312  30.015  28.853  1.00  0.00     0.014 A 
ATOM     36  C   UNL A   1      40.444  29.768  30.644  1.00  0.00     0.010 A 
ATOM     37  C   UNL A   1      39.586  29.723  28.376  1.00  0.00     0.010 A 
ATOM     38  C   UNL A   1      40.662  29.588  29.267  1.00  0.00    -0.014 A 
BRANCH  38  39
ATOM     39  C   UNL A   1      42.003  29.240  28.737  1.00  0.00     0.031 A 
ATOM     40  C   UNL A   1      42.286  27.841  28.267  1.00  0.00     0.074 A 
ATOM     41  C   UNL A   1      42.990  30.158  28.764  1.00  0.00     0.049 A 
ATOM     42  N   UNL A   1      43.411  27.319  27.856  1.00  0.00    -0.248 NA
ATOM     43  C   UNL A   1      41.161  26.892  28.298  1.00  0.00     0.031 C 
ATOM     44  C   UNL A   1      42.859  31.529  29.264  1.00  0.00     0.029 A 
ATOM     45  N   UNL A   1      44.304  30.074  28.377  1.00  0.00    -0.354 N 
ATOM     46  C   UNL A   1      43.139  25.980  27.606  1.00  0.00     0.074 A 
ATOM     47  C   UNL A   1      41.754  25.757  27.957  1.00  0.00     0.031 C 
ATOM     48  C   UNL A   1      44.037  32.160  29.136  1.00  0.00     0.029 A 
ATOM     49  C   UNL A   1      45.016  31.233  28.575  1.00  0.00     0.049 A 
ATOM     50  H   UNL A   1      44.700  29.257  27.995  1.00  0.00     0.167 HD
ATOM     51  C   UNL A   1      43.963  25.027  27.106  1.00  0.00     0.037 A 
ATOM     52  C   UNL A   1      46.309  31.517  28.333  1.00  0.00     0.037 A 
ATOM     53  C   UNL A   1      45.327  25.266  26.717  1.00  0.00     0.049 A 
ATOM     54  C   UNL A   1      47.193  30.458  27.731  1.00  0.00     0.074 A 
ATOM     55  C   UNL A   1      46.217  24.390  26.123  1.00  0.00     0.029 A 
ATOM     56  N   UNL A   1      45.996  26.470  26.881  1.00  0.00    -0.354 N 
ATOM     57  N   UNL A   1      46.897  29.217  27.428  1.00  0.00    -0.248 NA
ATOM     58  C   UNL A   1      48.578  30.839  27.430  1.00  0.00     0.031 C 
ATOM     59  C   UNL A   1      47.438  25.056  25.955  1.00  0.00     0.029 A 
ATOM     60  C   UNL A   1      47.294  26.357  26.411  1.00  0.00     0.049 A 
ATOM     61  H   UNL A   1      45.605  27.284  27.272  1.00  0.00     0.167 HD
ATOM     62  C   UNL A   1      48.053  28.674  26.881  1.00  0.00     0.074 A 
ATOM     63  C   UNL A   1      49.050  29.725  26.885  1.00  0.00     0.031 C 
ATOM     64  C   UNL A   1      48.270  27.417  26.418  1.00  0.00     0.037 A 
BRANCH  51  65
ATOM     65  C   UNL A   1      43.399  23.643  26.947  1.00  0.00     0.058 A 
ATOM     66  C   UNL A   1      43.310  22.755  28.032  1.00  0.00     0.135 A 
ATOM     67  C   UNL A   1      42.934  23.199  25.699  1.00  0.00     0.135 A 
ATOM     68  F   UNL A   1      43.755  23.123  29.245  1.00  0.00    -0.206 F 
ATOM     69  C   UNL A   1      42.818  21.464  27.878  1.00  0.00     0.059 A 
ATOM     70  C   UNL A   1      42.413  21.920  25.527  1.00  0.00     0.059 A 
ATOM     71  F   UNL A   1      42.997  24.007  24.629  1.00  0.00    -0.206 F 
ATOM     72  C   UNL A   1      42.376  21.054  26.619  1.00  0.00     0.060 A 
BRANCH  72  73
ATOM     73  S   UNL A   1      41.752  19.370  26.428  1.00  0.00     0.124 S 
ATOM     74  O   UNL A   1      42.787  18.772  25.591  1.00  0.00    -0.237 OA
ATOM     75  O   UNL A   1      41.701  18.897  27.807  1.00  0.00    -0.237 OA
ATOM     76  O   UNL A   1      40.456  19.561  25.784  1.00  0.00    -0.744 OA
ENDBRANCH  72  73
ENDBRANCH  51  65
BRANCH  52  77
ATOM     77  C   UNL A   1      46.836  32.876  28.628  1.00  0.00     0.058 A 
ATOM     78  C   UNL A   1      46.780  33.892  27.664  1.00  0.00     0.135 A 
ATOM     79  C   UNL A   1      47.372  33.192  29.885  1.00  0.00     0.135 A 
ATOM     80  F   UNL A   1      46.280  33.636  26.446  1.00  0.00    -0.206 F 
ATOM     81  C   UNL A   1      47.246  35.176  27.932  1.00  0.00     0.059 A 
ATOM     82  C   UNL A   1      47.826  34.474  30.183  1.00  0.00     0.059 A 
ATOM     83  F   UNL A   1      47.430  32.257  30.846  1.00  0.00    -0.206 F 
ATOM     84  C   UNL A   1      47.764  35.458  29.197  1.00  0.00     0.060 A 
BRANCH  84  85
ATOM     85  S   UNL A   1      48.304  37.144  29.557  1.00  0.00     0.124 S 
ATOM     86  O   UNL A   1      47.161  37.667  30.295  1.00  0.00    -0.237 OA
ATOM     87  O   UNL A   1      49.519  36.917  30.334  1.00  0.00    -0.237 OA
ATOM     88  O   UNL A   1      48.516  37.717  28.230  1.00  0.00    -0.744 OA
ENDBRANCH  84  85
ENDBRANCH  52  77
BRANCH  64  89
ATOM     89  C   UNL A   1      49.629  27.116  25.852  1.00  0.00     0.058 A 
ATOM     90  C   UNL A   1      50.650  26.573  26.645  1.00  0.00     0.135 A 
ATOM     91  C   UNL A   1      49.891  27.320  24.487  1.00  0.00     0.135 A 
ATOM     92  F   UNL A   1      50.451  26.366  27.956  1.00  0.00    -0.206 F 
ATOM     93  C   UNL A   1      51.894  26.258  26.107  1.00  0.00     0.059 A 
ATOM     94  C   UNL A   1      51.119  26.991  23.924  1.00  0.00     0.059 A 
ATOM     95  F   UNL A   1      48.942  27.829  23.685  1.00  0.00    -0.206 F 
ATOM     96  C   UNL A   1      52.118  26.470  24.746  1.00  0.00     0.060 A 
BRANCH  96  97
ATOM     97  S   UNL A   1      53.724  26.022  24.050  1.00  0.00     0.124 S 
ATOM     98  O   UNL A   1      53.994  24.758  24.727  1.00  0.00    -0.237 OA
ATOM     99  O   UNL A   1      53.432  25.927  22.623  1.00  0.00    -0.237 OA
ATOM    100  O   UNL A   1      54.582  27.138  24.435  1.00  0.00    -0.744 OA
ENDBRANCH  96  97
ENDBRANCH  64  89
ENDBRANCH  38  39
ENDBRANCH  30  33
ENDBRANCH  28  29
ENDBRANCH  27  28
ENDBRANCH   1  27
TORSDOF 20
ENDMDL
MODEL 3
REMARK VINA RESULT:     -10.3      2.750      3.388
REMARK SMILES CCC[NH2+][C@@]1(C(=O)NCCCCNC(=O)c2ccc(-c3c4nc(c(-c5c(F)cc(S(=O)(=O)[O-])cc5F)c5ccc([nH]5)c(-c5c(F)cc(S(=O)(=O)[O-])cc5F)c5nc(c(-c6c(F)cc(S(=O)(=O)[O-])cc6F)c6ccc3[nH]6)C=C5)C=C4)cc2)CC[C@@H](Sc2ccc(OC)cc2)C1
REMARK SMILES IDX 10 1 9 2 8 3 6 4 7 5 5 7 82 8 94 9 83 10 84 11 4 12 3 15
REMARK SMILES IDX 2 16 1 17 85 18 86 19 87 20 93 21 88 22 92 23 89 24 90 25
REMARK SMILES IDX 91 26 11 27 12 28 13 29 14 30 15 32 16 33 17 34 81 35 18 36
REMARK SMILES IDX 80 37 19 38 20 39 21 40 74 41 22 42 79 43 73 44 75 45 23 46
REMARK SMILES IDX 78 47 72 48 71 49 24 51 58 52 37 53 57 54 38 55 41 56 56 57
REMARK SMILES IDX 76 58 39 59 40 60 55 62 77 63 42 64 25 65 26 66 35 67 27 68
REMARK SMILES IDX 28 69 34 70 36 71 29 72 30 73 31 74 32 75 33 76 59 77 60 78
REMARK SMILES IDX 69 79 61 80 62 81 68 82 70 83 63 84 64 85 65 86 66 87 67 88
REMARK SMILES IDX 43 89 44 90 53 91 45 92 46 93 52 94 54 95 47 96 48 97 49 98
REMARK SMILES IDX 50 99 51 100
REMARK H PARENT 8 6 4 13 4 14 13 31 75 50 41 61
REMARK Flexibility Score: inf
ROOT
ATOM      1  C   UNL A   1      31.640  27.904  25.417  1.00  0.00     0.023 C 
ENDROOT
BRANCH   1   2
ATOM      2  C   UNL A   1      31.385  26.820  24.373  1.00  0.00     0.116 C 
BRANCH   2   3
ATOM      3  N   UNL A   1      32.278  26.935  23.242  1.00  0.00    -0.351 N 
ATOM      4  C   UNL A   1      33.189  26.085  22.702  1.00  0.00     0.281 C 
ATOM      5  O   UNL A   1      33.712  26.474  21.647  1.00  0.00    -0.268 OA
ATOM      6  H   UNL A   1      32.213  27.798  22.771  1.00  0.00     0.163 HD
BRANCH   4   7
ATOM      7  C   UNL A   1      33.574  24.677  23.310  1.00  0.00     0.176 C 
ATOM      8  C   UNL A   1      33.407  23.543  22.279  1.00  0.00     0.080 C 
ATOM      9  C   UNL A   1      32.711  24.290  24.525  1.00  0.00     0.094 C 
ATOM     10  C   UNL A   1      32.366  22.556  22.807  1.00  0.00     0.022 C 
ATOM     11  C   UNL A   1      31.812  23.130  24.108  1.00  0.00     0.058 C 
BRANCH   7  12
ATOM     12  N   UNL A   1      35.049  24.731  23.602  1.00  0.00    -0.334 N 
ATOM     13  H   UNL A   1      35.531  24.191  22.884  1.00  0.00     0.347 HD
ATOM     14  H   UNL A   1      35.294  25.721  23.611  1.00  0.00     0.347 HD
BRANCH  12  15
ATOM     15  C   UNL A   1      35.460  24.209  24.908  1.00  0.00     0.261 C 
BRANCH  15  16
ATOM     16  C   UNL A   1      36.645  23.244  24.791  1.00  0.00     0.058 C 
ATOM     17  C   UNL A   1      36.780  22.631  23.404  1.00  0.00     0.010 C 
ENDBRANCH  15  16
ENDBRANCH  12  15
ENDBRANCH   7  12
BRANCH  11  18
ATOM     18  S   UNL A   1      31.490  21.935  25.473  1.00  0.00    -0.122 SA
BRANCH  18  19
ATOM     19  C   UNL A   1      32.569  20.583  25.048  1.00  0.00     0.008 A 
ATOM     20  C   UNL A   1      33.948  20.751  25.194  1.00  0.00     0.019 A 
ATOM     21  C   UNL A   1      32.075  19.352  24.618  1.00  0.00     0.019 A 
ATOM     22  C   UNL A   1      34.813  19.680  24.961  1.00  0.00     0.047 A 
ATOM     23  C   UNL A   1      32.942  18.279  24.387  1.00  0.00     0.047 A 
ATOM     24  C   UNL A   1      34.316  18.436  24.571  1.00  0.00     0.118 A 
BRANCH  24  25
ATOM     25  O   UNL A   1      35.266  17.467  24.398  1.00  0.00    -0.497 OA
ATOM     26  C   UNL A   1      34.979  16.190  24.953  1.00  0.00     0.278 C 
ENDBRANCH  24  25
ENDBRANCH  18  19
ENDBRANCH  11  18
ENDBRANCH   4   7
ENDBRANCH   2   3
ENDBRANCH   1   2
BRANCH   1  27
ATOM     27  C   UNL A   1      32.970  27.758  26.155  1.00  0.00     0.023 C 
BRANCH  27  28
ATOM     28  C   UNL A   1      34.017  28.820  25.824  1.00  0.00     0.116 C 
BRANCH  28  29
ATOM     29  N   UNL A   1      33.727  30.134  26.383  1.00  0.00    -0.352 N 
ATOM     30  C   UNL A   1      34.425  30.807  27.362  1.00  0.00     0.251 C 
ATOM     31  H   UNL A   1      32.938  30.595  26.019  1.00  0.00     0.163 HD
ATOM     32  O   UNL A   1      34.027  31.879  27.790  1.00  0.00    -0.269 OA
BRANCH  30  33
ATOM     33  C   UNL A   1      35.642  30.176  27.914  1.00  0.00     0.039 A 
ATOM     34  C   UNL A   1      36.857  30.361  27.253  1.00  0.00     0.014 A 
ATOM     35  C   UNL A   1      35.588  29.495  29.132  1.00  0.00     0.014 A 
ATOM     36  C   UNL A   1      38.038  29.931  27.859  1.00  0.00     0.010 A 
ATOM     37  C   UNL A   1      36.771  29.133  29.767  1.00  0.00     0.010 A 
ATOM     38  C   UNL A   1      38.007  29.356  29.141  1.00  0.00    -0.014 A 
BRANCH  38  39
ATOM     39  C   UNL A   1      39.257  28.994  29.855  1.00  0.00     0.031 A 
ATOM     40  C   UNL A   1      39.676  29.765  31.075  1.00  0.00     0.074 A 
ATOM     41  C   UNL A   1      40.059  28.033  29.352  1.00  0.00     0.049 A 
ATOM     42  N   UNL A   1      40.771  29.662  31.781  1.00  0.00    -0.248 NA
ATOM     43  C   UNL A   1      38.758  30.817  31.540  1.00  0.00     0.031 C 
ATOM     44  C   UNL A   1      39.797  27.263  28.133  1.00  0.00     0.029 A 
ATOM     45  N   UNL A   1      41.265  27.551  29.793  1.00  0.00    -0.354 N 
ATOM     46  C   UNL A   1      40.686  30.650  32.755  1.00  0.00     0.074 A 
ATOM     47  C   UNL A   1      39.456  31.373  32.518  1.00  0.00     0.031 C 
ATOM     48  C   UNL A   1      40.801  26.394  27.936  1.00  0.00     0.029 A 
ATOM     49  C   UNL A   1      41.793  26.564  28.994  1.00  0.00     0.049 A 
ATOM     50  H   UNL A   1      41.712  27.882  30.606  1.00  0.00     0.167 HD
ATOM     51  C   UNL A   1      41.546  30.915  33.768  1.00  0.00     0.037 A 
ATOM     52  C   UNL A   1      42.946  25.877  29.100  1.00  0.00     0.037 A 
ATOM     53  C   UNL A   1      42.745  30.163  34.025  1.00  0.00     0.049 A 
ATOM     54  C   UNL A   1      43.861  26.154  30.262  1.00  0.00     0.074 A 
ATOM     55  C   UNL A   1      43.637  30.297  35.072  1.00  0.00     0.029 A 
ATOM     56  N   UNL A   1      43.218  29.134  33.224  1.00  0.00    -0.354 N 
ATOM     57  N   UNL A   1      43.727  27.041  31.220  1.00  0.00    -0.248 NA
ATOM     58  C   UNL A   1      45.074  25.333  30.365  1.00  0.00     0.031 C 
ATOM     59  C   UNL A   1      44.668  29.368  34.890  1.00  0.00     0.029 A 
ATOM     60  C   UNL A   1      44.398  28.631  33.747  1.00  0.00     0.049 A 
ATOM     61  H   UNL A   1      42.779  28.808  32.405  1.00  0.00     0.167 HD
ATOM     62  C   UNL A   1      44.829  26.871  32.050  1.00  0.00     0.074 A 
ATOM     63  C   UNL A   1      45.612  25.789  31.489  1.00  0.00     0.031 C 
ATOM     64  C   UNL A   1      45.161  27.550  33.176  1.00  0.00     0.037 A 
BRANCH  51  65
ATOM     65  C   UNL A   1      41.206  32.063  34.678  1.00  0.00     0.058 A 
ATOM     66  C   UNL A   1      41.677  33.362  34.429  1.00  0.00     0.135 A 
ATOM     67  C   UNL A   1      40.395  31.865  35.806  1.00  0.00     0.135 A 
ATOM     68  F   UNL A   1      42.471  33.604  33.373  1.00  0.00    -0.206 F 
ATOM     69  C   UNL A   1      41.389  34.417  35.288  1.00  0.00     0.059 A 
ATOM     70  C   UNL A   1      40.071  32.912  36.664  1.00  0.00     0.059 A 
ATOM     71  F   UNL A   1      39.918  30.643  36.089  1.00  0.00    -0.206 F 
ATOM     72  C   UNL A   1      40.588  34.181  36.406  1.00  0.00     0.060 A 
BRANCH  72  73
ATOM     73  S   UNL A   1      40.233  35.555  37.522  1.00  0.00     0.124 S 
ATOM     74  O   UNL A   1      41.491  35.666  38.253  1.00  0.00    -0.237 OA
ATOM     75  O   UNL A   1      39.942  36.644  36.595  1.00  0.00    -0.237 OA
ATOM     76  O   UNL A   1      39.095  35.075  38.299  1.00  0.00    -0.744 OA
ENDBRANCH  72  73
ENDBRANCH  51  65
BRANCH  52  77
ATOM     77  C   UNL A   1      43.281  24.835  28.094  1.00  0.00     0.058 A 
ATOM     78  C   UNL A   1      43.948  25.170  26.908  1.00  0.00     0.135 A 
ATOM     79  C   UNL A   1      42.970  23.485  28.313  1.00  0.00     0.135 A 
ATOM     80  F   UNL A   1      44.262  26.450  26.653  1.00  0.00    -0.206 F 
ATOM     81  C   UNL A   1      44.291  24.204  25.967  1.00  0.00     0.059 A 
ATOM     82  C   UNL A   1      43.320  22.498  27.396  1.00  0.00     0.059 A 
ATOM     83  F   UNL A   1      42.347  23.112  29.441  1.00  0.00    -0.206 F 
ATOM     84  C   UNL A   1      43.975  22.869  26.222  1.00  0.00     0.060 A 
BRANCH  84  85
ATOM     85  S   UNL A   1      44.483  21.614  25.026  1.00  0.00     0.124 S 
ATOM     86  O   UNL A   1      43.443  20.607  25.198  1.00  0.00    -0.237 OA
ATOM     87  O   UNL A   1      44.453  22.357  23.770  1.00  0.00    -0.237 OA
ATOM     88  O   UNL A   1      45.815  21.233  25.487  1.00  0.00    -0.744 OA
ENDBRANCH  84  85
ENDBRANCH  52  77
BRANCH  64  89
ATOM     89  C   UNL A   1      46.412  27.127  33.892  1.00  0.00     0.058 A 
ATOM     90  C   UNL A   1      47.648  27.736  33.631  1.00  0.00     0.135 A 
ATOM     91  C   UNL A   1      46.360  26.142  34.892  1.00  0.00     0.135 A 
ATOM     92  F   UNL A   1      47.750  28.678  32.680  1.00  0.00    -0.206 F 
ATOM     93  C   UNL A   1      48.797  27.369  34.325  1.00  0.00     0.059 A 
ATOM     94  C   UNL A   1      47.491  25.777  35.614  1.00  0.00     0.059 A 
ATOM     95  F   UNL A   1      45.198  25.537  35.186  1.00  0.00    -0.206 F 
ATOM     96  C   UNL A   1      48.707  26.389  35.315  1.00  0.00     0.060 A 
BRANCH  96  97
ATOM     97  S   UNL A   1      50.197  25.948  36.237  1.00  0.00     0.124 S 
ATOM     98  O   UNL A   1      51.239  26.556  35.418  1.00  0.00    -0.237 OA
ATOM     99  O   UNL A   1      49.961  26.577  37.534  1.00  0.00    -0.237 OA
ATOM    100  O   UNL A   1      50.172  24.489  36.241  1.00  0.00    -0.744 OA
ENDBRANCH  96  97
ENDBRANCH  64  89
ENDBRANCH  38  39
ENDBRANCH  30  33
ENDBRANCH  28  29
ENDBRANCH  27  28
ENDBRANCH   1  27
TORSDOF 20
ENDMDL
