MODEL 1
REMARK VINA RESULT:     -12.4      0.000      0.000
REMARK SMILES Cc1cc(NC(=O)c2ccc3ncsc3c2)sc1C(=O)NCCCCNC(=O)c1ccc(-c2c3nc(c(-c4c(F)cc(S(=O)(=O)[O-])cc4F)c4ccc([nH]4)c(-c4c(F)cc(S(=O)(=O)[O-])cc4F)c4nc(c(-c5c(F)cc(S(=O)(=O)[O-])cc5F)c5ccc2[nH]5)C=C4)C=C3)cc1
REMARK SMILES IDX 24 1 23 2 22 3 21 4 19 5 20 6 18 8 1 9 2 10 3 11 4 12 17 13
REMARK SMILES IDX 5 14 6 15 7 17 8 18 9 19 16 20 10 21 15 22 11 23 14 24 12 25
REMARK SMILES IDX 13 26 25 27 26 28 27 29 28 31 29 32 30 33 94 34 31 35 93 36
REMARK SMILES IDX 32 37 33 38 34 39 87 40 35 41 92 42 86 43 88 44 36 45 91 46
REMARK SMILES IDX 85 47 84 48 37 50 71 51 50 52 70 53 51 54 54 55 69 56 89 57
REMARK SMILES IDX 52 58 53 59 68 61 90 62 55 63 38 64 39 65 48 66 40 67 41 68
REMARK SMILES IDX 47 69 49 70 42 71 43 72 44 73 45 74 46 75 72 76 73 77 82 78
REMARK SMILES IDX 74 79 75 80 81 81 83 82 76 83 77 84 78 85 79 86 80 87 56 88
REMARK SMILES IDX 57 89 66 90 58 91 59 92 65 93 67 94 60 95 61 96 62 97 63 98
REMARK SMILES IDX 64 99
REMARK H PARENT 21 7 5 16 26 30 88 49 54 60
REMARK Flexibility Score: inf
ROOT
ATOM      1  C   UNL A   1      33.844  28.363  25.734  1.00  0.00     0.023 C 
ENDROOT
BRANCH   1   2
ATOM      2  C   UNL A   1      33.202  29.383  24.799  1.00  0.00     0.023 C 
BRANCH   2   3
ATOM      3  C   UNL A   1      33.418  29.138  23.306  1.00  0.00     0.116 C 
BRANCH   3   4
ATOM      4  N   UNL A   1      32.171  29.113  22.583  1.00  0.00    -0.351 N 
ATOM      5  C   UNL A   1      31.134  28.221  22.493  1.00  0.00     0.261 C 
ATOM      6  O   UNL A   1      30.169  28.688  21.871  1.00  0.00    -0.268 OA
ATOM      7  H   UNL A   1      32.034  29.915  22.030  1.00  0.00     0.163 HD
BRANCH   5   8
ATOM      8  C   UNL A   1      31.118  26.854  23.037  1.00  0.00     0.097 A 
ATOM      9  C   UNL A   1      32.493  25.104  21.602  1.00  0.00     0.046 C 
ATOM     10  C   UNL A   1      31.582  25.584  22.677  1.00  0.00    -0.025 A 
ATOM     11  C   UNL A   1      30.999  24.573  23.506  1.00  0.00     0.042 A 
ATOM     12  C   UNL A   1      30.501  25.064  24.673  1.00  0.00     0.096 A 
ATOM     13  S   UNL A   1      30.244  26.722  24.569  1.00  0.00    -0.112 S 
BRANCH  12  14
ATOM     14  N   UNL A   1      30.177  24.457  25.863  1.00  0.00    -0.314 N 
ATOM     15  C   UNL A   1      31.012  23.649  26.617  1.00  0.00     0.256 C 
ATOM     16  H   UNL A   1      29.269  24.610  26.211  1.00  0.00     0.171 HD
ATOM     17  O   UNL A   1      30.591  22.992  27.565  1.00  0.00    -0.269 OA
BRANCH  15  18
ATOM     18  C   UNL A   1      32.467  23.614  26.321  1.00  0.00     0.041 A 
ATOM     19  C   UNL A   1      33.191  24.809  26.248  1.00  0.00     0.016 A 
ATOM     20  C   UNL A   1      33.052  22.384  25.987  1.00  0.00     0.035 A 
ATOM     21  C   UNL A   1      34.495  24.809  25.741  1.00  0.00     0.030 A 
ATOM     22  C   UNL A   1      34.353  22.410  25.452  1.00  0.00     0.055 A 
ATOM     23  C   UNL A   1      35.077  23.599  25.308  1.00  0.00     0.081 A 
ATOM     24  S   UNL A   1      35.299  21.106  24.835  1.00  0.00    -0.122 S 
ATOM     25  N   UNL A   1      36.318  23.471  24.710  1.00  0.00    -0.245 NA
ATOM     26  C   UNL A   1      36.534  22.213  24.407  1.00  0.00     0.176 A 
ENDBRANCH  15  18
ENDBRANCH  12  14
ENDBRANCH   5   8
ENDBRANCH   3   4
ENDBRANCH   2   3
ENDBRANCH   1   2
BRANCH   1  27
ATOM     27  C   UNL A   1      33.519  28.565  27.209  1.00  0.00     0.116 C 
BRANCH  27  28
ATOM     28  N   UNL A   1      33.499  29.958  27.636  1.00  0.00    -0.352 N 
ATOM     29  C   UNL A   1      34.540  30.693  28.160  1.00  0.00     0.251 C 
ATOM     30  H   UNL A   1      32.640  30.430  27.540  1.00  0.00     0.163 HD
ATOM     31  O   UNL A   1      34.370  31.844  28.535  1.00  0.00    -0.269 OA
BRANCH  29  32
ATOM     32  C   UNL A   1      35.852  30.031  28.314  1.00  0.00     0.039 A 
ATOM     33  C   UNL A   1      36.753  30.069  27.249  1.00  0.00     0.014 A 
ATOM     34  C   UNL A   1      36.223  29.488  29.547  1.00  0.00     0.014 A 
ATOM     35  C   UNL A   1      38.066  29.645  27.451  1.00  0.00     0.010 A 
ATOM     36  C   UNL A   1      37.549  29.143  29.767  1.00  0.00     0.010 A 
ATOM     37  C   UNL A   1      38.486  29.229  28.726  1.00  0.00    -0.014 A 
BRANCH  37  38
ATOM     38  C   UNL A   1      39.905  28.894  29.002  1.00  0.00     0.031 A 
ATOM     39  C   UNL A   1      40.822  29.938  29.574  1.00  0.00     0.074 A 
ATOM     40  C   UNL A   1      40.384  27.684  28.652  1.00  0.00     0.049 A 
ATOM     41  N   UNL A   1      42.109  29.877  29.789  1.00  0.00    -0.248 NA
ATOM     42  C   UNL A   1      40.216  31.237  29.914  1.00  0.00     0.031 C 
ATOM     43  C   UNL A   1      39.606  26.610  28.028  1.00  0.00     0.029 A 
ATOM     44  N   UNL A   1      41.646  27.157  28.757  1.00  0.00    -0.354 N 
ATOM     45  C   UNL A   1      42.472  31.130  30.267  1.00  0.00     0.074 A 
ATOM     46  C   UNL A   1      41.279  31.947  30.262  1.00  0.00     0.031 C 
ATOM     47  C   UNL A   1      40.403  25.547  27.826  1.00  0.00     0.029 A 
ATOM     48  C   UNL A   1      41.753  25.873  28.277  1.00  0.00     0.049 A 
ATOM     49  H   UNL A   1      42.406  27.652  29.141  1.00  0.00     0.167 HD
ATOM     50  C   UNL A   1      43.684  31.553  30.694  1.00  0.00     0.037 A 
ATOM     51  C   UNL A   1      42.819  25.052  28.205  1.00  0.00     0.037 A 
ATOM     52  C   UNL A   1      44.857  30.722  30.737  1.00  0.00     0.049 A 
ATOM     53  C   UNL A   1      44.147  25.531  28.725  1.00  0.00     0.074 A 
ATOM     54  C   UNL A   1      46.118  31.035  31.212  1.00  0.00     0.029 A 
ATOM     55  N   UNL A   1      44.911  29.409  30.293  1.00  0.00    -0.354 N 
ATOM     56  N   UNL A   1      44.458  26.700  29.231  1.00  0.00    -0.248 NA
ATOM     57  C   UNL A   1      45.265  24.579  28.673  1.00  0.00     0.031 C 
ATOM     58  C   UNL A   1      46.941  29.919  31.034  1.00  0.00     0.029 A 
ATOM     59  C   UNL A   1      46.183  28.899  30.479  1.00  0.00     0.049 A 
ATOM     60  H   UNL A   1      44.155  28.912  29.904  1.00  0.00     0.167 HD
ATOM     61  C   UNL A   1      45.799  26.616  29.584  1.00  0.00     0.074 A 
ATOM     62  C   UNL A   1      46.240  25.279  29.238  1.00  0.00     0.031 C 
ATOM     63  C   UNL A   1      46.596  27.559  30.144  1.00  0.00     0.037 A 
BRANCH  50  64
ATOM     64  C   UNL A   1      43.793  32.976  31.163  1.00  0.00     0.058 A 
ATOM     65  C   UNL A   1      44.153  34.011  30.285  1.00  0.00     0.135 A 
ATOM     66  C   UNL A   1      43.521  33.313  32.498  1.00  0.00     0.135 A 
ATOM     67  F   UNL A   1      44.442  33.740  29.002  1.00  0.00    -0.206 F 
ATOM     68  C   UNL A   1      44.273  35.326  30.721  1.00  0.00     0.059 A 
ATOM     69  C   UNL A   1      43.608  34.626  32.951  1.00  0.00     0.059 A 
ATOM     70  F   UNL A   1      43.174  32.361  33.379  1.00  0.00    -0.206 F 
ATOM     71  C   UNL A   1      44.002  35.623  32.058  1.00  0.00     0.060 A 
BRANCH  71  72
ATOM     72  S   UNL A   1      44.167  37.332  32.613  1.00  0.00     0.124 S 
ATOM     73  O   UNL A   1      43.953  38.063  31.367  1.00  0.00    -0.237 OA
ATOM     74  O   UNL A   1      43.101  37.445  33.604  1.00  0.00    -0.237 OA
ATOM     75  O   UNL A   1      45.524  37.385  33.148  1.00  0.00    -0.744 OA
ENDBRANCH  71  72
ENDBRANCH  50  64
BRANCH  51  76
ATOM     76  C   UNL A   1      42.664  23.680  27.656  1.00  0.00     0.058 A 
ATOM     77  C   UNL A   1      42.420  22.591  28.504  1.00  0.00     0.135 A 
ATOM     78  C   UNL A   1      42.739  23.432  26.276  1.00  0.00     0.135 A 
ATOM     79  F   UNL A   1      42.343  22.779  29.830  1.00  0.00    -0.206 F 
ATOM     80  C   UNL A   1      42.270  21.300  28.009  1.00  0.00     0.059 A 
ATOM     81  C   UNL A   1      42.573  22.153  25.755  1.00  0.00     0.059 A 
ATOM     82  F   UNL A   1      42.953  24.444  25.422  1.00  0.00    -0.206 F 
ATOM     83  C   UNL A   1      42.347  21.091  26.631  1.00  0.00     0.060 A 
BRANCH  83  84
ATOM     84  S   UNL A   1      42.099  19.420  25.992  1.00  0.00     0.124 S 
ATOM     85  O   UNL A   1      42.573  18.607  27.105  1.00  0.00    -0.237 OA
ATOM     86  O   UNL A   1      40.660  19.393  25.747  1.00  0.00    -0.237 OA
ATOM     87  O   UNL A   1      42.930  19.397  24.791  1.00  0.00    -0.744 OA
ENDBRANCH  83  84
ENDBRANCH  51  76
BRANCH  63  88
ATOM     88  C   UNL A   1      48.012  27.172  30.457  1.00  0.00     0.058 A 
ATOM     89  C   UNL A   1      49.058  27.421  29.558  1.00  0.00     0.135 A 
ATOM     90  C   UNL A   1      48.332  26.605  31.702  1.00  0.00     0.135 A 
ATOM     91  F   UNL A   1      48.801  27.955  28.353  1.00  0.00    -0.206 F 
ATOM     92  C   UNL A   1      50.376  27.110  29.875  1.00  0.00     0.059 A 
ATOM     93  C   UNL A   1      49.645  26.306  32.049  1.00  0.00     0.059 A 
ATOM     94  F   UNL A   1      47.365  26.356  32.599  1.00  0.00    -0.206 F 
ATOM     95  C   UNL A   1      50.659  26.554  31.126  1.00  0.00     0.060 A 
BRANCH  95  96
ATOM     96  S   UNL A   1      52.378  26.199  31.548  1.00  0.00     0.124 S 
ATOM     97  O   UNL A   1      53.026  26.293  30.244  1.00  0.00    -0.237 OA
ATOM     98  O   UNL A   1      52.698  27.267  32.492  1.00  0.00    -0.237 OA
ATOM     99  O   UNL A   1      52.315  24.860  32.125  1.00  0.00    -0.744 OA
ENDBRANCH  95  96
ENDBRANCH  63  88
ENDBRANCH  37  38
ENDBRANCH  29  32
ENDBRANCH  27  28
ENDBRANCH   1  27
TORSDOF 16
ENDMDL
MODEL 2
REMARK VINA RESULT:     -11.5      2.772      3.680
REMARK SMILES Cc1cc(NC(=O)c2ccc3ncsc3c2)sc1C(=O)NCCCCNC(=O)c1ccc(-c2c3nc(c(-c4c(F)cc(S(=O)(=O)[O-])cc4F)c4ccc([nH]4)c(-c4c(F)cc(S(=O)(=O)[O-])cc4F)c4nc(c(-c5c(F)cc(S(=O)(=O)[O-])cc5F)c5ccc2[nH]5)C=C4)C=C3)cc1
REMARK SMILES IDX 24 1 23 2 22 3 21 4 19 5 20 6 18 8 1 9 2 10 3 11 4 12 17 13
REMARK SMILES IDX 5 14 6 15 7 17 8 18 9 19 16 20 10 21 15 22 11 23 14 24 12 25
REMARK SMILES IDX 13 26 25 27 26 28 27 29 28 31 29 32 30 33 94 34 31 35 93 36
REMARK SMILES IDX 32 37 33 38 34 39 87 40 35 41 92 42 86 43 88 44 36 45 91 46
REMARK SMILES IDX 85 47 84 48 37 50 71 51 50 52 70 53 51 54 54 55 69 56 89 57
REMARK SMILES IDX 52 58 53 59 68 61 90 62 55 63 38 64 39 65 48 66 40 67 41 68
REMARK SMILES IDX 47 69 49 70 42 71 43 72 44 73 45 74 46 75 72 76 73 77 82 78
REMARK SMILES IDX 74 79 75 80 81 81 83 82 76 83 77 84 78 85 79 86 80 87 56 88
REMARK SMILES IDX 57 89 66 90 58 91 59 92 65 93 67 94 60 95 61 96 62 97 63 98
REMARK SMILES IDX 64 99
REMARK H PARENT 21 7 5 16 26 30 88 49 54 60
REMARK Flexibility Score: inf
ROOT
ATOM      1  C   UNL A   1      34.532  31.789  27.670  1.00  0.00     0.023 C 
ENDROOT
BRANCH   1   2
ATOM      2  C   UNL A   1      33.741  30.486  27.605  1.00  0.00     0.023 C 
BRANCH   2   3
ATOM      3  C   UNL A   1      32.900  30.285  26.346  1.00  0.00     0.116 C 
BRANCH   3   4
ATOM      4  N   UNL A   1      33.631  29.585  25.320  1.00  0.00    -0.351 N 
ATOM      5  C   UNL A   1      33.345  28.532  24.489  1.00  0.00     0.261 C 
ATOM      6  O   UNL A   1      34.223  28.363  23.630  1.00  0.00    -0.268 OA
ATOM      7  H   UNL A   1      34.539  29.941  25.186  1.00  0.00     0.163 HD
BRANCH   5   8
ATOM      8  C   UNL A   1      32.161  27.663  24.569  1.00  0.00     0.097 A 
ATOM      9  C   UNL A   1      30.986  27.220  22.238  1.00  0.00     0.046 C 
ATOM     10  C   UNL A   1      31.164  27.180  23.715  1.00  0.00    -0.025 A 
ATOM     11  C   UNL A   1      30.100  26.578  24.461  1.00  0.00     0.042 A 
ATOM     12  C   UNL A   1      30.468  26.227  25.723  1.00  0.00     0.096 A 
ATOM     13  S   UNL A   1      31.851  27.053  26.200  1.00  0.00    -0.112 S 
BRANCH  12  14
ATOM     14  N   UNL A   1      29.916  25.358  26.634  1.00  0.00    -0.314 N 
ATOM     15  C   UNL A   1      30.174  24.000  26.721  1.00  0.00     0.256 C 
ATOM     16  H   UNL A   1      29.280  25.735  27.283  1.00  0.00     0.171 HD
ATOM     17  O   UNL A   1      29.502  23.260  27.434  1.00  0.00    -0.269 OA
BRANCH  15  18
ATOM     18  C   UNL A   1      31.327  23.420  25.987  1.00  0.00     0.041 A 
ATOM     19  C   UNL A   1      31.143  22.904  24.699  1.00  0.00     0.016 A 
ATOM     20  C   UNL A   1      32.548  23.281  26.662  1.00  0.00     0.035 A 
ATOM     21  C   UNL A   1      32.153  22.147  24.097  1.00  0.00     0.030 A 
ATOM     22  C   UNL A   1      33.540  22.492  26.051  1.00  0.00     0.055 A 
ATOM     23  C   UNL A   1      33.358  21.910  24.790  1.00  0.00     0.081 A 
ATOM     24  S   UNL A   1      35.086  22.027  26.659  1.00  0.00    -0.122 S 
ATOM     25  N   UNL A   1      34.399  21.112  24.349  1.00  0.00    -0.245 NA
ATOM     26  C   UNL A   1      35.350  21.088  25.252  1.00  0.00     0.176 A 
ENDBRANCH  15  18
ENDBRANCH  12  14
ENDBRANCH   5   8
ENDBRANCH   3   4
ENDBRANCH   2   3
ENDBRANCH   1   2
BRANCH   1  27
ATOM     27  C   UNL A   1      35.766  31.736  28.562  1.00  0.00     0.116 C 
BRANCH  27  28
ATOM     28  N   UNL A   1      35.560  31.059  29.836  1.00  0.00    -0.352 N 
ATOM     29  C   UNL A   1      36.486  30.355  30.574  1.00  0.00     0.251 C 
ATOM     30  H   UNL A   1      34.652  31.110  30.213  1.00  0.00     0.163 HD
ATOM     31  O   UNL A   1      36.163  29.782  31.605  1.00  0.00    -0.269 OA
BRANCH  29  32
ATOM     32  C   UNL A   1      37.865  30.259  30.052  1.00  0.00     0.039 A 
ATOM     33  C   UNL A   1      38.931  30.465  30.930  1.00  0.00     0.014 A 
ATOM     34  C   UNL A   1      38.090  29.848  28.737  1.00  0.00     0.014 A 
ATOM     35  C   UNL A   1      40.227  30.164  30.511  1.00  0.00     0.010 A 
ATOM     36  C   UNL A   1      39.370  29.474  28.350  1.00  0.00     0.010 A 
ATOM     37  C   UNL A   1      40.448  29.617  29.236  1.00  0.00    -0.014 A 
BRANCH  37  38
ATOM     38  C   UNL A   1      41.797  29.170  28.809  1.00  0.00     0.031 A 
ATOM     39  C   UNL A   1      42.918  30.165  28.713  1.00  0.00     0.074 A 
ATOM     40  C   UNL A   1      41.984  27.892  28.422  1.00  0.00     0.049 A 
ATOM     41  N   UNL A   1      44.134  29.997  28.265  1.00  0.00    -0.248 NA
ATOM     42  C   UNL A   1      42.620  31.542  29.143  1.00  0.00     0.031 C 
ATOM     43  C   UNL A   1      40.955  26.849  28.409  1.00  0.00     0.029 A 
ATOM     44  N   UNL A   1      43.104  27.255  27.952  1.00  0.00    -0.354 N 
ATOM     45  C   UNL A   1      44.739  31.245  28.337  1.00  0.00     0.074 A 
ATOM     46  C   UNL A   1      43.741  32.172  28.824  1.00  0.00     0.031 C 
ATOM     47  C   UNL A   1      41.497  25.699  27.974  1.00  0.00     0.029 A 
ATOM     48  C   UNL A   1      42.901  25.929  27.648  1.00  0.00     0.049 A 
ATOM     49  H   UNL A   1      43.973  27.705  27.841  1.00  0.00     0.167 HD
ATOM     50  C   UNL A   1      46.017  31.584  28.048  1.00  0.00     0.037 A 
ATOM     51  C   UNL A   1      43.751  25.005  27.160  1.00  0.00     0.037 A 
ATOM     52  C   UNL A   1      47.017  30.648  27.606  1.00  0.00     0.049 A 
ATOM     53  C   UNL A   1      45.178  25.395  26.886  1.00  0.00     0.074 A 
ATOM     54  C   UNL A   1      48.356  30.877  27.348  1.00  0.00     0.029 A 
ATOM     55  N   UNL A   1      46.785  29.302  27.364  1.00  0.00    -0.354 N 
ATOM     56  N   UNL A   1      45.749  26.567  27.018  1.00  0.00    -0.248 NA
ATOM     57  C   UNL A   1      46.077  24.337  26.405  1.00  0.00     0.031 C 
ATOM     58  C   UNL A   1      48.930  29.674  26.926  1.00  0.00     0.029 A 
ATOM     59  C   UNL A   1      47.956  28.688  26.955  1.00  0.00     0.049 A 
ATOM     60  H   UNL A   1      45.917  28.850  27.468  1.00  0.00     0.167 HD
ATOM     61  C   UNL A   1      47.080  26.384  26.665  1.00  0.00     0.074 A 
ATOM     62  C   UNL A   1      47.231  24.984  26.317  1.00  0.00     0.031 C 
ATOM     63  C   UNL A   1      48.088  27.290  26.631  1.00  0.00     0.037 A 
BRANCH  50  64
ATOM     64  C   UNL A   1      46.405  33.025  28.217  1.00  0.00     0.058 A 
ATOM     65  C   UNL A   1      46.900  33.511  29.438  1.00  0.00     0.135 A 
ATOM     66  C   UNL A   1      46.296  33.926  27.147  1.00  0.00     0.135 A 
ATOM     67  F   UNL A   1      47.007  32.695  30.499  1.00  0.00    -0.206 F 
ATOM     68  C   UNL A   1      47.243  34.849  29.602  1.00  0.00     0.059 A 
ATOM     69  C   UNL A   1      46.658  35.264  27.280  1.00  0.00     0.059 A 
ATOM     70  F   UNL A   1      45.827  33.513  25.959  1.00  0.00    -0.206 F 
ATOM     71  C   UNL A   1      47.114  35.719  28.518  1.00  0.00     0.060 A 
BRANCH  71  72
ATOM     72  S   UNL A   1      47.556  37.454  28.745  1.00  0.00     0.124 S 
ATOM     73  O   UNL A   1      47.034  38.049  27.519  1.00  0.00    -0.237 OA
ATOM     74  O   UNL A   1      46.843  37.802  29.971  1.00  0.00    -0.237 OA
ATOM     75  O   UNL A   1      49.011  37.421  28.858  1.00  0.00    -0.744 OA
ENDBRANCH  71  72
ENDBRANCH  50  64
BRANCH  51  76
ATOM     76  C   UNL A   1      43.285  23.611  26.937  1.00  0.00     0.058 A 
ATOM     77  C   UNL A   1      43.055  23.130  25.641  1.00  0.00     0.135 A 
ATOM     78  C   UNL A   1      43.078  22.729  28.009  1.00  0.00     0.135 A 
ATOM     79  F   UNL A   1      43.237  23.938  24.585  1.00  0.00    -0.206 F 
ATOM     80  C   UNL A   1      42.622  21.829  25.412  1.00  0.00     0.059 A 
ATOM     81  C   UNL A   1      42.664  21.417  27.805  1.00  0.00     0.059 A 
ATOM     82  F   UNL A   1      43.302  23.137  29.268  1.00  0.00    -0.206 F 
ATOM     83  C   UNL A   1      42.429  20.978  26.502  1.00  0.00     0.060 A 
BRANCH  83  84
ATOM     84  S   UNL A   1      41.916  19.274  26.193  1.00  0.00     0.124 S 
ATOM     85  O   UNL A   1      42.701  18.942  25.010  1.00  0.00    -0.237 OA
ATOM     86  O   UNL A   1      42.309  18.604  27.429  1.00  0.00    -0.237 OA
ATOM     87  O   UNL A   1      40.476  19.393  25.986  1.00  0.00    -0.744 OA
ENDBRANCH  83  84
ENDBRANCH  51  76
BRANCH  63  88
ATOM     88  C   UNL A   1      49.451  26.795  26.244  1.00  0.00     0.058 A 
ATOM     89  C   UNL A   1      49.934  26.916  24.934  1.00  0.00     0.135 A 
ATOM     90  C   UNL A   1      50.308  26.252  27.215  1.00  0.00     0.135 A 
ATOM     91  F   UNL A   1      49.148  27.422  23.969  1.00  0.00    -0.206 F 
ATOM     92  C   UNL A   1      51.217  26.506  24.593  1.00  0.00     0.059 A 
ATOM     93  C   UNL A   1      51.604  25.855  26.902  1.00  0.00     0.059 A 
ATOM     94  F   UNL A   1      49.895  26.123  28.486  1.00  0.00    -0.206 F 
ATOM     95  C   UNL A   1      52.046  25.977  25.586  1.00  0.00     0.060 A 
BRANCH  95  96
ATOM     96  S   UNL A   1      53.728  25.493  25.145  1.00  0.00     0.124 S 
ATOM     97  O   UNL A   1      54.513  26.214  26.142  1.00  0.00    -0.237 OA
ATOM     98  O   UNL A   1      53.690  24.041  25.299  1.00  0.00    -0.237 OA
ATOM     99  O   UNL A   1      53.868  25.967  23.771  1.00  0.00    -0.744 OA
ENDBRANCH  95  96
ENDBRANCH  63  88
ENDBRANCH  37  38
ENDBRANCH  29  32
ENDBRANCH  27  28
ENDBRANCH   1  27
TORSDOF 16
ENDMDL
MODEL 3
REMARK VINA RESULT:     -11.4      4.554     10.283
REMARK SMILES Cc1cc(NC(=O)c2ccc3ncsc3c2)sc1C(=O)NCCCCNC(=O)c1ccc(-c2c3nc(c(-c4c(F)cc(S(=O)(=O)[O-])cc4F)c4ccc([nH]4)c(-c4c(F)cc(S(=O)(=O)[O-])cc4F)c4nc(c(-c5c(F)cc(S(=O)(=O)[O-])cc5F)c5ccc2[nH]5)C=C4)C=C3)cc1
REMARK SMILES IDX 24 1 23 2 22 3 21 4 19 5 20 6 18 8 1 9 2 10 3 11 4 12 17 13
REMARK SMILES IDX 5 14 6 15 7 17 8 18 9 19 16 20 10 21 15 22 11 23 14 24 12 25
REMARK SMILES IDX 13 26 25 27 26 28 27 29 28 31 29 32 30 33 94 34 31 35 93 36
REMARK SMILES IDX 32 37 33 38 34 39 87 40 35 41 92 42 86 43 88 44 36 45 91 46
REMARK SMILES IDX 85 47 84 48 37 50 71 51 50 52 70 53 51 54 54 55 69 56 89 57
REMARK SMILES IDX 52 58 53 59 68 61 90 62 55 63 38 64 39 65 48 66 40 67 41 68
REMARK SMILES IDX 47 69 49 70 42 71 43 72 44 73 45 74 46 75 72 76 73 77 82 78
REMARK SMILES IDX 74 79 75 80 81 81 83 82 76 83 77 84 78 85 79 86 80 87 56 88
REMARK SMILES IDX 57 89 66 90 58 91 59 92 65 93 67 94 60 95 61 96 62 97 63 98
REMARK SMILES IDX 64 99
REMARK H PARENT 21 7 5 16 26 30 88 49 54 60
REMARK Flexibility Score: inf
ROOT
ATOM      1  C   UNL A   1      38.997  22.896  26.200  1.00  0.00     0.023 C 
ENDROOT
BRANCH   1   2
ATOM      2  C   UNL A   1      37.949  24.004  26.207  1.00  0.00     0.023 C 
BRANCH   2   3
ATOM      3  C   UNL A   1      36.495  23.538  26.139  1.00  0.00     0.116 C 
BRANCH   3   4
ATOM      4  N   UNL A   1      36.397  22.123  25.885  1.00  0.00    -0.351 N 
ATOM      5  C   UNL A   1      35.603  21.346  25.081  1.00  0.00     0.261 C 
ATOM      6  O   UNL A   1      35.982  20.166  25.050  1.00  0.00    -0.268 OA
ATOM      7  H   UNL A   1      37.045  21.596  26.406  1.00  0.00     0.163 HD
BRANCH   5   8
ATOM      8  C   UNL A   1      34.421  21.801  24.333  1.00  0.00     0.097 A 
ATOM      9  C   UNL A   1      32.144  20.726  25.153  1.00  0.00     0.046 C 
ATOM     10  C   UNL A   1      33.050  21.527  24.285  1.00  0.00    -0.025 A 
ATOM     11  C   UNL A   1      32.452  22.114  23.123  1.00  0.00     0.042 A 
ATOM     12  C   UNL A   1      33.200  23.119  22.591  1.00  0.00     0.096 A 
ATOM     13  S   UNL A   1      34.796  23.024  23.111  1.00  0.00    -0.112 S 
BRANCH  12  14
ATOM     14  N   UNL A   1      32.886  24.143  21.730  1.00  0.00    -0.314 N 
ATOM     15  C   UNL A   1      32.181  25.290  22.055  1.00  0.00     0.256 C 
ATOM     16  H   UNL A   1      33.189  24.052  20.798  1.00  0.00     0.171 HD
ATOM     17  O   UNL A   1      31.776  26.065  21.193  1.00  0.00    -0.269 OA
BRANCH  15  18
ATOM     18  C   UNL A   1      31.954  25.637  23.481  1.00  0.00     0.041 A 
ATOM     19  C   UNL A   1      30.731  25.325  24.086  1.00  0.00     0.016 A 
ATOM     20  C   UNL A   1      32.928  26.394  24.149  1.00  0.00     0.035 A 
ATOM     21  C   UNL A   1      30.417  25.853  25.343  1.00  0.00     0.030 A 
ATOM     22  C   UNL A   1      32.580  26.938  25.398  1.00  0.00     0.055 A 
ATOM     23  C   UNL A   1      31.339  26.696  25.998  1.00  0.00     0.081 A 
ATOM     24  S   UNL A   1      33.487  28.001  26.411  1.00  0.00    -0.122 S 
ATOM     25  N   UNL A   1      31.120  27.350  27.198  1.00  0.00    -0.245 NA
ATOM     26  C   UNL A   1      32.172  28.072  27.504  1.00  0.00     0.176 A 
ENDBRANCH  15  18
ENDBRANCH  12  14
ENDBRANCH   5   8
ENDBRANCH   3   4
ENDBRANCH   2   3
ENDBRANCH   1   2
BRANCH   1  27
ATOM     27  C   UNL A   1      40.264  23.219  26.980  1.00  0.00     0.116 C 
BRANCH  27  28
ATOM     28  N   UNL A   1      41.398  23.613  26.153  1.00  0.00    -0.352 N 
ATOM     29  C   UNL A   1      42.060  24.821  26.151  1.00  0.00     0.251 C 
ATOM     30  H   UNL A   1      41.729  22.935  25.520  1.00  0.00     0.163 HD
ATOM     31  O   UNL A   1      42.964  25.041  25.358  1.00  0.00    -0.269 OA
BRANCH  29  32
ATOM     32  C   UNL A   1      41.604  25.866  27.091  1.00  0.00     0.039 A 
ATOM     33  C   UNL A   1      40.720  25.511  28.112  1.00  0.00     0.014 A 
ATOM     34  C   UNL A   1      42.149  27.151  27.030  1.00  0.00     0.014 A 
ATOM     35  C   UNL A   1      40.453  26.425  29.131  1.00  0.00     0.010 A 
ATOM     36  C   UNL A   1      41.945  28.027  28.087  1.00  0.00     0.010 A 
ATOM     37  C   UNL A   1      41.106  27.669  29.153  1.00  0.00    -0.014 A 
BRANCH  37  38
ATOM     38  C   UNL A   1      40.941  28.609  30.289  1.00  0.00     0.031 A 
ATOM     39  C   UNL A   1      41.798  28.459  31.514  1.00  0.00     0.074 A 
ATOM     40  C   UNL A   1      39.960  29.533  30.253  1.00  0.00     0.049 A 
ATOM     41  N   UNL A   1      41.740  29.109  32.646  1.00  0.00    -0.248 NA
ATOM     42  C   UNL A   1      42.836  27.415  31.472  1.00  0.00     0.031 C 
ATOM     43  C   UNL A   1      39.020  29.731  29.146  1.00  0.00     0.029 A 
ATOM     44  N   UNL A   1      39.579  30.470  31.179  1.00  0.00    -0.354 N 
ATOM     45  C   UNL A   1      42.713  28.540  33.458  1.00  0.00     0.074 A 
ATOM     46  C   UNL A   1      43.313  27.459  32.707  1.00  0.00     0.031 C 
ATOM     47  C   UNL A   1      38.187  30.741  29.449  1.00  0.00     0.029 A 
ATOM     48  C   UNL A   1      38.512  31.241  30.781  1.00  0.00     0.049 A 
ATOM     49  H   UNL A   1      40.029  30.582  32.048  1.00  0.00     0.167 HD
ATOM     50  C   UNL A   1      43.089  28.901  34.707  1.00  0.00     0.037 A 
ATOM     51  C   UNL A   1      37.866  32.236  31.420  1.00  0.00     0.037 A 
ATOM     52  C   UNL A   1      42.518  30.004  35.432  1.00  0.00     0.049 A 
ATOM     53  C   UNL A   1      38.330  32.647  32.791  1.00  0.00     0.074 A 
ATOM     54  C   UNL A   1      42.872  30.493  36.676  1.00  0.00     0.029 A 
ATOM     55  N   UNL A   1      41.476  30.796  34.972  1.00  0.00    -0.354 N 
ATOM     56  N   UNL A   1      39.293  32.137  33.520  1.00  0.00    -0.248 NA
ATOM     57  C   UNL A   1      37.627  33.772  33.422  1.00  0.00     0.031 C 
ATOM     58  C   UNL A   1      42.028  31.566  36.980  1.00  0.00     0.029 A 
ATOM     59  C   UNL A   1      41.171  31.767  35.909  1.00  0.00     0.049 A 
ATOM     60  H   UNL A   1      41.020  30.684  34.106  1.00  0.00     0.167 HD
ATOM     61  C   UNL A   1      39.332  32.896  34.683  1.00  0.00     0.074 A 
ATOM     62  C   UNL A   1      38.297  33.904  34.559  1.00  0.00     0.031 C 
ATOM     63  C   UNL A   1      40.149  32.772  35.757  1.00  0.00     0.037 A 
BRANCH  50  64
ATOM     64  C   UNL A   1      44.181  28.101  35.358  1.00  0.00     0.058 A 
ATOM     65  C   UNL A   1      45.534  28.438  35.193  1.00  0.00     0.135 A 
ATOM     66  C   UNL A   1      43.874  26.995  36.166  1.00  0.00     0.135 A 
ATOM     67  F   UNL A   1      45.883  29.475  34.415  1.00  0.00    -0.206 F 
ATOM     68  C   UNL A   1      46.547  27.687  35.780  1.00  0.00     0.059 A 
ATOM     69  C   UNL A   1      44.870  26.245  36.785  1.00  0.00     0.059 A 
ATOM     70  F   UNL A   1      42.597  26.629  36.355  1.00  0.00    -0.206 F 
ATOM     71  C   UNL A   1      46.205  26.590  36.571  1.00  0.00     0.060 A 
BRANCH  71  72
ATOM     72  S   UNL A   1      47.529  25.620  37.322  1.00  0.00     0.124 S 
ATOM     73  O   UNL A   1      46.780  24.777  38.249  1.00  0.00    -0.237 OA
ATOM     74  O   UNL A   1      48.109  24.935  36.170  1.00  0.00    -0.237 OA
ATOM     75  O   UNL A   1      48.381  26.632  37.940  1.00  0.00    -0.744 OA
ENDBRANCH  71  72
ENDBRANCH  50  64
BRANCH  51  76
ATOM     76  C   UNL A   1      36.738  32.938  30.754  1.00  0.00     0.058 A 
ATOM     77  C   UNL A   1      36.978  33.915  29.778  1.00  0.00     0.135 A 
ATOM     78  C   UNL A   1      35.403  32.635  31.064  1.00  0.00     0.135 A 
ATOM     79  F   UNL A   1      38.239  34.240  29.451  1.00  0.00    -0.206 F 
ATOM     80  C   UNL A   1      35.937  34.581  29.141  1.00  0.00     0.059 A 
ATOM     81  C   UNL A   1      34.344  33.273  30.426  1.00  0.00     0.059 A 
ATOM     82  F   UNL A   1      35.122  31.694  31.978  1.00  0.00    -0.206 F 
ATOM     83  C   UNL A   1      34.621  34.252  29.472  1.00  0.00     0.060 A 
BRANCH  83  84
ATOM     84  S   UNL A   1      33.274  35.085  28.603  1.00  0.00     0.124 S 
ATOM     85  O   UNL A   1      32.548  35.700  29.708  1.00  0.00    -0.237 OA
ATOM     86  O   UNL A   1      33.993  36.000  27.722  1.00  0.00    -0.237 OA
ATOM     87  O   UNL A   1      32.587  33.988  27.927  1.00  0.00    -0.744 OA
ENDBRANCH  83  84
ENDBRANCH  51  76
BRANCH  63  88
ATOM     88  C   UNL A   1      39.990  33.769  36.867  1.00  0.00     0.058 A 
ATOM     89  C   UNL A   1      40.642  35.011  36.841  1.00  0.00     0.135 A 
ATOM     90  C   UNL A   1      39.121  33.503  37.938  1.00  0.00     0.135 A 
ATOM     91  F   UNL A   1      41.488  35.308  35.841  1.00  0.00    -0.206 F 
ATOM     92  C   UNL A   1      40.448  35.953  37.845  1.00  0.00     0.059 A 
ATOM     93  C   UNL A   1      38.895  34.439  38.942  1.00  0.00     0.059 A 
ATOM     94  F   UNL A   1      38.467  32.332  38.003  1.00  0.00    -0.206 F 
ATOM     95  C   UNL A   1      39.570  35.657  38.891  1.00  0.00     0.060 A 
BRANCH  95  96
ATOM     96  S   UNL A   1      39.287  36.906  40.164  1.00  0.00     0.124 S 
ATOM     97  O   UNL A   1      38.379  36.204  41.066  1.00  0.00    -0.237 OA
ATOM     98  O   UNL A   1      40.633  37.143  40.679  1.00  0.00    -0.237 OA
ATOM     99  O   UNL A   1      38.702  38.019  39.423  1.00  0.00    -0.744 OA
ENDBRANCH  95  96
ENDBRANCH  63  88
ENDBRANCH  37  38
ENDBRANCH  29  32
ENDBRANCH  27  28
ENDBRANCH   1  27
TORSDOF 16
ENDMDL
