MODEL 1
REMARK VINA RESULT:     -12.9      0.000      0.000
REMARK SMILES O=C1[NH+]=C(Nc2ccc(C(=O)NCCCCNC(=O)c3ccc(-c4c5nc(c(-c6c(F)cc(S(=O)(=O)[O-])cc6F)c6ccc([nH]6)c(-c6c(F)cc(S(=O)(=O)[O-])cc6F)c6nc(c(-c7c(F)cc(S(=O)(=O)[O-])cc7F)c7ccc4[nH]7)C=C6)C=C5)cc3)c(O)c2)S/C1=C\c1ccncc1
REMARK SMILES IDX 15 1 14 2 13 3 12 4 10 5 11 6 9 8 6 9 7 10 88 11 8 12 86 13
REMARK SMILES IDX 5 14 1 15 2 16 3 17 90 18 4 19 89 21 91 22 92 24 93 25 97 26
REMARK SMILES IDX 94 27 96 28 95 29 87 30 16 32 17 33 18 34 19 36 20 37 21 38
REMARK SMILES IDX 85 39 22 40 84 41 23 42 24 43 25 44 78 45 26 46 83 47 77 48
REMARK SMILES IDX 79 49 27 50 82 51 76 52 75 53 28 55 62 56 41 57 61 58 42 59
REMARK SMILES IDX 45 60 60 61 80 62 43 63 44 64 59 66 81 67 46 68 29 69 30 70
REMARK SMILES IDX 39 71 31 72 32 73 38 74 40 75 33 76 34 77 35 78 36 79 37 80
REMARK SMILES IDX 63 81 64 82 73 83 65 84 66 85 72 86 74 87 67 88 68 89 69 90
REMARK SMILES IDX 70 91 71 92 47 93 48 94 57 95 49 96 50 97 56 98 58 99 51 100
REMARK SMILES IDX 52 101 53 102 54 103 55 104
REMARK H PARENT 12 7 3 20 5 23 87 31 17 35 79 54 45 65
REMARK Flexibility Score: inf
ROOT
ATOM      1  C   UNL A   1      32.994  28.348  25.814  1.00  0.00     0.023 C 
ENDROOT
BRANCH   1   2
ATOM      2  C   UNL A   1      32.579  29.613  25.067  1.00  0.00     0.023 C 
BRANCH   2   3
ATOM      3  C   UNL A   1      31.081  29.885  24.968  1.00  0.00     0.116 C 
BRANCH   3   4
ATOM      4  N   UNL A   1      30.560  29.979  23.613  1.00  0.00    -0.352 N 
ATOM      5  C   UNL A   1      30.401  29.001  22.657  1.00  0.00     0.255 C 
ATOM      6  O   UNL A   1      29.932  29.303  21.563  1.00  0.00    -0.269 OA
ATOM      7  H   UNL A   1      30.279  30.880  23.337  1.00  0.00     0.163 HD
BRANCH   5   8
ATOM      8  C   UNL A   1      30.837  27.602  22.891  1.00  0.00     0.081 A 
ATOM      9  C   UNL A   1      31.357  24.841  23.203  1.00  0.00     0.129 A 
ATOM     10  C   UNL A   1      30.204  25.416  23.745  1.00  0.00     0.053 A 
ATOM     11  C   UNL A   1      32.284  25.682  22.575  1.00  0.00     0.098 A 
ATOM     12  C   UNL A   1      29.947  26.782  23.596  1.00  0.00     0.022 A 
ATOM     13  C   UNL A   1      32.047  27.053  22.461  1.00  0.00     0.132 A 
BRANCH   9  14
ATOM     14  N   UNL A   1      31.573  23.458  23.184  1.00  0.00    -0.234 N 
ATOM     15  O   UNL A   1      33.077  22.054  27.375  1.00  0.00    -0.240 OA
ATOM     16  C   UNL A   1      32.770  21.981  26.192  1.00  0.00     0.346 C 
ATOM     17  N   UNL A   1      32.360  23.036  25.412  1.00  0.00    -0.199 N 
ATOM     18  C   UNL A   1      32.810  20.709  25.417  1.00  0.00     0.110 C 
ATOM     19  C   UNL A   1      32.053  22.696  24.206  1.00  0.00     0.322 C 
ATOM     20  H   UNL A   1      32.307  23.962  25.743  1.00  0.00     0.316 HD
ATOM     21  S   UNL A   1      32.239  20.996  23.823  1.00  0.00     0.006 SA
ATOM     22  C   UNL A   1      33.242  19.555  25.943  1.00  0.00     0.032 C 
ATOM     23  H   UNL A   1      31.353  22.987  22.347  1.00  0.00     0.313 HD
BRANCH  22  24
ATOM     24  C   UNL A   1      33.352  18.290  25.211  1.00  0.00    -0.021 A 
ATOM     25  C   UNL A   1      34.136  18.194  24.061  1.00  0.00     0.028 A 
ATOM     26  C   UNL A   1      32.671  17.161  25.664  1.00  0.00     0.028 A 
ATOM     27  C   UNL A   1      34.180  16.983  23.394  1.00  0.00     0.111 A 
ATOM     28  C   UNL A   1      32.784  15.993  24.928  1.00  0.00     0.111 A 
ATOM     29  N   UNL A   1      33.521  15.879  23.801  1.00  0.00    -0.265 NA
ENDBRANCH  22  24
ENDBRANCH   9  14
BRANCH  13  30
ATOM     30  O   UNL A   1      33.073  27.785  21.931  1.00  0.00    -0.507 OA
ATOM     31  H   UNL A   1      32.965  28.214  21.105  1.00  0.00     0.293 HD
ENDBRANCH  13  30
ENDBRANCH   5   8
ENDBRANCH   3   4
ENDBRANCH   2   3
ENDBRANCH   1   2
BRANCH   1  32
ATOM     32  C   UNL A   1      33.481  28.536  27.245  1.00  0.00     0.116 C 
BRANCH  32  33
ATOM     33  N   UNL A   1      33.482  29.925  27.686  1.00  0.00    -0.352 N 
ATOM     34  C   UNL A   1      34.487  30.668  28.265  1.00  0.00     0.251 C 
ATOM     35  H   UNL A   1      32.635  30.406  27.547  1.00  0.00     0.163 HD
ATOM     36  O   UNL A   1      34.250  31.805  28.666  1.00  0.00    -0.269 OA
BRANCH  34  37
ATOM     37  C   UNL A   1      35.836  30.085  28.443  1.00  0.00     0.039 A 
ATOM     38  C   UNL A   1      36.715  30.070  27.358  1.00  0.00     0.014 A 
ATOM     39  C   UNL A   1      36.245  29.588  29.682  1.00  0.00     0.014 A 
ATOM     40  C   UNL A   1      38.034  29.646  27.543  1.00  0.00     0.010 A 
ATOM     41  C   UNL A   1      37.582  29.261  29.886  1.00  0.00     0.010 A 
ATOM     42  C   UNL A   1      38.495  29.290  28.822  1.00  0.00    -0.014 A 
BRANCH  42  43
ATOM     43  C   UNL A   1      39.925  28.958  29.069  1.00  0.00     0.031 A 
ATOM     44  C   UNL A   1      40.863  30.003  29.612  1.00  0.00     0.074 A 
ATOM     45  C   UNL A   1      40.396  27.738  28.735  1.00  0.00     0.049 A 
ATOM     46  N   UNL A   1      42.152  29.926  29.823  1.00  0.00    -0.248 NA
ATOM     47  C   UNL A   1      40.282  31.317  29.931  1.00  0.00     0.031 C 
ATOM     48  C   UNL A   1      39.602  26.656  28.147  1.00  0.00     0.029 A 
ATOM     49  N   UNL A   1      41.658  27.205  28.828  1.00  0.00    -0.354 N 
ATOM     50  C   UNL A   1      42.538  31.181  30.282  1.00  0.00     0.074 A 
ATOM     51  C   UNL A   1      41.358  32.017  30.261  1.00  0.00     0.031 C 
ATOM     52  C   UNL A   1      40.389  25.584  27.958  1.00  0.00     0.029 A 
ATOM     53  C   UNL A   1      41.751  25.913  28.364  1.00  0.00     0.049 A 
ATOM     54  H   UNL A   1      42.427  27.702  29.193  1.00  0.00     0.167 HD
ATOM     55  C   UNL A   1      43.756  31.592  30.707  1.00  0.00     0.037 A 
ATOM     56  C   UNL A   1      42.813  25.088  28.265  1.00  0.00     0.037 A 
ATOM     57  C   UNL A   1      44.922  30.746  30.744  1.00  0.00     0.049 A 
ATOM     58  C   UNL A   1      44.160  25.569  28.737  1.00  0.00     0.074 A 
ATOM     59  C   UNL A   1      46.187  31.049  31.217  1.00  0.00     0.029 A 
ATOM     60  N   UNL A   1      44.969  29.438  30.286  1.00  0.00    -0.354 N 
ATOM     61  N   UNL A   1      44.489  26.736  29.239  1.00  0.00    -0.248 NA
ATOM     62  C   UNL A   1      45.278  24.621  28.638  1.00  0.00     0.031 C 
ATOM     63  C   UNL A   1      47.013  29.945  30.989  1.00  0.00     0.029 A 
ATOM     64  C   UNL A   1      46.248  28.929  30.438  1.00  0.00     0.049 A 
ATOM     65  H   UNL A   1      44.206  28.943  29.909  1.00  0.00     0.167 HD
ATOM     66  C   UNL A   1      45.844  26.651  29.544  1.00  0.00     0.074 A 
ATOM     67  C   UNL A   1      46.269  25.315  29.180  1.00  0.00     0.031 C 
ATOM     68  C   UNL A   1      46.659  27.593  30.079  1.00  0.00     0.037 A 
BRANCH  55  69
ATOM     69  C   UNL A   1      43.894  33.020  31.163  1.00  0.00     0.058 A 
ATOM     70  C   UNL A   1      43.680  33.396  32.500  1.00  0.00     0.135 A 
ATOM     71  C   UNL A   1      44.281  34.023  30.259  1.00  0.00     0.135 A 
ATOM     72  F   UNL A   1      43.294  32.483  33.406  1.00  0.00    -0.206 F 
ATOM     73  C   UNL A   1      43.811  34.717  32.916  1.00  0.00     0.059 A 
ATOM     74  C   UNL A   1      44.451  35.345  30.660  1.00  0.00     0.059 A 
ATOM     75  F   UNL A   1      44.499  33.723  28.968  1.00  0.00    -0.206 F 
ATOM     76  C   UNL A   1      44.199  35.685  31.988  1.00  0.00     0.060 A 
BRANCH  76  77
ATOM     77  S   UNL A   1      44.369  37.392  32.547  1.00  0.00     0.124 S 
ATOM     78  O   UNL A   1      45.771  37.429  32.951  1.00  0.00    -0.237 OA
ATOM     79  O   UNL A   1      44.036  38.147  31.344  1.00  0.00    -0.237 OA
ATOM     80  O   UNL A   1      43.401  37.493  33.635  1.00  0.00    -0.744 OA
ENDBRANCH  76  77
ENDBRANCH  55  69
BRANCH  56  81
ATOM     81  C   UNL A   1      42.641  23.717  27.709  1.00  0.00     0.058 A 
ATOM     82  C   UNL A   1      42.482  22.608  28.554  1.00  0.00     0.135 A 
ATOM     83  C   UNL A   1      42.617  23.490  26.325  1.00  0.00     0.135 A 
ATOM     84  F   UNL A   1      42.506  22.769  29.886  1.00  0.00    -0.206 F 
ATOM     85  C   UNL A   1      42.321  21.322  28.047  1.00  0.00     0.059 A 
ATOM     86  C   UNL A   1      42.428  22.217  25.794  1.00  0.00     0.059 A 
ATOM     87  F   UNL A   1      42.749  24.519  25.472  1.00  0.00    -0.206 F 
ATOM     88  C   UNL A   1      42.290  21.138  26.664  1.00  0.00     0.060 A 
BRANCH  88  89
ATOM     89  S   UNL A   1      42.026  19.472  26.018  1.00  0.00     0.124 S 
ATOM     90  O   UNL A   1      42.871  19.480  24.830  1.00  0.00    -0.237 OA
ATOM     91  O   UNL A   1      42.487  18.639  27.125  1.00  0.00    -0.237 OA
ATOM     92  O   UNL A   1      40.588  19.431  25.770  1.00  0.00    -0.744 OA
ENDBRANCH  88  89
ENDBRANCH  56  81
BRANCH  68  93
ATOM     93  C   UNL A   1      48.089  27.207  30.349  1.00  0.00     0.058 A 
ATOM     94  C   UNL A   1      49.120  27.488  29.439  1.00  0.00     0.135 A 
ATOM     95  C   UNL A   1      48.439  26.600  31.567  1.00  0.00     0.135 A 
ATOM     96  F   UNL A   1      48.842  28.061  28.257  1.00  0.00    -0.206 F 
ATOM     97  C   UNL A   1      50.443  27.160  29.716  1.00  0.00     0.059 A 
ATOM     98  C   UNL A   1      49.760  26.294  31.880  1.00  0.00     0.059 A 
ATOM     99  F   UNL A   1      47.495  26.319  32.479  1.00  0.00    -0.206 F 
ATOM    100  C   UNL A   1      50.754  26.567  30.942  1.00  0.00     0.060 A 
BRANCH 100 101
ATOM    101  S   UNL A   1      52.480  26.182  31.304  1.00  0.00     0.124 S 
ATOM    102  O   UNL A   1      52.862  27.310  32.149  1.00  0.00    -0.237 OA
ATOM    103  O   UNL A   1      52.376  24.892  31.979  1.00  0.00    -0.237 OA
ATOM    104  O   UNL A   1      53.105  26.146  29.986  1.00  0.00    -0.744 OA
ENDBRANCH 100 101
ENDBRANCH  68  93
ENDBRANCH  42  43
ENDBRANCH  34  37
ENDBRANCH  32  33
ENDBRANCH   1  32
TORSDOF 17
ENDMDL
MODEL 2
REMARK VINA RESULT:     -12.5      3.278     10.035
REMARK SMILES O=C1[NH+]=C(Nc2ccc(C(=O)NCCCCNC(=O)c3ccc(-c4c5nc(c(-c6c(F)cc(S(=O)(=O)[O-])cc6F)c6ccc([nH]6)c(-c6c(F)cc(S(=O)(=O)[O-])cc6F)c6nc(c(-c7c(F)cc(S(=O)(=O)[O-])cc7F)c7ccc4[nH]7)C=C6)C=C5)cc3)c(O)c2)S/C1=C\c1ccncc1
REMARK SMILES IDX 15 1 14 2 13 3 12 4 10 5 11 6 9 8 6 9 7 10 88 11 8 12 86 13
REMARK SMILES IDX 5 14 1 15 2 16 3 17 90 18 4 19 89 21 91 22 92 24 93 25 97 26
REMARK SMILES IDX 94 27 96 28 95 29 87 30 16 32 17 33 18 34 19 36 20 37 21 38
REMARK SMILES IDX 85 39 22 40 84 41 23 42 24 43 25 44 78 45 26 46 83 47 77 48
REMARK SMILES IDX 79 49 27 50 82 51 76 52 75 53 28 55 62 56 41 57 61 58 42 59
REMARK SMILES IDX 45 60 60 61 80 62 43 63 44 64 59 66 81 67 46 68 29 69 30 70
REMARK SMILES IDX 39 71 31 72 32 73 38 74 40 75 33 76 34 77 35 78 36 79 37 80
REMARK SMILES IDX 63 81 64 82 73 83 65 84 66 85 72 86 74 87 67 88 68 89 69 90
REMARK SMILES IDX 70 91 71 92 47 93 48 94 57 95 49 96 50 97 56 98 58 99 51 100
REMARK SMILES IDX 52 101 53 102 54 103 55 104
REMARK H PARENT 12 7 3 20 5 23 87 31 17 35 79 54 45 65
REMARK Flexibility Score: inf
ROOT
ATOM      1  C   UNL A   1      35.774  23.485  25.858  1.00  0.00     0.023 C 
ENDROOT
BRANCH   1   2
ATOM      2  C   UNL A   1      35.444  22.016  26.110  1.00  0.00     0.023 C 
BRANCH   2   3
ATOM      3  C   UNL A   1      35.186  21.154  24.877  1.00  0.00     0.116 C 
BRANCH   3   4
ATOM      4  N   UNL A   1      34.091  20.206  25.006  1.00  0.00    -0.352 N 
ATOM      5  C   UNL A   1      32.742  20.380  24.797  1.00  0.00     0.255 C 
ATOM      6  O   UNL A   1      31.981  19.429  24.963  1.00  0.00    -0.269 OA
ATOM      7  H   UNL A   1      34.356  19.301  25.287  1.00  0.00     0.163 HD
BRANCH   5   8
ATOM      8  C   UNL A   1      32.171  21.701  24.433  1.00  0.00     0.081 A 
ATOM      9  C   UNL A   1      31.331  24.356  23.950  1.00  0.00     0.129 A 
ATOM     10  C   UNL A   1      31.435  23.866  25.256  1.00  0.00     0.053 A 
ATOM     11  C   UNL A   1      31.575  23.474  22.891  1.00  0.00     0.098 A 
ATOM     12  C   UNL A   1      31.845  22.552  25.497  1.00  0.00     0.022 A 
ATOM     13  C   UNL A   1      31.947  22.150  23.130  1.00  0.00     0.132 A 
BRANCH   9  14
ATOM     14  N   UNL A   1      31.086  25.706  23.669  1.00  0.00    -0.234 N 
ATOM     15  O   UNL A   1      26.533  26.605  24.181  1.00  0.00    -0.240 OA
ATOM     16  C   UNL A   1      27.709  26.804  23.904  1.00  0.00     0.346 C 
ATOM     17  N   UNL A   1      28.710  25.863  23.971  1.00  0.00    -0.199 N 
ATOM     18  C   UNL A   1      28.225  28.121  23.437  1.00  0.00     0.110 C 
ATOM     19  C   UNL A   1      29.875  26.329  23.668  1.00  0.00     0.322 C 
ATOM     20  H   UNL A   1      28.552  24.925  24.225  1.00  0.00     0.316 HD
ATOM     21  S   UNL A   1      29.927  28.024  23.226  1.00  0.00     0.006 SA
ATOM     22  C   UNL A   1      27.427  29.177  23.228  1.00  0.00     0.032 C 
ATOM     23  H   UNL A   1      31.870  26.262  23.451  1.00  0.00     0.313 HD
BRANCH  22  24
ATOM     24  C   UNL A   1      27.874  30.477  22.719  1.00  0.00    -0.021 A 
ATOM     25  C   UNL A   1      27.895  30.740  21.349  1.00  0.00     0.028 A 
ATOM     26  C   UNL A   1      28.282  31.470  23.607  1.00  0.00     0.028 A 
ATOM     27  C   UNL A   1      28.354  31.974  20.923  1.00  0.00     0.111 A 
ATOM     28  C   UNL A   1      28.719  32.675  23.082  1.00  0.00     0.111 A 
ATOM     29  N   UNL A   1      28.768  32.948  21.759  1.00  0.00    -0.265 NA
ENDBRANCH  22  24
ENDBRANCH   9  14
BRANCH  13  30
ATOM     30  O   UNL A   1      32.046  21.358  22.020  1.00  0.00    -0.507 OA
ATOM     31  H   UNL A   1      32.860  21.296  21.560  1.00  0.00     0.293 HD
ENDBRANCH  13  30
ENDBRANCH   5   8
ENDBRANCH   3   4
ENDBRANCH   2   3
ENDBRANCH   1   2
BRANCH   1  32
ATOM     32  C   UNL A   1      37.054  23.766  25.079  1.00  0.00     0.116 C 
BRANCH  32  33
ATOM     33  N   UNL A   1      38.142  22.848  25.388  1.00  0.00    -0.352 N 
ATOM     34  C   UNL A   1      39.289  23.052  26.123  1.00  0.00     0.251 C 
ATOM     35  H   UNL A   1      38.041  21.943  25.016  1.00  0.00     0.163 HD
ATOM     36  O   UNL A   1      40.143  22.171  26.176  1.00  0.00    -0.269 OA
BRANCH  34  37
ATOM     37  C   UNL A   1      39.512  24.343  26.811  1.00  0.00     0.039 A 
ATOM     38  C   UNL A   1      39.005  24.521  28.100  1.00  0.00     0.014 A 
ATOM     39  C   UNL A   1      40.246  25.363  26.202  1.00  0.00     0.014 A 
ATOM     40  C   UNL A   1      39.320  25.681  28.814  1.00  0.00     0.010 A 
ATOM     41  C   UNL A   1      40.640  26.470  26.949  1.00  0.00     0.010 A 
ATOM     42  C   UNL A   1      40.186  26.642  28.265  1.00  0.00    -0.014 A 
BRANCH  42  43
ATOM     43  C   UNL A   1      40.638  27.822  29.051  1.00  0.00     0.031 A 
ATOM     44  C   UNL A   1      41.976  27.807  29.740  1.00  0.00     0.074 A 
ATOM     45  C   UNL A   1      39.812  28.877  29.208  1.00  0.00     0.049 A 
ATOM     46  N   UNL A   1      42.511  28.705  30.528  1.00  0.00    -0.248 NA
ATOM     47  C   UNL A   1      42.813  26.612  29.543  1.00  0.00     0.031 C 
ATOM     48  C   UNL A   1      38.465  28.991  28.640  1.00  0.00     0.029 A 
ATOM     49  N   UNL A   1      39.974  30.052  29.901  1.00  0.00    -0.354 N 
ATOM     50  C   UNL A   1      43.732  28.179  30.931  1.00  0.00     0.074 A 
ATOM     51  C   UNL A   1      43.834  26.858  30.351  1.00  0.00     0.031 C 
ATOM     52  C   UNL A   1      37.939  30.177  28.986  1.00  0.00     0.029 A 
ATOM     53  C   UNL A   1      38.885  30.890  29.837  1.00  0.00     0.049 A 
ATOM     54  H   UNL A   1      40.795  30.273  30.399  1.00  0.00     0.167 HD
ATOM     55  C   UNL A   1      44.694  28.753  31.693  1.00  0.00     0.037 A 
ATOM     56  C   UNL A   1      38.664  32.091  30.409  1.00  0.00     0.037 A 
ATOM     57  C   UNL A   1      44.594  30.077  32.250  1.00  0.00     0.049 A 
ATOM     58  C   UNL A   1      39.745  32.707  31.258  1.00  0.00     0.074 A 
ATOM     59  C   UNL A   1      45.540  30.773  32.983  1.00  0.00     0.029 A 
ATOM     60  N   UNL A   1      43.484  30.902  32.145  1.00  0.00    -0.354 N 
ATOM     61  N   UNL A   1      40.926  32.225  31.566  1.00  0.00    -0.248 NA
ATOM     62  C   UNL A   1      39.469  34.031  31.831  1.00  0.00     0.031 C 
ATOM     63  C   UNL A   1      44.978  31.993  33.371  1.00  0.00     0.029 A 
ATOM     64  C   UNL A   1      43.709  32.088  32.822  1.00  0.00     0.049 A 
ATOM     65  H   UNL A   1      42.657  30.677  31.659  1.00  0.00     0.167 HD
ATOM     66  C   UNL A   1      41.545  33.200  32.342  1.00  0.00     0.074 A 
ATOM     67  C   UNL A   1      40.611  34.303  32.446  1.00  0.00     0.031 C 
ATOM     68  C   UNL A   1      42.775  33.184  32.913  1.00  0.00     0.037 A 
BRANCH  55  69
ATOM     69  C   UNL A   1      45.938  27.951  31.973  1.00  0.00     0.058 A 
ATOM     70  C   UNL A   1      47.043  27.968  31.106  1.00  0.00     0.135 A 
ATOM     71  C   UNL A   1      46.041  27.182  33.144  1.00  0.00     0.135 A 
ATOM     72  F   UNL A   1      46.995  28.673  29.964  1.00  0.00    -0.206 F 
ATOM     73  C   UNL A   1      48.189  27.227  31.371  1.00  0.00     0.059 A 
ATOM     74  C   UNL A   1      47.192  26.460  33.447  1.00  0.00     0.059 A 
ATOM     75  F   UNL A   1      45.017  27.127  34.011  1.00  0.00    -0.206 F 
ATOM     76  C   UNL A   1      48.255  26.477  32.546  1.00  0.00     0.060 A 
BRANCH  76  77
ATOM     77  S   UNL A   1      49.753  25.525  32.876  1.00  0.00     0.124 S 
ATOM     78  O   UNL A   1      49.208  24.343  33.535  1.00  0.00    -0.237 OA
ATOM     79  O   UNL A   1      50.288  25.314  31.535  1.00  0.00    -0.237 OA
ATOM     80  O   UNL A   1      50.539  26.411  33.729  1.00  0.00    -0.744 OA
ENDBRANCH  76  77
ENDBRANCH  55  69
BRANCH  56  81
ATOM     81  C   UNL A   1      37.373  32.797  30.182  1.00  0.00     0.058 A 
ATOM     82  C   UNL A   1      37.210  33.681  29.104  1.00  0.00     0.135 A 
ATOM     83  C   UNL A   1      36.273  32.593  31.029  1.00  0.00     0.135 A 
ATOM     84  F   UNL A   1      38.233  33.918  28.270  1.00  0.00    -0.206 F 
ATOM     85  C   UNL A   1      36.008  34.347  28.882  1.00  0.00     0.059 A 
ATOM     86  C   UNL A   1      35.052  33.225  30.810  1.00  0.00     0.059 A 
ATOM     87  F   UNL A   1      36.370  31.746  32.066  1.00  0.00    -0.206 F 
ATOM     88  C   UNL A   1      34.933  34.107  29.739  1.00  0.00     0.060 A 
BRANCH  88  89
ATOM     89  S   UNL A   1      33.362  34.936  29.408  1.00  0.00     0.124 S 
ATOM     90  O   UNL A   1      32.769  34.055  28.410  1.00  0.00    -0.237 OA
ATOM     91  O   UNL A   1      32.730  34.928  30.724  1.00  0.00    -0.237 OA
ATOM     92  O   UNL A   1      33.771  36.252  28.927  1.00  0.00    -0.744 OA
ENDBRANCH  88  89
ENDBRANCH  56  81
BRANCH  68  93
ATOM     93  C   UNL A   1      43.210  34.411  33.669  1.00  0.00     0.058 A 
ATOM     94  C   UNL A   1      43.840  35.492  33.033  1.00  0.00     0.135 A 
ATOM     95  C   UNL A   1      42.936  34.530  35.042  1.00  0.00     0.135 A 
ATOM     96  F   UNL A   1      44.132  35.430  31.724  1.00  0.00    -0.206 F 
ATOM     97  C   UNL A   1      44.204  36.636  33.735  1.00  0.00     0.059 A 
ATOM     98  C   UNL A   1      43.260  35.678  35.756  1.00  0.00     0.059 A 
ATOM     99  F   UNL A   1      42.325  33.531  35.698  1.00  0.00    -0.206 F 
ATOM    100  C   UNL A   1      43.905  36.722  35.097  1.00  0.00     0.060 A 
BRANCH 100 101
ATOM    101  S   UNL A   1      44.348  38.229  35.986  1.00  0.00     0.124 S 
ATOM    102  O   UNL A   1      43.827  39.261  35.094  1.00  0.00    -0.237 OA
ATOM    103  O   UNL A   1      43.636  38.065  37.249  1.00  0.00    -0.237 OA
ATOM    104  O   UNL A   1      45.803  38.156  36.078  1.00  0.00    -0.744 OA
ENDBRANCH 100 101
ENDBRANCH  68  93
ENDBRANCH  42  43
ENDBRANCH  34  37
ENDBRANCH  32  33
ENDBRANCH   1  32
TORSDOF 17
ENDMDL
MODEL 3
REMARK VINA RESULT:     -12.5      5.050     11.037
REMARK SMILES O=C1[NH+]=C(Nc2ccc(C(=O)NCCCCNC(=O)c3ccc(-c4c5nc(c(-c6c(F)cc(S(=O)(=O)[O-])cc6F)c6ccc([nH]6)c(-c6c(F)cc(S(=O)(=O)[O-])cc6F)c6nc(c(-c7c(F)cc(S(=O)(=O)[O-])cc7F)c7ccc4[nH]7)C=C6)C=C5)cc3)c(O)c2)S/C1=C\c1ccncc1
REMARK SMILES IDX 15 1 14 2 13 3 12 4 10 5 11 6 9 8 6 9 7 10 88 11 8 12 86 13
REMARK SMILES IDX 5 14 1 15 2 16 3 17 90 18 4 19 89 21 91 22 92 24 93 25 97 26
REMARK SMILES IDX 94 27 96 28 95 29 87 30 16 32 17 33 18 34 19 36 20 37 21 38
REMARK SMILES IDX 85 39 22 40 84 41 23 42 24 43 25 44 78 45 26 46 83 47 77 48
REMARK SMILES IDX 79 49 27 50 82 51 76 52 75 53 28 55 62 56 41 57 61 58 42 59
REMARK SMILES IDX 45 60 60 61 80 62 43 63 44 64 59 66 81 67 46 68 29 69 30 70
REMARK SMILES IDX 39 71 31 72 32 73 38 74 40 75 33 76 34 77 35 78 36 79 37 80
REMARK SMILES IDX 63 81 64 82 73 83 65 84 66 85 72 86 74 87 67 88 68 89 69 90
REMARK SMILES IDX 70 91 71 92 47 93 48 94 57 95 49 96 50 97 56 98 58 99 51 100
REMARK SMILES IDX 52 101 53 102 54 103 55 104
REMARK H PARENT 12 7 3 20 5 23 87 31 17 35 79 54 45 65
REMARK Flexibility Score: inf
ROOT
ATOM      1  C   UNL A   1      38.860  22.466  26.454  1.00  0.00     0.023 C 
ENDROOT
BRANCH   1   2
ATOM      2  C   UNL A   1      37.601  22.834  25.672  1.00  0.00     0.023 C 
BRANCH   2   3
ATOM      3  C   UNL A   1      37.233  21.923  24.505  1.00  0.00     0.116 C 
BRANCH   3   4
ATOM      4  N   UNL A   1      36.016  21.149  24.687  1.00  0.00    -0.352 N 
ATOM      5  C   UNL A   1      34.699  21.546  24.635  1.00  0.00     0.255 C 
ATOM      6  O   UNL A   1      33.813  20.714  24.818  1.00  0.00    -0.269 OA
ATOM      7  H   UNL A   1      36.155  20.194  24.878  1.00  0.00     0.163 HD
BRANCH   5   8
ATOM      8  C   UNL A   1      34.319  22.965  24.422  1.00  0.00     0.081 A 
ATOM      9  C   UNL A   1      33.361  25.546  23.784  1.00  0.00     0.129 A 
ATOM     10  C   UNL A   1      33.816  24.685  22.781  1.00  0.00     0.053 A 
ATOM     11  C   UNL A   1      33.468  25.127  25.115  1.00  0.00     0.098 A 
ATOM     12  C   UNL A   1      34.295  23.410  23.094  1.00  0.00     0.022 A 
ATOM     13  C   UNL A   1      33.984  23.869  25.432  1.00  0.00     0.132 A 
BRANCH   9  14
ATOM     14  N   UNL A   1      32.723  26.761  23.503  1.00  0.00    -0.234 N 
ATOM     15  O   UNL A   1      28.112  26.263  24.041  1.00  0.00    -0.240 OA
ATOM     16  C   UNL A   1      29.173  26.802  23.757  1.00  0.00     0.346 C 
ATOM     17  N   UNL A   1      30.409  26.203  23.819  1.00  0.00    -0.199 N 
ATOM     18  C   UNL A   1      29.270  28.212  23.286  1.00  0.00     0.110 C 
ATOM     19  C   UNL A   1      31.381  26.994  23.509  1.00  0.00     0.322 C 
ATOM     20  H   UNL A   1      30.540  25.261  24.075  1.00  0.00     0.316 HD
ATOM     21  S   UNL A   1      30.923  28.626  23.065  1.00  0.00     0.006 SA
ATOM     22  C   UNL A   1      28.192  28.982  23.081  1.00  0.00     0.032 C 
ATOM     23  H   UNL A   1      33.303  27.524  23.279  1.00  0.00     0.313 HD
BRANCH  22  24
ATOM     24  C   UNL A   1      28.229  30.354  22.567  1.00  0.00    -0.021 A 
ATOM     25  C   UNL A   1      28.031  30.617  21.211  1.00  0.00     0.028 A 
ATOM     26  C   UNL A   1      28.459  31.417  23.438  1.00  0.00     0.028 A 
ATOM     27  C   UNL A   1      28.105  31.928  20.778  1.00  0.00     0.111 A 
ATOM     28  C   UNL A   1      28.509  32.696  22.906  1.00  0.00     0.111 A 
ATOM     29  N   UNL A   1      28.340  32.975  21.595  1.00  0.00    -0.265 NA
ENDBRANCH  22  24
ENDBRANCH   9  14
BRANCH  13  30
ATOM     30  O   UNL A   1      34.144  23.619  26.767  1.00  0.00    -0.507 OA
ATOM     31  H   UNL A   1      34.344  24.320  27.354  1.00  0.00     0.293 HD
ENDBRANCH  13  30
ENDBRANCH   5   8
ENDBRANCH   3   4
ENDBRANCH   2   3
ENDBRANCH   1   2
BRANCH   1  32
ATOM     32  C   UNL A   1      39.684  23.628  26.995  1.00  0.00     0.116 C 
BRANCH  32  33
ATOM     33  N   UNL A   1      40.562  24.235  26.003  1.00  0.00    -0.352 N 
ATOM     34  C   UNL A   1      41.279  25.410  26.057  1.00  0.00     0.251 C 
ATOM     35  H   UNL A   1      40.658  23.726  25.166  1.00  0.00     0.163 HD
ATOM     36  O   UNL A   1      41.881  25.802  25.061  1.00  0.00    -0.269 OA
BRANCH  34  37
ATOM     37  C   UNL A   1      41.289  26.218  27.297  1.00  0.00     0.039 A 
ATOM     38  C   UNL A   1      42.125  27.334  27.371  1.00  0.00     0.014 A 
ATOM     39  C   UNL A   1      40.454  25.897  28.369  1.00  0.00     0.014 A 
ATOM     40  C   UNL A   1      42.050  28.182  28.481  1.00  0.00     0.010 A 
ATOM     41  C   UNL A   1      40.310  26.794  29.424  1.00  0.00     0.010 A 
ATOM     42  C   UNL A   1      41.102  27.950  29.491  1.00  0.00    -0.014 A 
BRANCH  42  43
ATOM     43  C   UNL A   1      40.914  28.906  30.616  1.00  0.00     0.031 A 
ATOM     44  C   UNL A   1      41.749  28.782  31.863  1.00  0.00     0.074 A 
ATOM     45  C   UNL A   1      39.943  29.840  30.547  1.00  0.00     0.049 A 
ATOM     46  N   UNL A   1      41.682  29.470  32.975  1.00  0.00    -0.248 NA
ATOM     47  C   UNL A   1      42.773  27.725  31.876  1.00  0.00     0.031 C 
ATOM     48  C   UNL A   1      39.028  30.028  29.417  1.00  0.00     0.029 A 
ATOM     49  N   UNL A   1      39.551  30.799  31.448  1.00  0.00    -0.354 N 
ATOM     50  C   UNL A   1      42.639  28.921  33.820  1.00  0.00     0.074 A 
ATOM     51  C   UNL A   1      43.231  27.804  33.117  1.00  0.00     0.031 C 
ATOM     52  C   UNL A   1      38.203  31.053  29.683  1.00  0.00     0.029 A 
ATOM     53  C   UNL A   1      38.493  31.567  31.017  1.00  0.00     0.049 A 
ATOM     54  H   UNL A   1      39.986  30.925  32.322  1.00  0.00     0.167 HD
ATOM     55  C   UNL A   1      43.009  29.325  35.059  1.00  0.00     0.037 A 
ATOM     56  C   UNL A   1      37.824  32.564  31.629  1.00  0.00     0.037 A 
ATOM     57  C   UNL A   1      42.429  30.451  35.744  1.00  0.00     0.049 A 
ATOM     58  C   UNL A   1      38.249  32.993  33.009  1.00  0.00     0.074 A 
ATOM     59  C   UNL A   1      42.779  30.981  36.974  1.00  0.00     0.029 A 
ATOM     60  N   UNL A   1      41.376  31.216  35.265  1.00  0.00    -0.354 N 
ATOM     61  N   UNL A   1      39.208  32.509  33.763  1.00  0.00    -0.248 NA
ATOM     62  C   UNL A   1      37.509  34.105  33.619  1.00  0.00     0.031 C 
ATOM     63  C   UNL A   1      41.898  32.026  37.265  1.00  0.00     0.029 A 
ATOM     64  C   UNL A   1      41.044  32.195  36.187  1.00  0.00     0.049 A 
ATOM     65  H   UNL A   1      40.930  31.083  34.397  1.00  0.00     0.167 HD
ATOM     66  C   UNL A   1      39.206  33.279  34.922  1.00  0.00     0.074 A 
ATOM     67  C   UNL A   1      38.158  34.266  34.763  1.00  0.00     0.031 C 
ATOM     68  C   UNL A   1      40.002  33.178  36.015  1.00  0.00     0.037 A 
BRANCH  55  69
ATOM     69  C   UNL A   1      44.092  28.544  35.756  1.00  0.00     0.058 A 
ATOM     70  C   UNL A   1      43.801  27.439  36.574  1.00  0.00     0.135 A 
ATOM     71  C   UNL A   1      45.443  28.882  35.575  1.00  0.00     0.135 A 
ATOM     72  F   UNL A   1      42.526  27.079  36.796  1.00  0.00    -0.206 F 
ATOM     73  C   UNL A   1      44.805  26.721  37.213  1.00  0.00     0.059 A 
ATOM     74  C   UNL A   1      46.467  28.156  36.178  1.00  0.00     0.059 A 
ATOM     75  F   UNL A   1      45.782  29.928  34.804  1.00  0.00    -0.206 F 
ATOM     76  C   UNL A   1      46.136  27.086  37.007  1.00  0.00     0.060 A 
BRANCH  76  77
ATOM     77  S   UNL A   1      47.426  26.138  37.842  1.00  0.00     0.124 S 
ATOM     78  O   UNL A   1      48.615  26.554  37.105  1.00  0.00    -0.237 OA
ATOM     79  O   UNL A   1      47.329  26.624  39.214  1.00  0.00    -0.237 OA
ATOM     80  O   UNL A   1      47.017  24.752  37.639  1.00  0.00    -0.744 OA
ENDBRANCH  76  77
ENDBRANCH  55  69
BRANCH  56  81
ATOM     81  C   UNL A   1      36.692  33.237  30.933  1.00  0.00     0.058 A 
ATOM     82  C   UNL A   1      35.363  33.013  31.326  1.00  0.00     0.135 A 
ATOM     83  C   UNL A   1      36.916  34.129  29.873  1.00  0.00     0.135 A 
ATOM     84  F   UNL A   1      35.094  32.163  32.328  1.00  0.00    -0.206 F 
ATOM     85  C   UNL A   1      34.297  33.636  30.683  1.00  0.00     0.059 A 
ATOM     86  C   UNL A   1      35.868  34.787  29.235  1.00  0.00     0.059 A 
ATOM     87  F   UNL A   1      38.168  34.392  29.468  1.00  0.00    -0.206 F 
ATOM     88  C   UNL A   1      34.561  34.526  29.642  1.00  0.00     0.060 A 
BRANCH  88  89
ATOM     89  S   UNL A   1      33.173  35.369  28.852  1.00  0.00     0.124 S 
ATOM     90  O   UNL A   1      32.441  35.875  30.007  1.00  0.00    -0.237 OA
ATOM     91  O   UNL A   1      33.850  36.372  28.035  1.00  0.00    -0.237 OA
ATOM     92  O   UNL A   1      32.514  34.303  28.104  1.00  0.00    -0.744 OA
ENDBRANCH  88  89
ENDBRANCH  56  81
BRANCH  68  93
ATOM     93  C   UNL A   1      39.807  34.187  37.116  1.00  0.00     0.058 A 
ATOM     94  C   UNL A   1      38.907  33.972  38.171  1.00  0.00     0.135 A 
ATOM     95  C   UNL A   1      40.579  35.360  37.144  1.00  0.00     0.135 A 
ATOM     96  F   UNL A   1      38.139  32.871  38.192  1.00  0.00    -0.206 F 
ATOM     97  C   UNL A   1      38.763  34.894  39.203  1.00  0.00     0.059 A 
ATOM     98  C   UNL A   1      40.476  36.280  38.183  1.00  0.00     0.059 A 
ATOM     99  F   UNL A   1      41.463  35.612  36.166  1.00  0.00    -0.206 F 
ATOM    100  C   UNL A   1      39.556  36.044  39.202  1.00  0.00     0.060 A 
BRANCH 100 101
ATOM    101  S   UNL A   1      39.386  37.213  40.567  1.00  0.00     0.124 S 
ATOM    102  O   UNL A   1      38.189  37.951  40.175  1.00  0.00    -0.237 OA
ATOM    103  O   UNL A   1      39.238  36.328  41.717  1.00  0.00    -0.237 OA
ATOM    104  O   UNL A   1      40.632  37.972  40.523  1.00  0.00    -0.744 OA
ENDBRANCH 100 101
ENDBRANCH  68  93
ENDBRANCH  42  43
ENDBRANCH  34  37
ENDBRANCH  32  33
ENDBRANCH   1  32
TORSDOF 17
ENDMDL
