MODEL 1
REMARK VINA RESULT:     -12.3      0.000      0.000
REMARK SMILES C[C@@H]1[C@@H](C(=O)NCCCCNC(=O)c2ccc(-c3c4nc(c(-c5c(F)cc(S(=O)(=O)[O-])cc5F)c5ccc([nH]5)c(-c5c(F)cc(S(=O)(=O)[O-])cc5F)c5nc(c(-c6c(F)cc(S(=O)(=O)[O-])cc6F)c6ccc3[nH]6)C=C5)C=C4)cc2)CC[N@@H+]1C[C@H]1Cc2ccccc2O1
REMARK SMILES IDX 9 1 8 2 7 3 6 4 4 5 5 6 3 8 1 9 2 10 82 11 80 12 81 13 83 15
REMARK SMILES IDX 84 16 85 17 92 18 86 19 91 20 87 21 90 22 88 23 89 24 10 25
REMARK SMILES IDX 11 26 12 27 13 29 14 30 15 31 79 32 16 33 78 34 17 35 18 36
REMARK SMILES IDX 19 37 72 38 20 39 77 40 71 41 73 42 21 43 76 44 70 45 69 46
REMARK SMILES IDX 22 48 56 49 35 50 55 51 36 52 39 53 54 54 74 55 37 56 38 57
REMARK SMILES IDX 53 59 75 60 40 61 23 62 24 63 33 64 25 65 26 66 32 67 34 68
REMARK SMILES IDX 27 69 28 70 29 71 30 72 31 73 57 74 58 75 67 76 59 77 60 78
REMARK SMILES IDX 66 79 68 80 61 81 62 82 63 83 64 84 65 85 41 86 42 87 51 88
REMARK SMILES IDX 43 89 44 90 50 91 52 92 45 93 46 94 47 95 48 96 49 97
REMARK H PARENT 6 7 82 14 11 28 73 47 39 58
REMARK Flexibility Score: inf
ROOT
ATOM      1  C   UNL A   1      32.952  28.366  25.868  1.00  0.00     0.023 C 
ENDROOT
BRANCH   1   2
ATOM      2  C   UNL A   1      33.864  28.514  24.660  1.00  0.00     0.023 C 
BRANCH   2   3
ATOM      3  C   UNL A   1      33.183  28.515  23.292  1.00  0.00     0.116 C 
BRANCH   3   4
ATOM      4  N   UNL A   1      33.566  27.386  22.469  1.00  0.00    -0.356 N 
ATOM      5  C   UNL A   1      33.248  26.068  22.516  1.00  0.00     0.229 C 
ATOM      6  O   UNL A   1      33.667  25.372  21.583  1.00  0.00    -0.275 OA
ATOM      7  H   UNL A   1      34.178  27.620  21.734  1.00  0.00     0.163 HD
BRANCH   5   8
ATOM      8  C   UNL A   1      32.504  25.384  23.662  1.00  0.00     0.142 C 
ATOM      9  C   UNL A   1      33.299  24.685  25.953  1.00  0.00     0.076 C 
ATOM     10  C   UNL A   1      33.228  24.299  24.472  1.00  0.00     0.193 C 
ATOM     11  N   UNL A   1      32.492  23.066  24.184  1.00  0.00    -0.329 N 
ATOM     12  C   UNL A   1      31.196  24.757  23.208  1.00  0.00     0.081 C 
ATOM     13  C   UNL A   1      31.457  23.269  23.196  1.00  0.00     0.263 C 
ATOM     14  H   UNL A   1      33.240  22.498  23.787  1.00  0.00     0.348 HD
BRANCH  11  15
ATOM     15  C   UNL A   1      32.390  21.951  25.109  1.00  0.00     0.308 C 
BRANCH  15  16
ATOM     16  C   UNL A   1      32.705  20.556  24.537  1.00  0.00     0.232 C 
ATOM     17  C   UNL A   1      34.189  20.169  24.590  1.00  0.00     0.090 C 
ATOM     18  O   UNL A   1      31.974  19.520  25.261  1.00  0.00    -0.484 OA
ATOM     19  C   UNL A   1      34.031  18.703  24.614  1.00  0.00    -0.002 A 
ATOM     20  C   UNL A   1      32.745  18.404  25.039  1.00  0.00     0.123 A 
ATOM     21  C   UNL A   1      34.952  17.718  24.320  1.00  0.00     0.007 A 
ATOM     22  C   UNL A   1      32.327  17.102  25.193  1.00  0.00     0.047 A 
ATOM     23  C   UNL A   1      34.537  16.392  24.441  1.00  0.00     0.001 A 
ATOM     24  C   UNL A   1      33.235  16.087  24.877  1.00  0.00     0.004 A 
ENDBRANCH  15  16
ENDBRANCH  11  15
ENDBRANCH   5   8
ENDBRANCH   3   4
ENDBRANCH   2   3
ENDBRANCH   1   2
BRANCH   1  25
ATOM     25  C   UNL A   1      33.614  28.596  27.215  1.00  0.00     0.116 C 
BRANCH  25  26
ATOM     26  N   UNL A   1      33.540  29.965  27.705  1.00  0.00    -0.352 N 
ATOM     27  C   UNL A   1      34.559  30.700  28.281  1.00  0.00     0.251 C 
ATOM     28  H   UNL A   1      32.670  30.417  27.618  1.00  0.00     0.163 HD
ATOM     29  O   UNL A   1      34.366  31.825  28.710  1.00  0.00    -0.269 OA
BRANCH  27  30
ATOM     30  C   UNL A   1      35.883  30.052  28.409  1.00  0.00     0.039 A 
ATOM     31  C   UNL A   1      36.758  30.078  27.321  1.00  0.00     0.014 A 
ATOM     32  C   UNL A   1      36.295  29.555  29.647  1.00  0.00     0.014 A 
ATOM     33  C   UNL A   1      38.084  29.682  27.504  1.00  0.00     0.010 A 
ATOM     34  C   UNL A   1      37.635  29.257  29.849  1.00  0.00     0.010 A 
ATOM     35  C   UNL A   1      38.543  29.313  28.779  1.00  0.00    -0.014 A 
BRANCH  35  36
ATOM     36  C   UNL A   1      39.963  28.956  29.024  1.00  0.00     0.031 A 
ATOM     37  C   UNL A   1      40.894  29.988  29.602  1.00  0.00     0.074 A 
ATOM     38  C   UNL A   1      40.431  27.748  28.653  1.00  0.00     0.049 A 
ATOM     39  N   UNL A   1      42.186  29.921  29.794  1.00  0.00    -0.248 NA
ATOM     40  C   UNL A   1      40.298  31.282  29.971  1.00  0.00     0.031 C 
ATOM     41  C   UNL A   1      39.643  26.686  28.022  1.00  0.00     0.029 A 
ATOM     42  N   UNL A   1      41.691  27.212  28.744  1.00  0.00    -0.354 N 
ATOM     43  C   UNL A   1      42.558  31.170  30.277  1.00  0.00     0.074 A 
ATOM     44  C   UNL A   1      41.369  31.993  30.289  1.00  0.00     0.031 C 
ATOM     45  C   UNL A   1      40.430  25.618  27.810  1.00  0.00     0.029 A 
ATOM     46  C   UNL A   1      41.783  25.927  28.261  1.00  0.00     0.049 A 
ATOM     47  H   UNL A   1      42.459  27.701  29.119  1.00  0.00     0.167 HD
ATOM     48  C   UNL A   1      43.773  31.585  30.704  1.00  0.00     0.037 A 
ATOM     49  C   UNL A   1      42.840  25.094  28.194  1.00  0.00     0.037 A 
ATOM     50  C   UNL A   1      44.939  30.746  30.739  1.00  0.00     0.049 A 
ATOM     51  C   UNL A   1      44.171  25.560  28.721  1.00  0.00     0.074 A 
ATOM     52  C   UNL A   1      46.205  31.046  31.210  1.00  0.00     0.029 A 
ATOM     53  N   UNL A   1      44.977  29.431  30.296  1.00  0.00    -0.354 N 
ATOM     54  N   UNL A   1      44.495  26.726  29.225  1.00  0.00    -0.248 NA
ATOM     55  C   UNL A   1      45.278  24.594  28.680  1.00  0.00     0.031 C 
ATOM     56  C   UNL A   1      47.015  29.920  31.031  1.00  0.00     0.029 A 
ATOM     57  C   UNL A   1      46.244  28.907  30.482  1.00  0.00     0.049 A 
ATOM     58  H   UNL A   1      44.215  28.945  29.908  1.00  0.00     0.167 HD
ATOM     59  C   UNL A   1      45.832  26.625  29.591  1.00  0.00     0.074 A 
ATOM     60  C   UNL A   1      46.256  25.281  29.255  1.00  0.00     0.031 C 
ATOM     61  C   UNL A   1      46.638  27.559  30.157  1.00  0.00     0.037 A 
BRANCH  48  62
ATOM     62  C   UNL A   1      43.886  33.007  31.181  1.00  0.00     0.058 A 
ATOM     63  C   UNL A   1      43.568  33.367  32.500  1.00  0.00     0.135 A 
ATOM     64  C   UNL A   1      44.311  34.023  30.309  1.00  0.00     0.135 A 
ATOM     65  F   UNL A   1      43.137  32.438  33.369  1.00  0.00    -0.206 F 
ATOM     66  C   UNL A   1      43.625  34.688  32.929  1.00  0.00     0.059 A 
ATOM     67  C   UNL A   1      44.404  35.348  30.726  1.00  0.00     0.059 A 
ATOM     68  F   UNL A   1      44.626  33.735  29.037  1.00  0.00    -0.206 F 
ATOM     69  C   UNL A   1      44.039  35.673  32.031  1.00  0.00     0.060 A 
BRANCH  69  70
ATOM     70  S   UNL A   1      44.095  37.387  32.595  1.00  0.00     0.124 S 
ATOM     71  O   UNL A   1      43.742  38.105  31.375  1.00  0.00    -0.237 OA
ATOM     72  O   UNL A   1      43.088  37.403  33.652  1.00  0.00    -0.237 OA
ATOM     73  O   UNL A   1      45.473  37.550  33.045  1.00  0.00    -0.744 OA
ENDBRANCH  69  70
ENDBRANCH  48  62
BRANCH  49  74
ATOM     74  C   UNL A   1      42.672  23.719  27.653  1.00  0.00     0.058 A 
ATOM     75  C   UNL A   1      42.437  22.636  28.512  1.00  0.00     0.135 A 
ATOM     76  C   UNL A   1      42.724  23.461  26.275  1.00  0.00     0.135 A 
ATOM     77  F   UNL A   1      42.383  22.831  29.838  1.00  0.00    -0.206 F 
ATOM     78  C   UNL A   1      42.274  21.341  28.027  1.00  0.00     0.059 A 
ATOM     79  C   UNL A   1      42.543  22.179  25.764  1.00  0.00     0.059 A 
ATOM     80  F   UNL A   1      42.929  24.467  25.410  1.00  0.00    -0.206 F 
ATOM     81  C   UNL A   1      42.327  21.124  26.649  1.00  0.00     0.060 A 
BRANCH  81  82
ATOM     82  S   UNL A   1      42.059  19.449  26.026  1.00  0.00     0.124 S 
ATOM     83  O   UNL A   1      42.902  19.440  24.837  1.00  0.00    -0.237 OA
ATOM     84  O   UNL A   1      42.520  18.629  27.142  1.00  0.00    -0.237 OA
ATOM     85  O   UNL A   1      40.620  19.410  25.783  1.00  0.00    -0.744 OA
ENDBRANCH  81  82
ENDBRANCH  49  74
BRANCH  61  86
ATOM     86  C   UNL A   1      48.042  27.148  30.490  1.00  0.00     0.058 A 
ATOM     87  C   UNL A   1      49.088  27.279  29.565  1.00  0.00     0.135 A 
ATOM     88  C   UNL A   1      48.353  26.671  31.775  1.00  0.00     0.135 A 
ATOM     89  F   UNL A   1      48.841  27.724  28.324  1.00  0.00    -0.206 F 
ATOM     90  C   UNL A   1      50.394  26.932  29.896  1.00  0.00     0.059 A 
ATOM     91  C   UNL A   1      49.654  26.341  32.134  1.00  0.00     0.059 A 
ATOM     92  F   UNL A   1      47.388  26.539  32.699  1.00  0.00    -0.206 F 
ATOM     93  C   UNL A   1      50.668  26.464  31.183  1.00  0.00     0.060 A 
BRANCH  93  94
ATOM     94  S   UNL A   1      52.371  26.052  31.613  1.00  0.00     0.124 S 
ATOM     95  O   UNL A   1      52.235  24.668  32.058  1.00  0.00    -0.237 OA
ATOM     96  O   UNL A   1      53.072  26.246  30.348  1.00  0.00    -0.237 OA
ATOM     97  O   UNL A   1      52.699  27.018  32.658  1.00  0.00    -0.744 OA
ENDBRANCH  93  94
ENDBRANCH  61  86
ENDBRANCH  35  36
ENDBRANCH  27  30
ENDBRANCH  25  26
ENDBRANCH   1  25
TORSDOF 16
ENDMDL
MODEL 2
REMARK VINA RESULT:     -12.2      1.476      2.486
REMARK SMILES C[C@@H]1[C@@H](C(=O)NCCCCNC(=O)c2ccc(-c3c4nc(c(-c5c(F)cc(S(=O)(=O)[O-])cc5F)c5ccc([nH]5)c(-c5c(F)cc(S(=O)(=O)[O-])cc5F)c5nc(c(-c6c(F)cc(S(=O)(=O)[O-])cc6F)c6ccc3[nH]6)C=C5)C=C4)cc2)CC[N@@H+]1C[C@H]1Cc2ccccc2O1
REMARK SMILES IDX 9 1 8 2 7 3 6 4 4 5 5 6 3 8 1 9 2 10 82 11 80 12 81 13 83 15
REMARK SMILES IDX 84 16 85 17 92 18 86 19 91 20 87 21 90 22 88 23 89 24 10 25
REMARK SMILES IDX 11 26 12 27 13 29 14 30 15 31 79 32 16 33 78 34 17 35 18 36
REMARK SMILES IDX 19 37 72 38 20 39 77 40 71 41 73 42 21 43 76 44 70 45 69 46
REMARK SMILES IDX 22 48 56 49 35 50 55 51 36 52 39 53 54 54 74 55 37 56 38 57
REMARK SMILES IDX 53 59 75 60 40 61 23 62 24 63 33 64 25 65 26 66 32 67 34 68
REMARK SMILES IDX 27 69 28 70 29 71 30 72 31 73 57 74 58 75 67 76 59 77 60 78
REMARK SMILES IDX 66 79 68 80 61 81 62 82 63 83 64 84 65 85 41 86 42 87 51 88
REMARK SMILES IDX 43 89 44 90 50 91 52 92 45 93 46 94 47 95 48 96 49 97
REMARK H PARENT 6 7 82 14 11 28 73 47 39 58
REMARK Flexibility Score: inf
ROOT
ATOM      1  C   UNL A   1      32.924  28.396  25.836  1.00  0.00     0.023 C 
ENDROOT
BRANCH   1   2
ATOM      2  C   UNL A   1      31.785  27.408  26.038  1.00  0.00     0.023 C 
BRANCH   2   3
ATOM      3  C   UNL A   1      32.186  25.954  26.287  1.00  0.00     0.116 C 
BRANCH   3   4
ATOM      4  N   UNL A   1      31.107  25.157  26.835  1.00  0.00    -0.356 N 
ATOM      5  C   UNL A   1      30.613  23.937  26.510  1.00  0.00     0.229 C 
ATOM      6  O   UNL A   1      29.738  23.484  27.259  1.00  0.00    -0.275 OA
ATOM      7  H   UNL A   1      30.641  25.585  27.590  1.00  0.00     0.163 HD
BRANCH   5   8
ATOM      8  C   UNL A   1      30.987  23.142  25.260  1.00  0.00     0.142 C 
ATOM      9  C   UNL A   1      32.520  21.157  24.970  1.00  0.00     0.076 C 
ATOM     10  C   UNL A   1      32.442  22.684  25.081  1.00  0.00     0.193 C 
ATOM     11  N   UNL A   1      32.922  23.419  23.908  1.00  0.00    -0.329 N 
ATOM     12  C   UNL A   1      30.625  23.877  23.979  1.00  0.00     0.081 C 
ATOM     13  C   UNL A   1      31.942  24.359  23.418  1.00  0.00     0.263 C 
ATOM     14  H   UNL A   1      33.707  23.922  24.321  1.00  0.00     0.348 HD
BRANCH  11  15
ATOM     15  C   UNL A   1      33.952  22.925  23.011  1.00  0.00     0.308 C 
BRANCH  15  16
ATOM     16  C   UNL A   1      35.408  23.068  23.494  1.00  0.00     0.232 C 
ATOM     17  C   UNL A   1      35.598  24.060  24.649  1.00  0.00     0.090 C 
ATOM     18  O   UNL A   1      35.933  21.785  23.950  1.00  0.00    -0.484 OA
ATOM     19  C   UNL A   1      36.823  23.482  25.231  1.00  0.00    -0.002 A 
ATOM     20  C   UNL A   1      36.934  22.164  24.812  1.00  0.00     0.123 A 
ATOM     21  C   UNL A   1      37.743  24.056  26.086  1.00  0.00     0.007 A 
ATOM     22  C   UNL A   1      37.968  21.362  25.236  1.00  0.00     0.047 A 
ATOM     23  C   UNL A   1      38.815  23.269  26.502  1.00  0.00     0.001 A 
ATOM     24  C   UNL A   1      38.926  21.931  26.082  1.00  0.00     0.004 A 
ENDBRANCH  15  16
ENDBRANCH  11  15
ENDBRANCH   5   8
ENDBRANCH   3   4
ENDBRANCH   2   3
ENDBRANCH   1   2
BRANCH   1  25
ATOM     25  C   UNL A   1      33.813  28.617  27.046  1.00  0.00     0.116 C 
BRANCH  25  26
ATOM     26  N   UNL A   1      33.709  29.941  27.646  1.00  0.00    -0.352 N 
ATOM     27  C   UNL A   1      34.703  30.636  28.309  1.00  0.00     0.251 C 
ATOM     28  H   UNL A   1      32.836  30.389  27.572  1.00  0.00     0.163 HD
ATOM     29  O   UNL A   1      34.484  31.719  28.824  1.00  0.00    -0.269 OA
BRANCH  27  30
ATOM     30  C   UNL A   1      36.031  29.992  28.420  1.00  0.00     0.039 A 
ATOM     31  C   UNL A   1      36.927  30.099  27.355  1.00  0.00     0.014 A 
ATOM     32  C   UNL A   1      36.424  29.417  29.630  1.00  0.00     0.014 A 
ATOM     33  C   UNL A   1      38.253  29.703  27.538  1.00  0.00     0.010 A 
ATOM     34  C   UNL A   1      37.762  29.118  29.839  1.00  0.00     0.010 A 
ATOM     35  C   UNL A   1      38.691  29.254  28.794  1.00  0.00    -0.014 A 
BRANCH  35  36
ATOM     36  C   UNL A   1      40.109  28.894  29.043  1.00  0.00     0.031 A 
ATOM     37  C   UNL A   1      41.038  29.921  29.632  1.00  0.00     0.074 A 
ATOM     38  C   UNL A   1      40.578  27.688  28.666  1.00  0.00     0.049 A 
ATOM     39  N   UNL A   1      42.329  29.852  29.830  1.00  0.00    -0.248 NA
ATOM     40  C   UNL A   1      40.441  31.214  30.007  1.00  0.00     0.031 C 
ATOM     41  C   UNL A   1      39.792  26.632  28.024  1.00  0.00     0.029 A 
ATOM     42  N   UNL A   1      41.837  27.150  28.760  1.00  0.00    -0.354 N 
ATOM     43  C   UNL A   1      42.700  31.098  30.323  1.00  0.00     0.074 A 
ATOM     44  C   UNL A   1      41.512  31.921  30.335  1.00  0.00     0.031 C 
ATOM     45  C   UNL A   1      40.579  25.564  27.810  1.00  0.00     0.029 A 
ATOM     46  C   UNL A   1      41.930  25.869  28.268  1.00  0.00     0.049 A 
ATOM     47  H   UNL A   1      42.603  27.636  29.142  1.00  0.00     0.167 HD
ATOM     48  C   UNL A   1      43.913  31.509  30.758  1.00  0.00     0.037 A 
ATOM     49  C   UNL A   1      42.987  25.035  28.201  1.00  0.00     0.037 A 
ATOM     50  C   UNL A   1      45.079  30.669  30.794  1.00  0.00     0.049 A 
ATOM     51  C   UNL A   1      44.316  25.497  28.737  1.00  0.00     0.074 A 
ATOM     52  C   UNL A   1      46.342  30.965  31.272  1.00  0.00     0.029 A 
ATOM     53  N   UNL A   1      45.117  29.357  30.342  1.00  0.00    -0.354 N 
ATOM     54  N   UNL A   1      44.638  26.660  29.251  1.00  0.00    -0.248 NA
ATOM     55  C   UNL A   1      45.422  24.530  28.696  1.00  0.00     0.031 C 
ATOM     56  C   UNL A   1      47.152  29.839  31.090  1.00  0.00     0.029 A 
ATOM     57  C   UNL A   1      46.383  28.831  30.530  1.00  0.00     0.049 A 
ATOM     58  H   UNL A   1      44.357  28.873  29.947  1.00  0.00     0.167 HD
ATOM     59  C   UNL A   1      45.973  26.555  29.623  1.00  0.00     0.074 A 
ATOM     60  C   UNL A   1      46.398  25.213  29.280  1.00  0.00     0.031 C 
ATOM     61  C   UNL A   1      46.777  27.484  30.199  1.00  0.00     0.037 A 
BRANCH  48  62
ATOM     62  C   UNL A   1      44.025  32.927  31.245  1.00  0.00     0.058 A 
ATOM     63  C   UNL A   1      43.886  33.251  32.604  1.00  0.00     0.135 A 
ATOM     64  C   UNL A   1      44.268  33.977  30.344  1.00  0.00     0.135 A 
ATOM     65  F   UNL A   1      43.633  32.288  33.505  1.00  0.00    -0.206 F 
ATOM     66  C   UNL A   1      43.941  34.567  33.049  1.00  0.00     0.059 A 
ATOM     67  C   UNL A   1      44.356  35.299  30.771  1.00  0.00     0.059 A 
ATOM     68  F   UNL A   1      44.408  33.724  29.033  1.00  0.00    -0.206 F 
ATOM     69  C   UNL A   1      44.170  35.585  32.123  1.00  0.00     0.060 A 
BRANCH  69  70
ATOM     70  S   UNL A   1      44.224  37.291  32.711  1.00  0.00     0.124 S 
ATOM     71  O   UNL A   1      45.511  37.320  33.398  1.00  0.00    -0.237 OA
ATOM     72  O   UNL A   1      44.153  38.054  31.469  1.00  0.00    -0.237 OA
ATOM     73  O   UNL A   1      43.049  37.390  33.571  1.00  0.00    -0.744 OA
ENDBRANCH  69  70
ENDBRANCH  48  62
BRANCH  49  74
ATOM     74  C   UNL A   1      42.821  23.664  27.650  1.00  0.00     0.058 A 
ATOM     75  C   UNL A   1      42.515  22.586  28.494  1.00  0.00     0.135 A 
ATOM     76  C   UNL A   1      42.943  23.405  26.277  1.00  0.00     0.135 A 
ATOM     77  F   UNL A   1      42.393  22.783  29.815  1.00  0.00    -0.206 F 
ATOM     78  C   UNL A   1      42.352  21.295  28.000  1.00  0.00     0.059 A 
ATOM     79  C   UNL A   1      42.764  22.127  25.756  1.00  0.00     0.059 A 
ATOM     80  F   UNL A   1      43.216  24.406  25.425  1.00  0.00    -0.206 F 
ATOM     81  C   UNL A   1      42.477  21.077  26.627  1.00  0.00     0.060 A 
BRANCH  81  82
ATOM     82  S   UNL A   1      42.209  19.408  25.988  1.00  0.00     0.124 S 
ATOM     83  O   UNL A   1      40.771  19.411  25.750  1.00  0.00    -0.237 OA
ATOM     84  O   UNL A   1      43.055  19.395  24.799  1.00  0.00    -0.237 OA
ATOM     85  O   UNL A   1      42.668  18.555  27.082  1.00  0.00    -0.744 OA
ENDBRANCH  81  82
ENDBRANCH  49  74
BRANCH  61  86
ATOM     86  C   UNL A   1      48.180  27.070  30.536  1.00  0.00     0.058 A 
ATOM     87  C   UNL A   1      49.245  27.283  29.649  1.00  0.00     0.135 A 
ATOM     88  C   UNL A   1      48.467  26.504  31.789  1.00  0.00     0.135 A 
ATOM     89  F   UNL A   1      49.021  27.816  28.438  1.00  0.00    -0.206 F 
ATOM     90  C   UNL A   1      50.548  26.932  29.986  1.00  0.00     0.059 A 
ATOM     91  C   UNL A   1      49.765  26.167  32.156  1.00  0.00     0.059 A 
ATOM     92  F   UNL A   1      47.483  26.290  32.676  1.00  0.00    -0.206 F 
ATOM     93  C   UNL A   1      50.799  26.374  31.242  1.00  0.00     0.060 A 
BRANCH  93  94
ATOM     94  S   UNL A   1      52.498  25.956  31.683  1.00  0.00     0.124 S 
ATOM     95  O   UNL A   1      52.354  24.572  32.125  1.00  0.00    -0.237 OA
ATOM     96  O   UNL A   1      53.207  26.149  30.423  1.00  0.00    -0.237 OA
ATOM     97  O   UNL A   1      52.822  26.919  32.731  1.00  0.00    -0.744 OA
ENDBRANCH  93  94
ENDBRANCH  61  86
ENDBRANCH  35  36
ENDBRANCH  27  30
ENDBRANCH  25  26
ENDBRANCH   1  25
TORSDOF 16
ENDMDL
MODEL 3
REMARK VINA RESULT:     -11.9      3.125      4.254
REMARK SMILES C[C@@H]1[C@@H](C(=O)NCCCCNC(=O)c2ccc(-c3c4nc(c(-c5c(F)cc(S(=O)(=O)[O-])cc5F)c5ccc([nH]5)c(-c5c(F)cc(S(=O)(=O)[O-])cc5F)c5nc(c(-c6c(F)cc(S(=O)(=O)[O-])cc6F)c6ccc3[nH]6)C=C5)C=C4)cc2)CC[N@@H+]1C[C@H]1Cc2ccccc2O1
REMARK SMILES IDX 9 1 8 2 7 3 6 4 4 5 5 6 3 8 1 9 2 10 82 11 80 12 81 13 83 15
REMARK SMILES IDX 84 16 85 17 92 18 86 19 91 20 87 21 90 22 88 23 89 24 10 25
REMARK SMILES IDX 11 26 12 27 13 29 14 30 15 31 79 32 16 33 78 34 17 35 18 36
REMARK SMILES IDX 19 37 72 38 20 39 77 40 71 41 73 42 21 43 76 44 70 45 69 46
REMARK SMILES IDX 22 48 56 49 35 50 55 51 36 52 39 53 54 54 74 55 37 56 38 57
REMARK SMILES IDX 53 59 75 60 40 61 23 62 24 63 33 64 25 65 26 66 32 67 34 68
REMARK SMILES IDX 27 69 28 70 29 71 30 72 31 73 57 74 58 75 67 76 59 77 60 78
REMARK SMILES IDX 66 79 68 80 61 81 62 82 63 83 64 84 65 85 41 86 42 87 51 88
REMARK SMILES IDX 43 89 44 90 50 91 52 92 45 93 46 94 47 95 48 96 49 97
REMARK H PARENT 6 7 82 14 11 28 73 47 39 58
REMARK Flexibility Score: inf
ROOT
ATOM      1  C   UNL A   1      32.918  27.963  27.009  1.00  0.00     0.023 C 
ENDROOT
BRANCH   1   2
ATOM      2  C   UNL A   1      32.106  27.002  26.154  1.00  0.00     0.023 C 
BRANCH   2   3
ATOM      3  C   UNL A   1      32.464  25.520  26.275  1.00  0.00     0.116 C 
BRANCH   3   4
ATOM      4  N   UNL A   1      31.407  24.732  26.876  1.00  0.00    -0.356 N 
ATOM      5  C   UNL A   1      31.010  23.447  26.701  1.00  0.00     0.229 C 
ATOM      6  O   UNL A   1      30.123  23.042  27.464  1.00  0.00    -0.275 OA
ATOM      7  H   UNL A   1      30.873  25.226  27.541  1.00  0.00     0.163 HD
BRANCH   5   8
ATOM      8  C   UNL A   1      31.503  22.518  25.593  1.00  0.00     0.142 C 
ATOM      9  C   UNL A   1      33.187  20.639  25.651  1.00  0.00     0.076 C 
ATOM     10  C   UNL A   1      32.994  22.155  25.540  1.00  0.00     0.193 C 
ATOM     11  N   UNL A   1      33.479  22.755  24.295  1.00  0.00    -0.329 N 
ATOM     12  C   UNL A   1      31.154  23.037  24.207  1.00  0.00     0.081 C 
ATOM     13  C   UNL A   1      32.459  23.539  23.636  1.00  0.00     0.263 C 
ATOM     14  H   UNL A   1      34.203  23.372  24.662  1.00  0.00     0.348 HD
BRANCH  11  15
ATOM     15  C   UNL A   1      34.586  22.225  23.519  1.00  0.00     0.308 C 
BRANCH  15  16
ATOM     16  C   UNL A   1      36.000  22.628  23.978  1.00  0.00     0.232 C 
ATOM     17  C   UNL A   1      36.029  23.683  25.091  1.00  0.00     0.090 C 
ATOM     18  O   UNL A   1      36.735  21.470  24.475  1.00  0.00    -0.484 OA
ATOM     19  C   UNL A   1      37.337  23.341  25.680  1.00  0.00    -0.002 A 
ATOM     20  C   UNL A   1      37.664  22.045  25.310  1.00  0.00     0.123 A 
ATOM     21  C   UNL A   1      38.152  24.095  26.500  1.00  0.00     0.007 A 
ATOM     22  C   UNL A   1      38.821  21.445  25.751  1.00  0.00     0.047 A 
ATOM     23  C   UNL A   1      39.344  23.516  26.932  1.00  0.00     0.001 A 
ATOM     24  C   UNL A   1      39.675  22.199  26.562  1.00  0.00     0.004 A 
ENDBRANCH  15  16
ENDBRANCH  11  15
ENDBRANCH   5   8
ENDBRANCH   3   4
ENDBRANCH   2   3
ENDBRANCH   1   2
BRANCH   1  25
ATOM     25  C   UNL A   1      33.834  28.900  26.242  1.00  0.00     0.116 C 
BRANCH  25  26
ATOM     26  N   UNL A   1      33.714  30.305  26.608  1.00  0.00    -0.352 N 
ATOM     27  C   UNL A   1      34.576  31.034  27.406  1.00  0.00     0.251 C 
ATOM     28  H   UNL A   1      32.936  30.788  26.248  1.00  0.00     0.163 HD
ATOM     29  O   UNL A   1      34.343  32.195  27.693  1.00  0.00    -0.269 OA
BRANCH  27  30
ATOM     30  C   UNL A   1      35.764  30.337  27.946  1.00  0.00     0.039 A 
ATOM     31  C   UNL A   1      36.982  30.455  27.274  1.00  0.00     0.014 A 
ATOM     32  C   UNL A   1      35.689  29.697  29.184  1.00  0.00     0.014 A 
ATOM     33  C   UNL A   1      38.148  30.002  27.894  1.00  0.00     0.010 A 
ATOM     34  C   UNL A   1      36.859  29.339  29.838  1.00  0.00     0.010 A 
ATOM     35  C   UNL A   1      38.101  29.484  29.199  1.00  0.00    -0.014 A 
BRANCH  35  36
ATOM     36  C   UNL A   1      39.331  29.061  29.915  1.00  0.00     0.031 A 
ATOM     37  C   UNL A   1      39.736  29.781  31.173  1.00  0.00     0.074 A 
ATOM     38  C   UNL A   1      40.119  28.099  29.396  1.00  0.00     0.049 A 
ATOM     39  N   UNL A   1      40.820  29.645  31.891  1.00  0.00    -0.248 NA
ATOM     40  C   UNL A   1      38.818  30.823  31.663  1.00  0.00     0.031 C 
ATOM     41  C   UNL A   1      39.869  27.373  28.149  1.00  0.00     0.029 A 
ATOM     42  N   UNL A   1      41.302  27.572  29.852  1.00  0.00    -0.354 N 
ATOM     43  C   UNL A   1      40.727  30.602  32.895  1.00  0.00     0.074 A 
ATOM     44  C   UNL A   1      39.514  31.351  32.658  1.00  0.00     0.031 C 
ATOM     45  C   UNL A   1      40.851  26.477  27.955  1.00  0.00     0.029 A 
ATOM     46  C   UNL A   1      41.815  26.584  29.044  1.00  0.00     0.049 A 
ATOM     47  H   UNL A   1      41.743  27.874  30.679  1.00  0.00     0.167 HD
ATOM     48  C   UNL A   1      41.560  30.815  33.941  1.00  0.00     0.037 A 
ATOM     49  C   UNL A   1      42.936  25.847  29.173  1.00  0.00     0.037 A 
ATOM     50  C   UNL A   1      42.736  30.032  34.201  1.00  0.00     0.049 A 
ATOM     51  C   UNL A   1      43.821  26.068  30.371  1.00  0.00     0.074 A 
ATOM     52  C   UNL A   1      43.616  30.123  35.264  1.00  0.00     0.029 A 
ATOM     53  N   UNL A   1      43.190  29.000  33.392  1.00  0.00    -0.354 N 
ATOM     54  N   UNL A   1      43.690  26.939  31.342  1.00  0.00    -0.248 NA
ATOM     55  C   UNL A   1      44.999  25.198  30.498  1.00  0.00     0.031 C 
ATOM     56  C   UNL A   1      44.615  29.160  35.087  1.00  0.00     0.029 A 
ATOM     57  C   UNL A   1      44.338  28.447  33.931  1.00  0.00     0.049 A 
ATOM     58  H   UNL A   1      42.759  28.706  32.557  1.00  0.00     0.167 HD
ATOM     59  C   UNL A   1      44.749  26.703  32.211  1.00  0.00     0.074 A 
ATOM     60  C   UNL A   1      45.509  25.602  31.653  1.00  0.00     0.031 C 
ATOM     61  C   UNL A   1      45.066  27.338  33.368  1.00  0.00     0.037 A 
BRANCH  48  62
ATOM     62  C   UNL A   1      41.207  31.932  34.884  1.00  0.00     0.058 A 
ATOM     63  C   UNL A   1      40.331  31.733  35.963  1.00  0.00     0.135 A 
ATOM     64  C   UNL A   1      41.745  33.217  34.705  1.00  0.00     0.135 A 
ATOM     65  F   UNL A   1      39.773  30.529  36.167  1.00  0.00    -0.206 F 
ATOM     66  C   UNL A   1      39.966  32.776  36.807  1.00  0.00     0.059 A 
ATOM     67  C   UNL A   1      41.416  34.269  35.556  1.00  0.00     0.059 A 
ATOM     68  F   UNL A   1      42.586  33.463  33.688  1.00  0.00    -0.206 F 
ATOM     69  C   UNL A   1      40.510  34.043  36.590  1.00  0.00     0.060 A 
BRANCH  69  70
ATOM     70  S   UNL A   1      40.017  35.393  37.683  1.00  0.00     0.124 S 
ATOM     71  O   UNL A   1      41.238  35.601  38.455  1.00  0.00    -0.237 OA
ATOM     72  O   UNL A   1      39.676  36.453  36.740  1.00  0.00    -0.237 OA
ATOM     73  O   UNL A   1      38.891  34.833  38.425  1.00  0.00    -0.744 OA
ENDBRANCH  69  70
ENDBRANCH  48  62
BRANCH  49  74
ATOM     74  C   UNL A   1      43.258  24.798  28.169  1.00  0.00     0.058 A 
ATOM     75  C   UNL A   1      42.871  23.466  28.377  1.00  0.00     0.135 A 
ATOM     76  C   UNL A   1      43.937  25.104  26.981  1.00  0.00     0.135 A 
ATOM     77  F   UNL A   1      42.224  23.123  29.501  1.00  0.00    -0.206 F 
ATOM     78  C   UNL A   1      43.160  22.469  27.449  1.00  0.00     0.059 A 
ATOM     79  C   UNL A   1      44.218  24.129  26.028  1.00  0.00     0.059 A 
ATOM     80  F   UNL A   1      44.312  26.368  26.726  1.00  0.00    -0.206 F 
ATOM     81  C   UNL A   1      43.832  22.812  26.276  1.00  0.00     0.060 A 
BRANCH  81  82
ATOM     82  S   UNL A   1      44.153  21.521  25.053  1.00  0.00     0.124 S 
ATOM     83  O   UNL A   1      43.095  20.564  25.351  1.00  0.00    -0.237 OA
ATOM     84  O   UNL A   1      44.021  22.250  23.795  1.00  0.00    -0.237 OA
ATOM     85  O   UNL A   1      45.509  21.086  25.376  1.00  0.00    -0.744 OA
ENDBRANCH  81  82
ENDBRANCH  49  74
BRANCH  61  86
ATOM     86  C   UNL A   1      46.255  26.830  34.131  1.00  0.00     0.058 A 
ATOM     87  C   UNL A   1      46.132  25.831  35.108  1.00  0.00     0.135 A 
ATOM     88  C   UNL A   1      47.541  27.310  33.835  1.00  0.00     0.135 A 
ATOM     89  F   UNL A   1      44.924  25.344  35.429  1.00  0.00    -0.206 F 
ATOM     90  C   UNL A   1      47.244  25.339  35.782  1.00  0.00     0.059 A 
ATOM     91  C   UNL A   1      48.669  26.816  34.480  1.00  0.00     0.059 A 
ATOM     92  F   UNL A   1      47.711  28.258  32.899  1.00  0.00    -0.206 F 
ATOM     93  C   UNL A   1      48.510  25.837  35.461  1.00  0.00     0.060 A 
BRANCH  93  94
ATOM     94  S   UNL A   1      49.950  25.165  36.316  1.00  0.00     0.124 S 
ATOM     95  O   UNL A   1      49.456  25.061  37.685  1.00  0.00    -0.237 OA
ATOM     96  O   UNL A   1      50.166  23.900  35.622  1.00  0.00    -0.237 OA
ATOM     97  O   UNL A   1      50.978  26.177  36.094  1.00  0.00    -0.744 OA
ENDBRANCH  93  94
ENDBRANCH  61  86
ENDBRANCH  35  36
ENDBRANCH  27  30
ENDBRANCH  25  26
ENDBRANCH   1  25
TORSDOF 16
ENDMDL
