MODEL 1
REMARK VINA RESULT:     -11.0      0.000      0.000
REMARK SMILES CCc1cccc(CC)c1N1/C(=[NH+]/C(=O)CCCC(=O)NCCCCNC(=O)c2ccc(-c3c4nc(c(-c5c(F)cc(S(=O)(=O)[O-])cc5F)c5ccc([nH]5)c(-c5c(F)cc(S(=O)(=O)[O-])cc5F)c5nc(c(-c6c(F)cc(S(=O)(=O)[O-])cc6F)c6ccc3[nH]6)C=C5)C=C4)cc2)S[C@@H]2CS(=O)(=O)C[C@@H]21
REMARK SMILES IDX 22 1 21 2 19 3 20 4 18 6 17 7 16 8 14 9 11 10 12 11 102 12
REMARK SMILES IDX 13 13 95 14 96 15 101 16 97 18 98 19 15 20 99 21 100 22
REMARK SMILES IDX 10 23 3 24 4 25 5 26 7 27 6 28 2 29 1 30 8 31 9 32 23 33
REMARK SMILES IDX 24 34 25 35 26 36 27 37 28 39 29 40 30 41 94 42 31 43 93 44
REMARK SMILES IDX 32 45 33 46 34 47 87 48 35 49 92 50 86 51 88 52 36 53 91 54
REMARK SMILES IDX 85 55 84 56 37 58 71 59 50 60 70 61 51 62 54 63 69 64 89 65
REMARK SMILES IDX 52 66 53 67 68 69 90 70 55 71 38 72 39 73 48 74 40 75 41 76
REMARK SMILES IDX 47 77 49 78 42 79 43 80 44 81 45 82 46 83 72 84 73 85 82 86
REMARK SMILES IDX 74 87 75 88 81 89 83 90 76 91 77 92 78 93 79 94 80 95 56 96
REMARK SMILES IDX 57 97 66 98 58 99 59 100 65 101 67 102 60 103 61 104 62 105
REMARK SMILES IDX 63 106 64 107
REMARK H PARENT 21 5 13 17 26 38 88 57 54 68
REMARK Flexibility Score: inf
ROOT
ATOM      1  C   UNL A   1      44.522  40.535  26.225  1.00  0.00     0.116 C 
ENDROOT
BRANCH   1   2
ATOM      2  N   UNL A   1      44.554  41.903  26.684  1.00  0.00    -0.356 N 
ATOM      3  C   UNL A   1      44.846  43.035  25.990  1.00  0.00     0.220 C 
ATOM      4  O   UNL A   1      44.907  44.102  26.602  1.00  0.00    -0.275 OA
ATOM      5  H   UNL A   1      44.333  42.035  27.634  1.00  0.00     0.163 HD
BRANCH   3   6
ATOM      6  C   UNL A   1      45.014  42.995  24.484  1.00  0.00     0.100 C 
BRANCH   6   7
ATOM      7  C   UNL A   1      44.146  43.922  23.640  1.00  0.00     0.022 C 
BRANCH   7   8
ATOM      8  C   UNL A   1      44.671  45.317  23.308  1.00  0.00     0.128 C 
BRANCH   8   9
ATOM      9  C   UNL A   1      45.559  45.482  22.076  1.00  0.00     0.307 C 
ATOM     10  N   UNL A   1      45.115  46.044  18.479  1.00  0.00    -0.216 N 
ATOM     11  C   UNL A   1      45.429  45.521  19.739  1.00  0.00     0.319 C 
ATOM     12  C   UNL A   1      46.210  45.946  17.475  1.00  0.00     0.212 C 
ATOM     13  N   UNL A   1      44.926  45.809  20.893  1.00  0.00    -0.204 N 
ATOM     14  S   UNL A   1      46.821  44.422  19.508  1.00  0.00    -0.029 SA
ATOM     15  C   UNL A   1      47.474  45.529  18.242  1.00  0.00     0.120 C 
ATOM     16  C   UNL A   1      46.539  47.240  16.739  1.00  0.00     0.188 C 
ATOM     17  H   UNL A   1      44.061  46.278  20.931  1.00  0.00     0.316 HD
ATOM     18  C   UNL A   1      48.068  46.776  18.883  1.00  0.00     0.156 C 
ATOM     19  S   UNL A   1      47.840  48.031  17.654  1.00  0.00     0.155 S 
ATOM     20  O   UNL A   1      46.777  45.385  22.220  1.00  0.00    -0.247 OA
ATOM     21  O   UNL A   1      47.325  49.223  18.288  1.00  0.00    -0.229 OA
ATOM     22  O   UNL A   1      49.026  48.055  16.818  1.00  0.00    -0.229 OA
BRANCH  10  23
ATOM     23  C   UNL A   1      43.881  46.570  18.000  1.00  0.00     0.134 A 
ATOM     24  C   UNL A   1      43.517  47.930  18.210  1.00  0.00    -0.001 A 
ATOM     25  C   UNL A   1      42.471  48.498  17.442  1.00  0.00     0.008 A 
ATOM     26  C   UNL A   1      41.765  47.765  16.506  1.00  0.00     0.001 A 
ATOM     27  C   UNL A   1      43.079  45.800  17.090  1.00  0.00    -0.001 A 
ATOM     28  C   UNL A   1      42.063  46.427  16.337  1.00  0.00     0.008 A 
BRANCH  24  29
ATOM     29  C   UNL A   1      44.249  48.884  19.134  1.00  0.00     0.036 C 
ATOM     30  C   UNL A   1      43.993  50.356  18.798  1.00  0.00     0.009 C 
ENDBRANCH  24  29
BRANCH  27  31
ATOM     31  C   UNL A   1      43.290  44.315  16.826  1.00  0.00     0.036 C 
ATOM     32  C   UNL A   1      42.864  43.393  17.968  1.00  0.00     0.009 C 
ENDBRANCH  27  31
ENDBRANCH  10  23
ENDBRANCH   8   9
ENDBRANCH   7   8
ENDBRANCH   6   7
ENDBRANCH   3   6
ENDBRANCH   1   2
BRANCH   1  33
ATOM     33  C   UNL A   1      44.305  39.579  27.395  1.00  0.00     0.023 C 
BRANCH  33  34
ATOM     34  C   UNL A   1      45.579  39.239  28.149  1.00  0.00     0.023 C 
BRANCH  34  35
ATOM     35  C   UNL A   1      46.306  38.026  27.591  1.00  0.00     0.116 C 
BRANCH  35  36
ATOM     36  N   UNL A   1      47.659  37.864  28.113  1.00  0.00    -0.352 N 
ATOM     37  C   UNL A   1      48.257  36.700  28.542  1.00  0.00     0.251 C 
ATOM     38  H   UNL A   1      48.207  38.680  28.165  1.00  0.00     0.163 HD
ATOM     39  O   UNL A   1      49.371  36.712  29.052  1.00  0.00    -0.269 OA
BRANCH  37  40
ATOM     40  C   UNL A   1      47.496  35.443  28.408  1.00  0.00     0.039 A 
ATOM     41  C   UNL A   1      47.088  35.030  27.141  1.00  0.00     0.014 A 
ATOM     42  C   UNL A   1      47.322  34.618  29.523  1.00  0.00     0.014 A 
ATOM     43  C   UNL A   1      46.575  33.742  26.980  1.00  0.00     0.010 A 
ATOM     44  C   UNL A   1      46.912  33.305  29.340  1.00  0.00     0.010 A 
ATOM     45  C   UNL A   1      46.532  32.853  28.067  1.00  0.00    -0.014 A 
BRANCH  45  46
ATOM     46  C   UNL A   1      46.092  31.444  27.896  1.00  0.00     0.031 A 
ATOM     47  C   UNL A   1      44.673  31.062  28.217  1.00  0.00     0.074 A 
ATOM     48  C   UNL A   1      46.983  30.504  27.517  1.00  0.00     0.049 A 
ATOM     49  N   UNL A   1      44.111  29.881  28.192  1.00  0.00    -0.248 NA
ATOM     50  C   UNL A   1      43.774  32.142  28.656  1.00  0.00     0.031 C 
ATOM     51  C   UNL A   1      48.401  30.743  27.237  1.00  0.00     0.029 A 
ATOM     52  N   UNL A   1      46.829  29.156  27.307  1.00  0.00    -0.354 N 
ATOM     53  C   UNL A   1      42.804  30.076  28.621  1.00  0.00     0.074 A 
ATOM     54  C   UNL A   1      42.673  31.473  28.965  1.00  0.00     0.031 C 
ATOM     55  C   UNL A   1      48.977  29.589  26.862  1.00  0.00     0.029 A 
ATOM     56  C   UNL A   1      47.984  28.520  26.917  1.00  0.00     0.049 A 
ATOM     57  H   UNL A   1      45.970  28.688  27.426  1.00  0.00     0.167 HD
ATOM     58  C   UNL A   1      41.794  29.178  28.691  1.00  0.00     0.037 A 
ATOM     59  C   UNL A   1      48.219  27.222  26.642  1.00  0.00     0.037 A 
ATOM     60  C   UNL A   1      41.926  27.794  28.320  1.00  0.00     0.049 A 
ATOM     61  C   UNL A   1      47.080  26.241  26.734  1.00  0.00     0.074 A 
ATOM     62  C   UNL A   1      40.948  26.815  28.295  1.00  0.00     0.029 A 
ATOM     63  N   UNL A   1      43.107  27.191  27.912  1.00  0.00    -0.354 N 
ATOM     64  N   UNL A   1      45.830  26.458  27.066  1.00  0.00    -0.248 NA
ATOM     65  C   UNL A   1      47.381  24.841  26.406  1.00  0.00     0.031 C 
ATOM     66  C   UNL A   1      41.550  25.608  27.926  1.00  0.00     0.029 A 
ATOM     67  C   UNL A   1      42.889  25.847  27.660  1.00  0.00     0.049 A 
ATOM     68  H   UNL A   1      43.973  27.651  27.817  1.00  0.00     0.167 HD
ATOM     69  C   UNL A   1      45.189  25.228  26.962  1.00  0.00     0.074 A 
ATOM     70  C   UNL A   1      46.186  24.276  26.518  1.00  0.00     0.031 C 
ATOM     71  C   UNL A   1      43.893  24.915  27.211  1.00  0.00     0.037 A 
BRANCH  58  72
ATOM     72  C   UNL A   1      40.457  29.664  29.180  1.00  0.00     0.058 A 
ATOM     73  C   UNL A   1      39.378  29.864  28.303  1.00  0.00     0.135 A 
ATOM     74  C   UNL A   1      40.237  29.895  30.547  1.00  0.00     0.135 A 
ATOM     75  F   UNL A   1      39.535  29.677  26.982  1.00  0.00    -0.206 F 
ATOM     76  C   UNL A   1      38.139  30.299  28.760  1.00  0.00     0.059 A 
ATOM     77  C   UNL A   1      38.998  30.301  31.031  1.00  0.00     0.059 A 
ATOM     78  F   UNL A   1      41.234  29.726  31.430  1.00  0.00    -0.206 F 
ATOM     79  C   UNL A   1      37.957  30.512  30.127  1.00  0.00     0.060 A 
BRANCH  79  80
ATOM     80  S   UNL A   1      36.338  31.061  30.703  1.00  0.00     0.124 S 
ATOM     81  O   UNL A   1      36.650  32.389  31.224  1.00  0.00    -0.237 OA
ATOM     82  O   UNL A   1      35.546  31.031  29.478  1.00  0.00    -0.237 OA
ATOM     83  O   UNL A   1      35.976  30.065  31.706  1.00  0.00    -0.744 OA
ENDBRANCH  79  80
ENDBRANCH  58  72
BRANCH  59  84
ATOM     84  C   UNL A   1      49.582  26.776  26.239  1.00  0.00     0.058 A 
ATOM     85  C   UNL A   1      50.482  26.255  27.181  1.00  0.00     0.135 A 
ATOM     86  C   UNL A   1      50.013  26.863  24.906  1.00  0.00     0.135 A 
ATOM     87  F   UNL A   1      50.123  26.157  28.470  1.00  0.00    -0.206 F 
ATOM     88  C   UNL A   1      51.768  25.860  26.822  1.00  0.00     0.059 A 
ATOM     89  C   UNL A   1      51.282  26.445  24.517  1.00  0.00     0.059 A 
ATOM     90  F   UNL A   1      49.187  27.336  23.961  1.00  0.00    -0.206 F 
ATOM     91  C   UNL A   1      52.158  25.957  25.487  1.00  0.00     0.060 A 
BRANCH  91  92
ATOM     92  S   UNL A   1      53.815  25.406  25.026  1.00  0.00     0.124 S 
ATOM     93  O   UNL A   1      53.965  26.000  23.703  1.00  0.00    -0.237 OA
ATOM     94  O   UNL A   1      54.635  25.988  26.084  1.00  0.00    -0.237 OA
ATOM     95  O   UNL A   1      53.705  23.950  25.057  1.00  0.00    -0.744 OA
ENDBRANCH  91  92
ENDBRANCH  59  84
BRANCH  71  96
ATOM     96  C   UNL A   1      43.465  23.491  26.976  1.00  0.00     0.058 A 
ATOM     97  C   UNL A   1      43.180  22.619  28.038  1.00  0.00     0.135 A 
ATOM     98  C   UNL A   1      43.285  23.013  25.667  1.00  0.00     0.135 A 
ATOM     99  F   UNL A   1      43.342  23.024  29.307  1.00  0.00    -0.206 F 
ATOM    100  C   UNL A   1      42.754  21.314  27.811  1.00  0.00     0.059 A 
ATOM    101  C   UNL A   1      42.829  21.723  25.418  1.00  0.00     0.059 A 
ATOM    102  F   UNL A   1      43.532  23.809  24.615  1.00  0.00    -0.206 F 
ATOM    103  C   UNL A   1      42.578  20.877  26.496  1.00  0.00     0.060 A 
BRANCH 103 104
ATOM    104  S   UNL A   1      41.990  19.194  26.218  1.00  0.00     0.124 S 
ATOM    105  O   UNL A   1      42.747  18.810  25.030  1.00  0.00    -0.237 OA
ATOM    106  O   UNL A   1      42.372  18.522  27.456  1.00  0.00    -0.237 OA
ATOM    107  O   UNL A   1      40.554  19.363  26.020  1.00  0.00    -0.744 OA
ENDBRANCH 103 104
ENDBRANCH  71  96
ENDBRANCH  45  46
ENDBRANCH  37  40
ENDBRANCH  35  36
ENDBRANCH  34  35
ENDBRANCH  33  34
ENDBRANCH   1  33
TORSDOF 20
ENDMDL
MODEL 2
REMARK VINA RESULT:     -10.8     11.394     15.837
REMARK SMILES CCc1cccc(CC)c1N1/C(=[NH+]/C(=O)CCCC(=O)NCCCCNC(=O)c2ccc(-c3c4nc(c(-c5c(F)cc(S(=O)(=O)[O-])cc5F)c5ccc([nH]5)c(-c5c(F)cc(S(=O)(=O)[O-])cc5F)c5nc(c(-c6c(F)cc(S(=O)(=O)[O-])cc6F)c6ccc3[nH]6)C=C5)C=C4)cc2)S[C@@H]2CS(=O)(=O)C[C@@H]21
REMARK SMILES IDX 22 1 21 2 19 3 20 4 18 6 17 7 16 8 14 9 11 10 12 11 102 12
REMARK SMILES IDX 13 13 95 14 96 15 101 16 97 18 98 19 15 20 99 21 100 22
REMARK SMILES IDX 10 23 3 24 4 25 5 26 7 27 6 28 2 29 1 30 8 31 9 32 23 33
REMARK SMILES IDX 24 34 25 35 26 36 27 37 28 39 29 40 30 41 94 42 31 43 93 44
REMARK SMILES IDX 32 45 33 46 34 47 87 48 35 49 92 50 86 51 88 52 36 53 91 54
REMARK SMILES IDX 85 55 84 56 37 58 71 59 50 60 70 61 51 62 54 63 69 64 89 65
REMARK SMILES IDX 52 66 53 67 68 69 90 70 55 71 38 72 39 73 48 74 40 75 41 76
REMARK SMILES IDX 47 77 49 78 42 79 43 80 44 81 45 82 46 83 72 84 73 85 82 86
REMARK SMILES IDX 74 87 75 88 81 89 83 90 76 91 77 92 78 93 79 94 80 95 56 96
REMARK SMILES IDX 57 97 66 98 58 99 59 100 65 101 67 102 60 103 61 104 62 105
REMARK SMILES IDX 63 106 64 107
REMARK H PARENT 21 5 13 17 26 38 88 57 54 68
REMARK Flexibility Score: inf
ROOT
ATOM      1  C   UNL A   1      34.769  33.845  28.046  1.00  0.00     0.116 C 
ENDROOT
BRANCH   1   2
ATOM      2  N   UNL A   1      35.269  32.753  28.846  1.00  0.00    -0.356 N 
ATOM      3  C   UNL A   1      35.219  31.416  28.600  1.00  0.00     0.220 C 
ATOM      4  O   UNL A   1      35.626  30.642  29.467  1.00  0.00    -0.275 OA
ATOM      5  H   UNL A   1      35.707  33.011  29.689  1.00  0.00     0.163 HD
BRANCH   3   6
ATOM      6  C   UNL A   1      34.748  30.896  27.256  1.00  0.00     0.100 C 
BRANCH   6   7
ATOM      7  C   UNL A   1      33.266  30.583  27.087  1.00  0.00     0.022 C 
BRANCH   7   8
ATOM      8  C   UNL A   1      32.721  29.280  27.667  1.00  0.00     0.128 C 
BRANCH   8   9
ATOM      9  C   UNL A   1      32.683  28.046  26.767  1.00  0.00     0.307 C 
ATOM     10  N   UNL A   1      30.763  26.871  23.871  1.00  0.00    -0.216 N 
ATOM     11  C   UNL A   1      31.346  27.034  25.133  1.00  0.00     0.319 C 
ATOM     12  C   UNL A   1      30.826  25.485  23.331  1.00  0.00     0.212 C 
ATOM     13  N   UNL A   1      31.835  28.098  25.677  1.00  0.00    -0.204 N 
ATOM     14  S   UNL A   1      31.441  25.407  25.871  1.00  0.00    -0.029 SA
ATOM     15  C   UNL A   1      31.780  24.700  24.246  1.00  0.00     0.120 C 
ATOM     16  C   UNL A   1      31.364  25.360  21.910  1.00  0.00     0.188 C 
ATOM     17  H   UNL A   1      31.596  28.976  25.303  1.00  0.00     0.316 HD
ATOM     18  C   UNL A   1      33.206  25.014  23.817  1.00  0.00     0.156 C 
ATOM     19  S   UNL A   1      33.112  25.077  22.049  1.00  0.00     0.155 S 
ATOM     20  O   UNL A   1      33.450  27.118  27.019  1.00  0.00    -0.247 OA
ATOM     21  O   UNL A   1      33.827  26.242  21.580  1.00  0.00    -0.229 OA
ATOM     22  O   UNL A   1      33.392  23.746  21.543  1.00  0.00    -0.229 OA
BRANCH  10  23
ATOM     23  C   UNL A   1      30.047  27.812  23.077  1.00  0.00     0.134 A 
ATOM     24  C   UNL A   1      28.633  27.943  23.168  1.00  0.00    -0.001 A 
ATOM     25  C   UNL A   1      28.004  29.095  22.635  1.00  0.00     0.008 A 
ATOM     26  C   UNL A   1      28.718  30.094  21.998  1.00  0.00     0.001 A 
ATOM     27  C   UNL A   1      30.762  28.813  22.334  1.00  0.00    -0.001 A 
ATOM     28  C   UNL A   1      30.083  29.949  21.844  1.00  0.00     0.008 A 
BRANCH  24  29
ATOM     29  C   UNL A   1      27.724  26.980  23.908  1.00  0.00     0.036 C 
ATOM     30  C   UNL A   1      26.280  27.479  24.008  1.00  0.00     0.009 C 
ENDBRANCH  24  29
BRANCH  27  31
ATOM     31  C   UNL A   1      32.261  28.763  22.076  1.00  0.00     0.036 C 
ATOM     32  C   UNL A   1      33.124  29.343  23.196  1.00  0.00     0.009 C 
ENDBRANCH  27  31
ENDBRANCH  10  23
ENDBRANCH   8   9
ENDBRANCH   7   8
ENDBRANCH   6   7
ENDBRANCH   3   6
ENDBRANCH   1   2
BRANCH   1  33
ATOM     33  C   UNL A   1      33.269  34.032  28.265  1.00  0.00     0.023 C 
BRANCH  33  34
ATOM     34  C   UNL A   1      32.851  35.484  28.415  1.00  0.00     0.023 C 
BRANCH  34  35
ATOM     35  C   UNL A   1      33.395  36.143  29.672  1.00  0.00     0.116 C 
BRANCH  35  36
ATOM     36  N   UNL A   1      32.553  35.945  30.848  1.00  0.00    -0.352 N 
ATOM     37  C   UNL A   1      32.841  35.200  31.969  1.00  0.00     0.251 C 
ATOM     38  H   UNL A   1      31.678  36.396  30.837  1.00  0.00     0.163 HD
ATOM     39  O   UNL A   1      32.006  35.032  32.850  1.00  0.00    -0.269 OA
BRANCH  37  40
ATOM     40  C   UNL A   1      34.174  34.572  32.057  1.00  0.00     0.039 A 
ATOM     41  C   UNL A   1      35.300  35.387  32.172  1.00  0.00     0.014 A 
ATOM     42  C   UNL A   1      34.279  33.183  32.167  1.00  0.00     0.014 A 
ATOM     43  C   UNL A   1      36.529  34.805  32.484  1.00  0.00     0.010 A 
ATOM     44  C   UNL A   1      35.479  32.622  32.581  1.00  0.00     0.010 A 
ATOM     45  C   UNL A   1      36.618  33.426  32.742  1.00  0.00    -0.014 A 
BRANCH  45  46
ATOM     46  C   UNL A   1      37.893  32.803  33.181  1.00  0.00     0.031 A 
ATOM     47  C   UNL A   1      38.416  33.069  34.567  1.00  0.00     0.074 A 
ATOM     48  C   UNL A   1      38.607  32.055  32.315  1.00  0.00     0.049 A 
ATOM     49  N   UNL A   1      39.533  32.672  35.117  1.00  0.00    -0.248 NA
ATOM     50  C   UNL A   1      37.591  33.924  35.438  1.00  0.00     0.031 C 
ATOM     51  C   UNL A   1      38.234  31.776  30.925  1.00  0.00     0.029 A 
ATOM     52  N   UNL A   1      39.802  31.397  32.472  1.00  0.00    -0.354 N 
ATOM     53  C   UNL A   1      39.549  33.233  36.388  1.00  0.00     0.074 A 
ATOM     54  C   UNL A   1      38.366  34.056  36.504  1.00  0.00     0.031 C 
ATOM     55  C   UNL A   1      39.161  30.980  30.370  1.00  0.00     0.029 A 
ATOM     56  C   UNL A   1      40.218  30.726  31.345  1.00  0.00     0.049 A 
ATOM     57  H   UNL A   1      40.313  31.404  33.314  1.00  0.00     0.167 HD
ATOM     58  C   UNL A   1      40.452  33.055  37.380  1.00  0.00     0.037 A 
ATOM     59  C   UNL A   1      41.329  29.997  31.121  1.00  0.00     0.037 A 
ATOM     60  C   UNL A   1      41.612  32.213  37.265  1.00  0.00     0.049 A 
ATOM     61  C   UNL A   1      42.321  29.819  32.239  1.00  0.00     0.074 A 
ATOM     62  C   UNL A   1      42.556  31.915  38.232  1.00  0.00     0.029 A 
ATOM     63  N   UNL A   1      41.990  31.536  36.114  1.00  0.00    -0.354 N 
ATOM     64  N   UNL A   1      42.280  30.295  33.461  1.00  0.00    -0.248 NA
ATOM     65  C   UNL A   1      43.506  28.999  31.953  1.00  0.00     0.031 C 
ATOM     66  C   UNL A   1      43.534  31.103  37.651  1.00  0.00     0.029 A 
ATOM     67  C   UNL A   1      43.168  30.844  36.339  1.00  0.00     0.049 A 
ATOM     68  H   UNL A   1      41.494  31.547  35.264  1.00  0.00     0.167 HD
ATOM     69  C   UNL A   1      43.418  29.811  34.096  1.00  0.00     0.074 A 
ATOM     70  C   UNL A   1      44.118  28.990  33.129  1.00  0.00     0.031 C 
ATOM     71  C   UNL A   1      43.847  30.025  35.366  1.00  0.00     0.037 A 
BRANCH  58  72
ATOM     72  C   UNL A   1      40.216  33.778  38.679  1.00  0.00     0.058 A 
ATOM     73  C   UNL A   1      39.345  33.273  39.658  1.00  0.00     0.135 A 
ATOM     74  C   UNL A   1      40.901  34.969  38.967  1.00  0.00     0.135 A 
ATOM     75  F   UNL A   1      38.649  32.147  39.430  1.00  0.00    -0.206 F 
ATOM     76  C   UNL A   1      39.141  33.936  40.863  1.00  0.00     0.059 A 
ATOM     77  C   UNL A   1      40.737  35.633  40.179  1.00  0.00     0.059 A 
ATOM     78  F   UNL A   1      41.742  35.501  38.066  1.00  0.00    -0.206 F 
ATOM     79  C   UNL A   1      39.845  35.114  41.116  1.00  0.00     0.060 A 
BRANCH  79  80
ATOM     80  S   UNL A   1      39.580  35.952  42.693  1.00  0.00     0.124 S 
ATOM     81  O   UNL A   1      40.673  35.412  43.496  1.00  0.00    -0.237 OA
ATOM     82  O   UNL A   1      39.701  37.357  42.321  1.00  0.00    -0.237 OA
ATOM     83  O   UNL A   1      38.242  35.522  43.087  1.00  0.00    -0.744 OA
ENDBRANCH  79  80
ENDBRANCH  58  72
BRANCH  59  84
ATOM     84  C   UNL A   1      41.555  29.366  29.790  1.00  0.00     0.058 A 
ATOM     85  C   UNL A   1      41.012  28.110  29.482  1.00  0.00     0.135 A 
ATOM     86  C   UNL A   1      42.320  30.005  28.802  1.00  0.00     0.135 A 
ATOM     87  F   UNL A   1      40.278  27.454  30.394  1.00  0.00    -0.206 F 
ATOM     88  C   UNL A   1      41.238  27.498  28.253  1.00  0.00     0.059 A 
ATOM     89  C   UNL A   1      42.535  29.427  27.554  1.00  0.00     0.059 A 
ATOM     90  F   UNL A   1      42.849  31.215  29.037  1.00  0.00    -0.206 F 
ATOM     91  C   UNL A   1      42.000  28.166  27.294  1.00  0.00     0.060 A 
BRANCH  91  92
ATOM     92  S   UNL A   1      42.256  27.378  25.688  1.00  0.00     0.124 S 
ATOM     93  O   UNL A   1      42.230  28.527  24.791  1.00  0.00    -0.237 OA
ATOM     94  O   UNL A   1      43.554  26.735  25.867  1.00  0.00    -0.237 OA
ATOM     95  O   UNL A   1      41.122  26.464  25.579  1.00  0.00    -0.744 OA
ENDBRANCH  91  92
ENDBRANCH  59  84
BRANCH  71  96
ATOM     96  C   UNL A   1      45.113  29.336  35.797  1.00  0.00     0.058 A 
ATOM     97  C   UNL A   1      46.373  29.931  35.630  1.00  0.00     0.135 A 
ATOM     98  C   UNL A   1      45.056  28.087  36.438  1.00  0.00     0.135 A 
ATOM     99  F   UNL A   1      46.484  31.120  35.019  1.00  0.00    -0.206 F 
ATOM    100  C   UNL A   1      47.536  29.300  36.062  1.00  0.00     0.059 A 
ATOM    101  C   UNL A   1      46.203  27.454  36.906  1.00  0.00     0.059 A 
ATOM    102  F   UNL A   1      43.875  27.479  36.634  1.00  0.00    -0.206 F 
ATOM    103  C   UNL A   1      47.439  28.063  36.702  1.00  0.00     0.060 A 
BRANCH 103 104
ATOM    104  S   UNL A   1      48.953  27.274  37.288  1.00  0.00     0.124 S 
ATOM    105  O   UNL A   1      49.978  28.113  36.676  1.00  0.00    -0.237 OA
ATOM    106  O   UNL A   1      48.823  27.389  38.737  1.00  0.00    -0.237 OA
ATOM    107  O   UNL A   1      48.856  25.916  36.761  1.00  0.00    -0.744 OA
ENDBRANCH 103 104
ENDBRANCH  71  96
ENDBRANCH  45  46
ENDBRANCH  37  40
ENDBRANCH  35  36
ENDBRANCH  34  35
ENDBRANCH  33  34
ENDBRANCH   1  33
TORSDOF 20
ENDMDL
MODEL 3
REMARK VINA RESULT:     -10.5      8.268     12.097
REMARK SMILES CCc1cccc(CC)c1N1/C(=[NH+]/C(=O)CCCC(=O)NCCCCNC(=O)c2ccc(-c3c4nc(c(-c5c(F)cc(S(=O)(=O)[O-])cc5F)c5ccc([nH]5)c(-c5c(F)cc(S(=O)(=O)[O-])cc5F)c5nc(c(-c6c(F)cc(S(=O)(=O)[O-])cc6F)c6ccc3[nH]6)C=C5)C=C4)cc2)S[C@@H]2CS(=O)(=O)C[C@@H]21
REMARK SMILES IDX 22 1 21 2 19 3 20 4 18 6 17 7 16 8 14 9 11 10 12 11 102 12
REMARK SMILES IDX 13 13 95 14 96 15 101 16 97 18 98 19 15 20 99 21 100 22
REMARK SMILES IDX 10 23 3 24 4 25 5 26 7 27 6 28 2 29 1 30 8 31 9 32 23 33
REMARK SMILES IDX 24 34 25 35 26 36 27 37 28 39 29 40 30 41 94 42 31 43 93 44
REMARK SMILES IDX 32 45 33 46 34 47 87 48 35 49 92 50 86 51 88 52 36 53 91 54
REMARK SMILES IDX 85 55 84 56 37 58 71 59 50 60 70 61 51 62 54 63 69 64 89 65
REMARK SMILES IDX 52 66 53 67 68 69 90 70 55 71 38 72 39 73 48 74 40 75 41 76
REMARK SMILES IDX 47 77 49 78 42 79 43 80 44 81 45 82 46 83 72 84 73 85 82 86
REMARK SMILES IDX 74 87 75 88 81 89 83 90 76 91 77 92 78 93 79 94 80 95 56 96
REMARK SMILES IDX 57 97 66 98 58 99 59 100 65 101 67 102 60 103 61 104 62 105
REMARK SMILES IDX 63 106 64 107
REMARK H PARENT 21 5 13 17 26 38 88 57 54 68
REMARK Flexibility Score: inf
ROOT
ATOM      1  C   UNL A   1      36.522  33.370  31.249  1.00  0.00     0.116 C 
ENDROOT
BRANCH   1   2
ATOM      2  N   UNL A   1      37.060  34.103  32.370  1.00  0.00    -0.356 N 
ATOM      3  C   UNL A   1      38.340  34.497  32.602  1.00  0.00     0.220 C 
ATOM      4  O   UNL A   1      38.604  35.037  33.678  1.00  0.00    -0.275 OA
ATOM      5  H   UNL A   1      36.408  34.352  33.064  1.00  0.00     0.163 HD
BRANCH   3   6
ATOM      6  C   UNL A   1      39.400  34.349  31.530  1.00  0.00     0.100 C 
BRANCH   6   7
ATOM      7  C   UNL A   1      40.864  34.404  31.954  1.00  0.00     0.022 C 
BRANCH   7   8
ATOM      8  C   UNL A   1      41.836  33.384  31.367  1.00  0.00     0.128 C 
BRANCH   8   9
ATOM      9  C   UNL A   1      42.865  33.867  30.346  1.00  0.00     0.307 C 
ATOM     10  N   UNL A   1      46.033  32.678  28.930  1.00  0.00    -0.216 N 
ATOM     11  C   UNL A   1      45.031  33.398  29.593  1.00  0.00     0.319 C 
ATOM     12  C   UNL A   1      46.931  33.505  28.078  1.00  0.00     0.212 C 
ATOM     13  N   UNL A   1      43.886  32.992  30.031  1.00  0.00    -0.204 N 
ATOM     14  S   UNL A   1      45.556  35.107  29.620  1.00  0.00    -0.029 SA
ATOM     15  C   UNL A   1      46.289  34.898  27.984  1.00  0.00     0.120 C 
ATOM     16  C   UNL A   1      47.124  33.004  26.652  1.00  0.00     0.188 C 
ATOM     17  H   UNL A   1      43.736  32.026  30.144  1.00  0.00     0.316 HD
ATOM     18  C   UNL A   1      45.203  34.844  26.919  1.00  0.00     0.156 C 
ATOM     19  S   UNL A   1      45.903  33.821  25.654  1.00  0.00     0.155 S 
ATOM     20  O   UNL A   1      42.688  34.964  29.818  1.00  0.00    -0.247 OA
ATOM     21  O   UNL A   1      44.913  32.861  25.222  1.00  0.00    -0.229 OA
ATOM     22  O   UNL A   1      46.596  34.687  24.717  1.00  0.00    -0.229 OA
BRANCH  10  23
ATOM     23  C   UNL A   1      46.366  31.297  29.021  1.00  0.00     0.134 A 
ATOM     24  C   UNL A   1      47.439  30.840  29.837  1.00  0.00    -0.001 A 
ATOM     25  C   UNL A   1      47.524  29.467  30.172  1.00  0.00     0.008 A 
ATOM     26  C   UNL A   1      46.610  28.539  29.707  1.00  0.00     0.001 A 
ATOM     27  C   UNL A   1      45.479  30.308  28.474  1.00  0.00    -0.001 A 
ATOM     28  C   UNL A   1      45.601  28.956  28.861  1.00  0.00     0.008 A 
BRANCH  24  29
ATOM     29  C   UNL A   1      48.468  31.742  30.492  1.00  0.00     0.036 C 
ATOM     30  C   UNL A   1      48.025  32.256  31.865  1.00  0.00     0.009 C 
ENDBRANCH  24  29
BRANCH  27  31
ATOM     31  C   UNL A   1      44.339  30.632  27.518  1.00  0.00     0.036 C 
ATOM     32  C   UNL A   1      43.010  29.954  27.849  1.00  0.00     0.009 C 
ENDBRANCH  27  31
ENDBRANCH  10  23
ENDBRANCH   8   9
ENDBRANCH   7   8
ENDBRANCH   6   7
ENDBRANCH   3   6
ENDBRANCH   1   2
BRANCH   1  33
ATOM     33  C   UNL A   1      36.699  34.161  29.954  1.00  0.00     0.023 C 
BRANCH  33  34
ATOM     34  C   UNL A   1      35.805  33.684  28.822  1.00  0.00     0.023 C 
BRANCH  34  35
ATOM     35  C   UNL A   1      34.763  32.669  29.262  1.00  0.00     0.116 C 
BRANCH  35  36
ATOM     36  N   UNL A   1      34.108  31.984  28.152  1.00  0.00    -0.352 N 
ATOM     37  C   UNL A   1      34.526  30.839  27.510  1.00  0.00     0.251 C 
ATOM     38  H   UNL A   1      33.272  32.388  27.823  1.00  0.00     0.163 HD
ATOM     39  O   UNL A   1      33.937  30.416  26.523  1.00  0.00    -0.269 OA
BRANCH  37  40
ATOM     40  C   UNL A   1      35.732  30.162  28.023  1.00  0.00     0.039 A 
ATOM     41  C   UNL A   1      36.959  30.404  27.406  1.00  0.00     0.014 A 
ATOM     42  C   UNL A   1      35.656  29.408  29.198  1.00  0.00     0.014 A 
ATOM     43  C   UNL A   1      38.128  29.954  28.021  1.00  0.00     0.010 A 
ATOM     44  C   UNL A   1      36.825  29.057  29.858  1.00  0.00     0.010 A 
ATOM     45  C   UNL A   1      38.074  29.323  29.276  1.00  0.00    -0.014 A 
BRANCH  45  46
ATOM     46  C   UNL A   1      39.312  28.933  29.998  1.00  0.00     0.031 A 
ATOM     47  C   UNL A   1      39.677  29.626  31.282  1.00  0.00     0.074 A 
ATOM     48  C   UNL A   1      40.135  28.005  29.466  1.00  0.00     0.049 A 
ATOM     49  N   UNL A   1      40.740  29.475  32.028  1.00  0.00    -0.248 NA
ATOM     50  C   UNL A   1      38.741  30.650  31.777  1.00  0.00     0.031 C 
ATOM     51  C   UNL A   1      39.920  27.308  28.196  1.00  0.00     0.029 A 
ATOM     52  N   UNL A   1      41.324  27.494  29.924  1.00  0.00    -0.354 N 
ATOM     53  C   UNL A   1      40.604  30.387  33.068  1.00  0.00     0.074 A 
ATOM     54  C   UNL A   1      39.394  31.136  32.822  1.00  0.00     0.031 C 
ATOM     55  C   UNL A   1      40.922  26.439  27.994  1.00  0.00     0.029 A 
ATOM     56  C   UNL A   1      41.876  26.546  29.094  1.00  0.00     0.049 A 
ATOM     57  H   UNL A   1      41.742  27.779  30.769  1.00  0.00     0.167 HD
ATOM     58  C   UNL A   1      41.401  30.562  34.148  1.00  0.00     0.037 A 
ATOM     59  C   UNL A   1      43.024  25.849  29.203  1.00  0.00     0.037 A 
ATOM     60  C   UNL A   1      42.591  29.793  34.399  1.00  0.00     0.049 A 
ATOM     61  C   UNL A   1      43.897  26.068  30.411  1.00  0.00     0.074 A 
ATOM     62  C   UNL A   1      43.434  29.850  35.495  1.00  0.00     0.029 A 
ATOM     63  N   UNL A   1      43.108  28.830  33.544  1.00  0.00    -0.354 N 
ATOM     64  N   UNL A   1      43.713  26.880  31.424  1.00  0.00    -0.248 NA
ATOM     65  C   UNL A   1      45.128  25.270  30.494  1.00  0.00     0.031 C 
ATOM     66  C   UNL A   1      44.491  28.961  35.277  1.00  0.00     0.029 A 
ATOM     67  C   UNL A   1      44.274  28.305  34.075  1.00  0.00     0.049 A 
ATOM     68  H   UNL A   1      42.705  28.560  32.687  1.00  0.00     0.167 HD
ATOM     69  C   UNL A   1      44.790  26.672  32.279  1.00  0.00     0.074 A 
ATOM     70  C   UNL A   1      45.611  25.645  31.671  1.00  0.00     0.031 C 
ATOM     71  C   UNL A   1      45.075  27.277  33.459  1.00  0.00     0.037 A 
BRANCH  58  72
ATOM     72  C   UNL A   1      41.009  31.621  35.143  1.00  0.00     0.058 A 
ATOM     73  C   UNL A   1      41.657  32.866  35.190  1.00  0.00     0.135 A 
ATOM     74  C   UNL A   1      39.945  31.405  36.032  1.00  0.00     0.135 A 
ATOM     75  F   UNL A   1      42.694  33.122  34.376  1.00  0.00    -0.206 F 
ATOM     76  C   UNL A   1      41.282  33.848  36.101  1.00  0.00     0.059 A 
ATOM     77  C   UNL A   1      39.531  32.384  36.931  1.00  0.00     0.059 A 
ATOM     78  F   UNL A   1      39.293  30.232  36.035  1.00  0.00    -0.206 F 
ATOM     79  C   UNL A   1      40.216  33.599  36.965  1.00  0.00     0.060 A 
BRANCH  79  80
ATOM     80  S   UNL A   1      39.733  34.891  38.129  1.00  0.00     0.124 S 
ATOM     81  O   UNL A   1      38.415  34.425  38.550  1.00  0.00    -0.237 OA
ATOM     82  O   UNL A   1      40.785  34.810  39.136  1.00  0.00    -0.237 OA
ATOM     83  O   UNL A   1      39.738  36.103  37.316  1.00  0.00    -0.744 OA
ENDBRANCH  79  80
ENDBRANCH  58  72
BRANCH  59  84
ATOM     84  C   UNL A   1      43.409  24.868  28.149  1.00  0.00     0.058 A 
ATOM     85  C   UNL A   1      43.059  23.514  28.259  1.00  0.00     0.135 A 
ATOM     86  C   UNL A   1      44.135  25.264  27.015  1.00  0.00     0.135 A 
ATOM     87  F   UNL A   1      42.371  23.082  29.326  1.00  0.00    -0.206 F 
ATOM     88  C   UNL A   1      43.435  22.582  27.295  1.00  0.00     0.059 A 
ATOM     89  C   UNL A   1      44.495  24.357  26.023  1.00  0.00     0.059 A 
ATOM     90  F   UNL A   1      44.480  26.550  26.852  1.00  0.00    -0.206 F 
ATOM     91  C   UNL A   1      44.152  23.015  26.179  1.00  0.00     0.060 A 
BRANCH  91  92
ATOM     92  S   UNL A   1      44.602  21.803  24.916  1.00  0.00     0.124 S 
ATOM     93  O   UNL A   1      44.421  22.575  23.692  1.00  0.00    -0.237 OA
ATOM     94  O   UNL A   1      45.981  21.487  25.275  1.00  0.00    -0.237 OA
ATOM     95  O   UNL A   1      43.642  20.723  25.131  1.00  0.00    -0.744 OA
ENDBRANCH  91  92
ENDBRANCH  59  84
BRANCH  71  96
ATOM     96  C   UNL A   1      46.307  26.820  34.194  1.00  0.00     0.058 A 
ATOM     97  C   UNL A   1      47.531  27.497  34.076  1.00  0.00     0.135 A 
ATOM     98  C   UNL A   1      46.244  25.724  35.070  1.00  0.00     0.135 A 
ATOM     99  F   UNL A   1      47.647  28.546  33.248  1.00  0.00    -0.206 F 
ATOM    100  C   UNL A   1      48.657  27.087  34.784  1.00  0.00     0.059 A 
ATOM    101  C   UNL A   1      47.348  25.318  35.812  1.00  0.00     0.059 A 
ATOM    102  F   UNL A   1      45.094  25.049  35.229  1.00  0.00    -0.206 F 
ATOM    103  C   UNL A   1      48.553  25.998  35.652  1.00  0.00     0.060 A 
BRANCH 103 104
ATOM    104  S   UNL A   1      50.013  25.501  36.591  1.00  0.00     0.124 S 
ATOM    105  O   UNL A   1      49.642  25.901  37.945  1.00  0.00    -0.237 OA
ATOM    106  O   UNL A   1      50.065  24.064  36.347  1.00  0.00    -0.237 OA
ATOM    107  O   UNL A   1      51.090  26.275  35.981  1.00  0.00    -0.744 OA
ENDBRANCH 103 104
ENDBRANCH  71  96
ENDBRANCH  45  46
ENDBRANCH  37  40
ENDBRANCH  35  36
ENDBRANCH  34  35
ENDBRANCH  33  34
ENDBRANCH   1  33
TORSDOF 20
ENDMDL
