MODEL 1
REMARK VINA RESULT:     -11.8      0.000      0.000
REMARK SMILES C[NH2+][C@@]1(C(=O)NCCCCNC(=O)c2ccc(-c3c4nc(c(-c5c(F)cc(S(=O)(=O)[O-])cc5F)c5ccc([nH]5)c(-c5c(F)cc(S(=O)(=O)[O-])cc5F)c5nc(c(-c6c(F)cc(S(=O)(=O)[O-])cc6F)c6ccc3[nH]6)C=C5)C=C4)cc2)CCC[C@H](Oc2cccc(OC)c2)C1
REMARK SMILES IDX 8 1 7 2 6 3 4 4 5 5 3 7 80 8 93 9 81 10 83 11 82 12 2 13
REMARK SMILES IDX 1 14 84 17 85 18 86 19 92 20 87 21 89 22 88 23 90 24 91 25
REMARK SMILES IDX 9 26 10 27 11 28 12 29 13 31 14 32 15 33 79 34 16 35 78 36
REMARK SMILES IDX 17 37 18 38 19 39 72 40 20 41 77 42 71 43 73 44 21 45 76 46
REMARK SMILES IDX 70 47 69 48 22 50 56 51 35 52 55 53 36 54 39 55 54 56 74 57
REMARK SMILES IDX 37 58 38 59 53 61 75 62 40 63 23 64 24 65 33 66 25 67 26 68
REMARK SMILES IDX 32 69 34 70 27 71 28 72 29 73 30 74 31 75 57 76 58 77 67 78
REMARK SMILES IDX 59 79 60 80 66 81 68 82 61 83 62 84 63 85 64 86 65 87 41 88
REMARK SMILES IDX 42 89 51 90 43 91 44 92 50 93 52 94 45 95 46 96 47 97 48 98
REMARK SMILES IDX 49 99
REMARK H PARENT 6 6 2 15 2 16 11 30 73 49 39 60
REMARK Flexibility Score: inf
ROOT
ATOM      1  C   UNL A   1      33.186  29.268  27.011  1.00  0.00     0.023 C 
ENDROOT
BRANCH   1   2
ATOM      2  C   UNL A   1      32.831  28.489  25.753  1.00  0.00     0.116 C 
BRANCH   2   3
ATOM      3  N   UNL A   1      33.164  29.270  24.579  1.00  0.00    -0.351 N 
ATOM      4  C   UNL A   1      32.974  28.840  23.293  1.00  0.00     0.281 C 
ATOM      5  O   UNL A   1      33.988  28.848  22.585  1.00  0.00    -0.268 OA
ATOM      6  H   UNL A   1      33.553  30.164  24.714  1.00  0.00     0.163 HD
BRANCH   4   7
ATOM      7  C   UNL A   1      31.545  28.507  22.702  1.00  0.00     0.178 C 
ATOM      8  C   UNL A   1      30.362  28.490  23.690  1.00  0.00     0.079 C 
ATOM      9  C   UNL A   1      31.565  27.211  21.852  1.00  0.00     0.124 C 
ATOM     10  C   UNL A   1      29.865  27.144  24.195  1.00  0.00     0.011 C 
ATOM     11  C   UNL A   1      31.557  25.873  22.629  1.00  0.00     0.180 C 
ATOM     12  C   UNL A   1      30.680  25.903  23.887  1.00  0.00     0.046 C 
BRANCH   7  13
ATOM     13  N   UNL A   1      31.158  29.683  21.820  1.00  0.00    -0.336 N 
ATOM     14  C   UNL A   1      29.772  30.131  21.880  1.00  0.00     0.331 C 
ATOM     15  H   UNL A   1      31.747  30.472  22.085  1.00  0.00     0.346 HD
ATOM     16  H   UNL A   1      31.287  29.349  20.864  1.00  0.00     0.346 HD
ENDBRANCH   7  13
BRANCH  11  17
ATOM     17  O   UNL A   1      32.928  25.491  22.866  1.00  0.00    -0.490 OA
BRANCH  17  18
ATOM     18  C   UNL A   1      33.315  24.211  23.177  1.00  0.00     0.123 A 
ATOM     19  C   UNL A   1      32.639  23.038  22.848  1.00  0.00     0.047 A 
ATOM     20  C   UNL A   1      34.460  24.125  23.991  1.00  0.00     0.092 A 
ATOM     21  C   UNL A   1      33.031  21.817  23.409  1.00  0.00     0.008 A 
ATOM     22  C   UNL A   1      34.863  22.902  24.536  1.00  0.00     0.122 A 
ATOM     23  C   UNL A   1      34.139  21.750  24.251  1.00  0.00     0.046 A 
BRANCH  22  24
ATOM     24  O   UNL A   1      36.000  22.729  25.276  1.00  0.00    -0.497 OA
ATOM     25  C   UNL A   1      36.187  21.410  25.780  1.00  0.00     0.278 C 
ENDBRANCH  22  24
ENDBRANCH  17  18
ENDBRANCH  11  17
ENDBRANCH   4   7
ENDBRANCH   2   3
ENDBRANCH   1   2
BRANCH   1  26
ATOM     26  C   UNL A   1      34.631  29.181  27.435  1.00  0.00     0.023 C 
BRANCH  26  27
ATOM     27  C   UNL A   1      35.224  30.532  27.782  1.00  0.00     0.116 C 
BRANCH  27  28
ATOM     28  N   UNL A   1      35.318  30.796  29.220  1.00  0.00    -0.352 N 
ATOM     29  C   UNL A   1      36.319  30.564  30.138  1.00  0.00     0.251 C 
ATOM     30  H   UNL A   1      34.515  31.217  29.601  1.00  0.00     0.163 HD
ATOM     31  O   UNL A   1      36.133  30.846  31.321  1.00  0.00    -0.269 OA
BRANCH  29  32
ATOM     32  C   UNL A   1      37.591  29.940  29.721  1.00  0.00     0.039 A 
ATOM     33  C   UNL A   1      38.049  30.100  28.410  1.00  0.00     0.014 A 
ATOM     34  C   UNL A   1      38.359  29.227  30.633  1.00  0.00     0.014 A 
ATOM     35  C   UNL A   1      39.323  29.640  28.059  1.00  0.00     0.010 A 
ATOM     36  C   UNL A   1      39.680  28.939  30.338  1.00  0.00     0.010 A 
ATOM     37  C   UNL A   1      40.175  29.111  29.039  1.00  0.00    -0.014 A 
BRANCH  37  38
ATOM     38  C   UNL A   1      41.566  28.658  28.765  1.00  0.00     0.031 A 
ATOM     39  C   UNL A   1      42.674  29.685  28.762  1.00  0.00     0.074 A 
ATOM     40  C   UNL A   1      41.819  27.388  28.393  1.00  0.00     0.049 A 
ATOM     41  N   UNL A   1      43.883  29.601  28.272  1.00  0.00    -0.248 NA
ATOM     42  C   UNL A   1      42.345  31.011  29.315  1.00  0.00     0.031 C 
ATOM     43  C   UNL A   1      40.836  26.305  28.308  1.00  0.00     0.029 A 
ATOM     44  N   UNL A   1      42.992  26.798  27.991  1.00  0.00    -0.354 N 
ATOM     45  C   UNL A   1      44.424  30.877  28.393  1.00  0.00     0.074 A 
ATOM     46  C   UNL A   1      43.393  31.728  28.938  1.00  0.00     0.031 C 
ATOM     47  C   UNL A   1      41.451  25.180  27.910  1.00  0.00     0.029 A 
ATOM     48  C   UNL A   1      42.857  25.470  27.657  1.00  0.00     0.049 A 
ATOM     49  H   UNL A   1      43.848  27.280  27.945  1.00  0.00     0.167 HD
ATOM     50  C   UNL A   1      45.681  31.296  28.110  1.00  0.00     0.037 A 
ATOM     51  C   UNL A   1      43.766  24.593  27.189  1.00  0.00     0.037 A 
ATOM     52  C   UNL A   1      46.731  30.417  27.673  1.00  0.00     0.049 A 
ATOM     53  C   UNL A   1      45.178  25.060  26.953  1.00  0.00     0.074 A 
ATOM     54  C   UNL A   1      48.062  30.711  27.447  1.00  0.00     0.029 A 
ATOM     55  N   UNL A   1      46.570  29.061  27.428  1.00  0.00    -0.354 N 
ATOM     56  N   UNL A   1      45.681  26.264  27.094  1.00  0.00    -0.248 NA
ATOM     57  C   UNL A   1      46.143  24.052  26.497  1.00  0.00     0.031 C 
ATOM     58  C   UNL A   1      48.705  29.534  27.047  1.00  0.00     0.029 A 
ATOM     59  C   UNL A   1      47.779  28.502  27.058  1.00  0.00     0.049 A 
ATOM     60  H   UNL A   1      45.721  28.569  27.508  1.00  0.00     0.167 HD
ATOM     61  C   UNL A   1      47.029  26.151  26.773  1.00  0.00     0.074 A 
ATOM     62  C   UNL A   1      47.264  24.761  26.438  1.00  0.00     0.031 C 
ATOM     63  C   UNL A   1      47.989  27.109  26.754  1.00  0.00     0.037 A 
BRANCH  50  64
ATOM     64  C   UNL A   1      45.989  32.757  28.296  1.00  0.00     0.058 A 
ATOM     65  C   UNL A   1      45.845  33.682  27.248  1.00  0.00     0.135 A 
ATOM     66  C   UNL A   1      46.427  33.242  29.539  1.00  0.00     0.135 A 
ATOM     67  F   UNL A   1      45.448  33.271  26.033  1.00  0.00    -0.206 F 
ATOM     68  C   UNL A   1      46.166  35.025  27.413  1.00  0.00     0.059 A 
ATOM     69  C   UNL A   1      46.720  34.588  29.736  1.00  0.00     0.059 A 
ATOM     70  F   UNL A   1      46.581  32.403  30.576  1.00  0.00    -0.206 F 
ATOM     71  C   UNL A   1      46.606  35.469  28.661  1.00  0.00     0.060 A 
BRANCH  71  72
ATOM     72  S   UNL A   1      47.021  37.214  28.858  1.00  0.00     0.124 S 
ATOM     73  O   UNL A   1      47.972  37.162  29.963  1.00  0.00    -0.237 OA
ATOM     74  O   UNL A   1      47.584  37.551  27.554  1.00  0.00    -0.237 OA
ATOM     75  O   UNL A   1      45.737  37.836  29.163  1.00  0.00    -0.744 OA
ENDBRANCH  71  72
ENDBRANCH  50  64
BRANCH  51  76
ATOM     76  C   UNL A   1      43.380  23.177  26.947  1.00  0.00     0.058 A 
ATOM     77  C   UNL A   1      43.269  22.683  25.638  1.00  0.00     0.135 A 
ATOM     78  C   UNL A   1      43.129  22.288  28.004  1.00  0.00     0.135 A 
ATOM     79  F   UNL A   1      43.494  23.495  24.595  1.00  0.00    -0.206 F 
ATOM     80  C   UNL A   1      42.902  21.366  25.383  1.00  0.00     0.059 A 
ATOM     81  C   UNL A   1      42.785  20.959  27.775  1.00  0.00     0.059 A 
ATOM     82  F   UNL A   1      43.242  22.706  29.274  1.00  0.00    -0.206 F 
ATOM     83  C   UNL A   1      42.662  20.510  26.460  1.00  0.00     0.060 A 
BRANCH  83  84
ATOM     84  S   UNL A   1      42.228  18.791  26.116  1.00  0.00     0.124 S 
ATOM     85  O   UNL A   1      43.169  18.457  25.053  1.00  0.00    -0.237 OA
ATOM     86  O   UNL A   1      42.466  18.149  27.404  1.00  0.00    -0.237 OA
ATOM     87  O   UNL A   1      40.826  18.874  25.716  1.00  0.00    -0.744 OA
ENDBRANCH  83  84
ENDBRANCH  51  76
BRANCH  63  88
ATOM     88  C   UNL A   1      49.385  26.683  26.408  1.00  0.00     0.058 A 
ATOM     89  C   UNL A   1      50.243  26.120  27.366  1.00  0.00     0.135 A 
ATOM     90  C   UNL A   1      49.847  26.777  25.084  1.00  0.00     0.135 A 
ATOM     91  F   UNL A   1      49.848  26.014  28.645  1.00  0.00    -0.206 F 
ATOM     92  C   UNL A   1      51.518  25.682  27.027  1.00  0.00     0.059 A 
ATOM     93  C   UNL A   1      51.108  26.322  24.719  1.00  0.00     0.059 A 
ATOM     94  F   UNL A   1      49.059  27.297  24.129  1.00  0.00    -0.206 F 
ATOM     95  C   UNL A   1      51.941  25.784  25.700  1.00  0.00     0.060 A 
BRANCH  95  96
ATOM     96  S   UNL A   1      53.581  25.169  25.264  1.00  0.00     0.124 S 
ATOM     97  O   UNL A   1      53.748  25.710  23.920  1.00  0.00    -0.237 OA
ATOM     98  O   UNL A   1      54.423  25.765  26.298  1.00  0.00    -0.237 OA
ATOM     99  O   UNL A   1      53.433  23.720  25.345  1.00  0.00    -0.744 OA
ENDBRANCH  95  96
ENDBRANCH  63  88
ENDBRANCH  37  38
ENDBRANCH  29  32
ENDBRANCH  27  28
ENDBRANCH  26  27
ENDBRANCH   1  26
TORSDOF 18
ENDMDL
MODEL 2
REMARK VINA RESULT:     -11.8      1.329      3.358
REMARK SMILES C[NH2+][C@@]1(C(=O)NCCCCNC(=O)c2ccc(-c3c4nc(c(-c5c(F)cc(S(=O)(=O)[O-])cc5F)c5ccc([nH]5)c(-c5c(F)cc(S(=O)(=O)[O-])cc5F)c5nc(c(-c6c(F)cc(S(=O)(=O)[O-])cc6F)c6ccc3[nH]6)C=C5)C=C4)cc2)CCC[C@H](Oc2cccc(OC)c2)C1
REMARK SMILES IDX 8 1 7 2 6 3 4 4 5 5 3 7 80 8 93 9 81 10 83 11 82 12 2 13
REMARK SMILES IDX 1 14 84 17 85 18 86 19 92 20 87 21 89 22 88 23 90 24 91 25
REMARK SMILES IDX 9 26 10 27 11 28 12 29 13 31 14 32 15 33 79 34 16 35 78 36
REMARK SMILES IDX 17 37 18 38 19 39 72 40 20 41 77 42 71 43 73 44 21 45 76 46
REMARK SMILES IDX 70 47 69 48 22 50 56 51 35 52 55 53 36 54 39 55 54 56 74 57
REMARK SMILES IDX 37 58 38 59 53 61 75 62 40 63 23 64 24 65 33 66 25 67 26 68
REMARK SMILES IDX 32 69 34 70 27 71 28 72 29 73 30 74 31 75 57 76 58 77 67 78
REMARK SMILES IDX 59 79 60 80 66 81 68 82 61 83 62 84 63 85 64 86 65 87 41 88
REMARK SMILES IDX 42 89 51 90 43 91 44 92 50 93 52 94 45 95 46 96 47 97 48 98
REMARK SMILES IDX 49 99
REMARK H PARENT 6 6 2 15 2 16 11 30 73 49 39 60
REMARK Flexibility Score: inf
ROOT
ATOM      1  C   UNL A   1      32.356  29.188  27.379  1.00  0.00     0.023 C 
ENDROOT
BRANCH   1   2
ATOM      2  C   UNL A   1      32.008  27.741  27.062  1.00  0.00     0.116 C 
BRANCH   2   3
ATOM      3  N   UNL A   1      32.656  27.337  25.831  1.00  0.00    -0.351 N 
ATOM      4  C   UNL A   1      33.096  26.066  25.578  1.00  0.00     0.281 C 
ATOM      5  O   UNL A   1      34.294  25.978  25.281  1.00  0.00    -0.268 OA
ATOM      6  H   UNL A   1      32.788  28.019  25.133  1.00  0.00     0.163 HD
BRANCH   4   7
ATOM      7  C   UNL A   1      32.126  24.818  25.512  1.00  0.00     0.178 C 
ATOM      8  C   UNL A   1      32.512  23.678  24.548  1.00  0.00     0.079 C 
ATOM      9  C   UNL A   1      30.654  25.249  25.286  1.00  0.00     0.124 C 
ATOM     10  C   UNL A   1      31.811  23.606  23.200  1.00  0.00     0.011 C 
ATOM     11  C   UNL A   1      30.260  25.634  23.841  1.00  0.00     0.180 C 
ATOM     12  C   UNL A   1      30.935  24.766  22.771  1.00  0.00     0.046 C 
BRANCH   7  13
ATOM     13  N   UNL A   1      32.245  24.108  26.850  1.00  0.00    -0.336 N 
ATOM     14  C   UNL A   1      31.372  22.961  27.073  1.00  0.00     0.331 C 
ATOM     15  H   UNL A   1      33.207  23.783  26.941  1.00  0.00     0.346 HD
ATOM     16  H   UNL A   1      31.954  24.799  27.542  1.00  0.00     0.346 HD
ENDBRANCH   7  13
BRANCH  11  17
ATOM     17  O   UNL A   1      30.480  27.051  23.685  1.00  0.00    -0.490 OA
BRANCH  17  18
ATOM     18  C   UNL A   1      29.472  27.954  23.452  1.00  0.00     0.123 A 
ATOM     19  C   UNL A   1      28.103  27.707  23.535  1.00  0.00     0.047 A 
ATOM     20  C   UNL A   1      29.905  29.213  22.994  1.00  0.00     0.092 A 
ATOM     21  C   UNL A   1      27.186  28.655  23.065  1.00  0.00     0.008 A 
ATOM     22  C   UNL A   1      28.987  30.167  22.543  1.00  0.00     0.122 A 
ATOM     23  C   UNL A   1      27.628  29.880  22.570  1.00  0.00     0.046 A 
BRANCH  22  24
ATOM     24  O   UNL A   1      29.327  31.432  22.150  1.00  0.00    -0.497 OA
ATOM     25  C   UNL A   1      28.523  32.465  22.711  1.00  0.00     0.278 C 
ENDBRANCH  22  24
ENDBRANCH  17  18
ENDBRANCH  11  17
ENDBRANCH   4   7
ENDBRANCH   2   3
ENDBRANCH   1   2
BRANCH   1  26
ATOM     26  C   UNL A   1      33.650  29.684  26.781  1.00  0.00     0.023 C 
BRANCH  26  27
ATOM     27  C   UNL A   1      34.859  29.332  27.625  1.00  0.00     0.116 C 
BRANCH  27  28
ATOM     28  N   UNL A   1      35.091  30.240  28.751  1.00  0.00    -0.352 N 
ATOM     29  C   UNL A   1      36.222  30.540  29.478  1.00  0.00     0.251 C 
ATOM     30  H   UNL A   1      34.287  30.726  29.044  1.00  0.00     0.163 HD
ATOM     31  O   UNL A   1      36.145  31.324  30.423  1.00  0.00    -0.269 OA
BRANCH  29  32
ATOM     32  C   UNL A   1      37.513  29.896  29.159  1.00  0.00     0.039 A 
ATOM     33  C   UNL A   1      37.974  29.874  27.839  1.00  0.00     0.014 A 
ATOM     34  C   UNL A   1      38.294  29.346  30.167  1.00  0.00     0.014 A 
ATOM     35  C   UNL A   1      39.262  29.403  27.562  1.00  0.00     0.010 A 
ATOM     36  C   UNL A   1      39.624  29.053  29.920  1.00  0.00     0.010 A 
ATOM     37  C   UNL A   1      40.122  29.046  28.610  1.00  0.00    -0.014 A 
BRANCH  37  38
ATOM     38  C   UNL A   1      41.526  28.596  28.408  1.00  0.00     0.031 A 
ATOM     39  C   UNL A   1      42.627  29.629  28.425  1.00  0.00     0.074 A 
ATOM     40  C   UNL A   1      41.802  27.318  28.080  1.00  0.00     0.049 A 
ATOM     41  N   UNL A   1      43.856  29.541  27.990  1.00  0.00    -0.248 NA
ATOM     42  C   UNL A   1      42.267  30.967  28.929  1.00  0.00     0.031 C 
ATOM     43  C   UNL A   1      40.829  26.227  27.981  1.00  0.00     0.029 A 
ATOM     44  N   UNL A   1      42.994  26.726  27.744  1.00  0.00    -0.354 N 
ATOM     45  C   UNL A   1      44.385  30.823  28.101  1.00  0.00     0.074 A 
ATOM     46  C   UNL A   1      43.326  31.681  28.579  1.00  0.00     0.031 C 
ATOM     47  C   UNL A   1      41.467  25.096  27.640  1.00  0.00     0.029 A 
ATOM     48  C   UNL A   1      42.882  25.389  27.440  1.00  0.00     0.049 A 
ATOM     49  H   UNL A   1      43.849  27.213  27.722  1.00  0.00     0.167 HD
ATOM     50  C   UNL A   1      45.650  31.243  27.861  1.00  0.00     0.037 A 
ATOM     51  C   UNL A   1      43.814  24.506  27.034  1.00  0.00     0.037 A 
ATOM     52  C   UNL A   1      46.723  30.360  27.492  1.00  0.00     0.049 A 
ATOM     53  C   UNL A   1      45.232  24.977  26.846  1.00  0.00     0.074 A 
ATOM     54  C   UNL A   1      48.061  30.658  27.316  1.00  0.00     0.029 A 
ATOM     55  N   UNL A   1      46.580  28.998  27.276  1.00  0.00    -0.354 N 
ATOM     56  N   UNL A   1      45.723  26.187  26.977  1.00  0.00    -0.248 NA
ATOM     57  C   UNL A   1      46.222  23.964  26.458  1.00  0.00     0.031 C 
ATOM     58  C   UNL A   1      48.727  29.475  26.975  1.00  0.00     0.029 A 
ATOM     59  C   UNL A   1      47.807  28.438  26.973  1.00  0.00     0.049 A 
ATOM     60  H   UNL A   1      45.731  28.502  27.332  1.00  0.00     0.167 HD
ATOM     61  C   UNL A   1      47.084  26.075  26.717  1.00  0.00     0.074 A 
ATOM     62  C   UNL A   1      47.340  24.678  26.429  1.00  0.00     0.031 C 
ATOM     63  C   UNL A   1      48.038  27.039  26.714  1.00  0.00     0.037 A 
BRANCH  50  64
ATOM     64  C   UNL A   1      45.942  32.711  28.022  1.00  0.00     0.058 A 
ATOM     65  C   UNL A   1      45.752  33.622  26.969  1.00  0.00     0.135 A 
ATOM     66  C   UNL A   1      46.410  33.216  29.245  1.00  0.00     0.135 A 
ATOM     67  F   UNL A   1      45.324  33.193  25.772  1.00  0.00    -0.206 F 
ATOM     68  C   UNL A   1      46.057  34.972  27.110  1.00  0.00     0.059 A 
ATOM     69  C   UNL A   1      46.689  34.569  29.419  1.00  0.00     0.059 A 
ATOM     70  F   UNL A   1      46.610  32.391  30.286  1.00  0.00    -0.206 F 
ATOM     71  C   UNL A   1      46.528  35.436  28.339  1.00  0.00     0.060 A 
BRANCH  71  72
ATOM     72  S   UNL A   1      46.923  37.189  28.504  1.00  0.00     0.124 S 
ATOM     73  O   UNL A   1      47.400  37.249  29.882  1.00  0.00    -0.237 OA
ATOM     74  O   UNL A   1      47.940  37.379  27.474  1.00  0.00    -0.237 OA
ATOM     75  O   UNL A   1      45.647  37.849  28.251  1.00  0.00    -0.744 OA
ENDBRANCH  71  72
ENDBRANCH  50  64
BRANCH  51  76
ATOM     76  C   UNL A   1      43.447  23.082  26.812  1.00  0.00     0.058 A 
ATOM     77  C   UNL A   1      43.426  22.545  25.516  1.00  0.00     0.135 A 
ATOM     78  C   UNL A   1      43.125  22.227  27.878  1.00  0.00     0.135 A 
ATOM     79  F   UNL A   1      43.721  23.324  24.464  1.00  0.00    -0.206 F 
ATOM     80  C   UNL A   1      43.079  21.220  25.280  1.00  0.00     0.059 A 
ATOM     81  C   UNL A   1      42.799  20.890  27.669  1.00  0.00     0.059 A 
ATOM     82  F   UNL A   1      43.151  22.686  29.139  1.00  0.00    -0.206 F 
ATOM     83  C   UNL A   1      42.767  20.398  26.365  1.00  0.00     0.060 A 
BRANCH  83  84
ATOM     84  S   UNL A   1      42.358  18.668  26.049  1.00  0.00     0.124 S 
ATOM     85  O   UNL A   1      40.947  18.760  25.690  1.00  0.00    -0.237 OA
ATOM     86  O   UNL A   1      43.272  18.328  24.963  1.00  0.00    -0.237 OA
ATOM     87  O   UNL A   1      42.644  18.018  27.324  1.00  0.00    -0.744 OA
ENDBRANCH  83  84
ENDBRANCH  51  76
BRANCH  63  88
ATOM     88  C   UNL A   1      49.450  26.613  26.439  1.00  0.00     0.058 A 
ATOM     89  C   UNL A   1      50.247  26.021  27.431  1.00  0.00     0.135 A 
ATOM     90  C   UNL A   1      49.989  26.739  25.148  1.00  0.00     0.135 A 
ATOM     91  F   UNL A   1      49.778  25.884  28.682  1.00  0.00    -0.206 F 
ATOM     92  C   UNL A   1      51.538  25.583  27.156  1.00  0.00     0.059 A 
ATOM     93  C   UNL A   1      51.267  26.286  24.845  1.00  0.00     0.059 A 
ATOM     94  F   UNL A   1      49.261  27.288  24.163  1.00  0.00    -0.206 F 
ATOM     95  C   UNL A   1      52.039  25.717  25.859  1.00  0.00     0.060 A 
BRANCH  95  96
ATOM     96  S   UNL A   1      53.699  25.104  25.504  1.00  0.00     0.124 S 
ATOM     97  O   UNL A   1      54.434  25.554  26.681  1.00  0.00    -0.237 OA
ATOM     98  O   UNL A   1      53.484  23.664  25.401  1.00  0.00    -0.237 OA
ATOM     99  O   UNL A   1      54.046  25.771  24.253  1.00  0.00    -0.744 OA
ENDBRANCH  95  96
ENDBRANCH  63  88
ENDBRANCH  37  38
ENDBRANCH  29  32
ENDBRANCH  27  28
ENDBRANCH  26  27
ENDBRANCH   1  26
TORSDOF 18
ENDMDL
MODEL 3
REMARK VINA RESULT:     -11.8      6.700     12.065
REMARK SMILES C[NH2+][C@@]1(C(=O)NCCCCNC(=O)c2ccc(-c3c4nc(c(-c5c(F)cc(S(=O)(=O)[O-])cc5F)c5ccc([nH]5)c(-c5c(F)cc(S(=O)(=O)[O-])cc5F)c5nc(c(-c6c(F)cc(S(=O)(=O)[O-])cc6F)c6ccc3[nH]6)C=C5)C=C4)cc2)CCC[C@H](Oc2cccc(OC)c2)C1
REMARK SMILES IDX 8 1 7 2 6 3 4 4 5 5 3 7 80 8 93 9 81 10 83 11 82 12 2 13
REMARK SMILES IDX 1 14 84 17 85 18 86 19 92 20 87 21 89 22 88 23 90 24 91 25
REMARK SMILES IDX 9 26 10 27 11 28 12 29 13 31 14 32 15 33 79 34 16 35 78 36
REMARK SMILES IDX 17 37 18 38 19 39 72 40 20 41 77 42 71 43 73 44 21 45 76 46
REMARK SMILES IDX 70 47 69 48 22 50 56 51 35 52 55 53 36 54 39 55 54 56 74 57
REMARK SMILES IDX 37 58 38 59 53 61 75 62 40 63 23 64 24 65 33 66 25 67 26 68
REMARK SMILES IDX 32 69 34 70 27 71 28 72 29 73 30 74 31 75 57 76 58 77 67 78
REMARK SMILES IDX 59 79 60 80 66 81 68 82 61 83 62 84 63 85 64 86 65 87 41 88
REMARK SMILES IDX 42 89 51 90 43 91 44 92 50 93 52 94 45 95 46 96 47 97 48 98
REMARK SMILES IDX 49 99
REMARK H PARENT 6 6 2 15 2 16 11 30 73 49 39 60
REMARK Flexibility Score: inf
ROOT
ATOM      1  C   UNL A   1      36.789  23.522  24.702  1.00  0.00     0.023 C 
ENDROOT
BRANCH   1   2
ATOM      2  C   UNL A   1      35.839  22.596  23.956  1.00  0.00     0.116 C 
BRANCH   2   3
ATOM      3  N   UNL A   1      34.962  23.374  23.104  1.00  0.00    -0.351 N 
ATOM      4  C   UNL A   1      33.596  23.339  23.176  1.00  0.00     0.281 C 
ATOM      5  O   UNL A   1      33.025  23.048  22.117  1.00  0.00    -0.268 OA
ATOM      6  H   UNL A   1      35.374  23.964  22.432  1.00  0.00     0.163 HD
BRANCH   4   7
ATOM      7  C   UNL A   1      32.791  23.785  24.462  1.00  0.00     0.178 C 
ATOM      8  C   UNL A   1      33.611  24.107  25.727  1.00  0.00     0.079 C 
ATOM      9  C   UNL A   1      31.644  22.796  24.793  1.00  0.00     0.124 C 
ATOM     10  C   UNL A   1      33.699  23.050  26.817  1.00  0.00     0.011 C 
ATOM     11  C   UNL A   1      32.048  21.480  25.499  1.00  0.00     0.180 C 
ATOM     12  C   UNL A   1      33.172  21.658  26.528  1.00  0.00     0.046 C 
BRANCH   7  13
ATOM     13  N   UNL A   1      32.204  25.152  24.151  1.00  0.00    -0.336 N 
ATOM     14  C   UNL A   1      33.125  26.283  24.136  1.00  0.00     0.331 C 
ATOM     15  H   UNL A   1      31.770  25.097  23.230  1.00  0.00     0.346 HD
ATOM     16  H   UNL A   1      31.563  25.345  24.921  1.00  0.00     0.346 HD
ENDBRANCH   7  13
BRANCH  11  17
ATOM     17  O   UNL A   1      32.322  20.497  24.480  1.00  0.00    -0.490 OA
BRANCH  17  18
ATOM     18  C   UNL A   1      33.061  19.361  24.702  1.00  0.00     0.123 A 
ATOM     19  C   UNL A   1      34.409  19.177  24.401  1.00  0.00     0.047 A 
ATOM     20  C   UNL A   1      32.324  18.268  25.196  1.00  0.00     0.092 A 
ATOM     21  C   UNL A   1      34.982  17.902  24.482  1.00  0.00     0.008 A 
ATOM     22  C   UNL A   1      32.902  16.999  25.296  1.00  0.00     0.122 A 
ATOM     23  C   UNL A   1      34.230  16.817  24.928  1.00  0.00     0.046 A 
BRANCH  22  24
ATOM     24  O   UNL A   1      32.272  15.908  25.829  1.00  0.00    -0.497 OA
ATOM     25  C   UNL A   1      32.864  14.657  25.495  1.00  0.00     0.278 C 
ENDBRANCH  22  24
ENDBRANCH  17  18
ENDBRANCH  11  17
ENDBRANCH   4   7
ENDBRANCH   2   3
ENDBRANCH   1   2
BRANCH   1  26
ATOM     26  C   UNL A   1      37.724  22.839  25.670  1.00  0.00     0.023 C 
BRANCH  26  27
ATOM     27  C   UNL A   1      38.516  23.820  26.512  1.00  0.00     0.116 C 
BRANCH  27  28
ATOM     28  N   UNL A   1      39.959  23.804  26.256  1.00  0.00    -0.352 N 
ATOM     29  C   UNL A   1      40.984  24.614  26.693  1.00  0.00     0.251 C 
ATOM     30  H   UNL A   1      40.250  23.078  25.659  1.00  0.00     0.163 HD
ATOM     31  O   UNL A   1      42.130  24.411  26.293  1.00  0.00    -0.269 OA
BRANCH  29  32
ATOM     32  C   UNL A   1      40.711  25.748  27.600  1.00  0.00     0.039 A 
ATOM     33  C   UNL A   1      39.749  25.619  28.607  1.00  0.00     0.014 A 
ATOM     34  C   UNL A   1      41.431  26.930  27.487  1.00  0.00     0.014 A 
ATOM     35  C   UNL A   1      39.601  26.634  29.558  1.00  0.00     0.010 A 
ATOM     36  C   UNL A   1      41.412  27.845  28.525  1.00  0.00     0.010 A 
ATOM     37  C   UNL A   1      40.477  27.730  29.561  1.00  0.00    -0.014 A 
BRANCH  37  38
ATOM     38  C   UNL A   1      40.429  28.820  30.572  1.00  0.00     0.031 A 
ATOM     39  C   UNL A   1      41.346  28.736  31.771  1.00  0.00     0.074 A 
ATOM     40  C   UNL A   1      39.498  29.791  30.500  1.00  0.00     0.049 A 
ATOM     41  N   UNL A   1      41.289  29.379  32.907  1.00  0.00    -0.248 NA
ATOM     42  C   UNL A   1      42.425  27.734  31.706  1.00  0.00     0.031 C 
ATOM     43  C   UNL A   1      38.520  29.964  29.423  1.00  0.00     0.029 A 
ATOM     44  N   UNL A   1      39.209  30.811  31.372  1.00  0.00    -0.354 N 
ATOM     45  C   UNL A   1      42.271  28.808  33.709  1.00  0.00     0.074 A 
ATOM     46  C   UNL A   1      42.861  27.726  32.956  1.00  0.00     0.031 C 
ATOM     47  C   UNL A   1      37.760  31.041  29.684  1.00  0.00     0.029 A 
ATOM     48  C   UNL A   1      38.157  31.602  30.971  1.00  0.00     0.049 A 
ATOM     49  H   UNL A   1      39.707  30.961  32.207  1.00  0.00     0.167 HD
ATOM     50  C   UNL A   1      42.673  29.174  34.950  1.00  0.00     0.037 A 
ATOM     51  C   UNL A   1      37.574  32.652  31.580  1.00  0.00     0.037 A 
ATOM     52  C   UNL A   1      42.155  30.321  35.645  1.00  0.00     0.049 A 
ATOM     53  C   UNL A   1      38.086  33.091  32.926  1.00  0.00     0.074 A 
ATOM     54  C   UNL A   1      42.552  30.842  36.862  1.00  0.00     0.029 A 
ATOM     55  N   UNL A   1      41.147  31.143  35.163  1.00  0.00    -0.354 N 
ATOM     56  N   UNL A   1      39.031  32.556  33.663  1.00  0.00    -0.248 NA
ATOM     57  C   UNL A   1      37.455  34.275  33.523  1.00  0.00     0.031 C 
ATOM     58  C   UNL A   1      41.770  31.972  37.126  1.00  0.00     0.029 A 
ATOM     59  C   UNL A   1      40.912  32.172  36.056  1.00  0.00     0.049 A 
ATOM     60  H   UNL A   1      40.672  31.015  34.311  1.00  0.00     0.167 HD
ATOM     61  C   UNL A   1      39.129  33.356  34.795  1.00  0.00     0.074 A 
ATOM     62  C   UNL A   1      38.152  34.416  34.643  1.00  0.00     0.031 C 
ATOM     63  C   UNL A   1      39.949  33.228  35.868  1.00  0.00     0.037 A 
BRANCH  50  64
ATOM     64  C   UNL A   1      43.740  28.346  35.612  1.00  0.00     0.058 A 
ATOM     65  C   UNL A   1      43.422  27.282  36.474  1.00  0.00     0.135 A 
ATOM     66  C   UNL A   1      45.099  28.611  35.378  1.00  0.00     0.135 A 
ATOM     67  F   UNL A   1      42.140  26.995  36.749  1.00  0.00    -0.206 F 
ATOM     68  C   UNL A   1      44.411  26.542  37.113  1.00  0.00     0.059 A 
ATOM     69  C   UNL A   1      46.105  27.861  35.980  1.00  0.00     0.059 A 
ATOM     70  F   UNL A   1      45.461  29.615  34.563  1.00  0.00    -0.206 F 
ATOM     71  C   UNL A   1      45.751  26.840  36.862  1.00  0.00     0.060 A 
BRANCH  71  72
ATOM     72  S   UNL A   1      47.021  25.873  37.702  1.00  0.00     0.124 S 
ATOM     73  O   UNL A   1      47.147  26.594  38.964  1.00  0.00    -0.237 OA
ATOM     74  O   UNL A   1      46.404  24.553  37.786  1.00  0.00    -0.237 OA
ATOM     75  O   UNL A   1      48.169  25.969  36.806  1.00  0.00    -0.744 OA
ENDBRANCH  71  72
ENDBRANCH  50  64
BRANCH  51  76
ATOM     76  C   UNL A   1      36.466  33.383  30.909  1.00  0.00     0.058 A 
ATOM     77  C   UNL A   1      35.155  33.296  31.401  1.00  0.00     0.135 A 
ATOM     78  C   UNL A   1      36.688  34.188  29.782  1.00  0.00     0.135 A 
ATOM     79  F   UNL A   1      34.891  32.535  32.474  1.00  0.00    -0.206 F 
ATOM     80  C   UNL A   1      34.099  33.963  30.789  1.00  0.00     0.059 A 
ATOM     81  C   UNL A   1      35.653  34.885  29.166  1.00  0.00     0.059 A 
ATOM     82  F   UNL A   1      37.928  34.321  29.284  1.00  0.00    -0.206 F 
ATOM     83  C   UNL A   1      34.359  34.757  29.670  1.00  0.00     0.060 A 
BRANCH  83  84
ATOM     84  S   UNL A   1      32.987  35.651  28.908  1.00  0.00     0.124 S 
ATOM     85  O   UNL A   1      32.362  34.603  28.109  1.00  0.00    -0.237 OA
ATOM     86  O   UNL A   1      32.230  36.103  30.071  1.00  0.00    -0.237 OA
ATOM     87  O   UNL A   1      33.654  36.708  28.154  1.00  0.00    -0.744 OA
ENDBRANCH  83  84
ENDBRANCH  51  76
BRANCH  63  88
ATOM     88  C   UNL A   1      39.864  34.280  36.934  1.00  0.00     0.058 A 
ATOM     89  C   UNL A   1      40.625  35.458  36.870  1.00  0.00     0.135 A 
ATOM     90  C   UNL A   1      38.958  34.138  37.998  1.00  0.00     0.135 A 
ATOM     91  F   UNL A   1      41.508  35.637  35.874  1.00  0.00    -0.206 F 
ATOM     92  C   UNL A   1      40.504  36.451  37.835  1.00  0.00     0.059 A 
ATOM     93  C   UNL A   1      38.803  35.129  38.960  1.00  0.00     0.059 A 
ATOM     94  F   UNL A   1      38.199  33.035  38.096  1.00  0.00    -0.206 F 
ATOM     95  C   UNL A   1      39.588  36.279  38.876  1.00  0.00     0.060 A 
BRANCH  95  96
ATOM     96  S   UNL A   1      39.407  37.595  40.097  1.00  0.00     0.124 S 
ATOM     97  O   UNL A   1      40.706  38.254  40.011  1.00  0.00    -0.237 OA
ATOM     98  O   UNL A   1      38.274  38.353  39.575  1.00  0.00    -0.237 OA
ATOM     99  O   UNL A   1      39.150  36.872  41.339  1.00  0.00    -0.744 OA
ENDBRANCH  95  96
ENDBRANCH  63  88
ENDBRANCH  37  38
ENDBRANCH  29  32
ENDBRANCH  27  28
ENDBRANCH  26  27
ENDBRANCH   1  26
TORSDOF 18
ENDMDL
