MODEL 1
REMARK VINA RESULT:     -10.7      0.000      0.000
REMARK SMILES NC(=O)C[C@H](NC(=O)[C@@H]1CCC[NH2+]1)C(=O)NCCCCNC(=O)c1ccc(-c2c3nc(c(-c4c(F)cc(S(=O)(=O)[O-])cc4F)c4ccc([nH]4)c(-c4c(F)cc(S(=O)(=O)[O-])cc4F)c4nc(c(-c5c(F)cc(S(=O)(=O)[O-])cc5F)c5ccc2[nH]5)C=C4)C=C3)cc1
REMARK SMILES IDX 19 1 18 2 17 3 16 4 14 5 15 6 5 8 4 9 2 10 1 11 3 14 6 15
REMARK SMILES IDX 7 16 8 18 9 19 10 20 13 21 11 22 12 23 20 26 21 27 22 28
REMARK SMILES IDX 23 30 24 31 25 32 89 33 26 34 88 35 27 36 28 37 29 38 82 39
REMARK SMILES IDX 30 40 87 41 81 42 83 43 31 44 86 45 80 46 79 47 32 49 66 50
REMARK SMILES IDX 45 51 65 52 46 53 49 54 64 55 84 56 47 57 48 58 63 60 85 61
REMARK SMILES IDX 50 62 33 63 34 64 43 65 35 66 36 67 42 68 44 69 37 70 38 71
REMARK SMILES IDX 39 72 40 73 41 74 67 75 68 76 77 77 69 78 70 79 76 80 78 81
REMARK SMILES IDX 71 82 72 83 73 84 74 85 75 86 51 87 52 88 61 89 53 90 54 91
REMARK SMILES IDX 60 92 62 93 55 94 56 95 57 96 58 97 59 98
REMARK H PARENT 16 7 1 12 1 13 6 17 13 24 13 25 21 29 83 48 49 59
REMARK Flexibility Score: inf
ROOT
ATOM      1  C   UNL A   1      32.080  27.932  26.982  1.00  0.00     0.023 C 
ENDROOT
BRANCH   1   2
ATOM      2  C   UNL A   1      32.133  26.716  26.061  1.00  0.00     0.023 C 
BRANCH   2   3
ATOM      3  C   UNL A   1      30.769  26.232  25.591  1.00  0.00     0.116 C 
BRANCH   3   4
ATOM      4  N   UNL A   1      30.255  25.128  26.396  1.00  0.00    -0.354 N 
ATOM      5  C   UNL A   1      30.769  23.860  26.518  1.00  0.00     0.243 C 
ATOM      6  O   UNL A   1      30.418  23.153  27.465  1.00  0.00    -0.273 OA
ATOM      7  H   UNL A   1      29.439  25.316  26.915  1.00  0.00     0.163 HD
BRANCH   5   8
ATOM      8  C   UNL A   1      31.897  23.407  25.571  1.00  0.00     0.180 C 
BRANCH   8   9
ATOM      9  C   UNL A   1      31.200  23.035  24.253  1.00  0.00     0.134 C 
BRANCH   9  10
ATOM     10  C   UNL A   1      32.014  23.464  23.047  1.00  0.00     0.220 C 
ATOM     11  N   UNL A   1      32.533  22.468  22.272  1.00  0.00    -0.370 N 
ATOM     12  H   UNL A   1      33.068  22.692  21.477  1.00  0.00     0.159 HD
ATOM     13  H   UNL A   1      32.372  21.526  22.509  1.00  0.00     0.159 HD
ATOM     14  O   UNL A   1      32.296  24.635  22.811  1.00  0.00    -0.275 OA
ENDBRANCH   9  10
ENDBRANCH   8   9
BRANCH   8  15
ATOM     15  N   UNL A   1      32.662  22.393  26.325  1.00  0.00    -0.339 N 
ATOM     16  C   UNL A   1      33.989  22.256  26.591  1.00  0.00     0.278 C 
ATOM     17  H   UNL A   1      32.104  21.679  26.707  1.00  0.00     0.164 HD
ATOM     18  O   UNL A   1      34.308  21.467  27.485  1.00  0.00    -0.268 OA
BRANCH  16  19
ATOM     19  C   UNL A   1      35.031  22.928  25.709  1.00  0.00     0.272 C 
ATOM     20  C   UNL A   1      35.479  22.097  24.518  1.00  0.00     0.081 C 
ATOM     21  N   UNL A   1      36.316  23.161  26.399  1.00  0.00    -0.336 N 
ATOM     22  C   UNL A   1      36.805  22.740  24.122  1.00  0.00     0.068 C 
ATOM     23  C   UNL A   1      37.189  23.614  25.312  1.00  0.00     0.261 C 
ATOM     24  H   UNL A   1      36.667  22.302  26.821  1.00  0.00     0.346 HD
ATOM     25  H   UNL A   1      36.246  23.829  27.167  1.00  0.00     0.346 HD
ENDBRANCH  16  19
ENDBRANCH   8  15
ENDBRANCH   5   8
ENDBRANCH   3   4
ENDBRANCH   2   3
ENDBRANCH   1   2
BRANCH   1  26
ATOM     26  C   UNL A   1      33.436  28.543  27.323  1.00  0.00     0.116 C 
BRANCH  26  27
ATOM     27  N   UNL A   1      33.364  29.967  27.617  1.00  0.00    -0.352 N 
ATOM     28  C   UNL A   1      34.338  30.780  28.152  1.00  0.00     0.251 C 
ATOM     29  H   UNL A   1      32.508  30.406  27.406  1.00  0.00     0.163 HD
ATOM     30  O   UNL A   1      34.081  31.933  28.467  1.00  0.00    -0.269 OA
BRANCH  28  31
ATOM     31  C   UNL A   1      35.690  30.222  28.371  1.00  0.00     0.039 A 
ATOM     32  C   UNL A   1      36.613  30.253  27.324  1.00  0.00     0.014 A 
ATOM     33  C   UNL A   1      36.054  29.728  29.627  1.00  0.00     0.014 A 
ATOM     34  C   UNL A   1      37.930  29.850  27.560  1.00  0.00     0.010 A 
ATOM     35  C   UNL A   1      37.381  29.400  29.878  1.00  0.00     0.010 A 
ATOM     36  C   UNL A   1      38.333  29.459  28.847  1.00  0.00    -0.014 A 
BRANCH  36  37
ATOM     37  C   UNL A   1      39.746  29.105  29.140  1.00  0.00     0.031 A 
ATOM     38  C   UNL A   1      40.666  30.129  29.743  1.00  0.00     0.074 A 
ATOM     39  C   UNL A   1      40.213  27.887  28.802  1.00  0.00     0.049 A 
ATOM     40  N   UNL A   1      41.945  30.039  30.002  1.00  0.00    -0.248 NA
ATOM     41  C   UNL A   1      40.078  31.439  30.069  1.00  0.00     0.031 C 
ATOM     42  C   UNL A   1      39.431  26.824  28.166  1.00  0.00     0.029 A 
ATOM     43  N   UNL A   1      41.465  27.340  28.936  1.00  0.00    -0.354 N 
ATOM     44  C   UNL A   1      42.317  31.279  30.508  1.00  0.00     0.074 A 
ATOM     45  C   UNL A   1      41.142  32.123  30.465  1.00  0.00     0.031 C 
ATOM     46  C   UNL A   1      40.213  25.747  27.989  1.00  0.00     0.029 A 
ATOM     47  C   UNL A   1      41.560  26.052  28.461  1.00  0.00     0.049 A 
ATOM     48  H   UNL A   1      42.225  27.824  29.333  1.00  0.00     0.167 HD
ATOM     49  C   UNL A   1      43.520  31.672  30.990  1.00  0.00     0.037 A 
ATOM     50  C   UNL A   1      42.614  25.215  28.409  1.00  0.00     0.037 A 
ATOM     51  C   UNL A   1      44.679  30.820  31.054  1.00  0.00     0.049 A 
ATOM     52  C   UNL A   1      43.941  25.673  28.949  1.00  0.00     0.074 A 
ATOM     53  C   UNL A   1      45.929  31.105  31.574  1.00  0.00     0.029 A 
ATOM     54  N   UNL A   1      44.729  29.516  30.582  1.00  0.00    -0.354 N 
ATOM     55  N   UNL A   1      44.260  26.830  29.479  1.00  0.00    -0.248 NA
ATOM     56  C   UNL A   1      45.051  24.713  28.889  1.00  0.00     0.031 C 
ATOM     57  C   UNL A   1      46.747  29.987  31.381  1.00  0.00     0.029 A 
ATOM     58  C   UNL A   1      45.993  28.988  30.783  1.00  0.00     0.049 A 
ATOM     59  H   UNL A   1      43.976  29.035  30.167  1.00  0.00     0.167 HD
ATOM     60  C   UNL A   1      45.598  26.726  29.842  1.00  0.00     0.074 A 
ATOM     61  C   UNL A   1      46.026  25.390  29.478  1.00  0.00     0.031 C 
ATOM     62  C   UNL A   1      46.401  27.653  30.423  1.00  0.00     0.037 A 
BRANCH  49  63
ATOM     63  C   UNL A   1      43.638  33.085  31.492  1.00  0.00     0.058 A 
ATOM     64  C   UNL A   1      43.941  34.150  30.627  1.00  0.00     0.135 A 
ATOM     65  C   UNL A   1      43.428  33.384  32.847  1.00  0.00     0.135 A 
ATOM     66  F   UNL A   1      44.168  33.920  29.323  1.00  0.00    -0.206 F 
ATOM     67  C   UNL A   1      44.065  35.454  31.095  1.00  0.00     0.059 A 
ATOM     68  C   UNL A   1      43.518  34.686  33.332  1.00  0.00     0.059 A 
ATOM     69  F   UNL A   1      43.135  32.405  33.718  1.00  0.00    -0.206 F 
ATOM     70  C   UNL A   1      43.855  35.712  32.449  1.00  0.00     0.060 A 
BRANCH  70  71
ATOM     71  S   UNL A   1      44.027  37.408  33.041  1.00  0.00     0.124 S 
ATOM     72  O   UNL A   1      42.887  37.517  33.945  1.00  0.00    -0.237 OA
ATOM     73  O   UNL A   1      45.340  37.386  33.677  1.00  0.00    -0.237 OA
ATOM     74  O   UNL A   1      43.939  38.204  31.821  1.00  0.00    -0.744 OA
ENDBRANCH  70  71
ENDBRANCH  49  63
BRANCH  50  75
ATOM     75  C   UNL A   1      42.448  23.846  27.851  1.00  0.00     0.058 A 
ATOM     76  C   UNL A   1      42.376  23.639  26.465  1.00  0.00     0.135 A 
ATOM     77  C   UNL A   1      42.372  22.720  28.684  1.00  0.00     0.135 A 
ATOM     78  F   UNL A   1      42.436  24.685  25.626  1.00  0.00    -0.206 F 
ATOM     79  C   UNL A   1      42.221  22.367  25.925  1.00  0.00     0.059 A 
ATOM     80  C   UNL A   1      42.241  21.435  28.167  1.00  0.00     0.059 A 
ATOM     81  F   UNL A   1      42.453  22.863  30.016  1.00  0.00    -0.206 F 
ATOM     82  C   UNL A   1      42.157  21.270  26.785  1.00  0.00     0.060 A 
BRANCH  82  83
ATOM     83  S   UNL A   1      42.008  19.617  26.071  1.00  0.00     0.124 S 
ATOM     84  O   UNL A   1      42.900  19.713  24.922  1.00  0.00    -0.237 OA
ATOM     85  O   UNL A   1      42.463  18.767  27.167  1.00  0.00    -0.237 OA
ATOM     86  O   UNL A   1      40.585  19.514  25.760  1.00  0.00    -0.744 OA
ENDBRANCH  82  83
ENDBRANCH  50  75
BRANCH  62  87
ATOM     87  C   UNL A   1      47.814  27.246  30.736  1.00  0.00     0.058 A 
ATOM     88  C   UNL A   1      48.143  26.569  31.920  1.00  0.00     0.135 A 
ATOM     89  C   UNL A   1      48.843  27.491  29.811  1.00  0.00     0.135 A 
ATOM     90  F   UNL A   1      47.197  26.317  32.839  1.00  0.00    -0.206 F 
ATOM     91  C   UNL A   1      49.448  26.167  32.187  1.00  0.00     0.059 A 
ATOM     92  C   UNL A   1      50.149  27.074  30.046  1.00  0.00     0.059 A 
ATOM     93  F   UNL A   1      48.579  28.126  28.658  1.00  0.00    -0.206 F 
ATOM     94  C   UNL A   1      50.444  26.422  31.242  1.00  0.00     0.060 A 
BRANCH  94  95
ATOM     95  S   UNL A   1      52.125  25.862  31.585  1.00  0.00     0.124 S 
ATOM     96  O   UNL A   1      51.905  24.461  31.926  1.00  0.00    -0.237 OA
ATOM     97  O   UNL A   1      52.801  26.108  30.315  1.00  0.00    -0.237 OA
ATOM     98  O   UNL A   1      52.550  26.718  32.689  1.00  0.00    -0.744 OA
ENDBRANCH  94  95
ENDBRANCH  62  87
ENDBRANCH  36  37
ENDBRANCH  28  31
ENDBRANCH  26  27
ENDBRANCH   1  26
TORSDOF 18
ENDMDL
MODEL 2
REMARK VINA RESULT:     -10.7      1.221      2.099
REMARK SMILES NC(=O)C[C@H](NC(=O)[C@@H]1CCC[NH2+]1)C(=O)NCCCCNC(=O)c1ccc(-c2c3nc(c(-c4c(F)cc(S(=O)(=O)[O-])cc4F)c4ccc([nH]4)c(-c4c(F)cc(S(=O)(=O)[O-])cc4F)c4nc(c(-c5c(F)cc(S(=O)(=O)[O-])cc5F)c5ccc2[nH]5)C=C4)C=C3)cc1
REMARK SMILES IDX 19 1 18 2 17 3 16 4 14 5 15 6 5 8 4 9 2 10 1 11 3 14 6 15
REMARK SMILES IDX 7 16 8 18 9 19 10 20 13 21 11 22 12 23 20 26 21 27 22 28
REMARK SMILES IDX 23 30 24 31 25 32 89 33 26 34 88 35 27 36 28 37 29 38 82 39
REMARK SMILES IDX 30 40 87 41 81 42 83 43 31 44 86 45 80 46 79 47 32 49 66 50
REMARK SMILES IDX 45 51 65 52 46 53 49 54 64 55 84 56 47 57 48 58 63 60 85 61
REMARK SMILES IDX 50 62 33 63 34 64 43 65 35 66 36 67 42 68 44 69 37 70 38 71
REMARK SMILES IDX 39 72 40 73 41 74 67 75 68 76 77 77 69 78 70 79 76 80 78 81
REMARK SMILES IDX 71 82 72 83 73 84 74 85 75 86 51 87 52 88 61 89 53 90 54 91
REMARK SMILES IDX 60 92 62 93 55 94 56 95 57 96 58 97 59 98
REMARK H PARENT 16 7 1 12 1 13 6 17 13 24 13 25 21 29 83 48 49 59
REMARK Flexibility Score: inf
ROOT
ATOM      1  C   UNL A   1      32.365  27.940  26.739  1.00  0.00     0.023 C 
ENDROOT
BRANCH   1   2
ATOM      2  C   UNL A   1      31.665  28.794  25.684  1.00  0.00     0.023 C 
BRANCH   2   3
ATOM      3  C   UNL A   1      31.684  28.193  24.286  1.00  0.00     0.116 C 
BRANCH   3   4
ATOM      4  N   UNL A   1      30.386  27.661  23.884  1.00  0.00    -0.354 N 
ATOM      5  C   UNL A   1      29.918  26.377  24.022  1.00  0.00     0.243 C 
ATOM      6  O   UNL A   1      28.708  26.161  23.932  1.00  0.00    -0.273 OA
ATOM      7  H   UNL A   1      29.770  28.303  23.461  1.00  0.00     0.163 HD
BRANCH   5   8
ATOM      8  C   UNL A   1      30.889  25.261  24.453  1.00  0.00     0.180 C 
BRANCH   8   9
ATOM      9  C   UNL A   1      31.327  24.574  23.150  1.00  0.00     0.134 C 
BRANCH   9  10
ATOM     10  C   UNL A   1      32.799  24.798  22.864  1.00  0.00     0.220 C 
ATOM     11  N   UNL A   1      33.589  25.123  23.929  1.00  0.00    -0.370 N 
ATOM     12  H   UNL A   1      34.552  25.278  23.798  1.00  0.00     0.159 HD
ATOM     13  H   UNL A   1      33.194  25.202  24.828  1.00  0.00     0.159 HD
ATOM     14  O   UNL A   1      33.269  24.798  21.730  1.00  0.00    -0.275 OA
ENDBRANCH   9  10
ENDBRANCH   8   9
BRANCH   8  15
ATOM     15  N   UNL A   1      30.175  24.499  25.497  1.00  0.00    -0.339 N 
ATOM     16  C   UNL A   1      30.607  23.661  26.478  1.00  0.00     0.278 C 
ATOM     17  H   UNL A   1      29.199  24.620  25.479  1.00  0.00     0.164 HD
ATOM     18  O   UNL A   1      29.812  23.392  27.382  1.00  0.00    -0.268 OA
BRANCH  16  19
ATOM     19  C   UNL A   1      31.955  22.965  26.366  1.00  0.00     0.272 C 
ATOM     20  C   UNL A   1      31.972  21.770  25.427  1.00  0.00     0.081 C 
ATOM     21  N   UNL A   1      32.398  22.345  27.631  1.00  0.00    -0.336 N 
ATOM     22  C   UNL A   1      33.214  20.999  25.863  1.00  0.00     0.068 C 
ATOM     23  C   UNL A   1      33.585  21.586  27.221  1.00  0.00     0.261 C 
ATOM     24  H   UNL A   1      31.679  21.728  28.009  1.00  0.00     0.346 HD
ATOM     25  H   UNL A   1      32.587  23.023  28.369  1.00  0.00     0.346 HD
ENDBRANCH  16  19
ENDBRANCH   8  15
ENDBRANCH   5   8
ENDBRANCH   3   4
ENDBRANCH   2   3
ENDBRANCH   1   2
BRANCH   1  26
ATOM     26  C   UNL A   1      33.692  28.498  27.245  1.00  0.00     0.116 C 
BRANCH  26  27
ATOM     27  N   UNL A   1      33.616  29.903  27.620  1.00  0.00    -0.352 N 
ATOM     28  C   UNL A   1      34.585  30.684  28.209  1.00  0.00     0.251 C 
ATOM     29  H   UNL A   1      32.762  30.353  27.427  1.00  0.00     0.163 HD
ATOM     30  O   UNL A   1      34.325  31.817  28.588  1.00  0.00    -0.269 OA
BRANCH  28  31
ATOM     31  C   UNL A   1      35.935  30.115  28.408  1.00  0.00     0.039 A 
ATOM     32  C   UNL A   1      36.830  30.102  27.336  1.00  0.00     0.014 A 
ATOM     33  C   UNL A   1      36.328  29.653  29.667  1.00  0.00     0.014 A 
ATOM     34  C   UNL A   1      38.147  29.689  27.547  1.00  0.00     0.010 A 
ATOM     35  C   UNL A   1      37.657  29.315  29.892  1.00  0.00     0.010 A 
ATOM     36  C   UNL A   1      38.580  29.330  28.834  1.00  0.00    -0.014 A 
BRANCH  36  37
ATOM     37  C   UNL A   1      39.996  28.966  29.099  1.00  0.00     0.031 A 
ATOM     38  C   UNL A   1      40.935  29.983  29.686  1.00  0.00     0.074 A 
ATOM     39  C   UNL A   1      40.449  27.746  28.748  1.00  0.00     0.049 A 
ATOM     40  N   UNL A   1      42.218  29.884  29.921  1.00  0.00    -0.248 NA
ATOM     41  C   UNL A   1      40.363  31.296  30.027  1.00  0.00     0.031 C 
ATOM     42  C   UNL A   1      39.648  26.691  28.124  1.00  0.00     0.029 A 
ATOM     43  N   UNL A   1      41.700  27.191  28.856  1.00  0.00    -0.354 N 
ATOM     44  C   UNL A   1      42.608  31.120  30.423  1.00  0.00     0.074 A 
ATOM     45  C   UNL A   1      41.438  31.971  30.404  1.00  0.00     0.031 C 
ATOM     46  C   UNL A   1      40.419  25.609  27.929  1.00  0.00     0.029 A 
ATOM     47  C   UNL A   1      41.777  25.903  28.376  1.00  0.00     0.049 A 
ATOM     48  H   UNL A   1      42.470  27.669  29.240  1.00  0.00     0.167 HD
ATOM     49  C   UNL A   1      43.823  31.504  30.882  1.00  0.00     0.037 A 
ATOM     50  C   UNL A   1      42.824  25.060  28.301  1.00  0.00     0.037 A 
ATOM     51  C   UNL A   1      44.977  30.643  30.921  1.00  0.00     0.049 A 
ATOM     52  C   UNL A   1      44.164  25.508  28.817  1.00  0.00     0.074 A 
ATOM     53  C   UNL A   1      46.239  30.918  31.418  1.00  0.00     0.029 A 
ATOM     54  N   UNL A   1      45.009  29.340  30.445  1.00  0.00    -0.354 N 
ATOM     55  N   UNL A   1      44.501  26.661  29.343  1.00  0.00    -0.248 NA
ATOM     56  C   UNL A   1      45.267  24.540  28.732  1.00  0.00     0.031 C 
ATOM     57  C   UNL A   1      47.045  29.796  31.205  1.00  0.00     0.029 A 
ATOM     58  C   UNL A   1      46.274  28.804  30.620  1.00  0.00     0.049 A 
ATOM     59  H   UNL A   1      44.246  28.866  30.043  1.00  0.00     0.167 HD
ATOM     60  C   UNL A   1      45.846  26.548  29.680  1.00  0.00     0.074 A 
ATOM     61  C   UNL A   1      46.258  25.210  29.304  1.00  0.00     0.031 C 
ATOM     62  C   UNL A   1      46.665  27.467  30.248  1.00  0.00     0.037 A 
BRANCH  49  63
ATOM     63  C   UNL A   1      43.960  32.914  31.385  1.00  0.00     0.058 A 
ATOM     64  C   UNL A   1      43.655  33.255  32.714  1.00  0.00     0.135 A 
ATOM     65  C   UNL A   1      44.420  33.935  30.539  1.00  0.00     0.135 A 
ATOM     66  F   UNL A   1      43.195  32.321  33.563  1.00  0.00    -0.206 F 
ATOM     67  C   UNL A   1      43.768  34.562  33.174  1.00  0.00     0.059 A 
ATOM     68  C   UNL A   1      44.569  35.245  30.987  1.00  0.00     0.059 A 
ATOM     69  F   UNL A   1      44.727  33.666  29.260  1.00  0.00    -0.206 F 
ATOM     70  C   UNL A   1      44.223  35.551  32.302  1.00  0.00     0.060 A 
BRANCH  70  71
ATOM     71  S   UNL A   1      44.357  37.244  32.913  1.00  0.00     0.124 S 
ATOM     72  O   UNL A   1      43.677  37.988  31.859  1.00  0.00    -0.237 OA
ATOM     73  O   UNL A   1      43.655  37.171  34.191  1.00  0.00    -0.237 OA
ATOM     74  O   UNL A   1      45.797  37.459  33.005  1.00  0.00    -0.744 OA
ENDBRANCH  70  71
ENDBRANCH  49  63
BRANCH  50  75
ATOM     75  C   UNL A   1      42.638  23.694  27.742  1.00  0.00     0.058 A 
ATOM     76  C   UNL A   1      42.676  23.472  26.357  1.00  0.00     0.135 A 
ATOM     77  C   UNL A   1      42.435  22.583  28.576  1.00  0.00     0.135 A 
ATOM     78  F   UNL A   1      42.860  24.504  25.518  1.00  0.00    -0.206 F 
ATOM     79  C   UNL A   1      42.504  22.203  25.817  1.00  0.00     0.059 A 
ATOM     80  C   UNL A   1      42.285  21.300  28.060  1.00  0.00     0.059 A 
ATOM     81  F   UNL A   1      42.408  22.739  29.908  1.00  0.00    -0.206 F 
ATOM     82  C   UNL A   1      42.311  21.121  26.677  1.00  0.00     0.060 A 
BRANCH  82  83
ATOM     83  S   UNL A   1      42.142  19.469  25.967  1.00  0.00     0.124 S 
ATOM     84  O   UNL A   1      40.712  19.415  25.690  1.00  0.00    -0.237 OA
ATOM     85  O   UNL A   1      43.018  19.544  24.803  1.00  0.00    -0.237 OA
ATOM     86  O   UNL A   1      42.611  18.595  27.039  1.00  0.00    -0.744 OA
ENDBRANCH  82  83
ENDBRANCH  50  75
BRANCH  62  87
ATOM     87  C   UNL A   1      48.082  27.050  30.532  1.00  0.00     0.058 A 
ATOM     88  C   UNL A   1      49.136  27.375  29.665  1.00  0.00     0.135 A 
ATOM     89  C   UNL A   1      48.393  26.361  31.717  1.00  0.00     0.135 A 
ATOM     90  F   UNL A   1      48.890  28.025  28.517  1.00  0.00    -0.206 F 
ATOM     91  C   UNL A   1      50.448  27.013  29.951  1.00  0.00     0.059 A 
ATOM     92  C   UNL A   1      49.702  26.014  32.036  1.00  0.00     0.059 A 
ATOM     93  F   UNL A   1      47.423  26.036  32.585  1.00  0.00    -0.206 F 
ATOM     94  C   UNL A   1      50.722  26.335  31.141  1.00  0.00     0.060 A 
BRANCH  94  95
ATOM     95  S   UNL A   1      52.434  25.905  31.518  1.00  0.00     0.124 S 
ATOM     96  O   UNL A   1      52.277  24.591  32.134  1.00  0.00    -0.237 OA
ATOM     97  O   UNL A   1      53.057  25.916  30.198  1.00  0.00    -0.237 OA
ATOM     98  O   UNL A   1      52.863  26.973  32.416  1.00  0.00    -0.744 OA
ENDBRANCH  94  95
ENDBRANCH  62  87
ENDBRANCH  36  37
ENDBRANCH  28  31
ENDBRANCH  26  27
ENDBRANCH   1  26
TORSDOF 18
ENDMDL
MODEL 3
REMARK VINA RESULT:     -10.5      5.028      7.591
REMARK SMILES NC(=O)C[C@H](NC(=O)[C@@H]1CCC[NH2+]1)C(=O)NCCCCNC(=O)c1ccc(-c2c3nc(c(-c4c(F)cc(S(=O)(=O)[O-])cc4F)c4ccc([nH]4)c(-c4c(F)cc(S(=O)(=O)[O-])cc4F)c4nc(c(-c5c(F)cc(S(=O)(=O)[O-])cc5F)c5ccc2[nH]5)C=C4)C=C3)cc1
REMARK SMILES IDX 19 1 18 2 17 3 16 4 14 5 15 6 5 8 4 9 2 10 1 11 3 14 6 15
REMARK SMILES IDX 7 16 8 18 9 19 10 20 13 21 11 22 12 23 20 26 21 27 22 28
REMARK SMILES IDX 23 30 24 31 25 32 89 33 26 34 88 35 27 36 28 37 29 38 82 39
REMARK SMILES IDX 30 40 87 41 81 42 83 43 31 44 86 45 80 46 79 47 32 49 66 50
REMARK SMILES IDX 45 51 65 52 46 53 49 54 64 55 84 56 47 57 48 58 63 60 85 61
REMARK SMILES IDX 50 62 33 63 34 64 43 65 35 66 36 67 42 68 44 69 37 70 38 71
REMARK SMILES IDX 39 72 40 73 41 74 67 75 68 76 77 77 69 78 70 79 76 80 78 81
REMARK SMILES IDX 71 82 72 83 73 84 74 85 75 86 51 87 52 88 61 89 53 90 54 91
REMARK SMILES IDX 60 92 62 93 55 94 56 95 57 96 58 97 59 98
REMARK H PARENT 16 7 1 12 1 13 6 17 13 24 13 25 21 29 83 48 49 59
REMARK Flexibility Score: inf
ROOT
ATOM      1  C   UNL A   1      37.150  34.044  29.488  1.00  0.00     0.023 C 
ENDROOT
BRANCH   1   2
ATOM      2  C   UNL A   1      38.582  34.397  29.884  1.00  0.00     0.023 C 
BRANCH   2   3
ATOM      3  C   UNL A   1      38.804  34.492  31.387  1.00  0.00     0.116 C 
BRANCH   3   4
ATOM      4  N   UNL A   1      38.653  33.206  32.061  1.00  0.00    -0.354 N 
ATOM      5  C   UNL A   1      37.775  32.875  33.064  1.00  0.00     0.243 C 
ATOM      6  O   UNL A   1      37.548  31.687  33.303  1.00  0.00    -0.273 OA
ATOM      7  H   UNL A   1      39.255  32.487  31.759  1.00  0.00     0.163 HD
BRANCH   5   8
ATOM      8  C   UNL A   1      36.964  33.988  33.756  1.00  0.00     0.180 C 
BRANCH   8   9
ATOM      9  C   UNL A   1      37.729  34.306  35.050  1.00  0.00     0.134 C 
BRANCH   9  10
ATOM     10  C   UNL A   1      37.320  33.387  36.186  1.00  0.00     0.220 C 
ATOM     11  N   UNL A   1      38.138  32.325  36.441  1.00  0.00    -0.370 N 
ATOM     12  H   UNL A   1      37.920  31.699  37.167  1.00  0.00     0.159 HD
ATOM     13  H   UNL A   1      38.948  32.187  35.898  1.00  0.00     0.159 HD
ATOM     14  O   UNL A   1      36.260  33.504  36.794  1.00  0.00    -0.275 OA
ENDBRANCH   9  10
ENDBRANCH   8   9
BRANCH   8  15
ATOM     15  N   UNL A   1      35.575  33.488  33.812  1.00  0.00    -0.339 N 
ATOM     16  C   UNL A   1      34.467  33.773  33.077  1.00  0.00     0.278 C 
ATOM     17  H   UNL A   1      35.423  32.819  34.518  1.00  0.00     0.164 HD
ATOM     18  O   UNL A   1      33.515  32.993  33.163  1.00  0.00    -0.268 OA
BRANCH  16  19
ATOM     19  C   UNL A   1      34.360  35.084  32.314  1.00  0.00     0.272 C 
ATOM     20  C   UNL A   1      34.087  36.301  33.184  1.00  0.00     0.081 C 
ATOM     21  N   UNL A   1      33.209  35.128  31.388  1.00  0.00    -0.336 N 
ATOM     22  C   UNL A   1      33.550  37.328  32.192  1.00  0.00     0.068 C 
ATOM     23  C   UNL A   1      33.206  36.525  30.941  1.00  0.00     0.261 C 
ATOM     24  H   UNL A   1      32.341  34.892  31.870  1.00  0.00     0.346 HD
ATOM     25  H   UNL A   1      33.282  34.458  30.622  1.00  0.00     0.346 HD
ENDBRANCH  16  19
ENDBRANCH   8  15
ENDBRANCH   5   8
ENDBRANCH   3   4
ENDBRANCH   2   3
ENDBRANCH   1   2
BRANCH   1  26
ATOM     26  C   UNL A   1      36.951  32.613  28.998  1.00  0.00     0.116 C 
BRANCH  26  27
ATOM     27  N   UNL A   1      36.243  31.774  29.953  1.00  0.00    -0.352 N 
ATOM     28  C   UNL A   1      36.568  30.508  30.387  1.00  0.00     0.251 C 
ATOM     29  H   UNL A   1      35.425  32.162  30.341  1.00  0.00     0.163 HD
ATOM     30  O   UNL A   1      35.797  29.877  31.094  1.00  0.00    -0.269 OA
BRANCH  28  31
ATOM     31  C   UNL A   1      37.849  29.914  29.950  1.00  0.00     0.039 A 
ATOM     32  C   UNL A   1      38.090  29.749  28.585  1.00  0.00     0.014 A 
ATOM     33  C   UNL A   1      38.828  29.578  30.891  1.00  0.00     0.014 A 
ATOM     34  C   UNL A   1      39.346  29.313  28.158  1.00  0.00     0.010 A 
ATOM     35  C   UNL A   1      40.099  29.217  30.460  1.00  0.00     0.010 A 
ATOM     36  C   UNL A   1      40.372  29.081  29.090  1.00  0.00    -0.014 A 
BRANCH  36  37
ATOM     37  C   UNL A   1      41.739  28.696  28.654  1.00  0.00     0.031 A 
ATOM     38  C   UNL A   1      42.817  29.739  28.557  1.00  0.00     0.074 A 
ATOM     39  C   UNL A   1      41.987  27.424  28.283  1.00  0.00     0.049 A 
ATOM     40  N   UNL A   1      44.047  29.617  28.128  1.00  0.00    -0.248 NA
ATOM     41  C   UNL A   1      42.457  31.106  28.968  1.00  0.00     0.031 C 
ATOM     42  C   UNL A   1      41.010  26.333  28.285  1.00  0.00     0.029 A 
ATOM     43  N   UNL A   1      43.138  26.836  27.820  1.00  0.00    -0.354 N 
ATOM     44  C   UNL A   1      44.603  30.889  28.205  1.00  0.00     0.074 A 
ATOM     45  C   UNL A   1      43.558  31.778  28.666  1.00  0.00     0.031 C 
ATOM     46  C   UNL A   1      41.609  25.205  27.870  1.00  0.00     0.029 A 
ATOM     47  C   UNL A   1      42.999  25.497  27.535  1.00  0.00     0.049 A 
ATOM     48  H   UNL A   1      43.984  27.326  27.702  1.00  0.00     0.167 HD
ATOM     49  C   UNL A   1      45.873  31.277  27.941  1.00  0.00     0.037 A 
ATOM     50  C   UNL A   1      43.890  24.609  27.055  1.00  0.00     0.037 A 
ATOM     51  C   UNL A   1      46.914  30.382  27.507  1.00  0.00     0.049 A 
ATOM     52  C   UNL A   1      45.296  25.062  26.768  1.00  0.00     0.074 A 
ATOM     53  C   UNL A   1      48.246  30.665  27.265  1.00  0.00     0.029 A 
ATOM     54  N   UNL A   1      46.738  29.029  27.249  1.00  0.00    -0.354 N 
ATOM     55  N   UNL A   1      45.820  26.257  26.903  1.00  0.00    -0.248 NA
ATOM     56  C   UNL A   1      46.233  24.047  26.268  1.00  0.00     0.031 C 
ATOM     57  C   UNL A   1      48.868  29.492  26.823  1.00  0.00     0.029 A 
ATOM     58  C   UNL A   1      47.934  28.468  26.834  1.00  0.00     0.049 A 
ATOM     59  H   UNL A   1      45.889  28.540  27.348  1.00  0.00     0.167 HD
ATOM     60  C   UNL A   1      47.154  26.131  26.532  1.00  0.00     0.074 A 
ATOM     61  C   UNL A   1      47.358  24.742  26.176  1.00  0.00     0.031 C 
ATOM     62  C   UNL A   1      48.123  27.080  26.491  1.00  0.00     0.037 A 
BRANCH  49  63
ATOM     63  C   UNL A   1      46.205  32.732  28.123  1.00  0.00     0.058 A 
ATOM     64  C   UNL A   1      46.034  33.662  27.083  1.00  0.00     0.135 A 
ATOM     65  C   UNL A   1      46.681  33.210  29.354  1.00  0.00     0.135 A 
ATOM     66  F   UNL A   1      45.598  33.258  25.879  1.00  0.00    -0.206 F 
ATOM     67  C   UNL A   1      46.357  35.004  27.248  1.00  0.00     0.059 A 
ATOM     68  C   UNL A   1      46.982  34.555  29.550  1.00  0.00     0.059 A 
ATOM     69  F   UNL A   1      46.863  32.365  30.382  1.00  0.00    -0.206 F 
ATOM     70  C   UNL A   1      46.833  35.441  28.484  1.00  0.00     0.060 A 
BRANCH  70  71
ATOM     71  S   UNL A   1      47.253  37.185  28.679  1.00  0.00     0.124 S 
ATOM     72  O   UNL A   1      46.601  37.501  29.945  1.00  0.00    -0.237 OA
ATOM     73  O   UNL A   1      48.713  37.154  28.708  1.00  0.00    -0.237 OA
ATOM     74  O   UNL A   1      46.667  37.810  27.497  1.00  0.00    -0.744 OA
ENDBRANCH  70  71
ENDBRANCH  49  63
BRANCH  50  75
ATOM     75  C   UNL A   1      43.486  23.192  26.844  1.00  0.00     0.058 A 
ATOM     76  C   UNL A   1      43.244  22.699  25.553  1.00  0.00     0.135 A 
ATOM     77  C   UNL A   1      43.348  22.302  27.920  1.00  0.00     0.135 A 
ATOM     78  F   UNL A   1      43.356  23.512  24.492  1.00  0.00    -0.206 F 
ATOM     79  C   UNL A   1      42.866  21.378  25.337  1.00  0.00     0.059 A 
ATOM     80  C   UNL A   1      42.995  20.971  27.727  1.00  0.00     0.059 A 
ATOM     81  F   UNL A   1      43.586  22.721  29.173  1.00  0.00    -0.206 F 
ATOM     82  C   UNL A   1      42.746  20.520  26.431  1.00  0.00     0.060 A 
BRANCH  82  83
ATOM     83  S   UNL A   1      42.305  18.794  26.134  1.00  0.00     0.124 S 
ATOM     84  O   UNL A   1      43.318  18.395  25.164  1.00  0.00    -0.237 OA
ATOM     85  O   UNL A   1      42.430  18.212  27.467  1.00  0.00    -0.237 OA
ATOM     86  O   UNL A   1      40.940  18.880  25.623  1.00  0.00    -0.744 OA
ENDBRANCH  82  83
ENDBRANCH  50  75
BRANCH  62  87
ATOM     87  C   UNL A   1      49.501  26.644  26.079  1.00  0.00     0.058 A 
ATOM     88  C   UNL A   1      49.947  26.757  24.753  1.00  0.00     0.135 A 
ATOM     89  C   UNL A   1      50.406  26.156  27.037  1.00  0.00     0.135 A 
ATOM     90  F   UNL A   1      49.118  27.211  23.799  1.00  0.00    -0.206 F 
ATOM     91  C   UNL A   1      51.235  26.382  24.385  1.00  0.00     0.059 A 
ATOM     92  C   UNL A   1      51.707  25.801  26.696  1.00  0.00     0.059 A 
ATOM     93  F   UNL A   1      50.034  26.038  28.321  1.00  0.00    -0.206 F 
ATOM     94  C   UNL A   1      52.109  25.907  25.365  1.00  0.00     0.060 A 
BRANCH  94  95
ATOM     95  S   UNL A   1      53.789  25.458  24.882  1.00  0.00     0.124 S 
ATOM     96  O   UNL A   1      53.906  26.113  23.583  1.00  0.00    -0.237 OA
ATOM     97  O   UNL A   1      54.589  26.035  25.958  1.00  0.00    -0.237 OA
ATOM     98  O   UNL A   1      53.755  23.999  24.849  1.00  0.00    -0.744 OA
ENDBRANCH  94  95
ENDBRANCH  62  87
ENDBRANCH  36  37
ENDBRANCH  28  31
ENDBRANCH  26  27
ENDBRANCH   1  26
TORSDOF 18
ENDMDL
