MODEL 1
REMARK VINA RESULT:     -11.2      0.000      0.000
REMARK SMILES Cc1cc(C(=O)NC[C@@H]2CC[C@H](C(=O)NCCCCNC(=O)c3ccc(-c4c5nc(c(-c6c(F)cc(S(=O)(=O)[O-])cc6F)c6ccc([nH]6)c(-c6c(F)cc(S(=O)(=O)[O-])cc6F)c6nc(c(-c7c(F)cc(S(=O)(=O)[O-])cc7F)c7ccc4[nH]7)C=C6)C=C5)cc3)O2)on1
REMARK SMILES IDX 17 1 16 2 15 3 13 4 14 5 12 7 9 8 10 9 89 10 11 11 8 12 7 13
REMARK SMILES IDX 5 14 6 15 4 17 1 18 2 19 3 20 91 21 90 22 18 23 19 24 20 25
REMARK SMILES IDX 21 26 22 28 23 29 24 30 88 31 25 32 87 33 26 34 27 35 28 36
REMARK SMILES IDX 81 37 29 38 86 39 80 40 82 41 30 42 85 43 79 44 78 45 31 47
REMARK SMILES IDX 65 48 44 49 64 50 45 51 48 52 63 53 83 54 46 55 47 56 62 58
REMARK SMILES IDX 84 59 49 60 32 61 33 62 42 63 34 64 35 65 41 66 43 67 36 68
REMARK SMILES IDX 37 69 38 70 39 71 40 72 66 73 67 74 76 75 68 76 69 77 75 78
REMARK SMILES IDX 77 79 70 80 71 81 72 82 73 83 74 84 50 85 51 86 60 87 52 88
REMARK SMILES IDX 53 89 59 90 61 91 54 92 55 93 56 94 57 95 58 96
REMARK H PARENT 15 6 7 16 20 27 82 46 48 57
REMARK Flexibility Score: inf
ROOT
ATOM      1  C   UNL A   1      35.230  22.165  24.230  1.00  0.00     0.023 C 
ENDROOT
BRANCH   1   2
ATOM      2  C   UNL A   1      34.162  22.848  25.076  1.00  0.00     0.116 C 
BRANCH   2   3
ATOM      3  N   UNL A   1      32.976  23.188  24.333  1.00  0.00    -0.354 N 
ATOM      4  C   UNL A   1      32.693  24.307  23.602  1.00  0.00     0.249 C 
ATOM      5  O   UNL A   1      31.614  24.332  23.001  1.00  0.00    -0.272 OA
ATOM      6  H   UNL A   1      32.261  22.512  24.355  1.00  0.00     0.163 HD
BRANCH   4   7
ATOM      7  C   UNL A   1      33.661  25.516  23.523  1.00  0.00     0.207 C 
ATOM      8  C   UNL A   1      33.331  27.800  24.000  1.00  0.00     0.138 C 
ATOM      9  C   UNL A   1      33.222  27.653  22.487  1.00  0.00     0.037 C 
ATOM     10  O   UNL A   1      33.475  26.482  24.556  1.00  0.00    -0.363 OA
ATOM     11  C   UNL A   1      33.671  26.240  22.189  1.00  0.00     0.045 C 
BRANCH   8  12
ATOM     12  C   UNL A   1      32.103  28.443  24.676  1.00  0.00     0.148 C 
BRANCH  12  13
ATOM     13  N   UNL A   1      30.915  27.624  24.556  1.00  0.00    -0.347 N 
ATOM     14  C   UNL A   1      29.767  27.768  23.818  1.00  0.00     0.289 C 
ATOM     15  O   UNL A   1      29.018  26.788  23.818  1.00  0.00    -0.266 OA
ATOM     16  H   UNL A   1      30.934  26.811  25.110  1.00  0.00     0.164 HD
BRANCH  14  17
ATOM     17  C   UNL A   1      29.458  28.986  23.102  1.00  0.00     0.224 A 
ATOM     18  C   UNL A   1      28.453  32.308  21.908  1.00  0.00     0.070 C 
ATOM     19  C   UNL A   1      28.914  30.926  22.171  1.00  0.00     0.081 A 
ATOM     20  C   UNL A   1      28.887  30.208  23.387  1.00  0.00     0.083 A 
ATOM     21  N   UNL A   1      29.422  30.184  21.185  1.00  0.00    -0.084 NA
ATOM     22  O   UNL A   1      29.761  28.976  21.765  1.00  0.00    -0.351 OA
ENDBRANCH  14  17
ENDBRANCH  12  13
ENDBRANCH   8  12
ENDBRANCH   4   7
ENDBRANCH   2   3
ENDBRANCH   1   2
BRANCH   1  23
ATOM     23  C   UNL A   1      36.417  23.059  23.892  1.00  0.00     0.023 C 
BRANCH  23  24
ATOM     24  C   UNL A   1      37.253  23.497  25.090  1.00  0.00     0.116 C 
BRANCH  24  25
ATOM     25  N   UNL A   1      38.390  22.629  25.367  1.00  0.00    -0.352 N 
ATOM     26  C   UNL A   1      39.513  22.933  26.108  1.00  0.00     0.251 C 
ATOM     27  H   UNL A   1      38.354  21.725  24.982  1.00  0.00     0.163 HD
ATOM     28  O   UNL A   1      40.446  22.142  26.188  1.00  0.00    -0.269 OA
BRANCH  26  29
ATOM     29  C   UNL A   1      39.576  24.258  26.759  1.00  0.00     0.039 A 
ATOM     30  C   UNL A   1      39.009  24.423  28.023  1.00  0.00     0.014 A 
ATOM     31  C   UNL A   1      40.320  25.282  26.169  1.00  0.00     0.014 A 
ATOM     32  C   UNL A   1      39.268  25.594  28.741  1.00  0.00     0.010 A 
ATOM     33  C   UNL A   1      40.642  26.407  26.917  1.00  0.00     0.010 A 
ATOM     34  C   UNL A   1      40.128  26.572  28.214  1.00  0.00    -0.014 A 
BRANCH  34  35
ATOM     35  C   UNL A   1      40.516  27.778  28.991  1.00  0.00     0.031 A 
ATOM     36  C   UNL A   1      41.822  27.786  29.737  1.00  0.00     0.074 A 
ATOM     37  C   UNL A   1      39.663  28.818  29.100  1.00  0.00     0.049 A 
ATOM     38  N   UNL A   1      42.280  28.665  30.590  1.00  0.00    -0.248 NA
ATOM     39  C   UNL A   1      42.717  26.637  29.518  1.00  0.00     0.031 C 
ATOM     40  C   UNL A   1      38.355  28.917  28.449  1.00  0.00     0.029 A 
ATOM     41  N   UNL A   1      39.763  29.986  29.815  1.00  0.00    -0.354 N 
ATOM     42  C   UNL A   1      43.507  28.169  31.017  1.00  0.00     0.074 A 
ATOM     43  C   UNL A   1      43.692  26.885  30.378  1.00  0.00     0.031 C 
ATOM     44  C   UNL A   1      37.784  30.087  28.779  1.00  0.00     0.029 A 
ATOM     45  C   UNL A   1      38.659  30.802  29.703  1.00  0.00     0.049 A 
ATOM     46  H   UNL A   1      40.550  30.220  30.357  1.00  0.00     0.167 HD
ATOM     47  C   UNL A   1      44.409  28.744  31.846  1.00  0.00     0.037 A 
ATOM     48  C   UNL A   1      38.379  31.982  30.291  1.00  0.00     0.037 A 
ATOM     49  C   UNL A   1      44.229  30.033  32.459  1.00  0.00     0.049 A 
ATOM     50  C   UNL A   1      39.386  32.587  31.237  1.00  0.00     0.074 A 
ATOM     51  C   UNL A   1      45.097  30.716  33.291  1.00  0.00     0.029 A 
ATOM     52  N   UNL A   1      43.108  30.835  32.301  1.00  0.00    -0.354 N 
ATOM     53  N   UNL A   1      40.556  32.120  31.602  1.00  0.00    -0.248 NA
ATOM     54  C   UNL A   1      39.036  33.876  31.852  1.00  0.00     0.031 C 
ATOM     55  C   UNL A   1      44.485  31.915  33.669  1.00  0.00     0.029 A 
ATOM     56  C   UNL A   1      43.259  32.003  33.028  1.00  0.00     0.049 A 
ATOM     57  H   UNL A   1      42.323  30.607  31.752  1.00  0.00     0.167 HD
ATOM     58  C   UNL A   1      41.101  33.079  32.449  1.00  0.00     0.074 A 
ATOM     59  C   UNL A   1      40.130  34.150  32.549  1.00  0.00     0.031 C 
ATOM     60  C   UNL A   1      42.298  33.076  33.083  1.00  0.00     0.037 A 
BRANCH  47  61
ATOM     61  C   UNL A   1      45.680  27.992  32.124  1.00  0.00     0.058 A 
ATOM     62  C   UNL A   1      45.763  27.052  33.165  1.00  0.00     0.135 A 
ATOM     63  C   UNL A   1      46.816  28.178  31.320  1.00  0.00     0.135 A 
ATOM     64  F   UNL A   1      44.713  26.848  33.977  1.00  0.00    -0.206 F 
ATOM     65  C   UNL A   1      46.933  26.344  33.414  1.00  0.00     0.059 A 
ATOM     66  C   UNL A   1      47.987  27.458  31.531  1.00  0.00     0.059 A 
ATOM     67  F   UNL A   1      46.792  29.066  30.312  1.00  0.00    -0.206 F 
ATOM     68  C   UNL A   1      48.039  26.552  32.589  1.00  0.00     0.060 A 
BRANCH  68  69
ATOM     69  S   UNL A   1      49.544  25.613  32.919  1.00  0.00     0.124 S 
ATOM     70  O   UNL A   1      49.738  24.920  31.649  1.00  0.00    -0.237 OA
ATOM     71  O   UNL A   1      50.509  26.666  33.219  1.00  0.00    -0.237 OA
ATOM     72  O   UNL A   1      49.176  24.764  34.047  1.00  0.00    -0.744 OA
ENDBRANCH  68  69
ENDBRANCH  47  61
BRANCH  48  73
ATOM     73  C   UNL A   1      37.100  32.686  29.998  1.00  0.00     0.058 A 
ATOM     74  C   UNL A   1      37.044  33.703  29.033  1.00  0.00     0.135 A 
ATOM     75  C   UNL A   1      35.916  32.372  30.682  1.00  0.00     0.135 A 
ATOM     76  F   UNL A   1      38.150  34.045  28.355  1.00  0.00    -0.206 F 
ATOM     77  C   UNL A   1      35.869  34.402  28.775  1.00  0.00     0.059 A 
ATOM     78  C   UNL A   1      34.721  33.038  30.421  1.00  0.00     0.059 A 
ATOM     79  F   UNL A   1      35.908  31.395  31.602  1.00  0.00    -0.206 F 
ATOM     80  C   UNL A   1      34.713  34.063  29.476  1.00  0.00     0.060 A 
BRANCH  80  81
ATOM     81  S   UNL A   1      33.186  34.961  29.118  1.00  0.00     0.124 S 
ATOM     82  O   UNL A   1      32.571  35.031  30.438  1.00  0.00    -0.237 OA
ATOM     83  O   UNL A   1      33.691  36.220  28.580  1.00  0.00    -0.237 OA
ATOM     84  O   UNL A   1      32.511  34.100  28.151  1.00  0.00    -0.744 OA
ENDBRANCH  80  81
ENDBRANCH  48  73
BRANCH  60  85
ATOM     85  C   UNL A   1      42.676  34.289  33.887  1.00  0.00     0.058 A 
ATOM     86  C   UNL A   1      42.371  34.399  35.251  1.00  0.00     0.135 A 
ATOM     87  C   UNL A   1      43.448  35.306  33.300  1.00  0.00     0.135 A 
ATOM     88  F   UNL A   1      41.630  33.459  35.856  1.00  0.00    -0.206 F 
ATOM     89  C   UNL A   1      42.822  35.477  36.007  1.00  0.00     0.059 A 
ATOM     90  C   UNL A   1      43.930  36.378  34.043  1.00  0.00     0.059 A 
ATOM     91  F   UNL A   1      43.771  35.243  31.997  1.00  0.00    -0.206 F 
ATOM     92  C   UNL A   1      43.611  36.455  35.397  1.00  0.00     0.060 A 
BRANCH  92  93
ATOM     93  S   UNL A   1      44.257  37.801  36.410  1.00  0.00     0.124 S 
ATOM     94  O   UNL A   1      43.995  38.960  35.563  1.00  0.00    -0.237 OA
ATOM     95  O   UNL A   1      43.441  37.702  37.617  1.00  0.00    -0.237 OA
ATOM     96  O   UNL A   1      45.663  37.454  36.582  1.00  0.00    -0.744 OA
ENDBRANCH  92  93
ENDBRANCH  60  85
ENDBRANCH  34  35
ENDBRANCH  26  29
ENDBRANCH  24  25
ENDBRANCH  23  24
ENDBRANCH   1  23
TORSDOF 17
ENDMDL
MODEL 2
REMARK VINA RESULT:     -11.0      3.360      8.283
REMARK SMILES Cc1cc(C(=O)NC[C@@H]2CC[C@H](C(=O)NCCCCNC(=O)c3ccc(-c4c5nc(c(-c6c(F)cc(S(=O)(=O)[O-])cc6F)c6ccc([nH]6)c(-c6c(F)cc(S(=O)(=O)[O-])cc6F)c6nc(c(-c7c(F)cc(S(=O)(=O)[O-])cc7F)c7ccc4[nH]7)C=C6)C=C5)cc3)O2)on1
REMARK SMILES IDX 17 1 16 2 15 3 13 4 14 5 12 7 9 8 10 9 89 10 11 11 8 12 7 13
REMARK SMILES IDX 5 14 6 15 4 17 1 18 2 19 3 20 91 21 90 22 18 23 19 24 20 25
REMARK SMILES IDX 21 26 22 28 23 29 24 30 88 31 25 32 87 33 26 34 27 35 28 36
REMARK SMILES IDX 81 37 29 38 86 39 80 40 82 41 30 42 85 43 79 44 78 45 31 47
REMARK SMILES IDX 65 48 44 49 64 50 45 51 48 52 63 53 83 54 46 55 47 56 62 58
REMARK SMILES IDX 84 59 49 60 32 61 33 62 42 63 34 64 35 65 41 66 43 67 36 68
REMARK SMILES IDX 37 69 38 70 39 71 40 72 66 73 67 74 76 75 68 76 69 77 75 78
REMARK SMILES IDX 77 79 70 80 71 81 72 82 73 83 74 84 50 85 51 86 60 87 52 88
REMARK SMILES IDX 53 89 59 90 61 91 54 92 55 93 56 94 57 95 58 96
REMARK H PARENT 15 6 7 16 20 27 82 46 48 57
REMARK Flexibility Score: inf
ROOT
ATOM      1  C   UNL A   1      35.054  30.283  27.580  1.00  0.00     0.023 C 
ENDROOT
BRANCH   1   2
ATOM      2  C   UNL A   1      34.000  29.383  26.947  1.00  0.00     0.116 C 
BRANCH   2   3
ATOM      3  N   UNL A   1      34.116  29.289  25.514  1.00  0.00    -0.354 N 
ATOM      4  C   UNL A   1      33.165  28.997  24.578  1.00  0.00     0.249 C 
ATOM      5  O   UNL A   1      33.507  29.038  23.392  1.00  0.00    -0.272 OA
ATOM      6  H   UNL A   1      35.016  29.461  25.155  1.00  0.00     0.163 HD
BRANCH   4   7
ATOM      7  C   UNL A   1      31.712  28.612  24.959  1.00  0.00     0.207 C 
ATOM      8  C   UNL A   1      30.335  26.843  24.236  1.00  0.00     0.138 C 
ATOM      9  C   UNL A   1      29.914  28.072  23.440  1.00  0.00     0.037 C 
ATOM     10  O   UNL A   1      31.478  27.207  25.028  1.00  0.00    -0.363 OA
ATOM     11  C   UNL A   1      30.637  29.234  24.086  1.00  0.00     0.045 C 
BRANCH   8  12
ATOM     12  C   UNL A   1      30.750  25.631  23.377  1.00  0.00     0.148 C 
BRANCH  12  13
ATOM     13  N   UNL A   1      31.568  26.010  22.244  1.00  0.00    -0.347 N 
ATOM     14  C   UNL A   1      32.865  25.719  21.905  1.00  0.00     0.289 C 
ATOM     15  O   UNL A   1      33.201  26.067  20.770  1.00  0.00    -0.266 OA
ATOM     16  H   UNL A   1      31.106  26.587  21.595  1.00  0.00     0.164 HD
BRANCH  14  17
ATOM     17  C   UNL A   1      33.772  25.059  22.819  1.00  0.00     0.224 A 
ATOM     18  C   UNL A   1      35.868  23.882  25.592  1.00  0.00     0.070 C 
ATOM     19  C   UNL A   1      35.117  24.186  24.353  1.00  0.00     0.081 A 
ATOM     20  C   UNL A   1      34.218  25.248  24.110  1.00  0.00     0.083 A 
ATOM     21  N   UNL A   1      35.258  23.417  23.272  1.00  0.00    -0.084 NA
ATOM     22  O   UNL A   1      34.420  23.961  22.317  1.00  0.00    -0.351 OA
ENDBRANCH  14  17
ENDBRANCH  12  13
ENDBRANCH   8  12
ENDBRANCH   4   7
ENDBRANCH   2   3
ENDBRANCH   1   2
BRANCH   1  23
ATOM     23  C   UNL A   1      34.662  31.756  27.625  1.00  0.00     0.023 C 
BRANCH  23  24
ATOM     24  C   UNL A   1      33.216  32.023  28.030  1.00  0.00     0.116 C 
BRANCH  24  25
ATOM     25  N   UNL A   1      32.824  33.425  27.933  1.00  0.00    -0.352 N 
ATOM     26  C   UNL A   1      33.346  34.488  28.640  1.00  0.00     0.251 C 
ATOM     27  H   UNL A   1      32.107  33.635  27.294  1.00  0.00     0.163 HD
ATOM     28  O   UNL A   1      32.861  35.609  28.534  1.00  0.00    -0.269 OA
BRANCH  26  29
ATOM     29  C   UNL A   1      34.469  34.225  29.562  1.00  0.00     0.039 A 
ATOM     30  C   UNL A   1      34.225  33.542  30.754  1.00  0.00     0.014 A 
ATOM     31  C   UNL A   1      35.773  34.535  29.167  1.00  0.00     0.014 A 
ATOM     32  C   UNL A   1      35.306  33.085  31.513  1.00  0.00     0.010 A 
ATOM     33  C   UNL A   1      36.842  34.008  29.881  1.00  0.00     0.010 A 
ATOM     34  C   UNL A   1      36.621  33.269  31.055  1.00  0.00    -0.014 A 
BRANCH  34  35
ATOM     35  C   UNL A   1      37.791  32.702  31.775  1.00  0.00     0.031 A 
ATOM     36  C   UNL A   1      38.491  31.497  31.211  1.00  0.00     0.074 A 
ATOM     37  C   UNL A   1      38.162  33.208  32.970  1.00  0.00     0.049 A 
ATOM     38  N   UNL A   1      39.426  30.757  31.748  1.00  0.00    -0.248 NA
ATOM     39  C   UNL A   1      38.060  31.045  29.877  1.00  0.00     0.031 C 
ATOM     40  C   UNL A   1      37.543  34.355  33.637  1.00  0.00     0.029 A 
ATOM     41  N   UNL A   1      39.142  32.808  33.846  1.00  0.00    -0.354 N 
ATOM     42  C   UNL A   1      39.685  29.750  30.827  1.00  0.00     0.074 A 
ATOM     43  C   UNL A   1      38.766  29.936  29.726  1.00  0.00     0.031 C 
ATOM     44  C   UNL A   1      38.169  34.578  34.806  1.00  0.00     0.029 A 
ATOM     45  C   UNL A   1      39.199  33.562  34.997  1.00  0.00     0.049 A 
ATOM     46  H   UNL A   1      39.748  32.053  33.668  1.00  0.00     0.167 HD
ATOM     47  C   UNL A   1      40.621  28.774  30.881  1.00  0.00     0.037 A 
ATOM     48  C   UNL A   1      39.982  33.437  36.087  1.00  0.00     0.037 A 
ATOM     49  C   UNL A   1      41.548  28.609  31.969  1.00  0.00     0.049 A 
ATOM     50  C   UNL A   1      40.994  32.321  36.139  1.00  0.00     0.074 A 
ATOM     51  C   UNL A   1      42.554  27.671  32.105  1.00  0.00     0.029 A 
ATOM     52  N   UNL A   1      41.587  29.408  33.102  1.00  0.00    -0.354 N 
ATOM     53  N   UNL A   1      41.248  31.398  35.243  1.00  0.00    -0.248 NA
ATOM     54  C   UNL A   1      41.826  32.227  37.348  1.00  0.00     0.031 C 
ATOM     55  C   UNL A   1      43.177  27.875  33.339  1.00  0.00     0.029 A 
ATOM     56  C   UNL A   1      42.594  28.976  33.947  1.00  0.00     0.049 A 
ATOM     57  H   UNL A   1      40.987  30.169  33.279  1.00  0.00     0.167 HD
ATOM     58  C   UNL A   1      42.299  30.646  35.757  1.00  0.00     0.074 A 
ATOM     59  C   UNL A   1      42.629  31.216  37.047  1.00  0.00     0.031 C 
ATOM     60  C   UNL A   1      42.935  29.582  35.210  1.00  0.00     0.037 A 
BRANCH  47  61
ATOM     61  C   UNL A   1      40.700  27.818  29.724  1.00  0.00     0.058 A 
ATOM     62  C   UNL A   1      41.720  27.916  28.762  1.00  0.00     0.135 A 
ATOM     63  C   UNL A   1      39.777  26.769  29.594  1.00  0.00     0.135 A 
ATOM     64  F   UNL A   1      42.618  28.911  28.826  1.00  0.00    -0.206 F 
ATOM     65  C   UNL A   1      41.804  27.023  27.699  1.00  0.00     0.059 A 
ATOM     66  C   UNL A   1      39.861  25.845  28.556  1.00  0.00     0.059 A 
ATOM     67  F   UNL A   1      38.782  26.630  30.485  1.00  0.00    -0.206 F 
ATOM     68  C   UNL A   1      40.871  25.990  27.606  1.00  0.00     0.060 A 
BRANCH  68  69
ATOM     69  S   UNL A   1      41.006  24.832  26.228  1.00  0.00     0.124 S 
ATOM     70  O   UNL A   1      39.624  24.386  26.087  1.00  0.00    -0.237 OA
ATOM     71  O   UNL A   1      41.509  25.684  25.155  1.00  0.00    -0.237 OA
ATOM     72  O   UNL A   1      41.943  23.827  26.719  1.00  0.00    -0.744 OA
ENDBRANCH  68  69
ENDBRANCH  47  61
BRANCH  48  73
ATOM     73  C   UNL A   1      39.858  34.398  37.218  1.00  0.00     0.058 A 
ATOM     74  C   UNL A   1      38.993  34.137  38.292  1.00  0.00     0.135 A 
ATOM     75  C   UNL A   1      40.585  35.598  37.245  1.00  0.00     0.135 A 
ATOM     76  F   UNL A   1      38.272  33.006  38.312  1.00  0.00    -0.206 F 
ATOM     77  C   UNL A   1      38.832  35.041  39.337  1.00  0.00     0.059 A 
ATOM     78  C   UNL A   1      40.462  36.506  38.293  1.00  0.00     0.059 A 
ATOM     79  F   UNL A   1      41.440  35.890  36.252  1.00  0.00    -0.206 F 
ATOM     80  C   UNL A   1      39.570  36.225  39.327  1.00  0.00     0.060 A 
BRANCH  80  81
ATOM     81  S   UNL A   1      39.370  37.383  40.699  1.00  0.00     0.124 S 
ATOM     82  O   UNL A   1      40.729  37.888  40.856  1.00  0.00    -0.237 OA
ATOM     83  O   UNL A   1      38.394  38.327  40.164  1.00  0.00    -0.237 OA
ATOM     84  O   UNL A   1      38.882  36.536  41.783  1.00  0.00    -0.744 OA
ENDBRANCH  80  81
ENDBRANCH  48  73
BRANCH  60  85
ATOM     85  C   UNL A   1      44.103  28.998  35.955  1.00  0.00     0.058 A 
ATOM     86  C   UNL A   1      43.963  27.890  36.803  1.00  0.00     0.135 A 
ATOM     87  C   UNL A   1      45.398  29.493  35.727  1.00  0.00     0.135 A 
ATOM     88  F   UNL A   1      42.747  27.385  37.059  1.00  0.00    -0.206 F 
ATOM     89  C   UNL A   1      45.069  27.292  37.399  1.00  0.00     0.059 A 
ATOM     90  C   UNL A   1      46.519  28.895  36.291  1.00  0.00     0.059 A 
ATOM     91  F   UNL A   1      45.585  30.549  34.917  1.00  0.00    -0.206 F 
ATOM     92  C   UNL A   1      46.343  27.794  37.127  1.00  0.00     0.060 A 
BRANCH  92  93
ATOM     93  S   UNL A   1      47.774  26.955  37.841  1.00  0.00     0.124 S 
ATOM     94  O   UNL A   1      48.069  25.955  36.821  1.00  0.00    -0.237 OA
ATOM     95  O   UNL A   1      48.742  28.041  37.961  1.00  0.00    -0.237 OA
ATOM     96  O   UNL A   1      47.268  26.433  39.105  1.00  0.00    -0.744 OA
ENDBRANCH  92  93
ENDBRANCH  60  85
ENDBRANCH  34  35
ENDBRANCH  26  29
ENDBRANCH  24  25
ENDBRANCH  23  24
ENDBRANCH   1  23
TORSDOF 17
ENDMDL
MODEL 3
REMARK VINA RESULT:     -11.0      3.527      9.891
REMARK SMILES Cc1cc(C(=O)NC[C@@H]2CC[C@H](C(=O)NCCCCNC(=O)c3ccc(-c4c5nc(c(-c6c(F)cc(S(=O)(=O)[O-])cc6F)c6ccc([nH]6)c(-c6c(F)cc(S(=O)(=O)[O-])cc6F)c6nc(c(-c7c(F)cc(S(=O)(=O)[O-])cc7F)c7ccc4[nH]7)C=C6)C=C5)cc3)O2)on1
REMARK SMILES IDX 17 1 16 2 15 3 13 4 14 5 12 7 9 8 10 9 89 10 11 11 8 12 7 13
REMARK SMILES IDX 5 14 6 15 4 17 1 18 2 19 3 20 91 21 90 22 18 23 19 24 20 25
REMARK SMILES IDX 21 26 22 28 23 29 24 30 88 31 25 32 87 33 26 34 27 35 28 36
REMARK SMILES IDX 81 37 29 38 86 39 80 40 82 41 30 42 85 43 79 44 78 45 31 47
REMARK SMILES IDX 65 48 44 49 64 50 45 51 48 52 63 53 83 54 46 55 47 56 62 58
REMARK SMILES IDX 84 59 49 60 32 61 33 62 42 63 34 64 35 65 41 66 43 67 36 68
REMARK SMILES IDX 37 69 38 70 39 71 40 72 66 73 67 74 76 75 68 76 69 77 75 78
REMARK SMILES IDX 77 79 70 80 71 81 72 82 73 83 74 84 50 85 51 86 60 87 52 88
REMARK SMILES IDX 53 89 59 90 61 91 54 92 55 93 56 94 57 95 58 96
REMARK H PARENT 15 6 7 16 20 27 82 46 48 57
REMARK Flexibility Score: inf
ROOT
ATOM      1  C   UNL A   1      31.551  28.849  26.591  1.00  0.00     0.023 C 
ENDROOT
BRANCH   1   2
ATOM      2  C   UNL A   1      31.155  28.198  25.271  1.00  0.00     0.116 C 
BRANCH   2   3
ATOM      3  N   UNL A   1      30.721  26.832  25.417  1.00  0.00    -0.354 N 
ATOM      4  C   UNL A   1      31.148  25.706  24.772  1.00  0.00     0.249 C 
ATOM      5  O   UNL A   1      30.654  24.630  25.124  1.00  0.00    -0.272 OA
ATOM      6  H   UNL A   1      30.010  26.688  26.082  1.00  0.00     0.163 HD
BRANCH   4   7
ATOM      7  C   UNL A   1      32.197  25.748  23.631  1.00  0.00     0.207 C 
ATOM      8  C   UNL A   1      33.421  24.028  22.585  1.00  0.00     0.138 C 
ATOM      9  C   UNL A   1      34.354  24.662  23.610  1.00  0.00     0.037 C 
ATOM     10  O   UNL A   1      32.130  24.642  22.733  1.00  0.00    -0.363 OA
ATOM     11  C   UNL A   1      33.636  25.903  24.091  1.00  0.00     0.045 C 
BRANCH   8  12
ATOM     12  C   UNL A   1      33.219  22.508  22.750  1.00  0.00     0.148 C 
BRANCH  12  13
ATOM     13  N   UNL A   1      32.305  22.185  23.825  1.00  0.00    -0.347 N 
ATOM     14  C   UNL A   1      32.148  21.061  24.596  1.00  0.00     0.289 C 
ATOM     15  O   UNL A   1      31.377  21.184  25.551  1.00  0.00    -0.266 OA
ATOM     16  H   UNL A   1      31.676  22.910  24.044  1.00  0.00     0.164 HD
BRANCH  14  17
ATOM     17  C   UNL A   1      32.832  19.822  24.300  1.00  0.00     0.224 A 
ATOM     18  C   UNL A   1      34.022  16.554  23.127  1.00  0.00     0.070 C 
ATOM     19  C   UNL A   1      33.731  17.873  23.731  1.00  0.00     0.081 A 
ATOM     20  C   UNL A   1      32.599  18.696  23.538  1.00  0.00     0.083 A 
ATOM     21  N   UNL A   1      34.587  18.427  24.591  1.00  0.00    -0.084 NA
ATOM     22  O   UNL A   1      34.028  19.640  24.945  1.00  0.00    -0.351 OA
ENDBRANCH  14  17
ENDBRANCH  12  13
ENDBRANCH   8  12
ENDBRANCH   4   7
ENDBRANCH   2   3
ENDBRANCH   1   2
BRANCH   1  23
ATOM     23  C   UNL A   1      32.765  28.209  27.256  1.00  0.00     0.023 C 
BRANCH  23  24
ATOM     24  C   UNL A   1      34.040  29.043  27.205  1.00  0.00     0.116 C 
BRANCH  24  25
ATOM     25  N   UNL A   1      33.985  30.257  28.012  1.00  0.00    -0.352 N 
ATOM     26  C   UNL A   1      34.990  30.785  28.794  1.00  0.00     0.251 C 
ATOM     27  H   UNL A   1      33.137  30.754  27.996  1.00  0.00     0.163 HD
ATOM     28  O   UNL A   1      34.785  31.766  29.500  1.00  0.00    -0.269 OA
BRANCH  26  29
ATOM     29  C   UNL A   1      36.302  30.105  28.793  1.00  0.00     0.039 A 
ATOM     30  C   UNL A   1      37.068  30.106  27.626  1.00  0.00     0.014 A 
ATOM     31  C   UNL A   1      36.817  29.597  29.987  1.00  0.00     0.014 A 
ATOM     32  C   UNL A   1      38.396  29.677  27.680  1.00  0.00     0.010 A 
ATOM     33  C   UNL A   1      38.160  29.249  30.054  1.00  0.00     0.010 A 
ATOM     34  C   UNL A   1      38.967  29.294  28.905  1.00  0.00    -0.014 A 
BRANCH  34  35
ATOM     35  C   UNL A   1      40.405  28.938  29.025  1.00  0.00     0.031 A 
ATOM     36  C   UNL A   1      41.396  29.994  29.429  1.00  0.00     0.074 A 
ATOM     37  C   UNL A   1      40.828  27.702  28.685  1.00  0.00     0.049 A 
ATOM     38  N   UNL A   1      42.702  29.938  29.447  1.00  0.00    -0.248 NA
ATOM     39  C   UNL A   1      40.844  31.297  29.838  1.00  0.00     0.031 C 
ATOM     40  C   UNL A   1      39.969  26.599  28.249  1.00  0.00     0.029 A 
ATOM     41  N   UNL A   1      42.094  27.171  28.636  1.00  0.00    -0.354 N 
ATOM     42  C   UNL A   1      43.126  31.197  29.855  1.00  0.00     0.074 A 
ATOM     43  C   UNL A   1      41.943  32.014  30.013  1.00  0.00     0.031 C 
ATOM     44  C   UNL A   1      40.729  25.520  27.995  1.00  0.00     0.029 A 
ATOM     45  C   UNL A   1      42.132  25.865  28.202  1.00  0.00     0.049 A 
ATOM     46  H   UNL A   1      42.899  27.677  28.888  1.00  0.00     0.167 HD
ATOM     47  C   UNL A   1      44.386  31.627  30.100  1.00  0.00     0.037 A 
ATOM     48  C   UNL A   1      43.179  25.046  27.980  1.00  0.00     0.037 A 
ATOM     49  C   UNL A   1      45.557  30.802  29.963  1.00  0.00     0.049 A 
ATOM     50  C   UNL A   1      44.575  25.558  28.229  1.00  0.00     0.074 A 
ATOM     51  C   UNL A   1      46.875  31.134  30.216  1.00  0.00     0.029 A 
ATOM     52  N   UNL A   1      45.549  29.479  29.544  1.00  0.00    -0.354 N 
ATOM     53  N   UNL A   1      44.956  26.741  28.648  1.00  0.00    -0.248 NA
ATOM     54  C   UNL A   1      45.685  24.627  27.975  1.00  0.00     0.031 C 
ATOM     55  C   UNL A   1      47.670  30.025  29.912  1.00  0.00     0.029 A 
ATOM     56  C   UNL A   1      46.841  28.985  29.522  1.00  0.00     0.049 A 
ATOM     57  H   UNL A   1      44.743  28.969  29.299  1.00  0.00     0.167 HD
ATOM     58  C   UNL A   1      46.341  26.680  28.753  1.00  0.00     0.074 A 
ATOM     59  C   UNL A   1      46.734  25.347  28.348  1.00  0.00     0.031 C 
ATOM     60  C   UNL A   1      47.209  27.641  29.154  1.00  0.00     0.037 A 
BRANCH  47  61
ATOM     61  C   UNL A   1      44.563  33.048  30.558  1.00  0.00     0.058 A 
ATOM     62  C   UNL A   1      44.566  33.382  31.923  1.00  0.00     0.135 A 
ATOM     63  C   UNL A   1      44.772  34.081  29.631  1.00  0.00     0.135 A 
ATOM     64  F   UNL A   1      44.351  32.437  32.852  1.00  0.00    -0.206 F 
ATOM     65  C   UNL A   1      44.745  34.693  32.349  1.00  0.00     0.059 A 
ATOM     66  C   UNL A   1      44.984  35.395  30.037  1.00  0.00     0.059 A 
ATOM     67  F   UNL A   1      44.777  33.816  28.315  1.00  0.00    -0.206 F 
ATOM     68  C   UNL A   1      44.955  35.692  31.398  1.00  0.00     0.060 A 
BRANCH  68  69
ATOM     69  S   UNL A   1      45.200  37.386  31.972  1.00  0.00     0.124 S 
ATOM     70  O   UNL A   1      44.665  38.152  30.851  1.00  0.00    -0.237 OA
ATOM     71  O   UNL A   1      44.406  37.417  33.196  1.00  0.00    -0.237 OA
ATOM     72  O   UNL A   1      46.644  37.476  32.161  1.00  0.00    -0.744 OA
ENDBRANCH  68  69
ENDBRANCH  47  61
BRANCH  48  73
ATOM     73  C   UNL A   1      42.959  23.650  27.511  1.00  0.00     0.058 A 
ATOM     74  C   UNL A   1      43.018  23.332  26.145  1.00  0.00     0.135 A 
ATOM     75  C   UNL A   1      42.671  22.611  28.409  1.00  0.00     0.135 A 
ATOM     76  F   UNL A   1      43.284  24.291  25.246  1.00  0.00    -0.206 F 
ATOM     77  C   UNL A   1      42.773  22.043  25.683  1.00  0.00     0.059 A 
ATOM     78  C   UNL A   1      42.450  21.306  27.974  1.00  0.00     0.059 A 
ATOM     79  F   UNL A   1      42.620  22.855  29.728  1.00  0.00    -0.206 F 
ATOM     80  C   UNL A   1      42.488  21.037  26.607  1.00  0.00     0.060 A 
BRANCH  80  81
ATOM     81  S   UNL A   1      42.194  19.361  25.999  1.00  0.00     0.124 S 
ATOM     82  O   UNL A   1      40.758  19.389  25.747  1.00  0.00    -0.237 OA
ATOM     83  O   UNL A   1      43.049  19.310  24.817  1.00  0.00    -0.237 OA
ATOM     84  O   UNL A   1      42.625  18.521  27.112  1.00  0.00    -0.744 OA
ENDBRANCH  80  81
ENDBRANCH  48  73
BRANCH  60  85
ATOM     85  C   UNL A   1      48.665  27.281  29.251  1.00  0.00     0.058 A 
ATOM     86  C   UNL A   1      49.570  27.568  28.219  1.00  0.00     0.135 A 
ATOM     87  C   UNL A   1      49.176  26.738  30.442  1.00  0.00     0.135 A 
ATOM     88  F   UNL A   1      49.132  28.080  27.058  1.00  0.00    -0.206 F 
ATOM     89  C   UNL A   1      50.933  27.330  28.366  1.00  0.00     0.059 A 
ATOM     90  C   UNL A   1      50.537  26.516  30.619  1.00  0.00     0.059 A 
ATOM     91  F   UNL A   1      48.349  26.451  31.462  1.00  0.00    -0.206 F 
ATOM     92  C   UNL A   1      51.408  26.815  29.574  1.00  0.00     0.060 A 
BRANCH  92  93
ATOM     93  S   UNL A   1      53.188  26.591  29.780  1.00  0.00     0.124 S 
ATOM     94  O   UNL A   1      53.649  27.971  29.886  1.00  0.00    -0.237 OA
ATOM     95  O   UNL A   1      53.262  25.803  31.007  1.00  0.00    -0.237 OA
ATOM     96  O   UNL A   1      53.585  25.887  28.566  1.00  0.00    -0.744 OA
ENDBRANCH  92  93
ENDBRANCH  60  85
ENDBRANCH  34  35
ENDBRANCH  26  29
ENDBRANCH  24  25
ENDBRANCH  23  24
ENDBRANCH   1  23
TORSDOF 17
ENDMDL
