MODEL 1
REMARK VINA RESULT:      -7.7      0.000      0.000
REMARK SMILES O=C(NCCCCNC(=O)[C@H](CO)NC(=O)[C@H](CS)NC(=O)[C@H](Cc1c[nH]c2ccccc12)NC(=O)c1ccc(F)cc1)c1ccc(-c2c3nc(c(-c4c(F)cc(S(=O)(=O)[O-])cc4F)c4ccc([nH]4)c(-c4c(F)cc(S(=O)(=O)[O-])cc4F)c4nc(c(-c5c(F)cc(S(=O)(=O)[O-])cc5F)c5ccc2[nH]5)C=C4)C=C3)cc1
REMARK SMILES IDX 7 1 6 2 5 3 4 4 3 5 1 6 2 7 44 9 45 10 109 11 46 12 108 13
REMARK SMILES IDX 47 14 48 15 49 16 102 17 50 18 107 19 101 20 103 21 51 22
REMARK SMILES IDX 106 23 100 24 99 25 52 27 86 28 65 29 85 30 66 31 69 32
REMARK SMILES IDX 84 33 104 34 67 35 68 36 83 38 105 39 70 40 53 41 54 42
REMARK SMILES IDX 63 43 55 44 56 45 62 46 64 47 57 48 58 49 59 50 60 51 61 52
REMARK SMILES IDX 87 53 88 54 97 55 89 56 90 57 96 58 98 59 91 60 92 61 93 62
REMARK SMILES IDX 94 63 95 64 71 65 72 66 81 67 73 68 74 69 80 70 82 71 75 72
REMARK SMILES IDX 76 73 77 74 78 75 79 76 8 77 9 78 10 80 11 81 14 82 15 83
REMARK SMILES IDX 16 85 17 86 20 87 21 88 22 90 23 91 34 92 35 93 36 95 37 96
REMARK SMILES IDX 38 97 43 98 39 99 42 100 40 101 41 102 24 103 25 104 26 105
REMARK SMILES IDX 33 106 27 107 28 108 32 109 29 111 31 112 30 113 18 114
REMARK SMILES IDX 19 115 12 117 13 118
REMARK H PARENT 3 8 103 26 69 37 8 79 14 84 20 89 34 94 27 110 19 116 13 119
REMARK Flexibility Score: inf
ROOT
ATOM      1  C   UNL A   1      39.266  33.292  33.585  1.00  0.00     0.116 C 
ENDROOT
BRANCH   1   2
ATOM      2  C   UNL A   1      39.354  32.044  34.464  1.00  0.00     0.023 C 
BRANCH   2   3
ATOM      3  C   UNL A   1      38.029  31.330  34.738  1.00  0.00     0.023 C 
BRANCH   3   4
ATOM      4  C   UNL A   1      37.647  30.205  33.783  1.00  0.00     0.116 C 
BRANCH   4   5
ATOM      5  N   UNL A   1      36.694  30.617  32.768  1.00  0.00    -0.352 N 
ATOM      6  O   UNL A   1      35.948  31.173  30.721  1.00  0.00    -0.269 OA
ATOM      7  C   UNL A   1      36.851  30.698  31.404  1.00  0.00     0.251 C 
ATOM      8  H   UNL A   1      35.806  30.878  33.105  1.00  0.00     0.163 HD
BRANCH   7   9
ATOM      9  C   UNL A   1      38.112  30.251  30.768  1.00  0.00     0.039 A 
ATOM     10  C   UNL A   1      39.070  29.533  31.486  1.00  0.00     0.014 A 
ATOM     11  C   UNL A   1      38.333  30.559  29.422  1.00  0.00     0.014 A 
ATOM     12  C   UNL A   1      40.303  29.250  30.901  1.00  0.00     0.010 A 
ATOM     13  C   UNL A   1      39.543  30.210  28.815  1.00  0.00     0.010 A 
ATOM     14  C   UNL A   1      40.554  29.586  29.561  1.00  0.00    -0.014 A 
BRANCH  14  15
ATOM     15  C   UNL A   1      41.873  29.257  28.959  1.00  0.00     0.031 A 
ATOM     16  C   UNL A   1      42.977  30.277  28.908  1.00  0.00     0.074 A 
ATOM     17  C   UNL A   1      42.088  28.008  28.498  1.00  0.00     0.049 A 
ATOM     18  N   UNL A   1      44.200  30.145  28.460  1.00  0.00    -0.248 NA
ATOM     19  C   UNL A   1      42.672  31.622  29.419  1.00  0.00     0.031 C 
ATOM     20  C   UNL A   1      41.092  26.935  28.486  1.00  0.00     0.029 A 
ATOM     21  N   UNL A   1      43.215  27.423  27.979  1.00  0.00    -0.354 N 
ATOM     22  C   UNL A   1      44.806  31.384  28.624  1.00  0.00     0.074 A 
ATOM     23  C   UNL A   1      43.806  32.268  29.184  1.00  0.00     0.031 C 
ATOM     24  C   UNL A   1      41.666  25.810  28.037  1.00  0.00     0.029 A 
ATOM     25  C   UNL A   1      43.054  26.091  27.682  1.00  0.00     0.049 A 
ATOM     26  H   UNL A   1      44.057  27.912  27.832  1.00  0.00     0.167 HD
ATOM     27  C   UNL A   1      46.080  31.750  28.344  1.00  0.00     0.037 A 
ATOM     28  C   UNL A   1      43.924  25.191  27.184  1.00  0.00     0.037 A 
ATOM     29  C   UNL A   1      47.077  30.864  27.798  1.00  0.00     0.049 A 
ATOM     30  C   UNL A   1      45.331  25.619  26.882  1.00  0.00     0.074 A 
ATOM     31  C   UNL A   1      48.396  31.142  27.482  1.00  0.00     0.029 A 
ATOM     32  N   UNL A   1      46.868  29.527  27.492  1.00  0.00    -0.354 N 
ATOM     33  N   UNL A   1      45.883  26.797  27.043  1.00  0.00    -0.248 NA
ATOM     34  C   UNL A   1      46.232  24.598  26.332  1.00  0.00     0.031 C 
ATOM     35  C   UNL A   1      48.976  29.981  26.958  1.00  0.00     0.029 A 
ATOM     36  C   UNL A   1      48.032  28.968  26.986  1.00  0.00     0.049 A 
ATOM     37  H   UNL A   1      46.018  29.045  27.617  1.00  0.00     0.167 HD
ATOM     38  C   UNL A   1      47.201  26.657  26.627  1.00  0.00     0.074 A 
ATOM     39  C   UNL A   1      47.367  25.277  26.221  1.00  0.00     0.031 C 
ATOM     40  C   UNL A   1      48.183  27.591  26.586  1.00  0.00     0.037 A 
BRANCH  27  41
ATOM     41  C   UNL A   1      46.473  33.176  28.617  1.00  0.00     0.058 A 
ATOM     42  C   UNL A   1      46.259  34.174  27.653  1.00  0.00     0.135 A 
ATOM     43  C   UNL A   1      47.099  33.550  29.817  1.00  0.00     0.135 A 
ATOM     44  F   UNL A   1      45.662  33.873  26.490  1.00  0.00    -0.206 F 
ATOM     45  C   UNL A   1      46.655  35.491  27.867  1.00  0.00     0.059 A 
ATOM     46  C   UNL A   1      47.484  34.865  30.062  1.00  0.00     0.059 A 
ATOM     47  F   UNL A   1      47.308  32.639  30.781  1.00  0.00    -0.206 F 
ATOM     48  C   UNL A   1      47.266  35.827  29.075  1.00  0.00     0.060 A 
BRANCH  48  49
ATOM     49  S   UNL A   1      47.718  37.552  29.365  1.00  0.00     0.124 S 
ATOM     50  O   UNL A   1      46.624  38.010  30.214  1.00  0.00    -0.237 OA
ATOM     51  O   UNL A   1      49.019  37.425  30.015  1.00  0.00    -0.237 OA
ATOM     52  O   UNL A   1      47.755  38.120  28.020  1.00  0.00    -0.744 OA
ENDBRANCH  48  49
ENDBRANCH  27  41
BRANCH  28  53
ATOM     53  C   UNL A   1      43.477  23.791  26.976  1.00  0.00     0.058 A 
ATOM     54  C   UNL A   1      43.045  23.346  25.718  1.00  0.00     0.135 A 
ATOM     55  C   UNL A   1      43.399  22.893  28.052  1.00  0.00     0.135 A 
ATOM     56  F   UNL A   1      43.089  24.172  24.661  1.00  0.00    -0.206 F 
ATOM     57  C   UNL A   1      42.515  22.074  25.539  1.00  0.00     0.059 A 
ATOM     58  C   UNL A   1      42.895  21.607  27.893  1.00  0.00     0.059 A 
ATOM     59  F   UNL A   1      43.812  23.273  29.271  1.00  0.00    -0.206 F 
ATOM     60  C   UNL A   1      42.433  21.216  26.636  1.00  0.00     0.060 A 
BRANCH  60  61
ATOM     61  S   UNL A   1      41.699  19.583  26.396  1.00  0.00     0.124 S 
ATOM     62  O   UNL A   1      40.288  19.921  26.238  1.00  0.00    -0.237 OA
ATOM     63  O   UNL A   1      42.378  19.115  25.192  1.00  0.00    -0.237 OA
ATOM     64  O   UNL A   1      42.043  18.875  27.624  1.00  0.00    -0.744 OA
ENDBRANCH  60  61
ENDBRANCH  28  53
BRANCH  40  65
ATOM     65  C   UNL A   1      49.536  27.151  26.102  1.00  0.00     0.058 A 
ATOM     66  C   UNL A   1      50.505  26.704  27.015  1.00  0.00     0.135 A 
ATOM     67  C   UNL A   1      49.893  27.227  24.747  1.00  0.00     0.135 A 
ATOM     68  F   UNL A   1      50.214  26.616  28.321  1.00  0.00    -0.206 F 
ATOM     69  C   UNL A   1      51.786  26.357  26.600  1.00  0.00     0.059 A 
ATOM     70  C   UNL A   1      51.162  26.864  24.308  1.00  0.00     0.059 A 
ATOM     71  F   UNL A   1      48.997  27.638  23.836  1.00  0.00    -0.206 F 
ATOM     72  C   UNL A   1      52.107  26.443  25.245  1.00  0.00     0.060 A 
BRANCH  72  73
ATOM     73  S   UNL A   1      53.767  25.966  24.717  1.00  0.00     0.124 S 
ATOM     74  O   UNL A   1      53.637  24.518  24.603  1.00  0.00    -0.237 OA
ATOM     75  O   UNL A   1      53.914  26.692  23.460  1.00  0.00    -0.237 OA
ATOM     76  O   UNL A   1      54.615  26.438  25.807  1.00  0.00    -0.744 OA
ENDBRANCH  72  73
ENDBRANCH  40  65
ENDBRANCH  14  15
ENDBRANCH   7   9
ENDBRANCH   4   5
ENDBRANCH   3   4
ENDBRANCH   2   3
ENDBRANCH   1   2
BRANCH   1  77
ATOM     77  N   UNL A   1      40.520  34.011  33.483  1.00  0.00    -0.354 N 
ATOM     78  C   UNL A   1      41.363  34.493  34.435  1.00  0.00     0.244 C 
ATOM     79  H   UNL A   1      40.814  34.181  32.559  1.00  0.00     0.163 HD
ATOM     80  O   UNL A   1      42.519  34.760  34.086  1.00  0.00    -0.273 OA
BRANCH  78  81
ATOM     81  C   UNL A   1      41.040  34.519  35.939  1.00  0.00     0.197 C 
BRANCH  81  82
ATOM     82  N   UNL A   1      42.116  34.966  36.823  1.00  0.00    -0.340 N 
ATOM     83  C   UNL A   1      43.184  34.279  37.317  1.00  0.00     0.244 C 
ATOM     84  H   UNL A   1      42.061  35.908  37.103  1.00  0.00     0.164 HD
ATOM     85  O   UNL A   1      44.101  34.936  37.813  1.00  0.00    -0.273 OA
BRANCH  83  86
ATOM     86  C   UNL A   1      43.188  32.742  37.354  1.00  0.00     0.181 C 
BRANCH  86  87
ATOM     87  N   UNL A   1      44.412  32.234  36.735  1.00  0.00    -0.342 N 
ATOM     88  C   UNL A   1      44.636  31.084  36.032  1.00  0.00     0.243 C 
ATOM     89  H   UNL A   1      45.201  32.814  36.842  1.00  0.00     0.164 HD
ATOM     90  O   UNL A   1      45.802  30.822  35.728  1.00  0.00    -0.273 OA
BRANCH  88  91
ATOM     91  C   UNL A   1      43.455  30.161  35.639  1.00  0.00     0.176 C 
BRANCH  91  92
ATOM     92  N   UNL A   1      42.707  30.810  34.558  1.00  0.00    -0.340 N 
ATOM     93  C   UNL A   1      42.896  30.840  33.209  1.00  0.00     0.251 C 
ATOM     94  H   UNL A   1      41.922  31.321  34.864  1.00  0.00     0.164 HD
ATOM     95  O   UNL A   1      42.215  31.554  32.483  1.00  0.00    -0.269 OA
BRANCH  93  96
ATOM     96  C   UNL A   1      43.935  30.007  32.592  1.00  0.00     0.040 A 
ATOM     97  C   UNL A   1      43.581  28.744  32.115  1.00  0.00     0.017 A 
ATOM     98  C   UNL A   1      45.201  30.547  32.335  1.00  0.00     0.017 A 
ATOM     99  C   UNL A   1      44.510  28.012  31.381  1.00  0.00     0.040 A 
ATOM    100  C   UNL A   1      46.136  29.793  31.624  1.00  0.00     0.040 A 
ATOM    101  C   UNL A   1      45.782  28.532  31.155  1.00  0.00     0.123 A 
ATOM    102  F   UNL A   1      46.680  27.794  30.490  1.00  0.00    -0.207 F 
ENDBRANCH  93  96
ENDBRANCH  91  92
BRANCH  91 103
ATOM    103  C   UNL A   1      43.906  28.721  35.284  1.00  0.00     0.072 C 
BRANCH 103 104
ATOM    104  C   UNL A   1      42.948  27.606  35.585  1.00  0.00    -0.020 A 
ATOM    105  C   UNL A   1      41.777  27.687  36.314  1.00  0.00     0.087 A 
ATOM    106  C   UNL A   1      43.050  26.249  35.129  1.00  0.00     0.003 A 
ATOM    107  N   UNL A   1      41.207  26.440  36.355  1.00  0.00    -0.361 N 
ATOM    108  C   UNL A   1      41.986  25.536  35.674  1.00  0.00     0.046 A 
ATOM    109  C   UNL A   1      43.979  25.555  34.328  1.00  0.00     0.010 A 
ATOM    110  H   UNL A   1      40.361  26.223  36.810  1.00  0.00     0.166 HD
ATOM    111  C   UNL A   1      41.836  24.153  35.501  1.00  0.00     0.026 A 
ATOM    112  C   UNL A   1      43.869  24.171  34.173  1.00  0.00     0.001 A 
ATOM    113  C   UNL A   1      42.814  23.481  34.760  1.00  0.00     0.002 A 
ENDBRANCH 103 104
ENDBRANCH  91 103
ENDBRANCH  88  91
ENDBRANCH  86  87
BRANCH  86 114
ATOM    114  C   UNL A   1      43.022  32.322  38.834  1.00  0.00     0.101 C 
BRANCH 114 115
ATOM    115  S   UNL A   1      41.527  32.922  39.697  1.00  0.00    -0.177 SA
ATOM    116  H   UNL A   1      40.607  31.922  39.758  1.00  0.00     0.102 HD
ENDBRANCH 114 115
ENDBRANCH  86 114
ENDBRANCH  83  86
ENDBRANCH  81  82
BRANCH  81 117
ATOM    117  C   UNL A   1      39.736  35.303  36.127  1.00  0.00     0.191 C 
BRANCH 117 118
ATOM    118  O   UNL A   1      39.853  36.610  35.553  1.00  0.00    -0.394 OA
ATOM    119  H   UNL A   1      38.969  36.985  35.421  1.00  0.00     0.210 HD
ENDBRANCH 117 118
ENDBRANCH  81 117
ENDBRANCH  78  81
ENDBRANCH   1  77
TORSDOF 26
ENDMDL
MODEL 2
REMARK VINA RESULT:      -7.6      5.894     12.567
REMARK SMILES O=C(NCCCCNC(=O)[C@H](CO)NC(=O)[C@H](CS)NC(=O)[C@H](Cc1c[nH]c2ccccc12)NC(=O)c1ccc(F)cc1)c1ccc(-c2c3nc(c(-c4c(F)cc(S(=O)(=O)[O-])cc4F)c4ccc([nH]4)c(-c4c(F)cc(S(=O)(=O)[O-])cc4F)c4nc(c(-c5c(F)cc(S(=O)(=O)[O-])cc5F)c5ccc2[nH]5)C=C4)C=C3)cc1
REMARK SMILES IDX 7 1 6 2 5 3 4 4 3 5 1 6 2 7 44 9 45 10 109 11 46 12 108 13
REMARK SMILES IDX 47 14 48 15 49 16 102 17 50 18 107 19 101 20 103 21 51 22
REMARK SMILES IDX 106 23 100 24 99 25 52 27 86 28 65 29 85 30 66 31 69 32
REMARK SMILES IDX 84 33 104 34 67 35 68 36 83 38 105 39 70 40 53 41 54 42
REMARK SMILES IDX 63 43 55 44 56 45 62 46 64 47 57 48 58 49 59 50 60 51 61 52
REMARK SMILES IDX 87 53 88 54 97 55 89 56 90 57 96 58 98 59 91 60 92 61 93 62
REMARK SMILES IDX 94 63 95 64 71 65 72 66 81 67 73 68 74 69 80 70 82 71 75 72
REMARK SMILES IDX 76 73 77 74 78 75 79 76 8 77 9 78 10 80 11 81 14 82 15 83
REMARK SMILES IDX 16 85 17 86 20 87 21 88 22 90 23 91 34 92 35 93 36 95 37 96
REMARK SMILES IDX 38 97 43 98 39 99 42 100 40 101 41 102 24 103 25 104 26 105
REMARK SMILES IDX 33 106 27 107 28 108 32 109 29 111 31 112 30 113 18 114
REMARK SMILES IDX 19 115 12 117 13 118
REMARK H PARENT 3 8 103 26 69 37 8 79 14 84 20 89 34 94 27 110 19 116 13 119
REMARK Flexibility Score: inf
ROOT
ATOM      1  C   UNL A   1      44.083  40.686  29.653  1.00  0.00     0.116 C 
ENDROOT
BRANCH   1   2
ATOM      2  C   UNL A   1      45.055  39.666  30.246  1.00  0.00     0.023 C 
BRANCH   2   3
ATOM      3  C   UNL A   1      44.451  38.305  30.605  1.00  0.00     0.023 C 
BRANCH   3   4
ATOM      4  C   UNL A   1      45.415  37.126  30.677  1.00  0.00     0.116 C 
BRANCH   4   5
ATOM      5  N   UNL A   1      46.760  37.463  30.246  1.00  0.00    -0.352 N 
ATOM      6  O   UNL A   1      48.828  37.122  29.435  1.00  0.00    -0.269 OA
ATOM      7  C   UNL A   1      47.701  36.675  29.625  1.00  0.00     0.251 C 
ATOM      8  H   UNL A   1      47.040  38.390  30.427  1.00  0.00     0.163 HD
BRANCH   7   9
ATOM      9  C   UNL A   1      47.369  35.289  29.224  1.00  0.00     0.039 A 
ATOM     10  C   UNL A   1      46.941  34.992  27.929  1.00  0.00     0.014 A 
ATOM     11  C   UNL A   1      47.491  34.267  30.171  1.00  0.00     0.014 A 
ATOM     12  C   UNL A   1      46.503  33.705  27.624  1.00  0.00     0.010 A 
ATOM     13  C   UNL A   1      47.120  32.960  29.841  1.00  0.00     0.010 A 
ATOM     14  C   UNL A   1      46.586  32.675  28.576  1.00  0.00    -0.014 A 
BRANCH  14  15
ATOM     15  C   UNL A   1      46.126  31.308  28.217  1.00  0.00     0.031 A 
ATOM     16  C   UNL A   1      47.098  30.267  27.730  1.00  0.00     0.074 A 
ATOM     17  C   UNL A   1      44.826  30.991  28.378  1.00  0.00     0.049 A 
ATOM     18  N   UNL A   1      46.875  29.016  27.415  1.00  0.00    -0.248 NA
ATOM     19  C   UNL A   1      48.499  30.683  27.568  1.00  0.00     0.031 C 
ATOM     20  C   UNL A   1      43.787  31.916  28.835  1.00  0.00     0.029 A 
ATOM     21  N   UNL A   1      44.161  29.804  28.204  1.00  0.00    -0.354 N 
ATOM     22  C   UNL A   1      48.099  28.498  27.010  1.00  0.00     0.074 A 
ATOM     23  C   UNL A   1      49.058  29.580  27.087  1.00  0.00     0.031 C 
ATOM     24  C   UNL A   1      42.630  31.251  28.958  1.00  0.00     0.029 A 
ATOM     25  C   UNL A   1      42.831  29.866  28.543  1.00  0.00     0.049 A 
ATOM     26  H   UNL A   1      44.596  28.987  27.868  1.00  0.00     0.167 HD
ATOM     27  C   UNL A   1      48.399  27.236  26.620  1.00  0.00     0.037 A 
ATOM     28  C   UNL A   1      41.875  28.916  28.525  1.00  0.00     0.037 A 
ATOM     29  C   UNL A   1      47.445  26.158  26.556  1.00  0.00     0.049 A 
ATOM     30  C   UNL A   1      42.231  27.524  28.090  1.00  0.00     0.074 A 
ATOM     31  C   UNL A   1      47.654  24.844  26.175  1.00  0.00     0.029 A 
ATOM     32  N   UNL A   1      46.102  26.267  26.888  1.00  0.00    -0.354 N 
ATOM     33  N   UNL A   1      43.395  27.055  27.709  1.00  0.00    -0.248 NA
ATOM     34  C   UNL A   1      41.147  26.533  28.082  1.00  0.00     0.031 C 
ATOM     35  C   UNL A   1      46.432  24.165  26.248  1.00  0.00     0.029 A 
ATOM     36  C   UNL A   1      45.469  25.045  26.715  1.00  0.00     0.049 A 
ATOM     37  H   UNL A   1      45.663  27.091  27.201  1.00  0.00     0.167 HD
ATOM     38  C   UNL A   1      43.188  25.711  27.428  1.00  0.00     0.074 A 
ATOM     39  C   UNL A   1      41.791  25.437  27.697  1.00  0.00     0.031 C 
ATOM     40  C   UNL A   1      44.077  24.787  26.987  1.00  0.00     0.037 A 
BRANCH  27  41
ATOM     41  C   UNL A   1      49.821  26.947  26.223  1.00  0.00     0.058 A 
ATOM     42  C   UNL A   1      50.751  26.493  27.171  1.00  0.00     0.135 A 
ATOM     43  C   UNL A   1      50.275  27.159  24.910  1.00  0.00     0.135 A 
ATOM     44  F   UNL A   1      50.370  26.269  28.438  1.00  0.00    -0.206 F 
ATOM     45  C   UNL A   1      52.081  26.262  26.834  1.00  0.00     0.059 A 
ATOM     46  C   UNL A   1      51.596  26.915  24.546  1.00  0.00     0.059 A 
ATOM     47  F   UNL A   1      49.422  27.573  23.960  1.00  0.00    -0.206 F 
ATOM     48  C   UNL A   1      52.495  26.475  25.519  1.00  0.00     0.060 A 
BRANCH  48  49
ATOM     49  S   UNL A   1      54.209  26.112  25.081  1.00  0.00     0.124 S 
ATOM     50  O   UNL A   1      54.889  27.336  25.491  1.00  0.00    -0.237 OA
ATOM     51  O   UNL A   1      54.490  24.927  25.887  1.00  0.00    -0.237 OA
ATOM     52  O   UNL A   1      54.146  25.877  23.641  1.00  0.00    -0.744 OA
ENDBRANCH  48  49
ENDBRANCH  27  41
BRANCH  28  53
ATOM     53  C   UNL A   1      40.501  29.263  28.968  1.00  0.00     0.058 A 
ATOM     54  C   UNL A   1      39.476  29.495  28.038  1.00  0.00     0.135 A 
ATOM     55  C   UNL A   1      40.209  29.448  30.327  1.00  0.00     0.135 A 
ATOM     56  F   UNL A   1      39.712  29.342  26.725  1.00  0.00    -0.206 F 
ATOM     57  C   UNL A   1      38.219  29.934  28.437  1.00  0.00     0.059 A 
ATOM     58  C   UNL A   1      38.952  29.864  30.752  1.00  0.00     0.059 A 
ATOM     59  F   UNL A   1      41.156  29.227  31.252  1.00  0.00    -0.206 F 
ATOM     60  C   UNL A   1      37.971  30.127  29.796  1.00  0.00     0.060 A 
BRANCH  60  61
ATOM     61  S   UNL A   1      36.347  30.743  30.292  1.00  0.00     0.124 S 
ATOM     62  O   UNL A   1      36.670  32.103  30.714  1.00  0.00    -0.237 OA
ATOM     63  O   UNL A   1      35.583  30.627  29.055  1.00  0.00    -0.237 OA
ATOM     64  O   UNL A   1      35.952  29.831  31.360  1.00  0.00    -0.744 OA
ENDBRANCH  60  61
ENDBRANCH  28  53
BRANCH  40  65
ATOM     65  C   UNL A   1      43.576  23.386  26.783  1.00  0.00     0.058 A 
ATOM     66  C   UNL A   1      43.327  22.554  27.886  1.00  0.00     0.135 A 
ATOM     67  C   UNL A   1      43.398  22.848  25.499  1.00  0.00     0.135 A 
ATOM     68  F   UNL A   1      43.484  23.020  29.135  1.00  0.00    -0.206 F 
ATOM     69  C   UNL A   1      42.929  21.232  27.722  1.00  0.00     0.059 A 
ATOM     70  C   UNL A   1      42.980  21.534  25.313  1.00  0.00     0.059 A 
ATOM     71  F   UNL A   1      43.613  23.608  24.414  1.00  0.00    -0.206 F 
ATOM     72  C   UNL A   1      42.760  20.729  26.432  1.00  0.00     0.060 A 
BRANCH  72  73
ATOM     73  S   UNL A   1      42.219  19.018  26.234  1.00  0.00     0.124 S 
ATOM     74  O   UNL A   1      43.156  18.523  25.232  1.00  0.00    -0.237 OA
ATOM     75  O   UNL A   1      42.387  18.481  27.582  1.00  0.00    -0.237 OA
ATOM     76  O   UNL A   1      40.835  19.152  25.790  1.00  0.00    -0.744 OA
ENDBRANCH  72  73
ENDBRANCH  40  65
ENDBRANCH  14  15
ENDBRANCH   7   9
ENDBRANCH   4   5
ENDBRANCH   3   4
ENDBRANCH   2   3
ENDBRANCH   1   2
BRANCH   1  77
ATOM     77  N   UNL A   1      43.935  41.876  30.467  1.00  0.00    -0.354 N 
ATOM     78  C   UNL A   1      44.511  43.104  30.381  1.00  0.00     0.244 C 
ATOM     79  H   UNL A   1      43.304  41.776  31.217  1.00  0.00     0.163 HD
ATOM     80  O   UNL A   1      43.961  44.032  30.985  1.00  0.00    -0.273 OA
BRANCH  78  81
ATOM     81  C   UNL A   1      45.660  43.452  29.418  1.00  0.00     0.197 C 
BRANCH  81  82
ATOM     82  N   UNL A   1      45.814  44.867  29.081  1.00  0.00    -0.340 N 
ATOM     83  C   UNL A   1      45.861  45.474  27.862  1.00  0.00     0.244 C 
ATOM     84  H   UNL A   1      45.895  45.473  29.852  1.00  0.00     0.164 HD
ATOM     85  O   UNL A   1      45.718  46.698  27.832  1.00  0.00    -0.273 OA
BRANCH  83  86
ATOM     86  C   UNL A   1      46.193  44.675  26.591  1.00  0.00     0.181 C 
BRANCH  86  87
ATOM     87  N   UNL A   1      45.643  45.356  25.419  1.00  0.00    -0.342 N 
ATOM     88  C   UNL A   1      45.440  44.902  24.147  1.00  0.00     0.243 C 
ATOM     89  H   UNL A   1      45.377  46.292  25.571  1.00  0.00     0.164 HD
ATOM     90  O   UNL A   1      45.084  45.724  23.301  1.00  0.00    -0.273 OA
BRANCH  88  91
ATOM     91  C   UNL A   1      45.651  43.405  23.805  1.00  0.00     0.176 C 
BRANCH  91  92
ATOM     92  N   UNL A   1      44.550  42.640  24.399  1.00  0.00    -0.340 N 
ATOM     93  C   UNL A   1      44.527  41.470  25.098  1.00  0.00     0.251 C 
ATOM     94  H   UNL A   1      43.663  43.047  24.269  1.00  0.00     0.164 HD
ATOM     95  O   UNL A   1      43.471  40.931  25.406  1.00  0.00    -0.269 OA
BRANCH  93  96
ATOM     96  C   UNL A   1      45.783  40.826  25.499  1.00  0.00     0.040 A 
ATOM     97  C   UNL A   1      46.247  41.022  26.801  1.00  0.00     0.017 A 
ATOM     98  C   UNL A   1      46.395  39.901  24.646  1.00  0.00     0.017 A 
ATOM     99  C   UNL A   1      47.343  40.288  27.247  1.00  0.00     0.040 A 
ATOM    100  C   UNL A   1      47.511  39.191  25.092  1.00  0.00     0.040 A 
ATOM    101  C   UNL A   1      47.976  39.393  26.388  1.00  0.00     0.123 A 
ATOM    102  F   UNL A   1      49.059  38.731  26.817  1.00  0.00    -0.207 F 
ENDBRANCH  93  96
ENDBRANCH  91  92
BRANCH  91 103
ATOM    103  C   UNL A   1      45.813  43.151  22.284  1.00  0.00     0.072 C 
BRANCH 103 104
ATOM    104  C   UNL A   1      44.576  43.229  21.437  1.00  0.00    -0.020 A 
ATOM    105  C   UNL A   1      43.441  42.448  21.545  1.00  0.00     0.087 A 
ATOM    106  C   UNL A   1      44.324  44.167  20.381  1.00  0.00     0.003 A 
ATOM    107  N   UNL A   1      42.553  42.841  20.576  1.00  0.00    -0.361 N 
ATOM    108  C   UNL A   1      43.084  43.862  19.827  1.00  0.00     0.046 A 
ATOM    109  C   UNL A   1      45.062  45.230  19.823  1.00  0.00     0.010 A 
ATOM    110  H   UNL A   1      41.661  42.446  20.438  1.00  0.00     0.166 HD
ATOM    111  C   UNL A   1      42.572  44.531  18.707  1.00  0.00     0.026 A 
ATOM    112  C   UNL A   1      44.587  45.886  18.685  1.00  0.00     0.001 A 
ATOM    113  C   UNL A   1      43.361  45.533  18.132  1.00  0.00     0.002 A 
ENDBRANCH 103 104
ENDBRANCH  91 103
ENDBRANCH  88  91
ENDBRANCH  86  87
BRANCH  86 114
ATOM    114  C   UNL A   1      47.730  44.509  26.547  1.00  0.00     0.101 C 
BRANCH 114 115
ATOM    115  S   UNL A   1      48.715  46.023  26.273  1.00  0.00    -0.177 SA
ATOM    116  H   UNL A   1      49.069  46.557  27.473  1.00  0.00     0.102 HD
ENDBRANCH 114 115
ENDBRANCH  86 114
ENDBRANCH  83  86
ENDBRANCH  81  82
BRANCH  81 117
ATOM    117  C   UNL A   1      46.943  42.818  29.968  1.00  0.00     0.191 C 
BRANCH 117 118
ATOM    118  O   UNL A   1      47.779  43.817  30.561  1.00  0.00    -0.394 OA
ATOM    119  H   UNL A   1      47.826  43.672  31.519  1.00  0.00     0.210 HD
ENDBRANCH 117 118
ENDBRANCH  81 117
ENDBRANCH  78  81
ENDBRANCH   1  77
TORSDOF 26
ENDMDL
MODEL 3
REMARK VINA RESULT:      -7.4      3.588      6.447
REMARK SMILES O=C(NCCCCNC(=O)[C@H](CO)NC(=O)[C@H](CS)NC(=O)[C@H](Cc1c[nH]c2ccccc12)NC(=O)c1ccc(F)cc1)c1ccc(-c2c3nc(c(-c4c(F)cc(S(=O)(=O)[O-])cc4F)c4ccc([nH]4)c(-c4c(F)cc(S(=O)(=O)[O-])cc4F)c4nc(c(-c5c(F)cc(S(=O)(=O)[O-])cc5F)c5ccc2[nH]5)C=C4)C=C3)cc1
REMARK SMILES IDX 7 1 6 2 5 3 4 4 3 5 1 6 2 7 44 9 45 10 109 11 46 12 108 13
REMARK SMILES IDX 47 14 48 15 49 16 102 17 50 18 107 19 101 20 103 21 51 22
REMARK SMILES IDX 106 23 100 24 99 25 52 27 86 28 65 29 85 30 66 31 69 32
REMARK SMILES IDX 84 33 104 34 67 35 68 36 83 38 105 39 70 40 53 41 54 42
REMARK SMILES IDX 63 43 55 44 56 45 62 46 64 47 57 48 58 49 59 50 60 51 61 52
REMARK SMILES IDX 87 53 88 54 97 55 89 56 90 57 96 58 98 59 91 60 92 61 93 62
REMARK SMILES IDX 94 63 95 64 71 65 72 66 81 67 73 68 74 69 80 70 82 71 75 72
REMARK SMILES IDX 76 73 77 74 78 75 79 76 8 77 9 78 10 80 11 81 14 82 15 83
REMARK SMILES IDX 16 85 17 86 20 87 21 88 22 90 23 91 34 92 35 93 36 95 37 96
REMARK SMILES IDX 38 97 43 98 39 99 42 100 40 101 41 102 24 103 25 104 26 105
REMARK SMILES IDX 33 106 27 107 28 108 32 109 29 111 31 112 30 113 18 114
REMARK SMILES IDX 19 115 12 117 13 118
REMARK H PARENT 3 8 103 26 69 37 8 79 14 84 20 89 34 94 27 110 19 116 13 119
REMARK Flexibility Score: inf
ROOT
ATOM      1  C   UNL A   1      39.689  34.242  32.132  1.00  0.00     0.116 C 
ENDROOT
BRANCH   1   2
ATOM      2  C   UNL A   1      39.463  34.655  30.678  1.00  0.00     0.023 C 
BRANCH   2   3
ATOM      3  C   UNL A   1      40.723  34.762  29.816  1.00  0.00     0.023 C 
BRANCH   3   4
ATOM      4  C   UNL A   1      40.514  34.905  28.312  1.00  0.00     0.116 C 
BRANCH   4   5
ATOM      5  N   UNL A   1      41.036  36.152  27.780  1.00  0.00    -0.352 N 
ATOM      6  O   UNL A   1      42.565  37.586  26.970  1.00  0.00    -0.269 OA
ATOM      7  C   UNL A   1      42.286  36.432  27.279  1.00  0.00     0.251 C 
ATOM      8  H   UNL A   1      40.404  36.906  27.780  1.00  0.00     0.163 HD
BRANCH   7   9
ATOM      9  C   UNL A   1      43.297  35.357  27.147  1.00  0.00     0.039 A 
ATOM     10  C   UNL A   1      44.057  34.940  28.241  1.00  0.00     0.014 A 
ATOM     11  C   UNL A   1      43.482  34.757  25.897  1.00  0.00     0.014 A 
ATOM     12  C   UNL A   1      45.095  34.028  28.054  1.00  0.00     0.010 A 
ATOM     13  C   UNL A   1      44.477  33.789  25.728  1.00  0.00     0.010 A 
ATOM     14  C   UNL A   1      45.317  33.444  26.796  1.00  0.00    -0.014 A 
BRANCH  14  15
ATOM     15  C   UNL A   1      46.421  32.462  26.631  1.00  0.00     0.031 A 
ATOM     16  C   UNL A   1      47.843  32.919  26.449  1.00  0.00     0.074 A 
ATOM     17  C   UNL A   1      46.141  31.145  26.695  1.00  0.00     0.049 A 
ATOM     18  N   UNL A   1      48.931  32.200  26.335  1.00  0.00    -0.248 NA
ATOM     19  C   UNL A   1      48.077  34.370  26.379  1.00  0.00     0.031 C 
ATOM     20  C   UNL A   1      44.800  30.580  26.860  1.00  0.00     0.029 A 
ATOM     21  N   UNL A   1      46.962  30.048  26.656  1.00  0.00    -0.354 N 
ATOM     22  C   UNL A   1      49.974  33.103  26.170  1.00  0.00     0.074 A 
ATOM     23  C   UNL A   1      49.386  34.426  26.167  1.00  0.00     0.031 C 
ATOM     24  C   UNL A   1      44.896  29.247  26.963  1.00  0.00     0.029 A 
ATOM     25  C   UNL A   1      46.296  28.858  26.823  1.00  0.00     0.049 A 
ATOM     26  H   UNL A   1      47.936  30.108  26.521  1.00  0.00     0.167 HD
ATOM     27  C   UNL A   1      51.300  32.855  26.045  1.00  0.00     0.037 A 
ATOM     28  C   UNL A   1      46.756  27.592  26.862  1.00  0.00     0.037 A 
ATOM     29  C   UNL A   1      51.883  31.538  26.062  1.00  0.00     0.049 A 
ATOM     30  C   UNL A   1      48.229  27.341  26.722  1.00  0.00     0.074 A 
ATOM     31  C   UNL A   1      53.217  31.185  25.943  1.00  0.00     0.029 A 
ATOM     32  N   UNL A   1      51.172  30.356  26.212  1.00  0.00    -0.354 N 
ATOM     33  N   UNL A   1      49.199  28.210  26.565  1.00  0.00    -0.248 NA
ATOM     34  C   UNL A   1      48.672  25.941  26.763  1.00  0.00     0.031 C 
ATOM     35  C   UNL A   1      53.309  29.789  25.993  1.00  0.00     0.029 A 
ATOM     36  C   UNL A   1      52.037  29.273  26.184  1.00  0.00     0.049 A 
ATOM     37  H   UNL A   1      50.195  30.296  26.323  1.00  0.00     0.167 HD
ATOM     38  C   UNL A   1      50.369  27.464  26.502  1.00  0.00     0.074 A 
ATOM     39  C   UNL A   1      49.988  26.074  26.652  1.00  0.00     0.031 C 
ATOM     40  C   UNL A   1      51.644  27.895  26.335  1.00  0.00     0.037 A 
BRANCH  27  41
ATOM     41  C   UNL A   1      52.217  34.034  25.871  1.00  0.00     0.058 A 
ATOM     42  C   UNL A   1      52.560  34.490  24.588  1.00  0.00     0.135 A 
ATOM     43  C   UNL A   1      52.791  34.689  26.973  1.00  0.00     0.135 A 
ATOM     44  F   UNL A   1      52.038  33.904  23.500  1.00  0.00    -0.206 F 
ATOM     45  C   UNL A   1      53.441  35.551  24.403  1.00  0.00     0.059 A 
ATOM     46  C   UNL A   1      53.658  35.766  26.812  1.00  0.00     0.059 A 
ATOM     47  F   UNL A   1      52.480  34.307  28.222  1.00  0.00    -0.206 F 
ATOM     48  C   UNL A   1      53.985  36.184  25.522  1.00  0.00     0.060 A 
BRANCH  48  49
ATOM     49  S   UNL A   1      55.078  37.599  25.269  1.00  0.00     0.124 S 
ATOM     50  O   UNL A   1      56.355  36.948  25.000  1.00  0.00    -0.237 OA
ATOM     51  O   UNL A   1      54.455  38.273  24.134  1.00  0.00    -0.237 OA
ATOM     52  O   UNL A   1      54.992  38.321  26.536  1.00  0.00    -0.744 OA
ENDBRANCH  48  49
ENDBRANCH  27  41
BRANCH  28  53
ATOM     53  C   UNL A   1      45.796  26.479  27.076  1.00  0.00     0.058 A 
ATOM     54  C   UNL A   1      45.230  25.792  25.992  1.00  0.00     0.135 A 
ATOM     55  C   UNL A   1      45.367  26.138  28.367  1.00  0.00     0.135 A 
ATOM     56  F   UNL A   1      45.600  26.092  24.737  1.00  0.00    -0.206 F 
ATOM     57  C   UNL A   1      44.244  24.829  26.177  1.00  0.00     0.059 A 
ATOM     58  C   UNL A   1      44.400  25.162  28.579  1.00  0.00     0.059 A 
ATOM     59  F   UNL A   1      45.890  26.763  29.434  1.00  0.00    -0.206 F 
ATOM     60  C   UNL A   1      43.827  24.530  27.475  1.00  0.00     0.060 A 
BRANCH  60  61
ATOM     61  S   UNL A   1      42.512  23.312  27.694  1.00  0.00     0.124 S 
ATOM     62  O   UNL A   1      42.059  23.126  26.319  1.00  0.00    -0.237 OA
ATOM     63  O   UNL A   1      43.230  22.187  28.284  1.00  0.00    -0.237 OA
ATOM     64  O   UNL A   1      41.571  23.988  28.580  1.00  0.00    -0.744 OA
ENDBRANCH  60  61
ENDBRANCH  28  53
BRANCH  40  65
ATOM     65  C   UNL A   1      52.729  26.856  26.324  1.00  0.00     0.058 A 
ATOM     66  C   UNL A   1      53.453  26.573  27.493  1.00  0.00     0.135 A 
ATOM     67  C   UNL A   1      53.091  26.183  25.146  1.00  0.00     0.135 A 
ATOM     68  F   UNL A   1      53.147  27.190  28.644  1.00  0.00    -0.206 F 
ATOM     69  C   UNL A   1      54.507  25.666  27.491  1.00  0.00     0.059 A 
ATOM     70  C   UNL A   1      54.128  25.256  25.127  1.00  0.00     0.059 A 
ATOM     71  F   UNL A   1      52.421  26.412  24.005  1.00  0.00    -0.206 F 
ATOM     72  C   UNL A   1      54.839  25.015  26.303  1.00  0.00     0.060 A 
BRANCH  72  73
ATOM     73  S   UNL A   1      56.194  23.820  26.322  1.00  0.00     0.124 S 
ATOM     74  O   UNL A   1      55.480  22.562  26.505  1.00  0.00    -0.237 OA
ATOM     75  O   UNL A   1      56.803  24.021  25.010  1.00  0.00    -0.237 OA
ATOM     76  O   UNL A   1      57.008  24.253  27.454  1.00  0.00    -0.744 OA
ENDBRANCH  72  73
ENDBRANCH  40  65
ENDBRANCH  14  15
ENDBRANCH   7   9
ENDBRANCH   4   5
ENDBRANCH   3   4
ENDBRANCH   2   3
ENDBRANCH   1   2
BRANCH   1  77
ATOM     77  N   UNL A   1      41.082  34.002  32.450  1.00  0.00    -0.354 N 
ATOM     78  C   UNL A   1      41.683  33.538  33.578  1.00  0.00     0.244 C 
ATOM     79  H   UNL A   1      41.706  34.215  31.718  1.00  0.00     0.163 HD
ATOM     80  O   UNL A   1      42.838  33.108  33.470  1.00  0.00    -0.273 OA
BRANCH  78  81
ATOM     81  C   UNL A   1      40.952  33.313  34.913  1.00  0.00     0.197 C 
BRANCH  81  82
ATOM     82  N   UNL A   1      41.077  31.979  35.500  1.00  0.00    -0.340 N 
ATOM     83  C   UNL A   1      40.261  30.894  35.385  1.00  0.00     0.244 C 
ATOM     84  H   UNL A   1      41.872  31.845  36.065  1.00  0.00     0.164 HD
ATOM     85  O   UNL A   1      40.713  29.804  35.743  1.00  0.00    -0.273 OA
BRANCH  83  86
ATOM     86  C   UNL A   1      38.799  31.046  34.934  1.00  0.00     0.181 C 
BRANCH  86  87
ATOM     87  N   UNL A   1      38.319  29.783  34.373  1.00  0.00    -0.342 N 
ATOM     88  C   UNL A   1      37.655  29.529  33.206  1.00  0.00     0.243 C 
ATOM     89  H   UNL A   1      38.504  28.989  34.925  1.00  0.00     0.164 HD
ATOM     90  O   UNL A   1      37.240  28.383  33.028  1.00  0.00    -0.273 OA
BRANCH  88  91
ATOM     91  C   UNL A   1      37.447  30.654  32.162  1.00  0.00     0.176 C 
BRANCH  91  92
ATOM     92  N   UNL A   1      38.764  31.174  31.781  1.00  0.00    -0.340 N 
ATOM     93  C   UNL A   1      39.727  30.693  30.944  1.00  0.00     0.251 C 
ATOM     94  H   UNL A   1      38.996  32.030  32.210  1.00  0.00     0.164 HD
ATOM     95  O   UNL A   1      40.824  31.230  30.858  1.00  0.00    -0.269 OA
BRANCH  93  96
ATOM     96  C   UNL A   1      39.463  29.507  30.121  1.00  0.00     0.040 A 
ATOM     97  C   UNL A   1      39.158  29.686  28.772  1.00  0.00     0.017 A 
ATOM     98  C   UNL A   1      39.690  28.230  30.647  1.00  0.00     0.017 A 
ATOM     99  C   UNL A   1      39.069  28.571  27.943  1.00  0.00     0.040 A 
ATOM    100  C   UNL A   1      39.570  27.115  29.815  1.00  0.00     0.040 A 
ATOM    101  C   UNL A   1      39.259  27.297  28.471  1.00  0.00     0.123 A 
ATOM    102  F   UNL A   1      39.122  26.231  27.671  1.00  0.00    -0.207 F 
ENDBRANCH  93  96
ENDBRANCH  91  92
BRANCH  91 103
ATOM    103  C   UNL A   1      36.600  30.199  30.945  1.00  0.00     0.072 C 
BRANCH 103 104
ATOM    104  C   UNL A   1      35.978  31.272  30.099  1.00  0.00    -0.020 A 
ATOM    105  C   UNL A   1      35.963  31.341  28.719  1.00  0.00     0.087 A 
ATOM    106  C   UNL A   1      35.240  32.408  30.572  1.00  0.00     0.003 A 
ATOM    107  N   UNL A   1      35.298  32.484  28.353  1.00  0.00    -0.361 N 
ATOM    108  C   UNL A   1      34.883  33.174  29.466  1.00  0.00     0.046 A 
ATOM    109  C   UNL A   1      34.876  32.872  31.852  1.00  0.00     0.010 A 
ATOM    110  H   UNL A   1      35.143  32.770  27.423  1.00  0.00     0.166 HD
ATOM    111  C   UNL A   1      34.228  34.407  29.581  1.00  0.00     0.026 A 
ATOM    112  C   UNL A   1      34.255  34.116  31.991  1.00  0.00     0.001 A 
ATOM    113  C   UNL A   1      33.944  34.874  30.868  1.00  0.00     0.002 A 
ENDBRANCH 103 104
ENDBRANCH  91 103
ENDBRANCH  88  91
ENDBRANCH  86  87
BRANCH  86 114
ATOM    114  C   UNL A   1      37.991  31.526  36.163  1.00  0.00     0.101 C 
BRANCH 114 115
ATOM    115  S   UNL A   1      37.357  33.239  36.116  1.00  0.00    -0.177 SA
ATOM    116  H   UNL A   1      38.094  33.970  35.237  1.00  0.00     0.102 HD
ENDBRANCH 114 115
ENDBRANCH  86 114
ENDBRANCH  83  86
ENDBRANCH  81  82
BRANCH  81 117
ATOM    117  C   UNL A   1      41.365  34.437  35.870  1.00  0.00     0.191 C 
BRANCH 117 118
ATOM    118  O   UNL A   1      41.222  34.013  37.230  1.00  0.00    -0.394 OA
ATOM    119  H   UNL A   1      40.344  33.622  37.356  1.00  0.00     0.210 HD
ENDBRANCH 117 118
ENDBRANCH  81 117
ENDBRANCH  78  81
ENDBRANCH   1  77
TORSDOF 26
ENDMDL
