MODEL 1
REMARK VINA RESULT:     -12.3      0.000      0.000
REMARK SMILES O=C(NCCCCNC(=O)[C@H]1CCCCN1S(=O)(=O)c1cc[nH]c1)c1ccc(-c2c3nc(c(-c4c(F)cc(S(=O)(=O)[O-])cc4F)c4ccc([nH]4)c(-c4c(F)cc(S(=O)(=O)[O-])cc4F)c4nc(c(-c5c(F)cc(S(=O)(=O)[O-])cc5F)c5ccc2[nH]5)C=C4)C=C3)cc1
REMARK SMILES IDX 5 1 4 2 3 3 1 4 2 5 25 7 26 8 90 9 27 10 89 11 28 12 29 13
REMARK SMILES IDX 30 14 83 15 31 16 88 17 82 18 84 19 32 20 87 21 81 22 80 23
REMARK SMILES IDX 33 25 67 26 46 27 66 28 47 29 50 30 65 31 85 32 48 33 49 34
REMARK SMILES IDX 64 36 86 37 51 38 34 39 35 40 44 41 36 42 37 43 43 44 45 45
REMARK SMILES IDX 38 46 39 47 40 48 41 49 42 50 68 51 69 52 78 53 70 54 71 55
REMARK SMILES IDX 77 56 79 57 72 58 73 59 74 60 75 61 76 62 52 63 53 64 62 65
REMARK SMILES IDX 54 66 55 67 61 68 63 69 56 70 57 71 58 72 59 73 60 74 6 75
REMARK SMILES IDX 7 76 8 77 9 78 10 80 11 81 12 82 16 83 13 84 15 85 14 86
REMARK SMILES IDX 17 87 18 88 19 89 20 90 21 91 24 92 22 93 23 94
REMARK H PARENT 3 6 84 24 50 35 8 79 23 95
REMARK Flexibility Score: inf
ROOT
ATOM      1  C   UNL A   1      34.015  28.130  25.550  1.00  0.00     0.023 C 
ENDROOT
BRANCH   1   2
ATOM      2  C   UNL A   1      34.443  28.377  26.997  1.00  0.00     0.116 C 
BRANCH   2   3
ATOM      3  N   UNL A   1      34.744  29.754  27.337  1.00  0.00    -0.352 N 
ATOM      4  O   UNL A   1      35.869  31.642  27.687  1.00  0.00    -0.269 OA
ATOM      5  C   UNL A   1      35.911  30.411  27.641  1.00  0.00     0.251 C 
ATOM      6  H   UNL A   1      33.951  30.337  27.351  1.00  0.00     0.163 HD
BRANCH   5   7
ATOM      7  C   UNL A   1      37.166  29.708  28.014  1.00  0.00     0.039 A 
ATOM      8  C   UNL A   1      38.336  29.746  27.257  1.00  0.00     0.014 A 
ATOM      9  C   UNL A   1      37.142  28.937  29.190  1.00  0.00     0.014 A 
ATOM     10  C   UNL A   1      39.403  28.918  27.571  1.00  0.00     0.010 A 
ATOM     11  C   UNL A   1      38.230  28.137  29.543  1.00  0.00     0.010 A 
ATOM     12  C   UNL A   1      39.354  28.115  28.715  1.00  0.00    -0.014 A 
BRANCH  12  13
ATOM     13  C   UNL A   1      40.638  27.515  29.135  1.00  0.00     0.031 A 
ATOM     14  C   UNL A   1      40.878  26.209  28.315  1.00  0.00     0.074 A 
ATOM     15  C   UNL A   1      41.287  28.107  30.193  1.00  0.00     0.049 A 
ATOM     16  N   UNL A   1      41.433  25.089  28.665  1.00  0.00    -0.248 NA
ATOM     17  C   UNL A   1      40.303  26.087  26.938  1.00  0.00     0.031 C 
ATOM     18  C   UNL A   1      40.907  29.401  30.816  1.00  0.00     0.029 A 
ATOM     19  N   UNL A   1      42.380  27.766  30.973  1.00  0.00    -0.354 N 
ATOM     20  C   UNL A   1      41.516  24.266  27.510  1.00  0.00     0.074 A 
ATOM     21  C   UNL A   1      40.665  24.866  26.534  1.00  0.00     0.031 C 
ATOM     22  C   UNL A   1      41.671  29.673  31.903  1.00  0.00     0.029 A 
ATOM     23  C   UNL A   1      42.640  28.611  32.100  1.00  0.00     0.049 A 
ATOM     24  H   UNL A   1      42.944  26.988  30.765  1.00  0.00     0.167 HD
ATOM     25  C   UNL A   1      42.417  23.241  27.392  1.00  0.00     0.037 A 
ATOM     26  C   UNL A   1      43.544  28.435  33.127  1.00  0.00     0.037 A 
ATOM     27  C   UNL A   1      43.161  23.151  28.603  1.00  0.00     0.049 A 
ATOM     28  C   UNL A   1      44.341  27.283  32.695  1.00  0.00     0.074 A 
ATOM     29  C   UNL A   1      42.809  22.751  29.864  1.00  0.00     0.029 A 
ATOM     30  N   UNL A   1      44.314  23.898  28.656  1.00  0.00    -0.354 N 
ATOM     31  N   UNL A   1      45.220  27.313  31.740  1.00  0.00    -0.248 NA
ATOM     32  C   UNL A   1      44.081  25.978  33.314  1.00  0.00     0.031 C 
ATOM     33  C   UNL A   1      43.448  23.708  30.672  1.00  0.00     0.029 A 
ATOM     34  C   UNL A   1      44.383  24.428  29.915  1.00  0.00     0.049 A 
ATOM     35  H   UNL A   1      44.964  24.026  27.928  1.00  0.00     0.167 HD
ATOM     36  C   UNL A   1      45.332  25.987  31.417  1.00  0.00     0.074 A 
ATOM     37  C   UNL A   1      44.908  25.237  32.582  1.00  0.00     0.031 C 
ATOM     38  C   UNL A   1      45.182  25.610  30.121  1.00  0.00     0.037 A 
BRANCH  25  39
ATOM     39  C   UNL A   1      42.962  22.447  26.227  1.00  0.00     0.058 A 
ATOM     40  C   UNL A   1      42.553  21.089  26.116  1.00  0.00     0.135 A 
ATOM     41  C   UNL A   1      44.100  22.802  25.494  1.00  0.00     0.135 A 
ATOM     42  F   UNL A   1      41.420  20.659  26.699  1.00  0.00    -0.206 F 
ATOM     43  C   UNL A   1      43.327  20.119  25.494  1.00  0.00     0.059 A 
ATOM     44  C   UNL A   1      44.868  21.847  24.814  1.00  0.00     0.059 A 
ATOM     45  F   UNL A   1      44.547  24.064  25.475  1.00  0.00    -0.206 F 
ATOM     46  C   UNL A   1      44.509  20.502  24.879  1.00  0.00     0.060 A 
BRANCH  46  47
ATOM     47  S   UNL A   1      45.575  19.209  24.208  1.00  0.00     0.124 S 
ATOM     48  O   UNL A   1      46.871  19.876  24.177  1.00  0.00    -0.237 OA
ATOM     49  O   UNL A   1      45.436  18.148  25.202  1.00  0.00    -0.237 OA
ATOM     50  O   UNL A   1      44.975  18.920  22.909  1.00  0.00    -0.744 OA
ENDBRANCH  46  47
ENDBRANCH  25  39
BRANCH  26  51
ATOM     51  C   UNL A   1      43.902  28.957  34.520  1.00  0.00     0.058 A 
ATOM     52  C   UNL A   1      45.078  29.615  34.899  1.00  0.00     0.135 A 
ATOM     53  C   UNL A   1      42.909  28.936  35.553  1.00  0.00     0.135 A 
ATOM     54  F   UNL A   1      46.159  29.589  34.109  1.00  0.00    -0.206 F 
ATOM     55  C   UNL A   1      45.181  30.344  36.111  1.00  0.00     0.059 A 
ATOM     56  C   UNL A   1      42.958  29.699  36.719  1.00  0.00     0.059 A 
ATOM     57  F   UNL A   1      41.800  28.188  35.458  1.00  0.00    -0.206 F 
ATOM     58  C   UNL A   1      44.088  30.440  36.976  1.00  0.00     0.060 A 
BRANCH  58  59
ATOM     59  S   UNL A   1      44.067  31.625  38.346  1.00  0.00     0.124 S 
ATOM     60  O   UNL A   1      45.134  31.126  39.206  1.00  0.00    -0.237 OA
ATOM     61  O   UNL A   1      44.334  32.891  37.668  1.00  0.00    -0.237 OA
ATOM     62  O   UNL A   1      42.714  31.495  38.884  1.00  0.00    -0.744 OA
ENDBRANCH  58  59
ENDBRANCH  26  51
BRANCH  38  63
ATOM     63  C   UNL A   1      45.550  26.664  29.084  1.00  0.00     0.058 A 
ATOM     64  C   UNL A   1      46.862  27.167  29.038  1.00  0.00     0.135 A 
ATOM     65  C   UNL A   1      44.648  27.254  28.180  1.00  0.00     0.135 A 
ATOM     66  F   UNL A   1      47.800  26.660  29.855  1.00  0.00    -0.206 F 
ATOM     67  C   UNL A   1      47.250  28.184  28.158  1.00  0.00     0.059 A 
ATOM     68  C   UNL A   1      45.006  28.271  27.286  1.00  0.00     0.059 A 
ATOM     69  F   UNL A   1      43.379  26.853  28.135  1.00  0.00    -0.206 F 
ATOM     70  C   UNL A   1      46.317  28.730  27.279  1.00  0.00     0.060 A 
BRANCH  70  71
ATOM     71  S   UNL A   1      46.852  30.007  26.115  1.00  0.00     0.124 S 
ATOM     72  O   UNL A   1      48.257  30.186  26.469  1.00  0.00    -0.237 OA
ATOM     73  O   UNL A   1      46.604  29.368  24.827  1.00  0.00    -0.237 OA
ATOM     74  O   UNL A   1      45.988  31.144  26.423  1.00  0.00    -0.744 OA
ENDBRANCH  70  71
ENDBRANCH  38  63
ENDBRANCH  12  13
ENDBRANCH   5   7
ENDBRANCH   2   3
ENDBRANCH   1   2
BRANCH   1  75
ATOM     75  C   UNL A   1      33.024  26.983  25.352  1.00  0.00     0.023 C 
BRANCH  75  76
ATOM     76  C   UNL A   1      33.625  25.688  24.814  1.00  0.00     0.116 C 
BRANCH  76  77
ATOM     77  N   UNL A   1      34.008  24.767  25.871  1.00  0.00    -0.355 N 
ATOM     78  C   UNL A   1      34.674  23.583  25.831  1.00  0.00     0.238 C 
ATOM     79  H   UNL A   1      33.737  25.051  26.775  1.00  0.00     0.163 HD
ATOM     80  O   UNL A   1      34.912  23.036  26.912  1.00  0.00    -0.273 OA
BRANCH  78  81
ATOM     81  C   UNL A   1      35.114  22.964  24.494  1.00  0.00     0.162 C 
ATOM     82  C   UNL A   1      36.533  23.432  24.135  1.00  0.00     0.030 C 
ATOM     83  N   UNL A   1      35.027  21.459  24.455  1.00  0.00    -0.185 NA
ATOM     84  C   UNL A   1      37.626  22.739  24.939  1.00  0.00     0.004 C 
ATOM     85  C   UNL A   1      36.047  20.803  25.312  1.00  0.00     0.103 C 
ATOM     86  C   UNL A   1      37.451  21.230  24.891  1.00  0.00     0.017 C 
BRANCH  83  87
ATOM     87  S   UNL A   1      33.413  20.926  24.711  1.00  0.00     0.245 S 
ATOM     88  O   UNL A   1      33.247  20.627  26.112  1.00  0.00    -0.207 OA
ATOM     89  O   UNL A   1      32.550  21.872  24.026  1.00  0.00    -0.207 OA
BRANCH  87  90
ATOM     90  C   UNL A   1      33.113  19.415  23.922  1.00  0.00     0.100 A 
ATOM     91  C   UNL A   1      33.722  18.174  24.245  1.00  0.00     0.041 A 
ATOM     92  C   UNL A   1      32.167  19.161  22.947  1.00  0.00     0.104 A 
ATOM     93  C   UNL A   1      33.156  17.213  23.435  1.00  0.00     0.083 A 
ATOM     94  N   UNL A   1      32.192  17.817  22.671  1.00  0.00    -0.366 N 
ATOM     95  H   UNL A   1      31.607  17.359  22.026  1.00  0.00     0.165 HD
ENDBRANCH  87  90
ENDBRANCH  83  87
ENDBRANCH  78  81
ENDBRANCH  76  77
ENDBRANCH  75  76
ENDBRANCH   1  75
TORSDOF 16
ENDMDL
MODEL 2
REMARK VINA RESULT:     -12.0      3.906      7.155
REMARK SMILES O=C(NCCCCNC(=O)[C@H]1CCCCN1S(=O)(=O)c1cc[nH]c1)c1ccc(-c2c3nc(c(-c4c(F)cc(S(=O)(=O)[O-])cc4F)c4ccc([nH]4)c(-c4c(F)cc(S(=O)(=O)[O-])cc4F)c4nc(c(-c5c(F)cc(S(=O)(=O)[O-])cc5F)c5ccc2[nH]5)C=C4)C=C3)cc1
REMARK SMILES IDX 5 1 4 2 3 3 1 4 2 5 25 7 26 8 90 9 27 10 89 11 28 12 29 13
REMARK SMILES IDX 30 14 83 15 31 16 88 17 82 18 84 19 32 20 87 21 81 22 80 23
REMARK SMILES IDX 33 25 67 26 46 27 66 28 47 29 50 30 65 31 85 32 48 33 49 34
REMARK SMILES IDX 64 36 86 37 51 38 34 39 35 40 44 41 36 42 37 43 43 44 45 45
REMARK SMILES IDX 38 46 39 47 40 48 41 49 42 50 68 51 69 52 78 53 70 54 71 55
REMARK SMILES IDX 77 56 79 57 72 58 73 59 74 60 75 61 76 62 52 63 53 64 62 65
REMARK SMILES IDX 54 66 55 67 61 68 63 69 56 70 57 71 58 72 59 73 60 74 6 75
REMARK SMILES IDX 7 76 8 77 9 78 10 80 11 81 12 82 16 83 13 84 15 85 14 86
REMARK SMILES IDX 17 87 18 88 19 89 20 90 21 91 24 92 22 93 23 94
REMARK H PARENT 3 6 84 24 50 35 8 79 23 95
REMARK Flexibility Score: inf
ROOT
ATOM      1  C   UNL A   1      37.655  33.144  29.001  1.00  0.00     0.023 C 
ENDROOT
BRANCH   1   2
ATOM      2  C   UNL A   1      36.304  32.526  29.362  1.00  0.00     0.116 C 
BRANCH   2   3
ATOM      3  N   UNL A   1      35.717  31.667  28.352  1.00  0.00    -0.352 N 
ATOM      4  O   UNL A   1      35.175  29.853  27.183  1.00  0.00    -0.269 OA
ATOM      5  C   UNL A   1      35.993  30.389  27.933  1.00  0.00     0.251 C 
ATOM      6  H   UNL A   1      34.968  32.085  27.869  1.00  0.00     0.163 HD
BRANCH   5   7
ATOM      7  C   UNL A   1      37.261  29.684  28.255  1.00  0.00     0.039 A 
ATOM      8  C   UNL A   1      38.405  29.734  27.460  1.00  0.00     0.014 A 
ATOM      9  C   UNL A   1      37.277  28.900  29.423  1.00  0.00     0.014 A 
ATOM     10  C   UNL A   1      39.483  28.904  27.729  1.00  0.00     0.010 A 
ATOM     11  C   UNL A   1      38.378  28.098  29.730  1.00  0.00     0.010 A 
ATOM     12  C   UNL A   1      39.473  28.087  28.864  1.00  0.00    -0.014 A 
BRANCH  12  13
ATOM     13  C   UNL A   1      40.772  27.485  29.234  1.00  0.00     0.031 A 
ATOM     14  C   UNL A   1      40.963  26.163  28.428  1.00  0.00     0.074 A 
ATOM     15  C   UNL A   1      41.474  28.091  30.249  1.00  0.00     0.049 A 
ATOM     16  N   UNL A   1      41.526  25.045  28.771  1.00  0.00    -0.248 NA
ATOM     17  C   UNL A   1      40.324  26.020  27.082  1.00  0.00     0.031 C 
ATOM     18  C   UNL A   1      41.134  29.399  30.865  1.00  0.00     0.029 A 
ATOM     19  N   UNL A   1      42.600  27.756  30.983  1.00  0.00    -0.354 N 
ATOM     20  C   UNL A   1      41.549  24.200  27.629  1.00  0.00     0.074 A 
ATOM     21  C   UNL A   1      40.657  24.789  26.684  1.00  0.00     0.031 C 
ATOM     22  C   UNL A   1      41.950  29.685  31.909  1.00  0.00     0.029 A 
ATOM     23  C   UNL A   1      42.920  28.619  32.080  1.00  0.00     0.049 A 
ATOM     24  H   UNL A   1      43.149  26.969  30.762  1.00  0.00     0.167 HD
ATOM     25  C   UNL A   1      42.436  23.166  27.489  1.00  0.00     0.037 A 
ATOM     26  C   UNL A   1      43.870  28.455  33.066  1.00  0.00     0.037 A 
ATOM     27  C   UNL A   1      43.236  23.093  28.664  1.00  0.00     0.049 A 
ATOM     28  C   UNL A   1      44.638  27.289  32.618  1.00  0.00     0.074 A 
ATOM     29  C   UNL A   1      42.942  22.718  29.948  1.00  0.00     0.029 A 
ATOM     30  N   UNL A   1      44.395  23.831  28.648  1.00  0.00    -0.354 N 
ATOM     31  N   UNL A   1      45.470  27.295  31.622  1.00  0.00    -0.248 NA
ATOM     32  C   UNL A   1      44.398  25.997  33.273  1.00  0.00     0.031 C 
ATOM     33  C   UNL A   1      43.624  23.685  30.707  1.00  0.00     0.029 A 
ATOM     34  C   UNL A   1      44.528  24.383  29.893  1.00  0.00     0.049 A 
ATOM     35  H   UNL A   1      45.012  23.941  27.888  1.00  0.00     0.167 HD
ATOM     36  C   UNL A   1      45.558  25.962  31.319  1.00  0.00     0.074 A 
ATOM     37  C   UNL A   1      45.185  25.236  32.517  1.00  0.00     0.031 C 
ATOM     38  C   UNL A   1      45.345  25.563  30.039  1.00  0.00     0.037 A 
BRANCH  25  39
ATOM     39  C   UNL A   1      42.920  22.347  26.314  1.00  0.00     0.058 A 
ATOM     40  C   UNL A   1      42.593  20.963  26.307  1.00  0.00     0.135 A 
ATOM     41  C   UNL A   1      43.957  22.733  25.456  1.00  0.00     0.135 A 
ATOM     42  F   UNL A   1      41.552  20.495  27.018  1.00  0.00    -0.206 F 
ATOM     43  C   UNL A   1      43.368  20.010  25.658  1.00  0.00     0.059 A 
ATOM     44  C   UNL A   1      44.718  21.792  24.750  1.00  0.00     0.059 A 
ATOM     45  F   UNL A   1      44.315  24.017  25.335  1.00  0.00    -0.206 F 
ATOM     46  C   UNL A   1      44.458  20.432  24.913  1.00  0.00     0.060 A 
BRANCH  46  47
ATOM     47  S   UNL A   1      45.539  19.174  24.201  1.00  0.00     0.124 S 
ATOM     48  O   UNL A   1      45.333  18.055  25.113  1.00  0.00    -0.237 OA
ATOM     49  O   UNL A   1      44.979  19.007  22.863  1.00  0.00    -0.237 OA
ATOM     50  O   UNL A   1      46.857  19.798  24.246  1.00  0.00    -0.744 OA
ENDBRANCH  46  47
ENDBRANCH  25  39
BRANCH  26  51
ATOM     51  C   UNL A   1      44.297  28.999  34.431  1.00  0.00     0.058 A 
ATOM     52  C   UNL A   1      45.445  29.746  34.720  1.00  0.00     0.135 A 
ATOM     53  C   UNL A   1      43.395  28.897  35.540  1.00  0.00     0.135 A 
ATOM     54  F   UNL A   1      46.457  29.808  33.847  1.00  0.00    -0.206 F 
ATOM     55  C   UNL A   1      45.588  30.478  35.927  1.00  0.00     0.059 A 
ATOM     56  C   UNL A   1      43.479  29.658  36.705  1.00  0.00     0.059 A 
ATOM     57  F   UNL A   1      42.344  28.065  35.527  1.00  0.00    -0.206 F 
ATOM     58  C   UNL A   1      44.565  30.485  36.878  1.00  0.00     0.060 A 
BRANCH  58  59
ATOM     59  S   UNL A   1      44.561  31.660  38.256  1.00  0.00     0.124 S 
ATOM     60  O   UNL A   1      43.243  31.448  38.843  1.00  0.00    -0.237 OA
ATOM     61  O   UNL A   1      45.696  31.207  39.056  1.00  0.00    -0.237 OA
ATOM     62  O   UNL A   1      44.756  32.952  37.600  1.00  0.00    -0.744 OA
ENDBRANCH  58  59
ENDBRANCH  26  51
BRANCH  38  63
ATOM     63  C   UNL A   1      45.670  26.595  28.967  1.00  0.00     0.058 A 
ATOM     64  C   UNL A   1      46.980  27.093  28.855  1.00  0.00     0.135 A 
ATOM     65  C   UNL A   1      44.731  27.169  28.090  1.00  0.00     0.135 A 
ATOM     66  F   UNL A   1      47.950  26.601  29.641  1.00  0.00    -0.206 F 
ATOM     67  C   UNL A   1      47.332  28.091  27.940  1.00  0.00     0.059 A 
ATOM     68  C   UNL A   1      45.053  28.167  27.161  1.00  0.00     0.059 A 
ATOM     69  F   UNL A   1      43.461  26.770  28.107  1.00  0.00    -0.206 F 
ATOM     70  C   UNL A   1      46.363  28.622  27.090  1.00  0.00     0.060 A 
BRANCH  70  71
ATOM     71  S   UNL A   1      46.851  29.874  25.878  1.00  0.00     0.124 S 
ATOM     72  O   UNL A   1      46.793  29.135  24.621  1.00  0.00    -0.237 OA
ATOM     73  O   UNL A   1      45.821  30.891  26.060  1.00  0.00    -0.237 OA
ATOM     74  O   UNL A   1      48.194  30.265  26.303  1.00  0.00    -0.744 OA
ENDBRANCH  70  71
ENDBRANCH  38  63
ENDBRANCH  12  13
ENDBRANCH   5   7
ENDBRANCH   2   3
ENDBRANCH   1   2
BRANCH   1  75
ATOM     75  C   UNL A   1      38.667  33.211  30.145  1.00  0.00     0.023 C 
BRANCH  75  76
ATOM     76  C   UNL A   1      38.364  34.246  31.224  1.00  0.00     0.116 C 
BRANCH  76  77
ATOM     77  N   UNL A   1      39.251  34.136  32.370  1.00  0.00    -0.355 N 
ATOM     78  C   UNL A   1      39.263  33.263  33.413  1.00  0.00     0.238 C 
ATOM     79  H   UNL A   1      39.968  34.811  32.395  1.00  0.00     0.163 HD
ATOM     80  O   UNL A   1      40.186  33.375  34.226  1.00  0.00    -0.273 OA
BRANCH  78  81
ATOM     81  C   UNL A   1      38.177  32.185  33.560  1.00  0.00     0.162 C 
ATOM     82  C   UNL A   1      38.803  30.785  33.466  1.00  0.00     0.030 C 
ATOM     83  N   UNL A   1      37.350  32.313  34.815  1.00  0.00    -0.185 NA
ATOM     84  C   UNL A   1      39.544  30.363  34.728  1.00  0.00     0.004 C 
ATOM     85  C   UNL A   1      38.115  31.979  36.043  1.00  0.00     0.103 C 
ATOM     86  C   UNL A   1      38.669  30.559  35.955  1.00  0.00     0.017 C 
BRANCH  83  87
ATOM     87  S   UNL A   1      36.526  33.821  34.862  1.00  0.00     0.245 S 
ATOM     88  O   UNL A   1      35.697  33.853  36.043  1.00  0.00    -0.207 OA
ATOM     89  O   UNL A   1      37.521  34.846  34.602  1.00  0.00    -0.207 OA
BRANCH  87  90
ATOM     90  C   UNL A   1      35.400  33.968  33.556  1.00  0.00     0.100 A 
ATOM     91  C   UNL A   1      35.170  35.138  32.785  1.00  0.00     0.041 A 
ATOM     92  C   UNL A   1      34.644  32.956  32.993  1.00  0.00     0.104 A 
ATOM     93  C   UNL A   1      34.258  34.813  31.804  1.00  0.00     0.083 A 
ATOM     94  N   UNL A   1      33.968  33.479  31.920  1.00  0.00    -0.366 N 
ATOM     95  H   UNL A   1      33.368  32.972  31.326  1.00  0.00     0.165 HD
ENDBRANCH  87  90
ENDBRANCH  83  87
ENDBRANCH  78  81
ENDBRANCH  76  77
ENDBRANCH  75  76
ENDBRANCH   1  75
TORSDOF 16
ENDMDL
MODEL 3
REMARK VINA RESULT:     -11.8      1.284      2.305
REMARK SMILES O=C(NCCCCNC(=O)[C@H]1CCCCN1S(=O)(=O)c1cc[nH]c1)c1ccc(-c2c3nc(c(-c4c(F)cc(S(=O)(=O)[O-])cc4F)c4ccc([nH]4)c(-c4c(F)cc(S(=O)(=O)[O-])cc4F)c4nc(c(-c5c(F)cc(S(=O)(=O)[O-])cc5F)c5ccc2[nH]5)C=C4)C=C3)cc1
REMARK SMILES IDX 5 1 4 2 3 3 1 4 2 5 25 7 26 8 90 9 27 10 89 11 28 12 29 13
REMARK SMILES IDX 30 14 83 15 31 16 88 17 82 18 84 19 32 20 87 21 81 22 80 23
REMARK SMILES IDX 33 25 67 26 46 27 66 28 47 29 50 30 65 31 85 32 48 33 49 34
REMARK SMILES IDX 64 36 86 37 51 38 34 39 35 40 44 41 36 42 37 43 43 44 45 45
REMARK SMILES IDX 38 46 39 47 40 48 41 49 42 50 68 51 69 52 78 53 70 54 71 55
REMARK SMILES IDX 77 56 79 57 72 58 73 59 74 60 75 61 76 62 52 63 53 64 62 65
REMARK SMILES IDX 54 66 55 67 61 68 63 69 56 70 57 71 58 72 59 73 60 74 6 75
REMARK SMILES IDX 7 76 8 77 9 78 10 80 11 81 12 82 16 83 13 84 15 85 14 86
REMARK SMILES IDX 17 87 18 88 19 89 20 90 21 91 24 92 22 93 23 94
REMARK H PARENT 3 6 84 24 50 35 8 79 23 95
REMARK Flexibility Score: inf
ROOT
ATOM      1  C   UNL A   1      33.321  28.145  26.862  1.00  0.00     0.023 C 
ENDROOT
BRANCH   1   2
ATOM      2  C   UNL A   1      34.776  28.603  26.761  1.00  0.00     0.116 C 
BRANCH   2   3
ATOM      3  N   UNL A   1      35.054  29.929  27.279  1.00  0.00    -0.352 N 
ATOM      4  O   UNL A   1      36.155  31.753  27.921  1.00  0.00    -0.269 OA
ATOM      5  C   UNL A   1      36.199  30.536  27.734  1.00  0.00     0.251 C 
ATOM      6  H   UNL A   1      34.262  30.512  27.310  1.00  0.00     0.163 HD
BRANCH   5   7
ATOM      7  C   UNL A   1      37.427  29.784  28.102  1.00  0.00     0.039 A 
ATOM      8  C   UNL A   1      38.594  29.775  27.341  1.00  0.00     0.014 A 
ATOM      9  C   UNL A   1      37.376  29.016  29.280  1.00  0.00     0.014 A 
ATOM     10  C   UNL A   1      39.628  28.905  27.652  1.00  0.00     0.010 A 
ATOM     11  C   UNL A   1      38.433  28.173  29.629  1.00  0.00     0.010 A 
ATOM     12  C   UNL A   1      39.552  28.105  28.796  1.00  0.00    -0.014 A 
BRANCH  12  13
ATOM     13  C   UNL A   1      40.813  27.455  29.212  1.00  0.00     0.031 A 
ATOM     14  C   UNL A   1      41.002  26.145  28.385  1.00  0.00     0.074 A 
ATOM     15  C   UNL A   1      41.485  28.017  30.273  1.00  0.00     0.049 A 
ATOM     16  N   UNL A   1      41.515  25.003  28.728  1.00  0.00    -0.248 NA
ATOM     17  C   UNL A   1      40.423  26.052  27.008  1.00  0.00     0.031 C 
ATOM     18  C   UNL A   1      41.155  29.321  30.902  1.00  0.00     0.029 A 
ATOM     19  N   UNL A   1      42.564  27.631  31.049  1.00  0.00    -0.354 N 
ATOM     20  C   UNL A   1      41.566  24.183  27.569  1.00  0.00     0.074 A 
ATOM     21  C   UNL A   1      40.738  24.821  26.597  1.00  0.00     0.031 C 
ATOM     22  C   UNL A   1      41.929  29.558  31.990  1.00  0.00     0.029 A 
ATOM     23  C   UNL A   1      42.858  28.459  32.181  1.00  0.00     0.049 A 
ATOM     24  H   UNL A   1      43.099  26.833  30.836  1.00  0.00     0.167 HD
ATOM     25  C   UNL A   1      42.428  23.126  27.445  1.00  0.00     0.037 A 
ATOM     26  C   UNL A   1      43.755  28.244  33.206  1.00  0.00     0.037 A 
ATOM     27  C   UNL A   1      43.168  23.002  28.655  1.00  0.00     0.049 A 
ATOM     28  C   UNL A   1      44.508  27.065  32.767  1.00  0.00     0.074 A 
ATOM     29  C   UNL A   1      42.803  22.609  29.914  1.00  0.00     0.029 A 
ATOM     30  N   UNL A   1      44.349  23.704  28.710  1.00  0.00    -0.354 N 
ATOM     31  N   UNL A   1      45.386  27.067  31.811  1.00  0.00    -0.248 NA
ATOM     32  C   UNL A   1      44.199  25.767  33.379  1.00  0.00     0.031 C 
ATOM     33  C   UNL A   1      43.478  23.537  30.726  1.00  0.00     0.029 A 
ATOM     34  C   UNL A   1      44.439  24.225  29.972  1.00  0.00     0.049 A 
ATOM     35  H   UNL A   1      45.003  23.812  27.982  1.00  0.00     0.167 HD
ATOM     36  C   UNL A   1      45.448  25.739  31.481  1.00  0.00     0.074 A 
ATOM     37  C   UNL A   1      44.997  24.999  32.642  1.00  0.00     0.031 C 
ATOM     38  C   UNL A   1      45.283  25.375  30.184  1.00  0.00     0.037 A 
BRANCH  25  39
ATOM     39  C   UNL A   1      42.941  22.318  26.275  1.00  0.00     0.058 A 
ATOM     40  C   UNL A   1      42.601  20.937  26.239  1.00  0.00     0.135 A 
ATOM     41  C   UNL A   1      44.009  22.705  25.458  1.00  0.00     0.135 A 
ATOM     42  F   UNL A   1      41.534  20.470  26.909  1.00  0.00    -0.206 F 
ATOM     43  C   UNL A   1      43.388  19.986  25.602  1.00  0.00     0.059 A 
ATOM     44  C   UNL A   1      44.784  21.766  24.763  1.00  0.00     0.059 A 
ATOM     45  F   UNL A   1      44.383  23.987  25.366  1.00  0.00    -0.206 F 
ATOM     46  C   UNL A   1      44.506  20.407  24.898  1.00  0.00     0.060 A 
BRANCH  46  47
ATOM     47  S   UNL A   1      45.597  19.148  24.205  1.00  0.00     0.124 S 
ATOM     48  O   UNL A   1      46.880  19.840  24.190  1.00  0.00    -0.237 OA
ATOM     49  O   UNL A   1      45.476  18.066  25.178  1.00  0.00    -0.237 OA
ATOM     50  O   UNL A   1      45.006  18.873  22.899  1.00  0.00    -0.744 OA
ENDBRANCH  46  47
ENDBRANCH  25  39
BRANCH  26  51
ATOM     51  C   UNL A   1      44.134  28.745  34.601  1.00  0.00     0.058 A 
ATOM     52  C   UNL A   1      43.346  28.697  35.757  1.00  0.00     0.135 A 
ATOM     53  C   UNL A   1      45.477  29.178  34.850  1.00  0.00     0.135 A 
ATOM     54  F   UNL A   1      42.031  28.462  35.677  1.00  0.00    -0.206 F 
ATOM     55  C   UNL A   1      43.892  28.876  37.054  1.00  0.00     0.059 A 
ATOM     56  C   UNL A   1      46.054  29.293  36.114  1.00  0.00     0.059 A 
ATOM     57  F   UNL A   1      46.323  29.478  33.854  1.00  0.00    -0.206 F 
ATOM     58  C   UNL A   1      45.261  29.100  37.222  1.00  0.00     0.060 A 
BRANCH  58  59
ATOM     59  S   UNL A   1      46.043  28.995  38.852  1.00  0.00     0.124 S 
ATOM     60  O   UNL A   1      46.277  27.562  38.994  1.00  0.00    -0.237 OA
ATOM     61  O   UNL A   1      47.235  29.821  38.680  1.00  0.00    -0.237 OA
ATOM     62  O   UNL A   1      45.035  29.559  39.748  1.00  0.00    -0.744 OA
ENDBRANCH  58  59
ENDBRANCH  26  51
BRANCH  38  63
ATOM     63  C   UNL A   1      45.690  26.420  29.151  1.00  0.00     0.058 A 
ATOM     64  C   UNL A   1      44.730  26.923  28.256  1.00  0.00     0.135 A 
ATOM     65  C   UNL A   1      47.000  26.894  28.959  1.00  0.00     0.135 A 
ATOM     66  F   UNL A   1      43.448  26.540  28.366  1.00  0.00    -0.206 F 
ATOM     67  C   UNL A   1      45.049  27.832  27.241  1.00  0.00     0.059 A 
ATOM     68  C   UNL A   1      47.351  27.804  27.953  1.00  0.00     0.059 A 
ATOM     69  F   UNL A   1      47.989  26.485  29.751  1.00  0.00    -0.206 F 
ATOM     70  C   UNL A   1      46.364  28.273  27.096  1.00  0.00     0.060 A 
BRANCH  70  71
ATOM     71  S   UNL A   1      46.744  29.487  25.810  1.00  0.00     0.124 S 
ATOM     72  O   UNL A   1      45.713  30.499  26.018  1.00  0.00    -0.237 OA
ATOM     73  O   UNL A   1      48.102  29.889  26.163  1.00  0.00    -0.237 OA
ATOM     74  O   UNL A   1      46.623  28.728  24.568  1.00  0.00    -0.744 OA
ENDBRANCH  70  71
ENDBRANCH  38  63
ENDBRANCH  12  13
ENDBRANCH   5   7
ENDBRANCH   2   3
ENDBRANCH   1   2
BRANCH   1  75
ATOM     75  C   UNL A   1      32.781  27.416  25.632  1.00  0.00     0.023 C 
BRANCH  75  76
ATOM     76  C   UNL A   1      33.655  26.279  25.112  1.00  0.00     0.116 C 
BRANCH  76  77
ATOM     77  N   UNL A   1      33.757  25.177  26.053  1.00  0.00    -0.355 N 
ATOM     78  C   UNL A   1      34.345  23.956  25.944  1.00  0.00     0.238 C 
ATOM     79  H   UNL A   1      33.325  25.344  26.923  1.00  0.00     0.163 HD
ATOM     80  O   UNL A   1      34.323  23.232  26.944  1.00  0.00    -0.273 OA
BRANCH  78  81
ATOM     81  C   UNL A   1      35.010  23.509  24.631  1.00  0.00     0.162 C 
ATOM     82  C   UNL A   1      36.533  23.416  24.814  1.00  0.00     0.030 C 
ATOM     83  N   UNL A   1      34.463  22.220  24.073  1.00  0.00    -0.185 NA
ATOM     84  C   UNL A   1      36.980  22.181  25.587  1.00  0.00     0.004 C 
ATOM     85  C   UNL A   1      34.839  21.036  24.888  1.00  0.00     0.103 C 
ATOM     86  C   UNL A   1      36.357  20.926  24.997  1.00  0.00     0.017 C 
BRANCH  83  87
ATOM     87  S   UNL A   1      32.785  22.358  23.726  1.00  0.00     0.245 S 
ATOM     88  O   UNL A   1      32.416  21.298  22.820  1.00  0.00    -0.207 OA
ATOM     89  O   UNL A   1      32.112  22.540  25.000  1.00  0.00    -0.207 OA
BRANCH  87  90
ATOM     90  C   UNL A   1      32.439  23.805  22.841  1.00  0.00     0.100 A 
ATOM     91  C   UNL A   1      33.200  24.318  21.759  1.00  0.00     0.041 A 
ATOM     92  C   UNL A   1      31.324  24.612  22.972  1.00  0.00     0.104 A 
ATOM     93  C   UNL A   1      32.547  25.438  21.290  1.00  0.00     0.083 A 
ATOM     94  N   UNL A   1      31.394  25.590  22.014  1.00  0.00    -0.366 N 
ATOM     95  H   UNL A   1      30.719  26.292  21.869  1.00  0.00     0.165 HD
ENDBRANCH  87  90
ENDBRANCH  83  87
ENDBRANCH  78  81
ENDBRANCH  76  77
ENDBRANCH  75  76
ENDBRANCH   1  75
TORSDOF 16
ENDMDL
