MODEL 1
REMARK VINA RESULT:     -12.8      0.000      0.000
REMARK SMILES O=C(CNC(=O)[C@@H](CC1=c2ccccc2=NC1)N1C(=O)N=C2C=CC=C[C@H]2C1=O)NCCCCNC(=O)c1ccc(-c2c3nc(c(-c4c(F)cc(S(=O)(=O)[O-])cc4F)c4ccc([nH]4)c(-c4c(F)cc(S(=O)(=O)[O-])cc4F)c4nc(c(-c5c(F)cc(S(=O)(=O)[O-])cc5F)c5ccc2[nH]5)C=C4)C=C3)cc1
REMARK SMILES IDX 32 1 31 2 30 3 1 4 2 5 3 7 4 8 5 9 6 11 7 12 8 13 9 14 10 15
REMARK SMILES IDX 17 16 11 17 15 18 16 19 12 20 14 21 13 22 18 23 19 24 28 25
REMARK SMILES IDX 21 26 20 27 27 28 29 29 22 30 26 31 23 32 25 33 24 34 33 35
REMARK SMILES IDX 34 36 35 37 36 38 37 40 38 41 39 42 103 43 40 44 102 45
REMARK SMILES IDX 41 46 42 47 43 48 96 49 44 50 101 51 95 52 97 53 45 54
REMARK SMILES IDX 100 55 94 56 93 57 46 59 80 60 59 61 79 62 60 63 63 64 78 65
REMARK SMILES IDX 98 66 61 67 62 68 77 70 99 71 64 72 47 73 48 74 57 75 49 76
REMARK SMILES IDX 50 77 56 78 58 79 51 80 52 81 53 82 54 83 55 84 81 85 82 86
REMARK SMILES IDX 91 87 83 88 84 89 90 90 92 91 85 92 86 93 87 94 88 95 89 96
REMARK SMILES IDX 65 97 66 98 75 99 67 100 68 101 74 102 76 103 69 104 70 105
REMARK SMILES IDX 71 106 72 107 73 108
REMARK H PARENT 30 6 4 10 35 39 97 58 63 69
REMARK Flexibility Score: inf
ROOT
ATOM      1  C   UNL A   1      42.302  21.685  27.570  1.00  0.00     0.023 C 
ENDROOT
BRANCH   1   2
ATOM      2  C   UNL A   1      40.810  21.439  27.808  1.00  0.00     0.116 C 
BRANCH   2   3
ATOM      3  N   UNL A   1      39.931  22.400  27.162  1.00  0.00    -0.355 N 
ATOM      4  O   UNL A   1      38.988  20.891  25.713  1.00  0.00    -0.273 OA
ATOM      5  C   UNL A   1      39.040  22.031  26.173  1.00  0.00     0.239 C 
ATOM      6  H   UNL A   1      39.970  23.345  27.438  1.00  0.00     0.163 HD
BRANCH   5   7
ATOM      7  C   UNL A   1      38.016  23.097  25.746  1.00  0.00     0.216 C 
BRANCH   7   8
ATOM      8  N   UNL A   1      36.834  23.255  26.590  1.00  0.00    -0.345 N 
ATOM      9  C   UNL A   1      35.629  22.717  26.149  1.00  0.00     0.244 C 
ATOM     10  H   UNL A   1      36.888  23.731  27.449  1.00  0.00     0.164 HD
ATOM     11  O   UNL A   1      35.468  21.501  26.176  1.00  0.00    -0.273 OA
BRANCH   9  12
ATOM     12  C   UNL A   1      34.497  23.746  25.955  1.00  0.00     0.188 C 
BRANCH  12  13
ATOM     13  C   UNL A   1      34.797  24.846  24.902  1.00  0.00     0.069 C 
BRANCH  13  14
ATOM     14  C   UNL A   1      33.932  26.055  24.641  1.00  0.00    -0.037 C 
ATOM     15  C   UNL A   1      33.310  26.976  25.380  1.00  0.00     0.001 A 
ATOM     16  C   UNL A   1      33.650  26.311  23.177  1.00  0.00     0.174 C 
ATOM     17  C   UNL A   1      33.166  27.298  26.763  1.00  0.00     0.010 A 
ATOM     18  C   UNL A   1      32.581  27.772  24.367  1.00  0.00     0.065 A 
ATOM     19  N   UNL A   1      32.725  27.454  23.119  1.00  0.00    -0.280 NA
ATOM     20  C   UNL A   1      32.400  28.336  27.137  1.00  0.00     0.001 A 
ATOM     21  C   UNL A   1      31.723  28.874  24.852  1.00  0.00     0.028 A 
ATOM     22  C   UNL A   1      31.664  29.122  26.169  1.00  0.00     0.002 A 
ENDBRANCH  13  14
ENDBRANCH  12  13
BRANCH  12  23
ATOM     23  N   UNL A   1      33.096  23.329  25.858  1.00  0.00    -0.249 N 
ATOM     24  C   UNL A   1      32.373  23.343  27.033  1.00  0.00     0.351 C 
ATOM     25  C   UNL A   1      32.410  23.189  24.679  1.00  0.00     0.244 C 
ATOM     26  N   UNL A   1      31.371  24.274  27.071  1.00  0.00    -0.197 NA
ATOM     27  O   UNL A   1      32.695  22.668  28.003  1.00  0.00    -0.246 OA
ATOM     28  C   UNL A   1      30.938  23.581  24.755  1.00  0.00     0.151 C 
ATOM     29  O   UNL A   1      32.892  22.702  23.659  1.00  0.00    -0.273 OA
ATOM     30  C   UNL A   1      30.734  24.487  25.963  1.00  0.00     0.062 C 
ATOM     31  C   UNL A   1      30.509  24.246  23.472  1.00  0.00    -0.007 C 
ATOM     32  C   UNL A   1      29.836  25.660  25.867  1.00  0.00     0.025 C 
ATOM     33  C   UNL A   1      29.849  25.412  23.440  1.00  0.00    -0.003 C 
ATOM     34  C   UNL A   1      29.463  26.085  24.654  1.00  0.00     0.002 C 
ENDBRANCH  12  23
ENDBRANCH   9  12
ENDBRANCH   7   8
ENDBRANCH   5   7
ENDBRANCH   2   3
ENDBRANCH   1   2
BRANCH   1  35
ATOM     35  C   UNL A   1      42.972  22.682  28.519  1.00  0.00     0.023 C 
BRANCH  35  36
ATOM     36  C   UNL A   1      43.572  23.925  27.877  1.00  0.00     0.116 C 
BRANCH  36  37
ATOM     37  N   UNL A   1      43.033  24.247  26.566  1.00  0.00    -0.352 N 
ATOM     38  C   UNL A   1      42.218  25.303  26.209  1.00  0.00     0.251 C 
ATOM     39  H   UNL A   1      43.281  23.632  25.839  1.00  0.00     0.163 HD
ATOM     40  O   UNL A   1      41.790  25.385  25.062  1.00  0.00    -0.269 OA
BRANCH  38  41
ATOM     41  C   UNL A   1      41.822  26.310  27.225  1.00  0.00     0.039 A 
ATOM     42  C   UNL A   1      42.464  27.547  27.305  1.00  0.00     0.014 A 
ATOM     43  C   UNL A   1      40.814  25.993  28.143  1.00  0.00     0.014 A 
ATOM     44  C   UNL A   1      42.228  28.382  28.394  1.00  0.00     0.010 A 
ATOM     45  C   UNL A   1      40.520  26.873  29.193  1.00  0.00     0.010 A 
ATOM     46  C   UNL A   1      41.262  28.052  29.358  1.00  0.00    -0.014 A 
BRANCH  46  47
ATOM     47  C   UNL A   1      41.065  28.946  30.532  1.00  0.00     0.031 A 
ATOM     48  C   UNL A   1      39.944  29.956  30.554  1.00  0.00     0.074 A 
ATOM     49  C   UNL A   1      41.853  28.797  31.617  1.00  0.00     0.049 A 
ATOM     50  N   UNL A   1      39.618  30.803  31.497  1.00  0.00    -0.248 NA
ATOM     51  C   UNL A   1      39.077  30.025  29.366  1.00  0.00     0.031 C 
ATOM     52  C   UNL A   1      42.962  27.847  31.728  1.00  0.00     0.029 A 
ATOM     53  N   UNL A   1      41.822  29.415  32.841  1.00  0.00    -0.354 N 
ATOM     54  C   UNL A   1      38.525  31.514  31.014  1.00  0.00     0.074 A 
ATOM     55  C   UNL A   1      38.255  31.016  29.683  1.00  0.00     0.031 C 
ATOM     56  C   UNL A   1      43.463  27.900  32.972  1.00  0.00     0.029 A 
ATOM     57  C   UNL A   1      42.754  28.928  33.727  1.00  0.00     0.049 A 
ATOM     58  H   UNL A   1      41.192  30.138  33.064  1.00  0.00     0.167 HD
ATOM     59  C   UNL A   1      37.807  32.486  31.627  1.00  0.00     0.037 A 
ATOM     60  C   UNL A   1      43.016  29.272  35.003  1.00  0.00     0.037 A 
ATOM     61  C   UNL A   1      38.054  32.961  32.963  1.00  0.00     0.049 A 
ATOM     62  C   UNL A   1      42.220  30.368  35.649  1.00  0.00     0.074 A 
ATOM     63  C   UNL A   1      37.378  33.945  33.666  1.00  0.00     0.029 A 
ATOM     64  N   UNL A   1      39.041  32.478  33.807  1.00  0.00    -0.354 N 
ATOM     65  N   UNL A   1      41.215  31.053  35.158  1.00  0.00    -0.248 NA
ATOM     66  C   UNL A   1      42.603  30.752  37.014  1.00  0.00     0.031 C 
ATOM     67  C   UNL A   1      37.972  34.071  34.926  1.00  0.00     0.029 A 
ATOM     68  C   UNL A   1      38.997  33.146  35.019  1.00  0.00     0.049 A 
ATOM     69  H   UNL A   1      39.680  31.764  33.578  1.00  0.00     0.167 HD
ATOM     70  C   UNL A   1      40.845  31.947  36.155  1.00  0.00     0.074 A 
ATOM     71  C   UNL A   1      41.719  31.703  37.284  1.00  0.00     0.031 C 
ATOM     72  C   UNL A   1      39.876  32.893  36.131  1.00  0.00     0.037 A 
BRANCH  59  73
ATOM     73  C   UNL A   1      36.672  33.110  30.864  1.00  0.00     0.058 A 
ATOM     74  C   UNL A   1      35.335  32.829  31.182  1.00  0.00     0.135 A 
ATOM     75  C   UNL A   1      36.924  34.059  29.859  1.00  0.00     0.135 A 
ATOM     76  F   UNL A   1      35.042  31.917  32.121  1.00  0.00    -0.206 F 
ATOM     77  C   UNL A   1      34.285  33.464  30.526  1.00  0.00     0.059 A 
ATOM     78  C   UNL A   1      35.889  34.719  29.203  1.00  0.00     0.059 A 
ATOM     79  F   UNL A   1      38.186  34.361  29.517  1.00  0.00    -0.206 F 
ATOM     80  C   UNL A   1      34.571  34.410  29.540  1.00  0.00     0.060 A 
BRANCH  80  81
ATOM     81  S   UNL A   1      33.196  35.245  28.719  1.00  0.00     0.124 S 
ATOM     82  O   UNL A   1      33.901  36.207  27.877  1.00  0.00    -0.237 OA
ATOM     83  O   UNL A   1      32.539  34.149  28.014  1.00  0.00    -0.237 OA
ATOM     84  O   UNL A   1      32.437  35.820  29.826  1.00  0.00    -0.744 OA
ENDBRANCH  80  81
ENDBRANCH  59  73
BRANCH  60  85
ATOM     85  C   UNL A   1      44.092  28.573  35.752  1.00  0.00     0.058 A 
ATOM     86  C   UNL A   1      45.427  28.984  35.641  1.00  0.00     0.135 A 
ATOM     87  C   UNL A   1      43.803  27.497  36.603  1.00  0.00     0.135 A 
ATOM     88  F   UNL A   1      45.751  30.006  34.834  1.00  0.00    -0.206 F 
ATOM     89  C   UNL A   1      46.444  28.346  36.343  1.00  0.00     0.059 A 
ATOM     90  C   UNL A   1      44.798  26.856  37.332  1.00  0.00     0.059 A 
ATOM     91  F   UNL A   1      42.536  27.078  36.752  1.00  0.00    -0.206 F 
ATOM     92  C   UNL A   1      46.119  27.283  37.188  1.00  0.00     0.060 A 
BRANCH  92  93
ATOM     93  S   UNL A   1      47.433  26.493  38.142  1.00  0.00     0.124 S 
ATOM     94  O   UNL A   1      46.696  25.991  39.296  1.00  0.00    -0.237 OA
ATOM     95  O   UNL A   1      47.927  25.483  37.212  1.00  0.00    -0.237 OA
ATOM     96  O   UNL A   1      48.356  27.591  38.409  1.00  0.00    -0.744 OA
ENDBRANCH  92  93
ENDBRANCH  60  85
BRANCH  72  97
ATOM     97  C   UNL A   1      39.704  33.733  37.363  1.00  0.00     0.058 A 
ATOM     98  C   UNL A   1      40.385  34.952  37.511  1.00  0.00     0.135 A 
ATOM     99  C   UNL A   1      38.814  33.346  38.376  1.00  0.00     0.135 A 
ATOM    100  F   UNL A   1      41.252  35.359  36.570  1.00  0.00    -0.206 F 
ATOM    101  C   UNL A   1      40.197  35.754  38.630  1.00  0.00     0.059 A 
ATOM    102  C   UNL A   1      38.599  34.141  39.496  1.00  0.00     0.059 A 
ATOM    103  F   UNL A   1      38.136  32.192  38.276  1.00  0.00    -0.206 F 
ATOM    104  C   UNL A   1      39.300  35.341  39.618  1.00  0.00     0.060 A 
BRANCH 104 105
ATOM    105  S   UNL A   1      39.035  36.411  41.048  1.00  0.00     0.124 S 
ATOM    106  O   UNL A   1      40.350  36.388  41.679  1.00  0.00    -0.237 OA
ATOM    107  O   UNL A   1      38.651  37.675  40.428  1.00  0.00    -0.237 OA
ATOM    108  O   UNL A   1      37.972  35.733  41.785  1.00  0.00    -0.744 OA
ENDBRANCH 104 105
ENDBRANCH  72  97
ENDBRANCH  46  47
ENDBRANCH  38  41
ENDBRANCH  36  37
ENDBRANCH  35  36
ENDBRANCH   1  35
TORSDOF 19
ENDMDL
MODEL 2
REMARK VINA RESULT:     -12.7      1.259      7.929
REMARK SMILES O=C(CNC(=O)[C@@H](CC1=c2ccccc2=NC1)N1C(=O)N=C2C=CC=C[C@H]2C1=O)NCCCCNC(=O)c1ccc(-c2c3nc(c(-c4c(F)cc(S(=O)(=O)[O-])cc4F)c4ccc([nH]4)c(-c4c(F)cc(S(=O)(=O)[O-])cc4F)c4nc(c(-c5c(F)cc(S(=O)(=O)[O-])cc5F)c5ccc2[nH]5)C=C4)C=C3)cc1
REMARK SMILES IDX 32 1 31 2 30 3 1 4 2 5 3 7 4 8 5 9 6 11 7 12 8 13 9 14 10 15
REMARK SMILES IDX 17 16 11 17 15 18 16 19 12 20 14 21 13 22 18 23 19 24 28 25
REMARK SMILES IDX 21 26 20 27 27 28 29 29 22 30 26 31 23 32 25 33 24 34 33 35
REMARK SMILES IDX 34 36 35 37 36 38 37 40 38 41 39 42 103 43 40 44 102 45
REMARK SMILES IDX 41 46 42 47 43 48 96 49 44 50 101 51 95 52 97 53 45 54
REMARK SMILES IDX 100 55 94 56 93 57 46 59 80 60 59 61 79 62 60 63 63 64 78 65
REMARK SMILES IDX 98 66 61 67 62 68 77 70 99 71 64 72 47 73 48 74 57 75 49 76
REMARK SMILES IDX 50 77 56 78 58 79 51 80 52 81 53 82 54 83 55 84 81 85 82 86
REMARK SMILES IDX 91 87 83 88 84 89 90 90 92 91 85 92 86 93 87 94 88 95 89 96
REMARK SMILES IDX 65 97 66 98 75 99 67 100 68 101 74 102 76 103 69 104 70 105
REMARK SMILES IDX 71 106 72 107 73 108
REMARK H PARENT 30 6 4 10 35 39 97 58 63 69
REMARK Flexibility Score: inf
ROOT
ATOM      1  C   UNL A   1      42.881  21.628  25.730  1.00  0.00     0.023 C 
ENDROOT
BRANCH   1   2
ATOM      2  C   UNL A   1      41.768  20.724  26.265  1.00  0.00     0.116 C 
BRANCH   2   3
ATOM      3  N   UNL A   1      40.430  21.098  25.836  1.00  0.00    -0.355 N 
ATOM      4  O   UNL A   1      40.073  22.608  27.526  1.00  0.00    -0.273 OA
ATOM      5  C   UNL A   1      39.691  22.063  26.492  1.00  0.00     0.239 C 
ATOM      6  H   UNL A   1      40.038  20.650  25.052  1.00  0.00     0.163 HD
BRANCH   5   7
ATOM      7  C   UNL A   1      38.397  22.520  25.796  1.00  0.00     0.216 C 
BRANCH   7   8
ATOM      8  N   UNL A   1      37.140  21.998  26.329  1.00  0.00    -0.345 N 
ATOM      9  C   UNL A   1      36.255  21.378  25.452  1.00  0.00     0.244 C 
ATOM     10  H   UNL A   1      36.924  22.085  27.285  1.00  0.00     0.164 HD
ATOM     11  O   UNL A   1      36.520  20.260  25.024  1.00  0.00    -0.273 OA
BRANCH   9  12
ATOM     12  C   UNL A   1      34.871  22.050  25.353  1.00  0.00     0.188 C 
BRANCH  12  13
ATOM     13  C   UNL A   1      34.764  23.421  26.072  1.00  0.00     0.069 C 
BRANCH  13  14
ATOM     14  C   UNL A   1      33.494  24.219  26.232  1.00  0.00    -0.037 C 
ATOM     15  C   UNL A   1      33.086  25.456  25.938  1.00  0.00     0.001 A 
ATOM     16  C   UNL A   1      32.375  23.472  26.925  1.00  0.00     0.174 C 
ATOM     17  C   UNL A   1      33.619  26.623  25.315  1.00  0.00     0.010 A 
ATOM     18  C   UNL A   1      31.721  25.496  26.513  1.00  0.00     0.065 A 
ATOM     19  N   UNL A   1      31.264  24.424  27.080  1.00  0.00    -0.280 NA
ATOM     20  C   UNL A   1      32.876  27.738  25.223  1.00  0.00     0.001 A 
ATOM     21  C   UNL A   1      30.976  26.768  26.413  1.00  0.00     0.028 A 
ATOM     22  C   UNL A   1      31.546  27.810  25.789  1.00  0.00     0.002 A 
ENDBRANCH  13  14
ENDBRANCH  12  13
BRANCH  12  23
ATOM     23  N   UNL A   1      34.131  22.088  24.089  1.00  0.00    -0.249 N 
ATOM     24  C   UNL A   1      33.029  21.263  24.002  1.00  0.00     0.351 C 
ATOM     25  C   UNL A   1      34.297  23.049  23.124  1.00  0.00     0.244 C 
ATOM     26  N   UNL A   1      31.833  21.922  23.921  1.00  0.00    -0.197 NA
ATOM     27  O   UNL A   1      33.116  20.047  24.122  1.00  0.00    -0.246 OA
ATOM     28  C   UNL A   1      33.018  23.431  22.388  1.00  0.00     0.151 C 
ATOM     29  O   UNL A   1      35.388  23.510  22.795  1.00  0.00    -0.273 OA
ATOM     30  C   UNL A   1      31.822  23.025  23.241  1.00  0.00     0.062 C 
ATOM     31  C   UNL A   1      33.014  24.908  22.081  1.00  0.00    -0.007 C 
ATOM     32  C   UNL A   1      30.644  23.916  23.341  1.00  0.00     0.025 C 
ATOM     33  C   UNL A   1      31.978  25.709  22.362  1.00  0.00    -0.003 C 
ATOM     34  C   UNL A   1      30.767  25.188  22.942  1.00  0.00     0.002 C 
ENDBRANCH  12  23
ENDBRANCH   9  12
ENDBRANCH   7   8
ENDBRANCH   5   7
ENDBRANCH   2   3
ENDBRANCH   1   2
BRANCH   1  35
ATOM     35  C   UNL A   1      43.675  22.402  26.784  1.00  0.00     0.023 C 
BRANCH  35  36
ATOM     36  C   UNL A   1      43.446  23.907  26.831  1.00  0.00     0.116 C 
BRANCH  36  37
ATOM     37  N   UNL A   1      42.432  24.391  25.909  1.00  0.00    -0.352 N 
ATOM     38  C   UNL A   1      41.511  25.402  26.101  1.00  0.00     0.251 C 
ATOM     39  H   UNL A   1      42.398  23.940  25.035  1.00  0.00     0.163 HD
ATOM     40  O   UNL A   1      40.670  25.635  25.238  1.00  0.00    -0.269 OA
BRANCH  38  41
ATOM     41  C   UNL A   1      41.508  26.172  27.370  1.00  0.00     0.039 A 
ATOM     42  C   UNL A   1      40.663  25.821  28.425  1.00  0.00     0.014 A 
ATOM     43  C   UNL A   1      42.340  27.291  27.491  1.00  0.00     0.014 A 
ATOM     44  C   UNL A   1      40.519  26.679  29.512  1.00  0.00     0.010 A 
ATOM     45  C   UNL A   1      42.252  28.109  28.625  1.00  0.00     0.010 A 
ATOM     46  C   UNL A   1      41.302  27.839  29.622  1.00  0.00    -0.014 A 
BRANCH  46  47
ATOM     47  C   UNL A   1      41.093  28.756  30.777  1.00  0.00     0.031 A 
ATOM     48  C   UNL A   1      42.058  28.769  31.937  1.00  0.00     0.074 A 
ATOM     49  C   UNL A   1      40.072  29.636  30.746  1.00  0.00     0.049 A 
ATOM     50  N   UNL A   1      42.037  29.510  33.016  1.00  0.00    -0.248 NA
ATOM     51  C   UNL A   1      43.191  27.830  31.881  1.00  0.00     0.031 C 
ATOM     52  C   UNL A   1      39.078  29.736  29.674  1.00  0.00     0.029 A 
ATOM     53  N   UNL A   1      39.719  30.634  31.618  1.00  0.00    -0.354 N 
ATOM     54  C   UNL A   1      43.137  29.119  33.772  1.00  0.00     0.074 A 
ATOM     55  C   UNL A   1      43.794  28.058  33.040  1.00  0.00     0.031 C 
ATOM     56  C   UNL A   1      38.268  30.777  29.922  1.00  0.00     0.029 A 
ATOM     57  C   UNL A   1      38.645  31.382  31.195  1.00  0.00     0.049 A 
ATOM     58  H   UNL A   1      40.190  30.799  32.467  1.00  0.00     0.167 HD
ATOM     59  C   UNL A   1      43.566  29.607  34.961  1.00  0.00     0.037 A 
ATOM     60  C   UNL A   1      38.027  32.432  31.768  1.00  0.00     0.037 A 
ATOM     61  C   UNL A   1      42.932  30.683  35.677  1.00  0.00     0.049 A 
ATOM     62  C   UNL A   1      38.509  32.936  33.097  1.00  0.00     0.074 A 
ATOM     63  C   UNL A   1      43.295  31.242  36.890  1.00  0.00     0.029 A 
ATOM     64  N   UNL A   1      41.816  31.378  35.237  1.00  0.00    -0.354 N 
ATOM     65  N   UNL A   1      39.528  32.525  33.811  1.00  0.00    -0.248 NA
ATOM     66  C   UNL A   1      37.747  34.033  33.708  1.00  0.00     0.031 C 
ATOM     67  C   UNL A   1      42.385  32.260  37.195  1.00  0.00     0.029 A 
ATOM     68  C   UNL A   1      41.474  32.354  36.158  1.00  0.00     0.049 A 
ATOM     69  H   UNL A   1      41.337  31.203  34.394  1.00  0.00     0.167 HD
ATOM     70  C   UNL A   1      39.531  33.314  34.955  1.00  0.00     0.074 A 
ATOM     71  C   UNL A   1      38.426  34.241  34.828  1.00  0.00     0.031 C 
ATOM     72  C   UNL A   1      40.368  33.267  36.018  1.00  0.00     0.037 A 
BRANCH  59  73
ATOM     73  C   UNL A   1      44.787  28.984  35.578  1.00  0.00     0.058 A 
ATOM     74  C   UNL A   1      46.071  29.489  35.326  1.00  0.00     0.135 A 
ATOM     75  C   UNL A   1      44.665  27.924  36.491  1.00  0.00     0.135 A 
ATOM     76  F   UNL A   1      46.243  30.489  34.448  1.00  0.00    -0.206 F 
ATOM     77  C   UNL A   1      47.194  28.962  35.956  1.00  0.00     0.059 A 
ATOM     78  C   UNL A   1      45.773  27.392  37.145  1.00  0.00     0.059 A 
ATOM     79  F   UNL A   1      43.458  27.404  36.764  1.00  0.00    -0.206 F 
ATOM     80  C   UNL A   1      47.035  27.915  36.866  1.00  0.00     0.060 A 
BRANCH  80  81
ATOM     81  S   UNL A   1      48.501  27.261  37.695  1.00  0.00     0.124 S 
ATOM     82  O   UNL A   1      49.133  28.486  38.175  1.00  0.00    -0.237 OA
ATOM     83  O   UNL A   1      47.923  26.403  38.724  1.00  0.00    -0.237 OA
ATOM     84  O   UNL A   1      49.213  26.565  36.628  1.00  0.00    -0.744 OA
ENDBRANCH  80  81
ENDBRANCH  59  73
BRANCH  60  85
ATOM     85  C   UNL A   1      36.874  33.074  31.086  1.00  0.00     0.058 A 
ATOM     86  C   UNL A   1      37.071  33.948  30.009  1.00  0.00     0.135 A 
ATOM     87  C   UNL A   1      35.555  32.811  31.487  1.00  0.00     0.135 A 
ATOM     88  F   UNL A   1      38.316  34.233  29.595  1.00  0.00    -0.206 F 
ATOM     89  C   UNL A   1      36.002  34.549  29.355  1.00  0.00     0.059 A 
ATOM     90  C   UNL A   1      34.468  33.383  30.836  1.00  0.00     0.059 A 
ATOM     91  F   UNL A   1      35.316  31.969  32.505  1.00  0.00    -0.206 F 
ATOM     92  C   UNL A   1      34.702  34.258  29.775  1.00  0.00     0.060 A 
BRANCH  92  93
ATOM     93  S   UNL A   1      33.313  34.995  28.888  1.00  0.00     0.124 S 
ATOM     94  O   UNL A   1      32.398  35.303  29.981  1.00  0.00    -0.237 OA
ATOM     95  O   UNL A   1      33.936  36.142  28.235  1.00  0.00    -0.237 OA
ATOM     96  O   UNL A   1      32.889  33.928  27.988  1.00  0.00    -0.744 OA
ENDBRANCH  92  93
ENDBRANCH  60  85
BRANCH  72  97
ATOM     97  C   UNL A   1      40.126  34.246  37.129  1.00  0.00     0.058 A 
ATOM     98  C   UNL A   1      40.776  35.489  37.156  1.00  0.00     0.135 A 
ATOM     99  C   UNL A   1      39.197  33.963  38.143  1.00  0.00     0.135 A 
ATOM    100  F   UNL A   1      41.678  35.800  36.211  1.00  0.00    -0.206 F 
ATOM    101  C   UNL A   1      40.523  36.417  38.160  1.00  0.00     0.059 A 
ATOM    102  C   UNL A   1      38.917  34.883  39.147  1.00  0.00     0.059 A 
ATOM    103  F   UNL A   1      38.546  32.790  38.155  1.00  0.00    -0.206 F 
ATOM    104  C   UNL A   1      39.590  36.105  39.151  1.00  0.00     0.060 A 
BRANCH 104 105
ATOM    105  S   UNL A   1      39.240  37.333  40.428  1.00  0.00     0.124 S 
ATOM    106  O   UNL A   1      40.513  38.043  40.509  1.00  0.00    -0.237 OA
ATOM    107  O   UNL A   1      38.132  38.085  39.846  1.00  0.00    -0.237 OA
ATOM    108  O   UNL A   1      38.897  36.523  41.592  1.00  0.00    -0.744 OA
ENDBRANCH 104 105
ENDBRANCH  72  97
ENDBRANCH  46  47
ENDBRANCH  38  41
ENDBRANCH  36  37
ENDBRANCH  35  36
ENDBRANCH   1  35
TORSDOF 19
ENDMDL
MODEL 3
REMARK VINA RESULT:     -12.7      1.164      2.004
REMARK SMILES O=C(CNC(=O)[C@@H](CC1=c2ccccc2=NC1)N1C(=O)N=C2C=CC=C[C@H]2C1=O)NCCCCNC(=O)c1ccc(-c2c3nc(c(-c4c(F)cc(S(=O)(=O)[O-])cc4F)c4ccc([nH]4)c(-c4c(F)cc(S(=O)(=O)[O-])cc4F)c4nc(c(-c5c(F)cc(S(=O)(=O)[O-])cc5F)c5ccc2[nH]5)C=C4)C=C3)cc1
REMARK SMILES IDX 32 1 31 2 30 3 1 4 2 5 3 7 4 8 5 9 6 11 7 12 8 13 9 14 10 15
REMARK SMILES IDX 17 16 11 17 15 18 16 19 12 20 14 21 13 22 18 23 19 24 28 25
REMARK SMILES IDX 21 26 20 27 27 28 29 29 22 30 26 31 23 32 25 33 24 34 33 35
REMARK SMILES IDX 34 36 35 37 36 38 37 40 38 41 39 42 103 43 40 44 102 45
REMARK SMILES IDX 41 46 42 47 43 48 96 49 44 50 101 51 95 52 97 53 45 54
REMARK SMILES IDX 100 55 94 56 93 57 46 59 80 60 59 61 79 62 60 63 63 64 78 65
REMARK SMILES IDX 98 66 61 67 62 68 77 70 99 71 64 72 47 73 48 74 57 75 49 76
REMARK SMILES IDX 50 77 56 78 58 79 51 80 52 81 53 82 54 83 55 84 81 85 82 86
REMARK SMILES IDX 91 87 83 88 84 89 90 90 92 91 85 92 86 93 87 94 88 95 89 96
REMARK SMILES IDX 65 97 66 98 75 99 67 100 68 101 74 102 76 103 69 104 70 105
REMARK SMILES IDX 71 106 72 107 73 108
REMARK H PARENT 30 6 4 10 35 39 97 58 63 69
REMARK Flexibility Score: inf
ROOT
ATOM      1  C   UNL A   1      43.340  21.907  25.565  1.00  0.00     0.023 C 
ENDROOT
BRANCH   1   2
ATOM      2  C   UNL A   1      42.243  21.037  26.182  1.00  0.00     0.116 C 
BRANCH   2   3
ATOM      3  N   UNL A   1      40.888  21.469  25.877  1.00  0.00    -0.355 N 
ATOM      4  O   UNL A   1      40.557  22.565  27.866  1.00  0.00    -0.273 OA
ATOM      5  C   UNL A   1      40.155  22.252  26.746  1.00  0.00     0.239 C 
ATOM      6  H   UNL A   1      40.481  21.196  25.024  1.00  0.00     0.163 HD
BRANCH   5   7
ATOM      7  C   UNL A   1      38.835  22.825  26.199  1.00  0.00     0.216 C 
BRANCH   7   8
ATOM      8  N   UNL A   1      37.633  22.016  26.390  1.00  0.00    -0.345 N 
ATOM      9  C   UNL A   1      36.884  21.667  25.271  1.00  0.00     0.244 C 
ATOM     10  H   UNL A   1      37.360  21.726  27.290  1.00  0.00     0.164 HD
ATOM     11  O   UNL A   1      37.316  20.815  24.501  1.00  0.00    -0.273 OA
BRANCH   9  12
ATOM     12  C   UNL A   1      35.430  22.179  25.285  1.00  0.00     0.188 C 
BRANCH  12  13
ATOM     13  C   UNL A   1      35.244  23.580  25.928  1.00  0.00     0.069 C 
BRANCH  13  14
ATOM     14  C   UNL A   1      33.916  24.263  26.145  1.00  0.00    -0.037 C 
ATOM     15  C   UNL A   1      33.377  25.446  25.841  1.00  0.00     0.001 A 
ATOM     16  C   UNL A   1      32.916  23.442  26.929  1.00  0.00     0.174 C 
ATOM     17  C   UNL A   1      33.760  26.634  25.151  1.00  0.00     0.010 A 
ATOM     18  C   UNL A   1      32.053  25.382  26.501  1.00  0.00     0.065 A 
ATOM     19  N   UNL A   1      31.732  24.294  27.127  1.00  0.00    -0.280 NA
ATOM     20  C   UNL A   1      32.912  27.673  25.074  1.00  0.00     0.001 A 
ATOM     21  C   UNL A   1      31.187  26.576  26.411  1.00  0.00     0.028 A 
ATOM     22  C   UNL A   1      31.618  27.643  25.722  1.00  0.00     0.002 A 
ENDBRANCH  13  14
ENDBRANCH  12  13
BRANCH  12  23
ATOM     23  N   UNL A   1      34.565  22.048  24.110  1.00  0.00    -0.249 N 
ATOM     24  C   UNL A   1      33.558  21.108  24.196  1.00  0.00     0.351 C 
ATOM     25  C   UNL A   1      34.522  22.948  23.076  1.00  0.00     0.244 C 
ATOM     26  N   UNL A   1      32.294  21.631  24.207  1.00  0.00    -0.197 NA
ATOM     27  O   UNL A   1      33.792  19.920  24.380  1.00  0.00    -0.246 OA
ATOM     28  C   UNL A   1      33.139  23.140  22.463  1.00  0.00     0.151 C 
ATOM     29  O   UNL A   1      35.515  23.495  22.601  1.00  0.00    -0.273 OA
ATOM     30  C   UNL A   1      32.090  22.674  23.466  1.00  0.00     0.062 C 
ATOM     31  C   UNL A   1      32.940  24.582  22.068  1.00  0.00    -0.007 C 
ATOM     32  C   UNL A   1      30.837  23.443  23.640  1.00  0.00     0.025 C 
ATOM     33  C   UNL A   1      31.855  25.289  22.412  1.00  0.00    -0.003 C 
ATOM     34  C   UNL A   1      30.775  24.688  23.153  1.00  0.00     0.002 C 
ENDBRANCH  12  23
ENDBRANCH   9  12
ENDBRANCH   7   8
ENDBRANCH   5   7
ENDBRANCH   2   3
ENDBRANCH   1   2
BRANCH   1  35
ATOM     35  C   UNL A   1      44.177  22.723  26.552  1.00  0.00     0.023 C 
BRANCH  35  36
ATOM     36  C   UNL A   1      43.869  24.213  26.628  1.00  0.00     0.116 C 
BRANCH  36  37
ATOM     37  N   UNL A   1      42.819  24.658  25.726  1.00  0.00    -0.352 N 
ATOM     38  C   UNL A   1      41.857  25.624  25.941  1.00  0.00     0.251 C 
ATOM     39  H   UNL A   1      42.792  24.212  24.849  1.00  0.00     0.163 HD
ATOM     40  O   UNL A   1      40.992  25.825  25.094  1.00  0.00    -0.269 OA
BRANCH  38  41
ATOM     41  C   UNL A   1      41.839  26.383  27.216  1.00  0.00     0.039 A 
ATOM     42  C   UNL A   1      41.022  25.990  28.279  1.00  0.00     0.014 A 
ATOM     43  C   UNL A   1      42.627  27.534  27.337  1.00  0.00     0.014 A 
ATOM     44  C   UNL A   1      40.859  26.832  29.375  1.00  0.00     0.010 A 
ATOM     45  C   UNL A   1      42.521  28.338  28.479  1.00  0.00     0.010 A 
ATOM     46  C   UNL A   1      41.596  28.022  29.486  1.00  0.00    -0.014 A 
BRANCH  46  47
ATOM     47  C   UNL A   1      41.365  28.921  30.650  1.00  0.00     0.031 A 
ATOM     48  C   UNL A   1      40.212  29.894  30.658  1.00  0.00     0.074 A 
ATOM     49  C   UNL A   1      42.152  28.807  31.740  1.00  0.00     0.049 A 
ATOM     50  N   UNL A   1      39.854  30.739  31.591  1.00  0.00    -0.248 NA
ATOM     51  C   UNL A   1      39.349  29.924  29.465  1.00  0.00     0.031 C 
ATOM     52  C   UNL A   1      43.291  27.894  31.865  1.00  0.00     0.029 A 
ATOM     53  N   UNL A   1      42.096  29.435  32.958  1.00  0.00    -0.354 N 
ATOM     54  C   UNL A   1      38.742  31.410  31.097  1.00  0.00     0.074 A 
ATOM     55  C   UNL A   1      38.494  30.891  29.770  1.00  0.00     0.031 C 
ATOM     56  C   UNL A   1      43.784  27.976  33.111  1.00  0.00     0.029 A 
ATOM     57  C   UNL A   1      43.039  28.987  33.853  1.00  0.00     0.049 A 
ATOM     58  H   UNL A   1      41.442  30.140  33.172  1.00  0.00     0.167 HD
ATOM     59  C   UNL A   1      37.990  32.364  31.697  1.00  0.00     0.037 A 
ATOM     60  C   UNL A   1      43.284  29.351  35.126  1.00  0.00     0.037 A 
ATOM     61  C   UNL A   1      38.215  32.860  33.030  1.00  0.00     0.049 A 
ATOM     62  C   UNL A   1      42.450  30.428  35.758  1.00  0.00     0.074 A 
ATOM     63  C   UNL A   1      37.506  33.828  33.719  1.00  0.00     0.029 A 
ATOM     64  N   UNL A   1      39.214  32.416  33.882  1.00  0.00    -0.354 N 
ATOM     65  N   UNL A   1      41.426  31.075  35.256  1.00  0.00    -0.248 NA
ATOM     66  C   UNL A   1      42.814  30.837  37.121  1.00  0.00     0.031 C 
ATOM     67  C   UNL A   1      38.089  33.985  34.981  1.00  0.00     0.029 A 
ATOM     68  C   UNL A   1      39.143  33.095  35.087  1.00  0.00     0.049 A 
ATOM     69  H   UNL A   1      39.876  31.721  33.663  1.00  0.00     0.167 HD
ATOM     70  C   UNL A   1      41.023  31.967  36.242  1.00  0.00     0.074 A 
ATOM     71  C   UNL A   1      41.898  31.761  37.378  1.00  0.00     0.031 C 
ATOM     72  C   UNL A   1      40.024  32.880  36.206  1.00  0.00     0.037 A 
BRANCH  59  73
ATOM     73  C   UNL A   1      36.839  32.945  30.923  1.00  0.00     0.058 A 
ATOM     74  C   UNL A   1      35.519  32.531  31.155  1.00  0.00     0.135 A 
ATOM     75  C   UNL A   1      37.051  33.980  29.998  1.00  0.00     0.135 A 
ATOM     76  F   UNL A   1      35.266  31.533  32.016  1.00  0.00    -0.206 F 
ATOM     77  C   UNL A   1      34.447  33.121  30.493  1.00  0.00     0.059 A 
ATOM     78  C   UNL A   1      35.992  34.596  29.337  1.00  0.00     0.059 A 
ATOM     79  F   UNL A   1      38.296  34.409  29.739  1.00  0.00    -0.206 F 
ATOM     80  C   UNL A   1      34.693  34.156  29.588  1.00  0.00     0.060 A 
BRANCH  80  81
ATOM     81  S   UNL A   1      33.287  34.929  28.759  1.00  0.00     0.124 S 
ATOM     82  O   UNL A   1      32.419  35.242  29.890  1.00  0.00    -0.237 OA
ATOM     83  O   UNL A   1      33.904  36.076  28.099  1.00  0.00    -0.237 OA
ATOM     84  O   UNL A   1      32.800  33.882  27.866  1.00  0.00    -0.744 OA
ENDBRANCH  80  81
ENDBRANCH  59  73
BRANCH  60  85
ATOM     85  C   UNL A   1      44.378  28.695  35.886  1.00  0.00     0.058 A 
ATOM     86  C   UNL A   1      44.112  27.614  36.738  1.00  0.00     0.135 A 
ATOM     87  C   UNL A   1      45.708  29.123  35.762  1.00  0.00     0.135 A 
ATOM     88  F   UNL A   1      42.854  27.174  36.893  1.00  0.00    -0.206 F 
ATOM     89  C   UNL A   1      45.127  26.983  37.450  1.00  0.00     0.059 A 
ATOM     90  C   UNL A   1      46.743  28.495  36.446  1.00  0.00     0.059 A 
ATOM     91  F   UNL A   1      46.012  30.145  34.946  1.00  0.00    -0.206 F 
ATOM     92  C   UNL A   1      46.440  27.431  37.295  1.00  0.00     0.060 A 
BRANCH  92  93
ATOM     93  S   UNL A   1      47.763  26.573  38.176  1.00  0.00     0.124 S 
ATOM     94  O   UNL A   1      48.104  27.545  39.209  1.00  0.00    -0.237 OA
ATOM     95  O   UNL A   1      47.093  25.361  38.636  1.00  0.00    -0.237 OA
ATOM     96  O   UNL A   1      48.772  26.367  37.142  1.00  0.00    -0.744 OA
ENDBRANCH  92  93
ENDBRANCH  60  85
BRANCH  72  97
ATOM     97  C   UNL A   1      39.820  33.726  37.429  1.00  0.00     0.058 A 
ATOM     98  C   UNL A   1      40.533  34.921  37.611  1.00  0.00     0.135 A 
ATOM     99  C   UNL A   1      38.868  33.370  38.395  1.00  0.00     0.135 A 
ATOM    100  F   UNL A   1      41.459  35.299  36.715  1.00  0.00    -0.206 F 
ATOM    101  C   UNL A   1      40.317  35.730  38.721  1.00  0.00     0.059 A 
ATOM    102  C   UNL A   1      38.624  34.173  39.505  1.00  0.00     0.059 A 
ATOM    103  F   UNL A   1      38.157  32.239  38.260  1.00  0.00    -0.206 F 
ATOM    104  C   UNL A   1      39.359  35.348  39.662  1.00  0.00     0.060 A 
BRANCH 104 105
ATOM    105  S   UNL A   1      39.059  36.427  41.079  1.00  0.00     0.124 S 
ATOM    106  O   UNL A   1      38.582  37.641  40.427  1.00  0.00    -0.237 OA
ATOM    107  O   UNL A   1      38.059  35.680  41.837  1.00  0.00    -0.237 OA
ATOM    108  O   UNL A   1      40.370  36.526  41.712  1.00  0.00    -0.744 OA
ENDBRANCH 104 105
ENDBRANCH  72  97
ENDBRANCH  46  47
ENDBRANCH  38  41
ENDBRANCH  36  37
ENDBRANCH  35  36
ENDBRANCH   1  35
TORSDOF 19
ENDMDL
