MODEL 1
REMARK VINA RESULT:     -11.6      0.000      0.000
REMARK SMILES CCOc1ccccc1[C@H](C(=O)NCCCCNC(=O)c1ccc(-c2c3nc(c(-c4c(F)cc(S(=O)(=O)[O-])cc4F)c4ccc([nH]4)c(-c4c(F)cc(S(=O)(=O)[O-])cc4F)c4nc(c(-c5c(F)cc(S(=O)(=O)[O-])cc5F)c5ccc2[nH]5)C=C4)C=C3)cc1)[NH+]1CCC([NH+]2CCSCC2)CC1
REMARK SMILES IDX 15 1 14 2 13 3 11 4 12 5 10 7 9 8 4 9 5 10 6 11 8 12 7 13
REMARK SMILES IDX 3 14 2 15 1 16 87 17 88 18 98 19 89 21 97 22 90 23 91 24
REMARK SMILES IDX 92 25 96 26 93 28 95 29 94 30 16 31 17 32 18 33 19 34 20 36
REMARK SMILES IDX 21 37 22 38 86 39 23 40 85 41 24 42 25 43 26 44 79 45 27 46
REMARK SMILES IDX 84 47 78 48 80 49 28 50 83 51 77 52 76 53 29 55 63 56 42 57
REMARK SMILES IDX 62 58 43 59 46 60 61 61 81 62 44 63 45 64 60 66 82 67 47 68
REMARK SMILES IDX 30 69 31 70 40 71 32 72 33 73 39 74 41 75 34 76 35 77 36 78
REMARK SMILES IDX 37 79 38 80 64 81 65 82 74 83 66 84 67 85 73 86 75 87 68 88
REMARK SMILES IDX 69 89 70 90 71 91 72 92 48 93 49 94 58 95 50 96 51 97 57 98
REMARK SMILES IDX 59 99 52 100 53 101 54 102 55 103 56 104
REMARK H PARENT 13 6 87 20 91 27 18 35 80 54 46 65
REMARK Flexibility Score: inf
ROOT
ATOM      1  C   UNL A   1      38.616  23.266  26.091  1.00  0.00     0.023 C 
ENDROOT
BRANCH   1   2
ATOM      2  C   UNL A   1      37.589  22.342  25.443  1.00  0.00     0.116 C 
BRANCH   2   3
ATOM      3  N   UNL A   1      36.582  21.936  26.402  1.00  0.00    -0.351 N 
ATOM      4  C   UNL A   1      35.226  21.835  26.271  1.00  0.00     0.283 C 
ATOM      5  O   UNL A   1      34.634  21.408  27.267  1.00  0.00    -0.268 OA
ATOM      6  H   UNL A   1      36.930  21.693  27.291  1.00  0.00     0.163 HD
BRANCH   4   7
ATOM      7  C   UNL A   1      34.517  22.325  24.976  1.00  0.00     0.309 C 
BRANCH   7   8
ATOM      8  C   UNL A   1      33.657  21.285  24.234  1.00  0.00     0.061 A 
ATOM      9  C   UNL A   1      32.718  21.579  23.227  1.00  0.00     0.128 A 
ATOM     10  C   UNL A   1      31.941  20.566  22.654  1.00  0.00     0.047 A 
ATOM     11  C   UNL A   1      32.128  19.236  23.031  1.00  0.00     0.004 A 
ATOM     12  C   UNL A   1      33.847  19.928  24.575  1.00  0.00     0.014 A 
ATOM     13  C   UNL A   1      33.092  18.915  23.982  1.00  0.00     0.001 A 
BRANCH   9  14
ATOM     14  O   UNL A   1      32.445  22.878  22.902  1.00  0.00    -0.493 OA
BRANCH  14  15
ATOM     15  C   UNL A   1      31.063  23.235  22.999  1.00  0.00     0.226 C 
ATOM     16  C   UNL A   1      30.972  24.750  23.020  1.00  0.00     0.049 C 
ENDBRANCH  14  15
ENDBRANCH   9  14
ENDBRANCH   7   8
BRANCH   7  17
ATOM     17  N   UNL A   1      33.792  23.640  25.112  1.00  0.00    -0.320 N 
ATOM     18  C   UNL A   1      33.049  23.774  26.367  1.00  0.00     0.269 C 
ATOM     19  C   UNL A   1      34.659  24.809  24.892  1.00  0.00     0.269 C 
ATOM     20  H   UNL A   1      33.105  23.623  24.359  1.00  0.00     0.349 HD
ATOM     21  C   UNL A   1      32.154  25.015  26.337  1.00  0.00     0.126 C 
ATOM     22  C   UNL A   1      33.847  26.111  24.856  1.00  0.00     0.126 C 
ATOM     23  C   UNL A   1      33.007  26.278  26.140  1.00  0.00     0.195 C 
BRANCH  23  24
ATOM     24  N   UNL A   1      32.269  27.569  26.194  1.00  0.00    -0.331 N 
ATOM     25  C   UNL A   1      32.193  28.200  24.856  1.00  0.00     0.273 C 
ATOM     26  C   UNL A   1      32.783  28.515  27.199  1.00  0.00     0.273 C 
ATOM     27  H   UNL A   1      31.326  27.328  26.500  1.00  0.00     0.348 HD
ATOM     28  C   UNL A   1      31.245  29.404  24.775  1.00  0.00     0.131 C 
ATOM     29  C   UNL A   1      31.887  29.747  27.394  1.00  0.00     0.131 C 
ATOM     30  S   UNL A   1      31.750  30.751  25.887  1.00  0.00    -0.150 SA
ENDBRANCH  23  24
ENDBRANCH   7  17
ENDBRANCH   4   7
ENDBRANCH   2   3
ENDBRANCH   1   2
BRANCH   1  31
ATOM     31  C   UNL A   1      39.773  22.542  26.790  1.00  0.00     0.023 C 
BRANCH  31  32
ATOM     32  C   UNL A   1      40.901  23.452  27.268  1.00  0.00     0.116 C 
BRANCH  32  33
ATOM     33  N   UNL A   1      41.438  24.253  26.177  1.00  0.00    -0.352 N 
ATOM     34  C   UNL A   1      41.463  25.617  26.046  1.00  0.00     0.251 C 
ATOM     35  H   UNL A   1      41.838  23.746  25.434  1.00  0.00     0.163 HD
ATOM     36  O   UNL A   1      41.696  26.128  24.950  1.00  0.00    -0.269 OA
BRANCH  34  37
ATOM     37  C   UNL A   1      41.205  26.469  27.224  1.00  0.00     0.039 A 
ATOM     38  C   UNL A   1      40.118  26.187  28.055  1.00  0.00     0.014 A 
ATOM     39  C   UNL A   1      42.044  27.552  27.504  1.00  0.00     0.014 A 
ATOM     40  C   UNL A   1      39.904  26.960  29.199  1.00  0.00     0.010 A 
ATOM     41  C   UNL A   1      41.874  28.272  28.682  1.00  0.00     0.010 A 
ATOM     42  C   UNL A   1      40.798  27.989  29.538  1.00  0.00    -0.014 A 
BRANCH  42  43
ATOM     43  C   UNL A   1      40.627  28.800  30.771  1.00  0.00     0.031 A 
ATOM     44  C   UNL A   1      39.584  29.885  30.811  1.00  0.00     0.074 A 
ATOM     45  C   UNL A   1      41.456  28.616  31.818  1.00  0.00     0.049 A 
ATOM     46  N   UNL A   1      39.357  30.779  31.738  1.00  0.00    -0.248 NA
ATOM     47  C   UNL A   1      38.699  29.996  29.641  1.00  0.00     0.031 C 
ATOM     48  C   UNL A   1      42.526  27.619  31.885  1.00  0.00     0.029 A 
ATOM     49  N   UNL A   1      41.541  29.274  33.020  1.00  0.00    -0.354 N 
ATOM     50  C   UNL A   1      38.319  31.569  31.256  1.00  0.00     0.074 A 
ATOM     51  C   UNL A   1      37.997  31.081  29.933  1.00  0.00     0.031 C 
ATOM     52  C   UNL A   1      43.150  27.723  33.070  1.00  0.00     0.029 A 
ATOM     53  C   UNL A   1      42.559  28.822  33.826  1.00  0.00     0.049 A 
ATOM     54  H   UNL A   1      40.931  30.001  33.280  1.00  0.00     0.167 HD
ATOM     55  C   UNL A   1      37.679  32.593  31.869  1.00  0.00     0.037 A 
ATOM     56  C   UNL A   1      42.981  29.256  35.031  1.00  0.00     0.037 A 
ATOM     57  C   UNL A   1      37.994  33.058  33.195  1.00  0.00     0.049 A 
ATOM     58  C   UNL A   1      42.266  30.409  35.686  1.00  0.00     0.074 A 
ATOM     59  C   UNL A   1      37.375  34.057  33.925  1.00  0.00     0.029 A 
ATOM     60  N   UNL A   1      39.016  32.557  33.989  1.00  0.00    -0.354 N 
ATOM     61  N   UNL A   1      41.254  31.112  35.237  1.00  0.00    -0.248 NA
ATOM     62  C   UNL A   1      42.745  30.825  37.011  1.00  0.00     0.031 C 
ATOM     63  C   UNL A   1      38.055  34.196  35.139  1.00  0.00     0.029 A 
ATOM     64  C   UNL A   1      39.057  33.240  35.193  1.00  0.00     0.049 A 
ATOM     65  H   UNL A   1      39.623  31.825  33.734  1.00  0.00     0.167 HD
ATOM     66  C   UNL A   1      40.950  32.025  36.241  1.00  0.00     0.074 A 
ATOM     67  C   UNL A   1      41.885  31.784  37.321  1.00  0.00     0.031 C 
ATOM     68  C   UNL A   1      39.981  32.974  36.269  1.00  0.00     0.037 A 
BRANCH  55  69
ATOM     69  C   UNL A   1      36.578  33.286  31.111  1.00  0.00     0.058 A 
ATOM     70  C   UNL A   1      36.848  34.118  30.012  1.00  0.00     0.135 A 
ATOM     71  C   UNL A   1      35.234  33.086  31.465  1.00  0.00     0.135 A 
ATOM     72  F   UNL A   1      38.114  34.358  29.639  1.00  0.00    -0.206 F 
ATOM     73  C   UNL A   1      35.827  34.751  29.311  1.00  0.00     0.059 A 
ATOM     74  C   UNL A   1      34.194  33.684  30.757  1.00  0.00     0.059 A 
ATOM     75  F   UNL A   1      34.918  32.301  32.506  1.00  0.00    -0.206 F 
ATOM     76  C   UNL A   1      34.502  34.527  29.691  1.00  0.00     0.060 A 
BRANCH  76  77
ATOM     77  S   UNL A   1      33.191  35.354  28.767  1.00  0.00     0.124 S 
ATOM     78  O   UNL A   1      32.410  35.954  29.844  1.00  0.00    -0.237 OA
ATOM     79  O   UNL A   1      33.939  36.286  27.930  1.00  0.00    -0.237 OA
ATOM     80  O   UNL A   1      32.536  34.262  28.053  1.00  0.00    -0.744 OA
ENDBRANCH  76  77
ENDBRANCH  55  69
BRANCH  56  81
ATOM     81  C   UNL A   1      44.128  28.587  35.703  1.00  0.00     0.058 A 
ATOM     82  C   UNL A   1      45.448  28.994  35.453  1.00  0.00     0.135 A 
ATOM     83  C   UNL A   1      43.931  27.537  36.614  1.00  0.00     0.135 A 
ATOM     84  F   UNL A   1      45.691  29.989  34.586  1.00  0.00    -0.206 F 
ATOM     85  C   UNL A   1      46.532  28.372  36.066  1.00  0.00     0.059 A 
ATOM     86  C   UNL A   1      44.997  26.919  37.261  1.00  0.00     0.059 A 
ATOM     87  F   UNL A   1      42.688  27.120  36.901  1.00  0.00    -0.206 F 
ATOM     88  C   UNL A   1      46.295  27.336  36.973  1.00  0.00     0.060 A 
BRANCH  88  89
ATOM     89  S   UNL A   1      47.706  26.568  37.794  1.00  0.00     0.124 S 
ATOM     90  O   UNL A   1      48.673  26.487  36.705  1.00  0.00    -0.237 OA
ATOM     91  O   UNL A   1      48.010  27.532  38.847  1.00  0.00    -0.237 OA
ATOM     92  O   UNL A   1      47.171  25.292  38.258  1.00  0.00    -0.744 OA
ENDBRANCH  88  89
ENDBRANCH  56  81
BRANCH  68  93
ATOM     93  C   UNL A   1      39.831  33.786  37.526  1.00  0.00     0.058 A 
ATOM     94  C   UNL A   1      40.488  35.013  37.704  1.00  0.00     0.135 A 
ATOM     95  C   UNL A   1      38.952  33.360  38.537  1.00  0.00     0.135 A 
ATOM     96  F   UNL A   1      41.343  35.463  36.773  1.00  0.00    -0.206 F 
ATOM     97  C   UNL A   1      40.290  35.783  38.846  1.00  0.00     0.059 A 
ATOM     98  C   UNL A   1      38.717  34.128  39.672  1.00  0.00     0.059 A 
ATOM     99  F   UNL A   1      38.291  32.199  38.414  1.00  0.00    -0.206 F 
ATOM    100  C   UNL A   1      39.397  35.335  39.822  1.00  0.00     0.060 A 
BRANCH 100 101
ATOM    101  S   UNL A   1      39.110  36.371  41.272  1.00  0.00     0.124 S 
ATOM    102  O   UNL A   1      37.974  35.701  41.894  1.00  0.00    -0.237 OA
ATOM    103  O   UNL A   1      40.379  36.264  41.986  1.00  0.00    -0.237 OA
ATOM    104  O   UNL A   1      38.829  37.685  40.701  1.00  0.00    -0.744 OA
ENDBRANCH 100 101
ENDBRANCH  68  93
ENDBRANCH  42  43
ENDBRANCH  34  37
ENDBRANCH  32  33
ENDBRANCH  31  32
ENDBRANCH   1  31
TORSDOF 19
ENDMDL
MODEL 2
REMARK VINA RESULT:     -11.2      6.217      8.499
REMARK SMILES CCOc1ccccc1[C@H](C(=O)NCCCCNC(=O)c1ccc(-c2c3nc(c(-c4c(F)cc(S(=O)(=O)[O-])cc4F)c4ccc([nH]4)c(-c4c(F)cc(S(=O)(=O)[O-])cc4F)c4nc(c(-c5c(F)cc(S(=O)(=O)[O-])cc5F)c5ccc2[nH]5)C=C4)C=C3)cc1)[NH+]1CCC([NH+]2CCSCC2)CC1
REMARK SMILES IDX 15 1 14 2 13 3 11 4 12 5 10 7 9 8 4 9 5 10 6 11 8 12 7 13
REMARK SMILES IDX 3 14 2 15 1 16 87 17 88 18 98 19 89 21 97 22 90 23 91 24
REMARK SMILES IDX 92 25 96 26 93 28 95 29 94 30 16 31 17 32 18 33 19 34 20 36
REMARK SMILES IDX 21 37 22 38 86 39 23 40 85 41 24 42 25 43 26 44 79 45 27 46
REMARK SMILES IDX 84 47 78 48 80 49 28 50 83 51 77 52 76 53 29 55 63 56 42 57
REMARK SMILES IDX 62 58 43 59 46 60 61 61 81 62 44 63 45 64 60 66 82 67 47 68
REMARK SMILES IDX 30 69 31 70 40 71 32 72 33 73 39 74 41 75 34 76 35 77 36 78
REMARK SMILES IDX 37 79 38 80 64 81 65 82 74 83 66 84 67 85 73 86 75 87 68 88
REMARK SMILES IDX 69 89 70 90 71 91 72 92 48 93 49 94 58 95 50 96 51 97 57 98
REMARK SMILES IDX 59 99 52 100 53 101 54 102 55 103 56 104
REMARK H PARENT 13 6 87 20 91 27 18 35 80 54 46 65
REMARK Flexibility Score: inf
ROOT
ATOM      1  C   UNL A   1      36.964  20.840  24.970  1.00  0.00     0.023 C 
ENDROOT
BRANCH   1   2
ATOM      2  C   UNL A   1      37.002  22.136  24.167  1.00  0.00     0.116 C 
BRANCH   2   3
ATOM      3  N   UNL A   1      36.572  23.259  24.977  1.00  0.00    -0.351 N 
ATOM      4  C   UNL A   1      35.402  23.963  24.963  1.00  0.00     0.283 C 
ATOM      5  O   UNL A   1      35.313  24.847  25.820  1.00  0.00    -0.268 OA
ATOM      6  H   UNL A   1      37.230  23.563  25.645  1.00  0.00     0.163 HD
BRANCH   4   7
ATOM      7  C   UNL A   1      34.331  23.696  23.866  1.00  0.00     0.309 C 
BRANCH   7   8
ATOM      8  C   UNL A   1      33.562  22.366  23.973  1.00  0.00     0.061 A 
ATOM      9  C   UNL A   1      33.447  21.587  25.139  1.00  0.00     0.128 A 
ATOM     10  C   UNL A   1      32.774  20.360  25.119  1.00  0.00     0.047 A 
ATOM     11  C   UNL A   1      32.153  19.917  23.950  1.00  0.00     0.004 A 
ATOM     12  C   UNL A   1      32.900  21.909  22.813  1.00  0.00     0.014 A 
ATOM     13  C   UNL A   1      32.204  20.699  22.801  1.00  0.00     0.001 A 
BRANCH   9  14
ATOM     14  O   UNL A   1      34.120  21.946  26.273  1.00  0.00    -0.493 OA
BRANCH  14  15
ATOM     15  C   UNL A   1      33.326  21.933  27.463  1.00  0.00     0.226 C 
ATOM     16  C   UNL A   1      32.277  23.024  27.337  1.00  0.00     0.049 C 
ENDBRANCH  14  15
ENDBRANCH   9  14
ENDBRANCH   7   8
BRANCH   7  17
ATOM     17  N   UNL A   1      33.396  24.850  23.603  1.00  0.00    -0.320 N 
ATOM     18  C   UNL A   1      33.161  25.102  22.179  1.00  0.00     0.269 C 
ATOM     19  C   UNL A   1      32.121  24.745  24.332  1.00  0.00     0.269 C 
ATOM     20  H   UNL A   1      33.893  25.660  23.971  1.00  0.00     0.349 HD
ATOM     21  C   UNL A   1      32.403  26.417  21.980  1.00  0.00     0.126 C 
ATOM     22  C   UNL A   1      31.283  26.021  24.182  1.00  0.00     0.126 C 
ATOM     23  C   UNL A   1      31.045  26.358  22.695  1.00  0.00     0.195 C 
BRANCH  23  24
ATOM     24  N   UNL A   1      30.161  27.539  22.496  1.00  0.00    -0.331 N 
ATOM     25  C   UNL A   1      30.944  28.795  22.455  1.00  0.00     0.273 C 
ATOM     26  C   UNL A   1      29.055  27.634  23.465  1.00  0.00     0.273 C 
ATOM     27  H   UNL A   1      29.719  27.395  21.588  1.00  0.00     0.348 HD
ATOM     28  C   UNL A   1      30.146  30.028  22.011  1.00  0.00     0.131 C 
ATOM     29  C   UNL A   1      28.033  28.727  23.120  1.00  0.00     0.131 C 
ATOM     30  S   UNL A   1      28.763  30.390  23.134  1.00  0.00    -0.150 SA
ENDBRANCH  23  24
ENDBRANCH   7  17
ENDBRANCH   4   7
ENDBRANCH   2   3
ENDBRANCH   1   2
BRANCH   1  31
ATOM     31  C   UNL A   1      38.243  19.999  24.885  1.00  0.00     0.023 C 
BRANCH  31  32
ATOM     32  C   UNL A   1      39.338  20.399  25.869  1.00  0.00     0.116 C 
BRANCH  32  33
ATOM     33  N   UNL A   1      40.295  19.320  26.069  1.00  0.00    -0.352 N 
ATOM     34  C   UNL A   1      41.659  19.394  26.183  1.00  0.00     0.251 C 
ATOM     35  H   UNL A   1      39.911  18.416  26.130  1.00  0.00     0.163 HD
ATOM     36  O   UNL A   1      42.345  18.377  26.069  1.00  0.00    -0.269 OA
BRANCH  34  37
ATOM     37  C   UNL A   1      42.301  20.699  26.441  1.00  0.00     0.039 A 
ATOM     38  C   UNL A   1      42.806  21.442  25.371  1.00  0.00     0.014 A 
ATOM     39  C   UNL A   1      42.403  21.184  27.747  1.00  0.00     0.014 A 
ATOM     40  C   UNL A   1      43.365  22.700  25.608  1.00  0.00     0.010 A 
ATOM     41  C   UNL A   1      42.890  22.468  27.972  1.00  0.00     0.010 A 
ATOM     42  C   UNL A   1      43.384  23.236  26.907  1.00  0.00    -0.014 A 
BRANCH  42  43
ATOM     43  C   UNL A   1      43.930  24.589  27.186  1.00  0.00     0.031 A 
ATOM     44  C   UNL A   1      42.998  25.700  27.591  1.00  0.00     0.074 A 
ATOM     45  C   UNL A   1      45.241  24.838  26.999  1.00  0.00     0.049 A 
ATOM     46  N   UNL A   1      43.252  26.972  27.761  1.00  0.00    -0.248 NA
ATOM     47  C   UNL A   1      41.588  25.336  27.807  1.00  0.00     0.031 C 
ATOM     48  C   UNL A   1      46.238  23.852  26.576  1.00  0.00     0.029 A 
ATOM     49  N   UNL A   1      45.959  26.001  27.122  1.00  0.00    -0.354 N 
ATOM     50  C   UNL A   1      42.035  27.561  28.083  1.00  0.00     0.074 A 
ATOM     51  C   UNL A   1      41.034  26.518  28.034  1.00  0.00     0.031 C 
ATOM     52  C   UNL A   1      47.438  24.449  26.487  1.00  0.00     0.029 A 
ATOM     53  C   UNL A   1      47.289  25.867  26.799  1.00  0.00     0.049 A 
ATOM     54  H   UNL A   1      45.560  26.853  27.413  1.00  0.00     0.167 HD
ATOM     55  C   UNL A   1      41.778  28.850  28.410  1.00  0.00     0.037 A 
ATOM     56  C   UNL A   1      48.275  26.786  26.744  1.00  0.00     0.037 A 
ATOM     57  C   UNL A   1      42.786  29.877  28.477  1.00  0.00     0.049 A 
ATOM     58  C   UNL A   1      47.963  28.217  27.094  1.00  0.00     0.074 A 
ATOM     59  C   UNL A   1      42.638  31.203  28.844  1.00  0.00     0.029 A 
ATOM     60  N   UNL A   1      44.126  29.695  28.167  1.00  0.00    -0.354 N 
ATOM     61  N   UNL A   1      46.816  28.748  27.445  1.00  0.00    -0.248 NA
ATOM     62  C   UNL A   1      49.077  29.173  27.047  1.00  0.00     0.031 C 
ATOM     63  C   UNL A   1      43.878  31.834  28.706  1.00  0.00     0.029 A 
ATOM     64  C   UNL A   1      44.812  30.888  28.316  1.00  0.00     0.049 A 
ATOM     65  H   UNL A   1      44.530  28.843  27.883  1.00  0.00     0.167 HD
ATOM     66  C   UNL A   1      47.079  30.090  27.699  1.00  0.00     0.074 A 
ATOM     67  C   UNL A   1      48.494  30.289  27.463  1.00  0.00     0.031 C 
ATOM     68  C   UNL A   1      46.227  31.067  28.098  1.00  0.00     0.037 A 
BRANCH  55  69
ATOM     69  C   UNL A   1      40.353  29.226  28.717  1.00  0.00     0.058 A 
ATOM     70  C   UNL A   1      39.406  29.423  27.699  1.00  0.00     0.135 A 
ATOM     71  C   UNL A   1      39.919  29.353  30.047  1.00  0.00     0.135 A 
ATOM     72  F   UNL A   1      39.767  29.329  26.410  1.00  0.00    -0.206 F 
ATOM     73  C   UNL A   1      38.088  29.764  27.987  1.00  0.00     0.059 A 
ATOM     74  C   UNL A   1      38.597  29.662  30.358  1.00  0.00     0.059 A 
ATOM     75  F   UNL A   1      40.781  29.175  31.060  1.00  0.00    -0.206 F 
ATOM     76  C   UNL A   1      37.693  29.880  29.321  1.00  0.00     0.060 A 
BRANCH  76  77
ATOM     77  S   UNL A   1      35.979  30.318  29.676  1.00  0.00     0.124 S 
ATOM     78  O   UNL A   1      35.274  29.640  28.592  1.00  0.00    -0.237 OA
ATOM     79  O   UNL A   1      35.783  29.757  31.008  1.00  0.00    -0.237 OA
ATOM     80  O   UNL A   1      35.979  31.776  29.606  1.00  0.00    -0.744 OA
ENDBRANCH  76  77
ENDBRANCH  55  69
BRANCH  56  81
ATOM     81  C   UNL A   1      49.653  26.377  26.356  1.00  0.00     0.058 A 
ATOM     82  C   UNL A   1      50.069  26.424  25.016  1.00  0.00     0.135 A 
ATOM     83  C   UNL A   1      50.583  25.941  27.313  1.00  0.00     0.135 A 
ATOM     84  F   UNL A   1      49.216  26.827  24.062  1.00  0.00    -0.206 F 
ATOM     85  C   UNL A   1      51.350  26.036  24.637  1.00  0.00     0.059 A 
ATOM     86  C   UNL A   1      51.879  25.575  26.961  1.00  0.00     0.059 A 
ATOM     87  F   UNL A   1      50.241  25.893  28.610  1.00  0.00    -0.206 F 
ATOM     88  C   UNL A   1      52.250  25.616  25.619  1.00  0.00     0.060 A 
BRANCH  88  89
ATOM     89  S   UNL A   1      53.922  25.157  25.119  1.00  0.00     0.124 S 
ATOM     90  O   UNL A   1      54.062  25.881  23.860  1.00  0.00    -0.237 OA
ATOM     91  O   UNL A   1      54.722  25.655  26.233  1.00  0.00    -0.237 OA
ATOM     92  O   UNL A   1      53.853  23.704  25.006  1.00  0.00    -0.744 OA
ENDBRANCH  88  89
ENDBRANCH  56  81
BRANCH  68  93
ATOM     93  C   UNL A   1      46.802  32.430  28.368  1.00  0.00     0.058 A 
ATOM     94  C   UNL A   1      46.840  33.432  27.387  1.00  0.00     0.135 A 
ATOM     95  C   UNL A   1      47.252  32.759  29.659  1.00  0.00     0.135 A 
ATOM     96  F   UNL A   1      46.429  33.169  26.137  1.00  0.00    -0.206 F 
ATOM     97  C   UNL A   1      47.317  34.707  27.670  1.00  0.00     0.059 A 
ATOM     98  C   UNL A   1      47.705  34.036  29.971  1.00  0.00     0.059 A 
ATOM     99  F   UNL A   1      47.229  31.842  30.638  1.00  0.00    -0.206 F 
ATOM    100  C   UNL A   1      47.742  35.002  28.968  1.00  0.00     0.060 A 
BRANCH 100 101
ATOM    101  S   UNL A   1      48.308  36.678  29.333  1.00  0.00     0.124 S 
ATOM    102  O   UNL A   1      47.063  37.433  29.253  1.00  0.00    -0.237 OA
ATOM    103  O   UNL A   1      48.876  36.530  30.668  1.00  0.00    -0.237 OA
ATOM    104  O   UNL A   1      49.275  36.948  28.273  1.00  0.00    -0.744 OA
ENDBRANCH 100 101
ENDBRANCH  68  93
ENDBRANCH  42  43
ENDBRANCH  34  37
ENDBRANCH  32  33
ENDBRANCH  31  32
ENDBRANCH   1  31
TORSDOF 19
ENDMDL
MODEL 3
REMARK VINA RESULT:     -11.0      6.480     11.243
REMARK SMILES CCOc1ccccc1[C@H](C(=O)NCCCCNC(=O)c1ccc(-c2c3nc(c(-c4c(F)cc(S(=O)(=O)[O-])cc4F)c4ccc([nH]4)c(-c4c(F)cc(S(=O)(=O)[O-])cc4F)c4nc(c(-c5c(F)cc(S(=O)(=O)[O-])cc5F)c5ccc2[nH]5)C=C4)C=C3)cc1)[NH+]1CCC([NH+]2CCSCC2)CC1
REMARK SMILES IDX 15 1 14 2 13 3 11 4 12 5 10 7 9 8 4 9 5 10 6 11 8 12 7 13
REMARK SMILES IDX 3 14 2 15 1 16 87 17 88 18 98 19 89 21 97 22 90 23 91 24
REMARK SMILES IDX 92 25 96 26 93 28 95 29 94 30 16 31 17 32 18 33 19 34 20 36
REMARK SMILES IDX 21 37 22 38 86 39 23 40 85 41 24 42 25 43 26 44 79 45 27 46
REMARK SMILES IDX 84 47 78 48 80 49 28 50 83 51 77 52 76 53 29 55 63 56 42 57
REMARK SMILES IDX 62 58 43 59 46 60 61 61 81 62 44 63 45 64 60 66 82 67 47 68
REMARK SMILES IDX 30 69 31 70 40 71 32 72 33 73 39 74 41 75 34 76 35 77 36 78
REMARK SMILES IDX 37 79 38 80 64 81 65 82 74 83 66 84 67 85 73 86 75 87 68 88
REMARK SMILES IDX 69 89 70 90 71 91 72 92 48 93 49 94 58 95 50 96 51 97 57 98
REMARK SMILES IDX 59 99 52 100 53 101 54 102 55 103 56 104
REMARK H PARENT 13 6 87 20 91 27 18 35 80 54 46 65
REMARK Flexibility Score: inf
ROOT
ATOM      1  C   UNL A   1      33.838  28.657  25.782  1.00  0.00     0.023 C 
ENDROOT
BRANCH   1   2
ATOM      2  C   UNL A   1      33.413  27.215  26.041  1.00  0.00     0.116 C 
BRANCH   2   3
ATOM      3  N   UNL A   1      34.166  26.297  25.209  1.00  0.00    -0.351 N 
ATOM      4  C   UNL A   1      33.741  25.425  24.247  1.00  0.00     0.283 C 
ATOM      5  O   UNL A   1      34.640  24.804  23.670  1.00  0.00    -0.268 OA
ATOM      6  H   UNL A   1      35.139  26.303  25.361  1.00  0.00     0.163 HD
BRANCH   4   7
ATOM      7  C   UNL A   1      32.223  25.197  24.000  1.00  0.00     0.309 C 
BRANCH   7   8
ATOM      8  C   UNL A   1      31.514  24.226  24.964  1.00  0.00     0.061 A 
ATOM      9  C   UNL A   1      31.563  22.822  24.881  1.00  0.00     0.128 A 
ATOM     10  C   UNL A   1      30.834  22.026  25.772  1.00  0.00     0.047 A 
ATOM     11  C   UNL A   1      30.093  22.614  26.798  1.00  0.00     0.004 A 
ATOM     12  C   UNL A   1      30.781  24.794  26.028  1.00  0.00     0.014 A 
ATOM     13  C   UNL A   1      30.078  23.998  26.934  1.00  0.00     0.001 A 
BRANCH   9  14
ATOM     14  O   UNL A   1      32.203  22.218  23.836  1.00  0.00    -0.493 OA
BRANCH  14  15
ATOM     15  C   UNL A   1      33.053  21.131  24.211  1.00  0.00     0.226 C 
ATOM     16  C   UNL A   1      32.543  19.878  23.521  1.00  0.00     0.049 C 
ENDBRANCH  14  15
ENDBRANCH   9  14
ENDBRANCH   7   8
BRANCH   7  17
ATOM     17  N   UNL A   1      31.418  26.457  23.803  1.00  0.00    -0.320 N 
ATOM     18  C   UNL A   1      31.929  27.319  22.733  1.00  0.00     0.269 C 
ATOM     19  C   UNL A   1      29.978  26.208  23.628  1.00  0.00     0.269 C 
ATOM     20  H   UNL A   1      31.536  26.966  24.678  1.00  0.00     0.349 HD
ATOM     21  C   UNL A   1      31.219  28.674  22.745  1.00  0.00     0.126 C 
ATOM     22  C   UNL A   1      29.179  27.518  23.617  1.00  0.00     0.126 C 
ATOM     23  C   UNL A   1      29.709  28.483  22.536  1.00  0.00     0.195 C 
BRANCH  23  24
ATOM     24  N   UNL A   1      28.911  29.734  22.424  1.00  0.00    -0.331 N 
ATOM     25  C   UNL A   1      29.216  30.455  21.167  1.00  0.00     0.273 C 
ATOM     26  C   UNL A   1      29.025  30.628  23.590  1.00  0.00     0.273 C 
ATOM     27  H   UNL A   1      27.937  29.431  22.404  1.00  0.00     0.348 HD
ATOM     28  C   UNL A   1      28.267  31.619  20.856  1.00  0.00     0.131 C 
ATOM     29  C   UNL A   1      28.037  31.803  23.558  1.00  0.00     0.131 C 
ATOM     30  S   UNL A   1      28.314  32.905  22.141  1.00  0.00    -0.150 SA
ENDBRANCH  23  24
ENDBRANCH   7  17
ENDBRANCH   4   7
ENDBRANCH   2   3
ENDBRANCH   1   2
BRANCH   1  31
ATOM     31  C   UNL A   1      33.965  29.521  27.042  1.00  0.00     0.023 C 
BRANCH  31  32
ATOM     32  C   UNL A   1      35.218  29.260  27.872  1.00  0.00     0.116 C 
BRANCH  32  33
ATOM     33  N   UNL A   1      35.296  30.158  29.015  1.00  0.00    -0.352 N 
ATOM     34  C   UNL A   1      36.342  30.358  29.878  1.00  0.00     0.251 C 
ATOM     35  H   UNL A   1      34.490  30.694  29.191  1.00  0.00     0.163 HD
ATOM     36  O   UNL A   1      36.157  30.938  30.949  1.00  0.00    -0.269 OA
BRANCH  34  37
ATOM     37  C   UNL A   1      37.690  29.872  29.519  1.00  0.00     0.039 A 
ATOM     38  C   UNL A   1      38.101  29.902  28.184  1.00  0.00     0.014 A 
ATOM     39  C   UNL A   1      38.546  29.385  30.510  1.00  0.00     0.014 A 
ATOM     40  C   UNL A   1      39.394  29.492  27.851  1.00  0.00     0.010 A 
ATOM     41  C   UNL A   1      39.857  29.049  30.187  1.00  0.00     0.010 A 
ATOM     42  C   UNL A   1      40.293  29.092  28.853  1.00  0.00    -0.014 A 
BRANCH  42  43
ATOM     43  C   UNL A   1      41.689  28.694  28.539  1.00  0.00     0.031 A 
ATOM     44  C   UNL A   1      42.771  29.740  28.494  1.00  0.00     0.074 A 
ATOM     45  C   UNL A   1      41.968  27.415  28.215  1.00  0.00     0.049 A 
ATOM     46  N   UNL A   1      44.019  29.623  28.123  1.00  0.00    -0.248 NA
ATOM     47  C   UNL A   1      42.389  31.104  28.894  1.00  0.00     0.031 C 
ATOM     48  C   UNL A   1      40.999  26.318  28.190  1.00  0.00     0.029 A 
ATOM     49  N   UNL A   1      43.145  26.826  27.827  1.00  0.00    -0.354 N 
ATOM     50  C   UNL A   1      44.566  30.898  28.226  1.00  0.00     0.074 A 
ATOM     51  C   UNL A   1      43.499  31.782  28.644  1.00  0.00     0.031 C 
ATOM     52  C   UNL A   1      41.623  25.188  27.820  1.00  0.00     0.029 A 
ATOM     53  C   UNL A   1      43.023  25.488  27.536  1.00  0.00     0.049 A 
ATOM     54  H   UNL A   1      43.997  27.315  27.764  1.00  0.00     0.167 HD
ATOM     55  C   UNL A   1      45.844  31.291  28.012  1.00  0.00     0.037 A 
ATOM     56  C   UNL A   1      43.932  24.605  27.074  1.00  0.00     0.037 A 
ATOM     57  C   UNL A   1      46.903  30.399  27.617  1.00  0.00     0.049 A 
ATOM     58  C   UNL A   1      45.343  25.068  26.826  1.00  0.00     0.074 A 
ATOM     59  C   UNL A   1      48.241  30.688  27.420  1.00  0.00     0.029 A 
ATOM     60  N   UNL A   1      46.743  29.045  27.356  1.00  0.00    -0.354 N 
ATOM     61  N   UNL A   1      45.855  26.267  26.975  1.00  0.00    -0.248 NA
ATOM     62  C   UNL A   1      46.302  24.062  26.351  1.00  0.00     0.031 C 
ATOM     63  C   UNL A   1      48.881  29.521  26.990  1.00  0.00     0.029 A 
ATOM     64  C   UNL A   1      47.955  28.491  26.981  1.00  0.00     0.049 A 
ATOM     65  H   UNL A   1      45.894  28.552  27.426  1.00  0.00     0.167 HD
ATOM     66  C   UNL A   1      47.203  26.149  26.653  1.00  0.00     0.074 A 
ATOM     67  C   UNL A   1      47.427  24.762  26.300  1.00  0.00     0.031 C 
ATOM     68  C   UNL A   1      48.168  27.101  26.654  1.00  0.00     0.037 A 
BRANCH  55  69
ATOM     69  C   UNL A   1      46.169  32.749  28.196  1.00  0.00     0.058 A 
ATOM     70  C   UNL A   1      46.016  33.678  27.153  1.00  0.00     0.135 A 
ATOM     71  C   UNL A   1      46.603  33.232  29.441  1.00  0.00     0.135 A 
ATOM     72  F   UNL A   1      45.619  33.270  25.937  1.00  0.00    -0.206 F 
ATOM     73  C   UNL A   1      46.312  35.026  27.328  1.00  0.00     0.059 A 
ATOM     74  C   UNL A   1      46.874  34.583  29.648  1.00  0.00     0.059 A 
ATOM     75  F   UNL A   1      46.767  32.391  30.473  1.00  0.00    -0.206 F 
ATOM     76  C   UNL A   1      46.739  35.469  28.581  1.00  0.00     0.060 A 
BRANCH  76  77
ATOM     77  S   UNL A   1      47.114  37.221  28.792  1.00  0.00     0.124 S 
ATOM     78  O   UNL A   1      46.035  37.844  28.029  1.00  0.00    -0.237 OA
ATOM     79  O   UNL A   1      47.042  37.384  30.240  1.00  0.00    -0.237 OA
ATOM     80  O   UNL A   1      48.447  37.357  28.214  1.00  0.00    -0.744 OA
ENDBRANCH  76  77
ENDBRANCH  55  69
BRANCH  56  81
ATOM     81  C   UNL A   1      43.539  23.190  26.831  1.00  0.00     0.058 A 
ATOM     82  C   UNL A   1      43.324  22.307  27.901  1.00  0.00     0.135 A 
ATOM     83  C   UNL A   1      43.360  22.693  25.530  1.00  0.00     0.135 A 
ATOM     84  F   UNL A   1      43.487  22.731  29.164  1.00  0.00    -0.206 F 
ATOM     85  C   UNL A   1      42.965  20.979  27.690  1.00  0.00     0.059 A 
ATOM     86  C   UNL A   1      42.973  21.377  25.295  1.00  0.00     0.059 A 
ATOM     87  F   UNL A   1      43.537  23.500  24.472  1.00  0.00    -0.206 F 
ATOM     88  C   UNL A   1      42.788  20.524  26.382  1.00  0.00     0.060 A 
BRANCH  88  89
ATOM     89  S   UNL A   1      42.280  18.812  26.124  1.00  0.00     0.124 S 
ATOM     90  O   UNL A   1      40.893  18.977  25.703  1.00  0.00    -0.237 OA
ATOM     91  O   UNL A   1      43.211  18.368  25.092  1.00  0.00    -0.237 OA
ATOM     92  O   UNL A   1      42.471  18.203  27.436  1.00  0.00    -0.744 OA
ENDBRANCH  88  89
ENDBRANCH  56  81
BRANCH  68  93
ATOM     93  C   UNL A   1      49.573  26.675  26.325  1.00  0.00     0.058 A 
ATOM     94  C   UNL A   1      50.117  26.826  25.041  1.00  0.00     0.135 A 
ATOM     95  C   UNL A   1      50.412  26.179  27.339  1.00  0.00     0.135 A 
ATOM     96  F   UNL A   1      49.358  27.289  24.036  1.00  0.00    -0.206 F 
ATOM     97  C   UNL A   1      51.438  26.485  24.768  1.00  0.00     0.059 A 
ATOM     98  C   UNL A   1      51.743  25.860  27.094  1.00  0.00     0.059 A 
ATOM     99  F   UNL A   1      49.945  26.024  28.588  1.00  0.00    -0.206 F 
ATOM    100  C   UNL A   1      52.245  26.010  25.804  1.00  0.00     0.060 A 
BRANCH 100 101
ATOM    101  S   UNL A   1      53.973  25.623  25.445  1.00  0.00     0.124 S 
ATOM    102  O   UNL A   1      54.097  24.283  26.007  1.00  0.00    -0.237 OA
ATOM    103  O   UNL A   1      54.014  25.709  23.989  1.00  0.00    -0.237 OA
ATOM    104  O   UNL A   1      54.708  26.670  26.150  1.00  0.00    -0.744 OA
ENDBRANCH 100 101
ENDBRANCH  68  93
ENDBRANCH  42  43
ENDBRANCH  34  37
ENDBRANCH  32  33
ENDBRANCH  31  32
ENDBRANCH   1  31
TORSDOF 19
ENDMDL
