MODEL 1
REMARK VINA RESULT:     -13.9      0.000      0.000
REMARK SMILES Cc1ccc(C(=O)C[C@@H](C(=O)NCCCCNC(=O)c2ccc(-c3c4nc(c(-c5c(F)cc(S(=O)(=O)[O-])cc5F)c5ccc([nH]5)c(-c5c(F)cc(S(=O)(=O)[O-])cc5F)c5nc(c(-c6c(F)cc(S(=O)(=O)[O-])cc6F)c6ccc3[nH]6)C=C5)C=C4)cc2)[NH+]2CC[NH+](Cc3ccccc3)CC2)cc1
REMARK SMILES IDX 14 1 13 2 12 3 10 4 11 5 9 7 8 8 6 9 7 10 5 11 1 12 2 13
REMARK SMILES IDX 3 14 100 15 4 16 99 17 86 18 87 19 98 20 88 22 97 23 89 24
REMARK SMILES IDX 90 26 91 27 92 28 96 29 93 30 95 31 94 32 15 33 16 34 17 35
REMARK SMILES IDX 18 36 19 38 20 39 21 40 85 41 22 42 84 43 23 44 24 45 25 46
REMARK SMILES IDX 78 47 26 48 83 49 77 50 79 51 27 52 82 53 76 54 75 55 28 57
REMARK SMILES IDX 62 58 41 59 61 60 42 61 45 62 60 63 80 64 43 65 44 66 59 68
REMARK SMILES IDX 81 69 46 70 29 71 30 72 39 73 31 74 32 75 38 76 40 77 33 78
REMARK SMILES IDX 34 79 35 80 36 81 37 82 63 83 64 84 73 85 65 86 66 87 72 88
REMARK SMILES IDX 74 89 67 90 68 91 69 92 70 93 71 94 47 95 48 96 57 97 49 98
REMARK SMILES IDX 50 99 56 100 58 101 51 102 52 103 53 104 54 105 55 106
REMARK H PARENT 12 6 86 21 89 25 17 37 79 56 45 67
REMARK Flexibility Score: inf
ROOT
ATOM      1  C   UNL A   1      31.648  28.649  27.557  1.00  0.00     0.023 C 
ENDROOT
BRANCH   1   2
ATOM      2  C   UNL A   1      31.937  27.429  26.689  1.00  0.00     0.116 C 
BRANCH   2   3
ATOM      3  N   UNL A   1      31.011  26.329  26.890  1.00  0.00    -0.351 N 
ATOM      4  C   UNL A   1      30.601  25.324  26.071  1.00  0.00     0.278 C 
ATOM      5  O   UNL A   1      29.681  24.611  26.491  1.00  0.00    -0.268 OA
ATOM      6  H   UNL A   1      30.604  26.308  27.786  1.00  0.00     0.163 HD
BRANCH   4   7
ATOM      7  C   UNL A   1      31.288  25.033  24.709  1.00  0.00     0.282 C 
BRANCH   7   8
ATOM      8  C   UNL A   1      30.331  25.322  23.532  1.00  0.00     0.156 C 
BRANCH   8   9
ATOM      9  C   UNL A   1      30.595  26.663  22.858  1.00  0.00     0.169 C 
ATOM     10  O   UNL A   1      31.474  26.764  22.001  1.00  0.00    -0.294 OA
BRANCH   9  11
ATOM     11  C   UNL A   1      29.837  27.887  23.271  1.00  0.00     0.018 A 
ATOM     12  C   UNL A   1      27.711  31.615  23.211  1.00  0.00     0.044 C 
ATOM     13  C   UNL A   1      28.408  30.303  23.425  1.00  0.00    -0.051 A 
ATOM     14  C   UNL A   1      27.733  29.101  23.193  1.00  0.00     0.004 A 
ATOM     15  C   UNL A   1      29.772  30.267  23.720  1.00  0.00     0.004 A 
ATOM     16  C   UNL A   1      28.443  27.895  23.125  1.00  0.00     0.012 A 
ATOM     17  C   UNL A   1      30.476  29.061  23.670  1.00  0.00     0.012 A 
ENDBRANCH   9  11
ENDBRANCH   8   9
ENDBRANCH   7   8
BRANCH   7  18
ATOM     18  N   UNL A   1      31.713  23.595  24.636  1.00  0.00    -0.315 N 
ATOM     19  C   UNL A   1      32.273  23.230  23.327  1.00  0.00     0.325 C 
ATOM     20  C   UNL A   1      32.533  23.110  25.761  1.00  0.00     0.325 C 
ATOM     21  H   UNL A   1      30.836  23.084  24.742  1.00  0.00     0.349 HD
ATOM     22  C   UNL A   1      33.339  22.113  23.334  1.00  0.00     0.324 C 
ATOM     23  C   UNL A   1      32.966  21.620  25.688  1.00  0.00     0.324 C 
ATOM     24  N   UNL A   1      33.175  21.077  24.348  1.00  0.00    -0.322 N 
ATOM     25  H   UNL A   1      34.089  20.626  24.398  1.00  0.00     0.348 HD
BRANCH  24  26
ATOM     26  C   UNL A   1      32.367  19.920  23.977  1.00  0.00     0.299 C 
BRANCH  26  27
ATOM     27  C   UNL A   1      32.861  18.511  24.249  1.00  0.00     0.006 A 
ATOM     28  C   UNL A   1      32.480  17.879  25.446  1.00  0.00     0.009 A 
ATOM     29  C   UNL A   1      33.580  17.749  23.319  1.00  0.00     0.009 A 
ATOM     30  C   UNL A   1      32.837  16.554  25.712  1.00  0.00     0.001 A 
ATOM     31  C   UNL A   1      33.959  16.433  23.591  1.00  0.00     0.001 A 
ATOM     32  C   UNL A   1      33.585  15.833  24.787  1.00  0.00     0.000 A 
ENDBRANCH  26  27
ENDBRANCH  24  26
ENDBRANCH   7  18
ENDBRANCH   4   7
ENDBRANCH   2   3
ENDBRANCH   1   2
BRANCH   1  33
ATOM     33  C   UNL A   1      32.010  30.008  26.959  1.00  0.00     0.023 C 
BRANCH  33  34
ATOM     34  C   UNL A   1      33.463  30.209  26.552  1.00  0.00     0.116 C 
BRANCH  34  35
ATOM     35  N   UNL A   1      34.006  31.409  27.210  1.00  0.00    -0.352 N 
ATOM     36  C   UNL A   1      35.108  31.541  28.024  1.00  0.00     0.251 C 
ATOM     37  H   UNL A   1      33.507  32.242  27.042  1.00  0.00     0.163 HD
ATOM     38  O   UNL A   1      35.421  32.591  28.573  1.00  0.00    -0.269 OA
BRANCH  36  39
ATOM     39  C   UNL A   1      35.912  30.327  28.197  1.00  0.00     0.039 A 
ATOM     40  C   UNL A   1      35.942  29.787  29.488  1.00  0.00     0.014 A 
ATOM     41  C   UNL A   1      36.937  30.126  27.277  1.00  0.00     0.014 A 
ATOM     42  C   UNL A   1      37.126  29.234  29.952  1.00  0.00     0.010 A 
ATOM     43  C   UNL A   1      38.124  29.613  27.757  1.00  0.00     0.010 A 
ATOM     44  C   UNL A   1      38.240  29.260  29.118  1.00  0.00    -0.014 A 
BRANCH  44  45
ATOM     45  C   UNL A   1      39.602  29.123  29.619  1.00  0.00     0.031 A 
ATOM     46  C   UNL A   1      40.347  27.868  29.392  1.00  0.00     0.074 A 
ATOM     47  C   UNL A   1      40.232  30.194  30.158  1.00  0.00     0.049 A 
ATOM     48  N   UNL A   1      41.479  27.596  29.944  1.00  0.00    -0.248 NA
ATOM     49  C   UNL A   1      39.838  26.772  28.566  1.00  0.00     0.031 C 
ATOM     50  C   UNL A   1      41.675  30.393  30.284  1.00  0.00     0.029 A 
ATOM     51  N   UNL A   1      39.680  31.236  30.908  1.00  0.00    -0.354 N 
ATOM     52  C   UNL A   1      41.997  26.514  29.281  1.00  0.00     0.074 A 
ATOM     53  C   UNL A   1      40.889  25.947  28.558  1.00  0.00     0.031 C 
ATOM     54  C   UNL A   1      41.911  31.315  31.228  1.00  0.00     0.029 A 
ATOM     55  C   UNL A   1      40.643  31.630  31.858  1.00  0.00     0.049 A 
ATOM     56  H   UNL A   1      38.782  31.623  30.795  1.00  0.00     0.167 HD
ATOM     57  C   UNL A   1      43.345  26.337  29.275  1.00  0.00     0.037 A 
ATOM     58  C   UNL A   1      40.405  31.527  33.199  1.00  0.00     0.037 A 
ATOM     59  C   UNL A   1      43.982  27.090  30.355  1.00  0.00     0.049 A 
ATOM     60  C   UNL A   1      41.322  30.570  33.929  1.00  0.00     0.074 A 
ATOM     61  C   UNL A   1      44.822  28.187  30.407  1.00  0.00     0.029 A 
ATOM     62  N   UNL A   1      43.559  26.858  31.664  1.00  0.00    -0.354 N 
ATOM     63  N   UNL A   1      42.161  29.765  33.337  1.00  0.00    -0.248 NA
ATOM     64  C   UNL A   1      41.345  30.417  35.383  1.00  0.00     0.031 C 
ATOM     65  C   UNL A   1      44.780  28.698  31.738  1.00  0.00     0.029 A 
ATOM     66  C   UNL A   1      43.966  27.878  32.501  1.00  0.00     0.049 A 
ATOM     67  H   UNL A   1      43.040  26.074  31.953  1.00  0.00     0.167 HD
ATOM     68  C   UNL A   1      42.738  28.937  34.262  1.00  0.00     0.074 A 
ATOM     69  C   UNL A   1      42.241  29.426  35.535  1.00  0.00     0.031 C 
ATOM     70  C   UNL A   1      43.544  27.893  33.900  1.00  0.00     0.037 A 
BRANCH  57  71
ATOM     71  C   UNL A   1      44.089  25.643  28.153  1.00  0.00     0.058 A 
ATOM     72  C   UNL A   1      44.079  26.175  26.847  1.00  0.00     0.135 A 
ATOM     73  C   UNL A   1      44.702  24.372  28.267  1.00  0.00     0.135 A 
ATOM     74  F   UNL A   1      43.491  27.353  26.590  1.00  0.00    -0.206 F 
ATOM     75  C   UNL A   1      44.639  25.504  25.750  1.00  0.00     0.059 A 
ATOM     76  C   UNL A   1      45.315  23.712  27.203  1.00  0.00     0.059 A 
ATOM     77  F   UNL A   1      44.672  23.662  29.403  1.00  0.00    -0.206 F 
ATOM     78  C   UNL A   1      45.258  24.273  25.939  1.00  0.00     0.060 A 
BRANCH  78  79
ATOM     79  S   UNL A   1      45.959  23.386  24.535  1.00  0.00     0.124 S 
ATOM     80  O   UNL A   1      46.549  22.220  25.185  1.00  0.00    -0.237 OA
ATOM     81  O   UNL A   1      44.786  23.129  23.705  1.00  0.00    -0.237 OA
ATOM     82  O   UNL A   1      46.915  24.339  23.976  1.00  0.00    -0.744 OA
ENDBRANCH  78  79
ENDBRANCH  57  71
BRANCH  58  83
ATOM     83  C   UNL A   1      38.999  31.844  33.565  1.00  0.00     0.058 A 
ATOM     84  C   UNL A   1      38.668  33.204  33.706  1.00  0.00     0.135 A 
ATOM     85  C   UNL A   1      37.958  30.942  33.302  1.00  0.00     0.135 A 
ATOM     86  F   UNL A   1      39.628  34.105  33.976  1.00  0.00    -0.206 F 
ATOM     87  C   UNL A   1      37.394  33.677  33.417  1.00  0.00     0.059 A 
ATOM     88  C   UNL A   1      36.669  31.396  33.012  1.00  0.00     0.059 A 
ATOM     89  F   UNL A   1      38.216  29.634  33.163  1.00  0.00    -0.206 F 
ATOM     90  C   UNL A   1      36.422  32.770  33.000  1.00  0.00     0.060 A 
BRANCH  90  91
ATOM     91  S   UNL A   1      34.929  33.441  32.226  1.00  0.00     0.124 S 
ATOM     92  O   UNL A   1      34.198  33.954  33.377  1.00  0.00    -0.237 OA
ATOM     93  O   UNL A   1      35.495  34.448  31.330  1.00  0.00    -0.237 OA
ATOM     94  O   UNL A   1      34.343  32.279  31.567  1.00  0.00    -0.744 OA
ENDBRANCH  90  91
ENDBRANCH  58  83
BRANCH  70  95
ATOM     95  C   UNL A   1      44.043  26.815  34.837  1.00  0.00     0.058 A 
ATOM     96  C   UNL A   1      43.270  25.723  35.273  1.00  0.00     0.135 A 
ATOM     97  C   UNL A   1      45.401  26.794  35.235  1.00  0.00     0.135 A 
ATOM     98  F   UNL A   1      42.006  25.554  34.860  1.00  0.00    -0.206 F 
ATOM     99  C   UNL A   1      43.778  24.733  36.119  1.00  0.00     0.059 A 
ATOM    100  C   UNL A   1      45.943  25.787  36.032  1.00  0.00     0.059 A 
ATOM    101  F   UNL A   1      46.253  27.758  34.852  1.00  0.00    -0.206 F 
ATOM    102  C   UNL A   1      45.115  24.778  36.500  1.00  0.00     0.060 A 
BRANCH 102 103
ATOM    103  S   UNL A   1      45.791  23.491  37.567  1.00  0.00     0.124 S 
ATOM    104  O   UNL A   1      45.070  23.738  38.812  1.00  0.00    -0.237 OA
ATOM    105  O   UNL A   1      45.433  22.261  36.866  1.00  0.00    -0.237 OA
ATOM    106  O   UNL A   1      47.218  23.795  37.592  1.00  0.00    -0.744 OA
ENDBRANCH 102 103
ENDBRANCH  70  95
ENDBRANCH  44  45
ENDBRANCH  36  39
ENDBRANCH  34  35
ENDBRANCH  33  34
ENDBRANCH   1  33
TORSDOF 20
ENDMDL
MODEL 2
REMARK VINA RESULT:     -12.9      1.185      5.145
REMARK SMILES Cc1ccc(C(=O)C[C@@H](C(=O)NCCCCNC(=O)c2ccc(-c3c4nc(c(-c5c(F)cc(S(=O)(=O)[O-])cc5F)c5ccc([nH]5)c(-c5c(F)cc(S(=O)(=O)[O-])cc5F)c5nc(c(-c6c(F)cc(S(=O)(=O)[O-])cc6F)c6ccc3[nH]6)C=C5)C=C4)cc2)[NH+]2CC[NH+](Cc3ccccc3)CC2)cc1
REMARK SMILES IDX 14 1 13 2 12 3 10 4 11 5 9 7 8 8 6 9 7 10 5 11 1 12 2 13
REMARK SMILES IDX 3 14 100 15 4 16 99 17 86 18 87 19 98 20 88 22 97 23 89 24
REMARK SMILES IDX 90 26 91 27 92 28 96 29 93 30 95 31 94 32 15 33 16 34 17 35
REMARK SMILES IDX 18 36 19 38 20 39 21 40 85 41 22 42 84 43 23 44 24 45 25 46
REMARK SMILES IDX 78 47 26 48 83 49 77 50 79 51 27 52 82 53 76 54 75 55 28 57
REMARK SMILES IDX 62 58 41 59 61 60 42 61 45 62 60 63 80 64 43 65 44 66 59 68
REMARK SMILES IDX 81 69 46 70 29 71 30 72 39 73 31 74 32 75 38 76 40 77 33 78
REMARK SMILES IDX 34 79 35 80 36 81 37 82 63 83 64 84 73 85 65 86 66 87 72 88
REMARK SMILES IDX 74 89 67 90 68 91 69 92 70 93 71 94 47 95 48 96 57 97 49 98
REMARK SMILES IDX 50 99 56 100 58 101 51 102 52 103 53 104 54 105 55 106
REMARK H PARENT 12 6 86 21 89 25 17 37 79 56 45 67
REMARK Flexibility Score: inf
ROOT
ATOM      1  C   UNL A   1      31.678  28.171  27.652  1.00  0.00     0.023 C 
ENDROOT
BRANCH   1   2
ATOM      2  C   UNL A   1      32.033  27.051  26.679  1.00  0.00     0.116 C 
BRANCH   2   3
ATOM      3  N   UNL A   1      31.802  25.718  27.204  1.00  0.00    -0.351 N 
ATOM      4  C   UNL A   1      31.580  24.525  26.591  1.00  0.00     0.278 C 
ATOM      5  O   UNL A   1      31.273  23.576  27.324  1.00  0.00    -0.268 OA
ATOM      6  H   UNL A   1      31.806  25.669  28.187  1.00  0.00     0.163 HD
BRANCH   4   7
ATOM      7  C   UNL A   1      31.766  24.332  25.062  1.00  0.00     0.282 C 
BRANCH   7   8
ATOM      8  C   UNL A   1      33.240  24.031  24.716  1.00  0.00     0.156 C 
BRANCH   8   9
ATOM      9  C   UNL A   1      33.757  22.746  25.353  1.00  0.00     0.169 C 
ATOM     10  O   UNL A   1      34.619  22.792  26.231  1.00  0.00    -0.294 OA
BRANCH   9  11
ATOM     11  C   UNL A   1      33.271  21.411  24.878  1.00  0.00     0.018 A 
ATOM     12  C   UNL A   1      32.940  17.652  22.832  1.00  0.00     0.044 C 
ATOM     13  C   UNL A   1      32.895  18.910  23.651  1.00  0.00    -0.051 A 
ATOM     14  C   UNL A   1      33.640  19.010  24.829  1.00  0.00     0.004 A 
ATOM     15  C   UNL A   1      32.226  20.040  23.176  1.00  0.00     0.004 A 
ATOM     16  C   UNL A   1      33.821  20.254  25.447  1.00  0.00     0.012 A 
ATOM     17  C   UNL A   1      32.392  21.277  23.803  1.00  0.00     0.012 A 
ENDBRANCH   9  11
ENDBRANCH   8   9
ENDBRANCH   7   8
BRANCH   7  18
ATOM     18  N   UNL A   1      31.347  25.572  24.325  1.00  0.00    -0.315 N 
ATOM     19  C   UNL A   1      32.190  25.854  23.153  1.00  0.00     0.325 C 
ATOM     20  C   UNL A   1      29.907  25.688  24.031  1.00  0.00     0.325 C 
ATOM     21  H   UNL A   1      31.514  26.316  25.002  1.00  0.00     0.349 HD
ATOM     22  C   UNL A   1      31.498  26.585  21.983  1.00  0.00     0.324 C 
ATOM     23  C   UNL A   1      29.473  26.974  23.276  1.00  0.00     0.324 C 
ATOM     24  N   UNL A   1      30.453  27.535  22.348  1.00  0.00    -0.322 N 
ATOM     25  H   UNL A   1      29.929  27.678  21.484  1.00  0.00     0.348 HD
BRANCH  24  26
ATOM     26  C   UNL A   1      30.875  28.910  22.593  1.00  0.00     0.299 C 
BRANCH  26  27
ATOM     27  C   UNL A   1      29.861  30.040  22.610  1.00  0.00     0.006 A 
ATOM     28  C   UNL A   1      29.132  30.314  21.439  1.00  0.00     0.009 A 
ATOM     29  C   UNL A   1      29.517  30.754  23.765  1.00  0.00     0.009 A 
ATOM     30  C   UNL A   1      28.129  31.287  21.420  1.00  0.00     0.001 A 
ATOM     31  C   UNL A   1      28.531  31.744  23.745  1.00  0.00     0.001 A 
ATOM     32  C   UNL A   1      27.834  32.009  22.572  1.00  0.00     0.000 A 
ENDBRANCH  26  27
ENDBRANCH  24  26
ENDBRANCH   7  18
ENDBRANCH   4   7
ENDBRANCH   2   3
ENDBRANCH   1   2
BRANCH   1  33
ATOM     33  C   UNL A   1      31.833  29.598  27.129  1.00  0.00     0.023 C 
BRANCH  33  34
ATOM     34  C   UNL A   1      33.175  29.954  26.504  1.00  0.00     0.116 C 
BRANCH  34  35
ATOM     35  N   UNL A   1      33.694  31.194  27.105  1.00  0.00    -0.352 N 
ATOM     36  C   UNL A   1      34.760  31.377  27.957  1.00  0.00     0.251 C 
ATOM     37  H   UNL A   1      33.207  32.015  26.861  1.00  0.00     0.163 HD
ATOM     38  O   UNL A   1      35.053  32.460  28.449  1.00  0.00    -0.269 OA
BRANCH  36  39
ATOM     39  C   UNL A   1      35.550  30.175  28.245  1.00  0.00     0.039 A 
ATOM     40  C   UNL A   1      35.710  29.853  29.597  1.00  0.00     0.014 A 
ATOM     41  C   UNL A   1      36.461  29.785  27.268  1.00  0.00     0.014 A 
ATOM     42  C   UNL A   1      36.924  29.334  30.019  1.00  0.00     0.010 A 
ATOM     43  C   UNL A   1      37.682  29.308  27.699  1.00  0.00     0.010 A 
ATOM     44  C   UNL A   1      37.939  29.177  29.080  1.00  0.00    -0.014 A 
BRANCH  44  45
ATOM     45  C   UNL A   1      39.345  29.069  29.450  1.00  0.00     0.031 A 
ATOM     46  C   UNL A   1      40.066  27.797  29.237  1.00  0.00     0.074 A 
ATOM     47  C   UNL A   1      40.025  30.171  29.848  1.00  0.00     0.049 A 
ATOM     48  N   UNL A   1      41.248  27.557  29.691  1.00  0.00    -0.248 NA
ATOM     49  C   UNL A   1      39.478  26.649  28.544  1.00  0.00     0.031 C 
ATOM     50  C   UNL A   1      41.473  30.370  29.815  1.00  0.00     0.029 A 
ATOM     51  N   UNL A   1      39.549  31.265  30.576  1.00  0.00    -0.354 N 
ATOM     52  C   UNL A   1      41.698  26.429  29.056  1.00  0.00     0.074 A 
ATOM     53  C   UNL A   1      40.525  25.820  28.488  1.00  0.00     0.031 C 
ATOM     54  C   UNL A   1      41.801  31.354  30.664  1.00  0.00     0.029 A 
ATOM     55  C   UNL A   1      40.602  31.719  31.395  1.00  0.00     0.049 A 
ATOM     56  H   UNL A   1      38.643  31.648  30.526  1.00  0.00     0.167 HD
ATOM     57  C   UNL A   1      43.039  26.245  28.927  1.00  0.00     0.037 A 
ATOM     58  C   UNL A   1      40.499  31.710  32.757  1.00  0.00     0.037 A 
ATOM     59  C   UNL A   1      43.780  27.067  29.883  1.00  0.00     0.049 A 
ATOM     60  C   UNL A   1      41.487  30.800  33.456  1.00  0.00     0.074 A 
ATOM     61  C   UNL A   1      44.620  28.161  29.774  1.00  0.00     0.029 A 
ATOM     62  N   UNL A   1      43.491  26.929  31.241  1.00  0.00    -0.354 N 
ATOM     63  N   UNL A   1      42.263  29.952  32.840  1.00  0.00    -0.248 NA
ATOM     64  C   UNL A   1      41.655  30.748  34.907  1.00  0.00     0.031 C 
ATOM     65  C   UNL A   1      44.711  28.763  31.064  1.00  0.00     0.029 A 
ATOM     66  C   UNL A   1      43.978  28.002  31.961  1.00  0.00     0.049 A 
ATOM     67  H   UNL A   1      43.005  26.169  31.634  1.00  0.00     0.167 HD
ATOM     68  C   UNL A   1      42.932  29.186  33.758  1.00  0.00     0.074 A 
ATOM     69  C   UNL A   1      42.564  29.765  35.038  1.00  0.00     0.031 C 
ATOM     70  C   UNL A   1      43.698  28.115  33.390  1.00  0.00     0.037 A 
BRANCH  57  71
ATOM     71  C   UNL A   1      43.668  25.472  27.787  1.00  0.00     0.058 A 
ATOM     72  C   UNL A   1      44.370  24.274  28.031  1.00  0.00     0.135 A 
ATOM     73  C   UNL A   1      43.741  25.937  26.451  1.00  0.00     0.135 A 
ATOM     74  F   UNL A   1      44.419  23.745  29.263  1.00  0.00    -0.206 F 
ATOM     75  C   UNL A   1      45.080  23.593  27.032  1.00  0.00     0.059 A 
ATOM     76  C   UNL A   1      44.393  25.247  25.429  1.00  0.00     0.059 A 
ATOM     77  F   UNL A   1      43.253  27.127  26.079  1.00  0.00    -0.206 F 
ATOM     78  C   UNL A   1      45.083  24.087  25.731  1.00  0.00     0.060 A 
BRANCH  78  79
ATOM     79  S   UNL A   1      46.012  23.238  24.440  1.00  0.00     0.124 S 
ATOM     80  O   UNL A   1      47.000  24.246  24.073  1.00  0.00    -0.237 OA
ATOM     81  O   UNL A   1      46.526  22.064  25.140  1.00  0.00    -0.237 OA
ATOM     82  O   UNL A   1      44.999  22.957  23.425  1.00  0.00    -0.744 OA
ENDBRANCH  78  79
ENDBRANCH  57  71
BRANCH  58  83
ATOM     83  C   UNL A   1      39.137  32.059  33.239  1.00  0.00     0.058 A 
ATOM     84  C   UNL A   1      38.782  33.420  33.219  1.00  0.00     0.135 A 
ATOM     85  C   UNL A   1      38.101  31.114  33.238  1.00  0.00     0.135 A 
ATOM     86  F   UNL A   1      39.739  34.363  33.237  1.00  0.00    -0.206 F 
ATOM     87  C   UNL A   1      37.470  33.828  33.019  1.00  0.00     0.059 A 
ATOM     88  C   UNL A   1      36.773  31.502  33.042  1.00  0.00     0.059 A 
ATOM     89  F   UNL A   1      38.381  29.803  33.262  1.00  0.00    -0.206 F 
ATOM     90  C   UNL A   1      36.484  32.856  32.859  1.00  0.00     0.060 A 
BRANCH  90  91
ATOM     91  S   UNL A   1      34.891  33.384  32.181  1.00  0.00     0.124 S 
ATOM     92  O   UNL A   1      35.291  34.443  31.263  1.00  0.00    -0.237 OA
ATOM     93  O   UNL A   1      34.416  32.149  31.560  1.00  0.00    -0.237 OA
ATOM     94  O   UNL A   1      34.150  33.813  33.362  1.00  0.00    -0.744 OA
ENDBRANCH  90  91
ENDBRANCH  58  83
BRANCH  70  95
ATOM     95  C   UNL A   1      44.291  27.102  34.345  1.00  0.00     0.058 A 
ATOM     96  C   UNL A   1      43.569  26.044  34.927  1.00  0.00     0.135 A 
ATOM     97  C   UNL A   1      45.681  27.105  34.609  1.00  0.00     0.135 A 
ATOM     98  F   UNL A   1      42.271  25.851  34.650  1.00  0.00    -0.206 F 
ATOM     99  C   UNL A   1      44.161  25.112  35.783  1.00  0.00     0.059 A 
ATOM    100  C   UNL A   1      46.302  26.153  35.416  1.00  0.00     0.059 A 
ATOM    101  F   UNL A   1      46.487  28.039  34.081  1.00  0.00    -0.206 F 
ATOM    102  C   UNL A   1      45.528  25.180  36.029  1.00  0.00     0.060 A 
BRANCH 102 103
ATOM    103  S   UNL A   1      46.310  23.966  37.110  1.00  0.00     0.124 S 
ATOM    104  O   UNL A   1      47.614  23.810  36.476  1.00  0.00    -0.237 OA
ATOM    105  O   UNL A   1      46.317  24.638  38.407  1.00  0.00    -0.237 OA
ATOM    106  O   UNL A   1      45.418  22.814  37.016  1.00  0.00    -0.744 OA
ENDBRANCH 102 103
ENDBRANCH  70  95
ENDBRANCH  44  45
ENDBRANCH  36  39
ENDBRANCH  34  35
ENDBRANCH  33  34
ENDBRANCH   1  33
TORSDOF 20
ENDMDL
MODEL 3
REMARK VINA RESULT:     -12.8      2.211      5.309
REMARK SMILES Cc1ccc(C(=O)C[C@@H](C(=O)NCCCCNC(=O)c2ccc(-c3c4nc(c(-c5c(F)cc(S(=O)(=O)[O-])cc5F)c5ccc([nH]5)c(-c5c(F)cc(S(=O)(=O)[O-])cc5F)c5nc(c(-c6c(F)cc(S(=O)(=O)[O-])cc6F)c6ccc3[nH]6)C=C5)C=C4)cc2)[NH+]2CC[NH+](Cc3ccccc3)CC2)cc1
REMARK SMILES IDX 14 1 13 2 12 3 10 4 11 5 9 7 8 8 6 9 7 10 5 11 1 12 2 13
REMARK SMILES IDX 3 14 100 15 4 16 99 17 86 18 87 19 98 20 88 22 97 23 89 24
REMARK SMILES IDX 90 26 91 27 92 28 96 29 93 30 95 31 94 32 15 33 16 34 17 35
REMARK SMILES IDX 18 36 19 38 20 39 21 40 85 41 22 42 84 43 23 44 24 45 25 46
REMARK SMILES IDX 78 47 26 48 83 49 77 50 79 51 27 52 82 53 76 54 75 55 28 57
REMARK SMILES IDX 62 58 41 59 61 60 42 61 45 62 60 63 80 64 43 65 44 66 59 68
REMARK SMILES IDX 81 69 46 70 29 71 30 72 39 73 31 74 32 75 38 76 40 77 33 78
REMARK SMILES IDX 34 79 35 80 36 81 37 82 63 83 64 84 73 85 65 86 66 87 72 88
REMARK SMILES IDX 74 89 67 90 68 91 69 92 70 93 71 94 47 95 48 96 57 97 49 98
REMARK SMILES IDX 50 99 56 100 58 101 51 102 52 103 53 104 54 105 55 106
REMARK H PARENT 12 6 86 21 89 25 17 37 79 56 45 67
REMARK Flexibility Score: inf
ROOT
ATOM      1  C   UNL A   1      31.870  28.349  27.649  1.00  0.00     0.023 C 
ENDROOT
BRANCH   1   2
ATOM      2  C   UNL A   1      31.391  27.340  26.611  1.00  0.00     0.116 C 
BRANCH   2   3
ATOM      3  N   UNL A   1      31.336  25.973  27.097  1.00  0.00    -0.351 N 
ATOM      4  C   UNL A   1      31.670  24.789  26.521  1.00  0.00     0.278 C 
ATOM      5  O   UNL A   1      31.373  23.765  27.150  1.00  0.00    -0.268 OA
ATOM      6  H   UNL A   1      30.993  25.889  28.016  1.00  0.00     0.163 HD
BRANCH   4   7
ATOM      7  C   UNL A   1      32.445  24.711  25.178  1.00  0.00     0.282 C 
BRANCH   7   8
ATOM      8  C   UNL A   1      33.970  24.702  25.417  1.00  0.00     0.156 C 
BRANCH   8   9
ATOM      9  C   UNL A   1      34.665  23.483  24.819  1.00  0.00     0.169 C 
ATOM     10  O   UNL A   1      34.021  22.660  24.167  1.00  0.00    -0.294 OA
BRANCH   9  11
ATOM     11  C   UNL A   1      36.122  23.238  25.067  1.00  0.00     0.018 A 
ATOM     12  C   UNL A   1      39.830  21.929  26.785  1.00  0.00     0.044 C 
ATOM     13  C   UNL A   1      38.642  22.452  26.031  1.00  0.00    -0.051 A 
ATOM     14  C   UNL A   1      37.921  21.609  25.181  1.00  0.00     0.004 A 
ATOM     15  C   UNL A   1      38.160  23.740  26.275  1.00  0.00     0.004 A 
ATOM     16  C   UNL A   1      36.668  22.003  24.693  1.00  0.00     0.012 A 
ATOM     17  C   UNL A   1      36.920  24.139  25.772  1.00  0.00     0.012 A 
ENDBRANCH   9  11
ENDBRANCH   8   9
ENDBRANCH   7   8
BRANCH   7  18
ATOM     18  N   UNL A   1      32.105  25.889  24.310  1.00  0.00    -0.315 N 
ATOM     19  C   UNL A   1      33.294  26.545  23.746  1.00  0.00     0.325 C 
ATOM     20  C   UNL A   1      31.050  25.663  23.306  1.00  0.00     0.325 C 
ATOM     21  H   UNL A   1      31.678  26.546  24.962  1.00  0.00     0.349 HD
ATOM     22  C   UNL A   1      33.102  27.228  22.375  1.00  0.00     0.324 C 
ATOM     23  C   UNL A   1      30.693  26.884  22.415  1.00  0.00     0.324 C 
ATOM     24  N   UNL A   1      31.787  27.808  22.125  1.00  0.00    -0.322 N 
ATOM     25  H   UNL A   1      31.753  27.930  21.113  1.00  0.00     0.348 HD
BRANCH  24  26
ATOM     26  C   UNL A   1      31.597  29.197  22.532  1.00  0.00     0.299 C 
BRANCH  26  27
ATOM     27  C   UNL A   1      30.214  29.824  22.521  1.00  0.00     0.006 A 
ATOM     28  C   UNL A   1      29.673  30.291  23.732  1.00  0.00     0.009 A 
ATOM     29  C   UNL A   1      29.488  30.077  21.350  1.00  0.00     0.009 A 
ATOM     30  C   UNL A   1      28.441  30.950  23.768  1.00  0.00     0.001 A 
ATOM     31  C   UNL A   1      28.245  30.714  21.385  1.00  0.00     0.001 A 
ATOM     32  C   UNL A   1      27.722  31.154  22.595  1.00  0.00     0.000 A 
ENDBRANCH  26  27
ENDBRANCH  24  26
ENDBRANCH   7  18
ENDBRANCH   4   7
ENDBRANCH   2   3
ENDBRANCH   1   2
BRANCH   1  33
ATOM     33  C   UNL A   1      32.084  29.779  27.157  1.00  0.00     0.023 C 
BRANCH  33  34
ATOM     34  C   UNL A   1      33.478  30.126  26.653  1.00  0.00     0.116 C 
BRANCH  34  35
ATOM     35  N   UNL A   1      34.019  31.263  27.417  1.00  0.00    -0.352 N 
ATOM     36  C   UNL A   1      35.118  31.320  28.244  1.00  0.00     0.251 C 
ATOM     37  H   UNL A   1      33.520  32.107  27.323  1.00  0.00     0.163 HD
ATOM     38  O   UNL A   1      35.429  32.318  28.886  1.00  0.00    -0.269 OA
BRANCH  36  39
ATOM     39  C   UNL A   1      35.921  30.096  28.311  1.00  0.00     0.039 A 
ATOM     40  C   UNL A   1      36.140  29.572  29.591  1.00  0.00     0.014 A 
ATOM     41  C   UNL A   1      36.790  29.866  27.249  1.00  0.00     0.014 A 
ATOM     42  C   UNL A   1      37.373  29.006  29.877  1.00  0.00     0.010 A 
ATOM     43  C   UNL A   1      38.029  29.340  27.550  1.00  0.00     0.010 A 
ATOM     44  C   UNL A   1      38.347  29.002  28.882  1.00  0.00    -0.014 A 
BRANCH  44  45
ATOM     45  C   UNL A   1      39.767  28.850  29.171  1.00  0.00     0.031 A 
ATOM     46  C   UNL A   1      40.403  27.521  29.058  1.00  0.00     0.074 A 
ATOM     47  C   UNL A   1      40.531  29.946  29.396  1.00  0.00     0.049 A 
ATOM     48  N   UNL A   1      41.600  27.261  29.460  1.00  0.00    -0.248 NA
ATOM     49  C   UNL A   1      39.707  26.341  28.541  1.00  0.00     0.031 C 
ATOM     50  C   UNL A   1      41.981  30.052  29.247  1.00  0.00     0.029 A 
ATOM     51  N   UNL A   1      40.166  31.140  30.023  1.00  0.00    -0.354 N 
ATOM     52  C   UNL A   1      41.943  26.045  28.930  1.00  0.00     0.074 A 
ATOM     53  C   UNL A   1      40.702  25.449  28.512  1.00  0.00     0.031 C 
ATOM     54  C   UNL A   1      42.421  31.102  29.955  1.00  0.00     0.029 A 
ATOM     55  C   UNL A   1      41.298  31.617  30.715  1.00  0.00     0.049 A 
ATOM     56  H   UNL A   1      39.282  31.570  29.988  1.00  0.00     0.167 HD
ATOM     57  C   UNL A   1      43.260  25.767  28.737  1.00  0.00     0.037 A 
ATOM     58  C   UNL A   1      41.292  31.765  32.073  1.00  0.00     0.037 A 
ATOM     59  C   UNL A   1      44.109  26.643  29.543  1.00  0.00     0.049 A 
ATOM     60  C   UNL A   1      42.276  30.880  32.807  1.00  0.00     0.074 A 
ATOM     61  C   UNL A   1      44.996  27.664  29.256  1.00  0.00     0.029 A 
ATOM     62  N   UNL A   1      43.910  26.673  30.924  1.00  0.00    -0.354 N 
ATOM     63  N   UNL A   1      42.961  29.923  32.243  1.00  0.00    -0.248 NA
ATOM     64  C   UNL A   1      42.544  30.977  34.240  1.00  0.00     0.031 C 
ATOM     65  C   UNL A   1      45.210  28.399  30.460  1.00  0.00     0.029 A 
ATOM     66  C   UNL A   1      44.503  27.787  31.483  1.00  0.00     0.049 A 
ATOM     67  H   UNL A   1      43.413  25.992  31.432  1.00  0.00     0.167 HD
ATOM     68  C   UNL A   1      43.651  29.224  33.197  1.00  0.00     0.074 A 
ATOM     69  C   UNL A   1      43.406  29.962  34.423  1.00  0.00     0.031 C 
ATOM     70  C   UNL A   1      44.332  28.075  32.905  1.00  0.00     0.037 A 
BRANCH  57  71
ATOM     71  C   UNL A   1      43.764  24.835  27.655  1.00  0.00     0.058 A 
ATOM     72  C   UNL A   1      43.409  25.041  26.306  1.00  0.00     0.135 A 
ATOM     73  C   UNL A   1      44.475  23.635  27.901  1.00  0.00     0.135 A 
ATOM     74  F   UNL A   1      42.696  26.117  25.940  1.00  0.00    -0.206 F 
ATOM     75  C   UNL A   1      43.739  24.136  25.287  1.00  0.00     0.059 A 
ATOM     76  C   UNL A   1      44.864  22.749  26.897  1.00  0.00     0.059 A 
ATOM     77  F   UNL A   1      44.764  23.215  29.139  1.00  0.00    -0.206 F 
ATOM     78  C   UNL A   1      44.470  22.992  25.592  1.00  0.00     0.060 A 
BRANCH  78  79
ATOM     79  S   UNL A   1      44.880  21.806  24.299  1.00  0.00     0.124 S 
ATOM     80  O   UNL A   1      44.434  22.507  23.100  1.00  0.00    -0.237 OA
ATOM     81  O   UNL A   1      46.324  21.657  24.452  1.00  0.00    -0.237 OA
ATOM     82  O   UNL A   1      44.096  20.627  24.661  1.00  0.00    -0.744 OA
ENDBRANCH  78  79
ENDBRANCH  57  71
BRANCH  58  83
ATOM     83  C   UNL A   1      39.987  32.247  32.599  1.00  0.00     0.058 A 
ATOM     84  C   UNL A   1      39.126  31.281  33.153  1.00  0.00     0.135 A 
ATOM     85  C   UNL A   1      39.809  33.581  32.992  1.00  0.00     0.135 A 
ATOM     86  F   UNL A   1      39.246  29.991  32.794  1.00  0.00    -0.206 F 
ATOM     87  C   UNL A   1      38.252  31.591  34.186  1.00  0.00     0.059 A 
ATOM     88  C   UNL A   1      38.933  33.916  34.027  1.00  0.00     0.059 A 
ATOM     89  F   UNL A   1      40.598  34.544  32.493  1.00  0.00    -0.206 F 
ATOM     90  C   UNL A   1      38.218  32.900  34.663  1.00  0.00     0.060 A 
BRANCH  90  91
ATOM     91  S   UNL A   1      37.414  33.187  36.260  1.00  0.00     0.124 S 
ATOM     92  O   UNL A   1      37.472  31.865  36.868  1.00  0.00    -0.237 OA
ATOM     93  O   UNL A   1      38.290  34.198  36.848  1.00  0.00    -0.237 OA
ATOM     94  O   UNL A   1      36.085  33.657  35.885  1.00  0.00    -0.744 OA
ENDBRANCH  90  91
ENDBRANCH  58  83
BRANCH  70  95
ATOM     95  C   UNL A   1      44.936  27.139  33.929  1.00  0.00     0.058 A 
ATOM     96  C   UNL A   1      44.212  26.156  34.630  1.00  0.00     0.135 A 
ATOM     97  C   UNL A   1      46.335  27.132  34.147  1.00  0.00     0.135 A 
ATOM     98  F   UNL A   1      42.902  25.970  34.416  1.00  0.00    -0.206 F 
ATOM     99  C   UNL A   1      44.814  25.293  35.549  1.00  0.00     0.059 A 
ATOM    100  C   UNL A   1      46.963  26.243  35.017  1.00  0.00     0.059 A 
ATOM    101  F   UNL A   1      47.141  27.993  33.508  1.00  0.00    -0.206 F 
ATOM    102  C   UNL A   1      46.190  25.349  35.742  1.00  0.00     0.060 A 
BRANCH 102 103
ATOM    103  S   UNL A   1      46.983  24.221  36.904  1.00  0.00     0.124 S 
ATOM    104  O   UNL A   1      47.776  25.144  37.710  1.00  0.00    -0.237 OA
ATOM    105  O   UNL A   1      45.850  23.603  37.588  1.00  0.00    -0.237 OA
ATOM    106  O   UNL A   1      47.742  23.327  36.035  1.00  0.00    -0.744 OA
ENDBRANCH 102 103
ENDBRANCH  70  95
ENDBRANCH  44  45
ENDBRANCH  36  39
ENDBRANCH  34  35
ENDBRANCH  33  34
ENDBRANCH   1  33
TORSDOF 20
ENDMDL
