MODEL 1
REMARK VINA RESULT:     -12.5      0.000      0.000
REMARK SMILES C[C@@H](C(=O)NCCCCNC(=O)c1ccc(-c2c3nc(c(-c4c(F)cc(S(=O)(=O)[O-])cc4F)c4ccc([nH]4)c(-c4c(F)cc(S(=O)(=O)[O-])cc4F)c4nc(c(-c5c(F)cc(S(=O)(=O)[O-])cc5F)c5ccc2[nH]5)C=C4)C=C3)cc1)N1C(=O)/C(=C/c2ccc(-c3ccc([N+](=O)[O-])cc3Cl)o2)SC1=S
REMARK SMILES IDX 7 1 6 2 5 3 3 4 4 5 2 7 1 8 79 9 80 10 100 11 81 12 82 13
REMARK SMILES IDX 99 14 101 15 83 16 84 17 85 18 98 19 86 20 87 21 88 22 89 23
REMARK SMILES IDX 96 24 90 25 95 26 97 27 91 28 92 29 93 30 94 31 8 32 9 33
REMARK SMILES IDX 10 34 11 35 12 37 13 38 14 39 78 40 15 41 77 42 16 43 17 44
REMARK SMILES IDX 18 45 71 46 19 47 76 48 70 49 72 50 20 51 75 52 69 53 68 54
REMARK SMILES IDX 21 56 55 57 34 58 54 59 35 60 38 61 53 62 73 63 36 64 37 65
REMARK SMILES IDX 52 67 74 68 39 69 22 70 23 71 32 72 24 73 25 74 31 75 33 76
REMARK SMILES IDX 26 77 27 78 28 79 29 80 30 81 56 82 57 83 66 84 58 85 59 86
REMARK SMILES IDX 65 87 67 88 60 89 61 90 62 91 63 92 64 93 40 94 41 95 50 96
REMARK SMILES IDX 42 97 43 98 49 99 51 100 44 101 45 102 46 103 47 104 48 105
REMARK H PARENT 5 6 10 36 72 55 38 66
REMARK Flexibility Score: inf
ROOT
ATOM      1  C   UNL A   1      33.641  31.774  27.593  1.00  0.00     0.023 C 
ENDROOT
BRANCH   1   2
ATOM      2  C   UNL A   1      32.365  31.086  27.093  1.00  0.00     0.116 C 
BRANCH   2   3
ATOM      3  N   UNL A   1      32.470  30.743  25.683  1.00  0.00    -0.354 N 
ATOM      4  C   UNL A   1      32.225  29.550  25.055  1.00  0.00     0.242 C 
ATOM      5  O   UNL A   1      32.735  29.362  23.948  1.00  0.00    -0.273 OA
ATOM      6  H   UNL A   1      32.759  31.477  25.093  1.00  0.00     0.163 HD
BRANCH   4   7
ATOM      7  C   UNL A   1      31.436  28.443  25.801  1.00  0.00     0.178 C 
ATOM      8  C   UNL A   1      32.137  28.377  27.172  1.00  0.00     0.042 C 
BRANCH   7   9
ATOM      9  N   UNL A   1      31.435  27.114  25.130  1.00  0.00    -0.281 N 
ATOM     10  C   UNL A   1      32.611  26.389  25.000  1.00  0.00     0.267 C 
ATOM     11  C   UNL A   1      30.449  26.680  24.263  1.00  0.00     0.149 C 
ATOM     12  O   UNL A   1      33.754  26.814  25.111  1.00  0.00    -0.268 OA
ATOM     13  C   UNL A   1      32.325  25.031  24.463  1.00  0.00     0.084 C 
ATOM     14  S   UNL A   1      30.744  25.011  23.798  1.00  0.00    -0.054 SA
ATOM     15  S   UNL A   1      29.169  27.517  23.591  1.00  0.00    -0.052 S 
ATOM     16  C   UNL A   1      33.212  24.026  24.513  1.00  0.00     0.068 C 
BRANCH  16  17
ATOM     17  C   UNL A   1      32.963  22.764  23.906  1.00  0.00     0.128 A 
ATOM     18  C   UNL A   1      32.456  22.503  22.636  1.00  0.00     0.051 A 
ATOM     19  O   UNL A   1      33.203  21.551  24.516  1.00  0.00    -0.457 OA
ATOM     20  C   UNL A   1      32.341  21.106  22.493  1.00  0.00     0.051 A 
ATOM     21  C   UNL A   1      32.787  20.561  23.675  1.00  0.00     0.136 A 
BRANCH  21  22
ATOM     22  C   UNL A   1      32.910  19.185  24.137  1.00  0.00     0.036 A 
ATOM     23  C   UNL A   1      32.887  18.164  23.169  1.00  0.00     0.020 A 
ATOM     24  C   UNL A   1      32.953  18.823  25.496  1.00  0.00     0.058 A 
ATOM     25  C   UNL A   1      32.887  16.816  23.537  1.00  0.00     0.086 A 
ATOM     26  C   UNL A   1      32.954  17.473  25.875  1.00  0.00     0.106 A 
ATOM     27  Cl  UNL A   1      32.923  19.994  26.770  1.00  0.00    -0.083 Cl
ATOM     28  C   UNL A   1      32.909  16.477  24.894  1.00  0.00     0.270 A 
BRANCH  28  29
ATOM     29  N   UNL A   1      32.847  15.064  25.288  1.00  0.00     0.062 N 
ATOM     30  O   UNL A   1      31.735  14.594  25.570  1.00  0.00    -0.258 OA
ATOM     31  O   UNL A   1      33.910  14.430  25.334  1.00  0.00    -0.258 OA
ENDBRANCH  28  29
ENDBRANCH  21  22
ENDBRANCH  16  17
ENDBRANCH   7   9
ENDBRANCH   4   7
ENDBRANCH   2   3
ENDBRANCH   1   2
BRANCH   1  32
ATOM     32  C   UNL A   1      34.804  30.829  27.907  1.00  0.00     0.023 C 
BRANCH  32  33
ATOM     33  C   UNL A   1      35.857  31.390  28.855  1.00  0.00     0.116 C 
BRANCH  33  34
ATOM     34  N   UNL A   1      35.719  30.883  30.211  1.00  0.00    -0.352 N 
ATOM     35  C   UNL A   1      36.623  30.184  30.978  1.00  0.00     0.251 C 
ATOM     36  H   UNL A   1      34.853  31.066  30.643  1.00  0.00     0.163 HD
ATOM     37  O   UNL A   1      36.270  29.723  32.056  1.00  0.00    -0.269 OA
BRANCH  35  38
ATOM     38  C   UNL A   1      38.002  29.964  30.486  1.00  0.00     0.039 A 
ATOM     39  C   UNL A   1      38.981  29.562  31.398  1.00  0.00     0.014 A 
ATOM     40  C   UNL A   1      38.332  30.152  29.141  1.00  0.00     0.014 A 
ATOM     41  C   UNL A   1      40.273  29.279  30.949  1.00  0.00     0.010 A 
ATOM     42  C   UNL A   1      39.604  29.810  28.684  1.00  0.00     0.010 A 
ATOM     43  C   UNL A   1      40.584  29.367  29.583  1.00  0.00    -0.014 A 
BRANCH  43  44
ATOM     44  C   UNL A   1      41.926  28.978  29.079  1.00  0.00     0.031 A 
ATOM     45  C   UNL A   1      43.029  29.997  28.983  1.00  0.00     0.074 A 
ATOM     46  C   UNL A   1      42.131  27.716  28.649  1.00  0.00     0.049 A 
ATOM     47  N   UNL A   1      44.242  29.857  28.516  1.00  0.00    -0.248 NA
ATOM     48  C   UNL A   1      42.719  31.357  29.452  1.00  0.00     0.031 C 
ATOM     49  C   UNL A   1      41.124  26.652  28.637  1.00  0.00     0.029 A 
ATOM     50  N   UNL A   1      43.251  27.118  28.130  1.00  0.00    -0.354 N 
ATOM     51  C   UNL A   1      44.839  31.108  28.624  1.00  0.00     0.074 A 
ATOM     52  C   UNL A   1      43.837  32.006  29.159  1.00  0.00     0.031 C 
ATOM     53  C   UNL A   1      41.678  25.528  28.153  1.00  0.00     0.029 A 
ATOM     54  C   UNL A   1      43.066  25.797  27.794  1.00  0.00     0.049 A 
ATOM     55  H   UNL A   1      44.107  27.589  28.009  1.00  0.00     0.167 HD
ATOM     56  C   UNL A   1      46.109  31.469  28.325  1.00  0.00     0.037 A 
ATOM     57  C   UNL A   1      43.918  24.904  27.255  1.00  0.00     0.037 A 
ATOM     58  C   UNL A   1      47.111  30.566  27.821  1.00  0.00     0.049 A 
ATOM     59  C   UNL A   1      45.330  25.327  26.953  1.00  0.00     0.074 A 
ATOM     60  C   UNL A   1      48.441  30.825  27.541  1.00  0.00     0.029 A 
ATOM     61  N   UNL A   1      46.894  29.228  27.526  1.00  0.00    -0.354 N 
ATOM     62  N   UNL A   1      45.891  26.500  27.115  1.00  0.00    -0.248 NA
ATOM     63  C   UNL A   1      46.227  24.300  26.402  1.00  0.00     0.031 C 
ATOM     64  C   UNL A   1      49.023  29.650  27.050  1.00  0.00     0.029 A 
ATOM     65  C   UNL A   1      48.064  28.652  27.057  1.00  0.00     0.049 A 
ATOM     66  H   UNL A   1      46.036  28.758  27.634  1.00  0.00     0.167 HD
ATOM     67  C   UNL A   1      47.211  26.349  26.707  1.00  0.00     0.074 A 
ATOM     68  C   UNL A   1      47.368  24.967  26.304  1.00  0.00     0.031 C 
ATOM     69  C   UNL A   1      48.203  27.273  26.665  1.00  0.00     0.037 A 
BRANCH  56  70
ATOM     70  C   UNL A   1      46.497  32.902  28.555  1.00  0.00     0.058 A 
ATOM     71  C   UNL A   1      46.358  33.869  27.547  1.00  0.00     0.135 A 
ATOM     72  C   UNL A   1      46.968  33.325  29.808  1.00  0.00     0.135 A 
ATOM     73  F   UNL A   1      45.928  33.515  26.326  1.00  0.00    -0.206 F 
ATOM     74  C   UNL A   1      46.692  35.202  27.765  1.00  0.00     0.059 A 
ATOM     75  C   UNL A   1      47.286  34.658  30.057  1.00  0.00     0.059 A 
ATOM     76  F   UNL A   1      47.121  32.441  30.807  1.00  0.00    -0.206 F 
ATOM     77  C   UNL A   1      47.156  35.587  29.025  1.00  0.00     0.060 A 
BRANCH  77  78
ATOM     78  S   UNL A   1      47.569  37.322  29.298  1.00  0.00     0.124 S 
ATOM     79  O   UNL A   1      48.551  37.555  28.242  1.00  0.00    -0.237 OA
ATOM     80  O   UNL A   1      46.281  37.984  29.120  1.00  0.00    -0.237 OA
ATOM     81  O   UNL A   1      48.096  37.336  30.658  1.00  0.00    -0.744 OA
ENDBRANCH  77  78
ENDBRANCH  56  70
BRANCH  57  82
ATOM     82  C   UNL A   1      43.469  23.515  26.983  1.00  0.00     0.058 A 
ATOM     83  C   UNL A   1      43.174  23.096  25.678  1.00  0.00     0.135 A 
ATOM     84  C   UNL A   1      43.324  22.580  28.019  1.00  0.00     0.135 A 
ATOM     85  F   UNL A   1      43.294  23.957  24.655  1.00  0.00    -0.206 F 
ATOM     86  C   UNL A   1      42.727  21.807  25.408  1.00  0.00     0.059 A 
ATOM     87  C   UNL A   1      42.899  21.279  27.773  1.00  0.00     0.059 A 
ATOM     88  F   UNL A   1      43.611  22.927  29.284  1.00  0.00    -0.206 F 
ATOM     89  C   UNL A   1      42.590  20.905  26.465  1.00  0.00     0.060 A 
BRANCH  89  90
ATOM     90  S   UNL A   1      42.043  19.222  26.107  1.00  0.00     0.124 S 
ATOM     91  O   UNL A   1      42.426  18.524  27.329  1.00  0.00    -0.237 OA
ATOM     92  O   UNL A   1      40.611  19.400  25.894  1.00  0.00    -0.237 OA
ATOM     93  O   UNL A   1      42.807  18.872  24.912  1.00  0.00    -0.744 OA
ENDBRANCH  89  90
ENDBRANCH  57  82
BRANCH  69  94
ATOM     94  C   UNL A   1      49.551  26.808  26.191  1.00  0.00     0.058 A 
ATOM     95  C   UNL A   1      49.936  26.925  24.846  1.00  0.00     0.135 A 
ATOM     96  C   UNL A   1      50.477  26.269  27.097  1.00  0.00     0.135 A 
ATOM     97  F   UNL A   1      49.083  27.428  23.940  1.00  0.00    -0.206 F 
ATOM     98  C   UNL A   1      51.185  26.496  24.410  1.00  0.00     0.059 A 
ATOM     99  C   UNL A   1      51.740  25.855  26.686  1.00  0.00     0.059 A 
ATOM    100  F   UNL A   1      50.160  26.145  28.396  1.00  0.00    -0.206 F 
ATOM    101  C   UNL A   1      52.079  25.958  25.338  1.00  0.00     0.060 A 
BRANCH 101 102
ATOM    102  S   UNL A   1      53.706  25.421  24.767  1.00  0.00     0.124 S 
ATOM    103  O   UNL A   1      53.539  23.973  24.730  1.00  0.00    -0.237 OA
ATOM    104  O   UNL A   1      53.818  26.080  23.469  1.00  0.00    -0.237 OA
ATOM    105  O   UNL A   1      54.609  25.925  25.798  1.00  0.00    -0.744 OA
ENDBRANCH 101 102
ENDBRANCH  69  94
ENDBRANCH  43  44
ENDBRANCH  35  38
ENDBRANCH  33  34
ENDBRANCH  32  33
ENDBRANCH   1  32
TORSDOF 18
ENDMDL
MODEL 2
REMARK VINA RESULT:     -12.2      5.366      9.806
REMARK SMILES C[C@@H](C(=O)NCCCCNC(=O)c1ccc(-c2c3nc(c(-c4c(F)cc(S(=O)(=O)[O-])cc4F)c4ccc([nH]4)c(-c4c(F)cc(S(=O)(=O)[O-])cc4F)c4nc(c(-c5c(F)cc(S(=O)(=O)[O-])cc5F)c5ccc2[nH]5)C=C4)C=C3)cc1)N1C(=O)/C(=C/c2ccc(-c3ccc([N+](=O)[O-])cc3Cl)o2)SC1=S
REMARK SMILES IDX 7 1 6 2 5 3 3 4 4 5 2 7 1 8 79 9 80 10 100 11 81 12 82 13
REMARK SMILES IDX 99 14 101 15 83 16 84 17 85 18 98 19 86 20 87 21 88 22 89 23
REMARK SMILES IDX 96 24 90 25 95 26 97 27 91 28 92 29 93 30 94 31 8 32 9 33
REMARK SMILES IDX 10 34 11 35 12 37 13 38 14 39 78 40 15 41 77 42 16 43 17 44
REMARK SMILES IDX 18 45 71 46 19 47 76 48 70 49 72 50 20 51 75 52 69 53 68 54
REMARK SMILES IDX 21 56 55 57 34 58 54 59 35 60 38 61 53 62 73 63 36 64 37 65
REMARK SMILES IDX 52 67 74 68 39 69 22 70 23 71 32 72 24 73 25 74 31 75 33 76
REMARK SMILES IDX 26 77 27 78 28 79 29 80 30 81 56 82 57 83 66 84 58 85 59 86
REMARK SMILES IDX 65 87 67 88 60 89 61 90 62 91 63 92 64 93 40 94 41 95 50 96
REMARK SMILES IDX 42 97 43 98 49 99 51 100 44 101 45 102 46 103 47 104 48 105
REMARK H PARENT 5 6 10 36 72 55 38 66
REMARK Flexibility Score: inf
ROOT
ATOM      1  C   UNL A   1      35.607  33.521  33.095  1.00  0.00     0.023 C 
ENDROOT
BRANCH   1   2
ATOM      2  C   UNL A   1      35.389  34.669  32.103  1.00  0.00     0.116 C 
BRANCH   2   3
ATOM      3  N   UNL A   1      34.168  34.480  31.337  1.00  0.00    -0.354 N 
ATOM      4  C   UNL A   1      33.992  34.407  29.980  1.00  0.00     0.242 C 
ATOM      5  O   UNL A   1      32.866  34.632  29.529  1.00  0.00    -0.273 OA
ATOM      6  H   UNL A   1      33.346  34.392  31.873  1.00  0.00     0.163 HD
BRANCH   4   7
ATOM      7  C   UNL A   1      35.220  34.176  29.062  1.00  0.00     0.178 C 
ATOM      8  C   UNL A   1      34.696  34.577  27.669  1.00  0.00     0.042 C 
BRANCH   7   9
ATOM      9  N   UNL A   1      35.747  32.784  29.061  1.00  0.00    -0.281 N 
ATOM     10  C   UNL A   1      37.106  32.544  29.208  1.00  0.00     0.267 C 
ATOM     11  C   UNL A   1      35.074  31.696  28.534  1.00  0.00     0.149 C 
ATOM     12  O   UNL A   1      38.016  33.348  29.057  1.00  0.00    -0.268 OA
ATOM     13  C   UNL A   1      37.360  31.084  29.355  1.00  0.00     0.084 C 
ATOM     14  S   UNL A   1      35.968  30.218  28.853  1.00  0.00    -0.054 SA
ATOM     15  S   UNL A   1      33.672  31.642  27.626  1.00  0.00    -0.052 S 
ATOM     16  C   UNL A   1      38.523  30.590  29.804  1.00  0.00     0.068 C 
BRANCH  16  17
ATOM     17  C   UNL A   1      38.788  29.192  29.842  1.00  0.00     0.128 A 
ATOM     18  C   UNL A   1      38.407  28.268  30.809  1.00  0.00     0.051 A 
ATOM     19  O   UNL A   1      39.497  28.513  28.873  1.00  0.00    -0.457 OA
ATOM     20  C   UNL A   1      38.935  27.014  30.445  1.00  0.00     0.051 A 
ATOM     21  C   UNL A   1      39.616  27.213  29.266  1.00  0.00     0.136 A 
BRANCH  21  22
ATOM     22  C   UNL A   1      40.370  26.312  28.404  1.00  0.00     0.036 A 
ATOM     23  C   UNL A   1      39.653  25.562  27.452  1.00  0.00     0.020 A 
ATOM     24  C   UNL A   1      41.751  26.085  28.538  1.00  0.00     0.058 A 
ATOM     25  C   UNL A   1      40.286  24.596  26.666  1.00  0.00     0.086 A 
ATOM     26  C   UNL A   1      42.396  25.118  27.753  1.00  0.00     0.106 A 
ATOM     27  Cl  UNL A   1      42.717  26.906  29.716  1.00  0.00    -0.083 Cl
ATOM     28  C   UNL A   1      41.657  24.370  26.829  1.00  0.00     0.270 A 
BRANCH  28  29
ATOM     29  N   UNL A   1      42.315  23.315  26.050  1.00  0.00     0.062 N 
ATOM     30  O   UNL A   1      42.890  23.647  25.002  1.00  0.00    -0.258 OA
ATOM     31  O   UNL A   1      42.244  22.154  26.474  1.00  0.00    -0.258 OA
ENDBRANCH  28  29
ENDBRANCH  21  22
ENDBRANCH  16  17
ENDBRANCH   7   9
ENDBRANCH   4   7
ENDBRANCH   2   3
ENDBRANCH   1   2
BRANCH   1  32
ATOM     32  C   UNL A   1      35.784  33.952  34.553  1.00  0.00     0.023 C 
BRANCH  32  33
ATOM     33  C   UNL A   1      37.156  33.666  35.152  1.00  0.00     0.116 C 
BRANCH  33  34
ATOM     34  N   UNL A   1      37.090  32.815  36.328  1.00  0.00    -0.352 N 
ATOM     35  C   UNL A   1      37.837  31.704  36.645  1.00  0.00     0.251 C 
ATOM     36  H   UNL A   1      36.413  33.071  36.996  1.00  0.00     0.163 HD
ATOM     37  O   UNL A   1      37.539  31.036  37.628  1.00  0.00    -0.269 OA
BRANCH  35  38
ATOM     38  C   UNL A   1      38.971  31.300  35.784  1.00  0.00     0.039 A 
ATOM     39  C   UNL A   1      38.699  30.614  34.597  1.00  0.00     0.014 A 
ATOM     40  C   UNL A   1      40.292  31.591  36.137  1.00  0.00     0.014 A 
ATOM     41  C   UNL A   1      39.744  30.282  33.732  1.00  0.00     0.010 A 
ATOM     42  C   UNL A   1      41.326  31.316  35.245  1.00  0.00     0.010 A 
ATOM     43  C   UNL A   1      41.062  30.663  34.033  1.00  0.00    -0.014 A 
BRANCH  43  44
ATOM     44  C   UNL A   1      42.169  30.403  33.077  1.00  0.00     0.031 A 
ATOM     45  C   UNL A   1      42.920  29.100  33.119  1.00  0.00     0.074 A 
ATOM     46  C   UNL A   1      42.537  31.368  32.211  1.00  0.00     0.049 A 
ATOM     47  N   UNL A   1      43.948  28.718  32.407  1.00  0.00    -0.248 NA
ATOM     48  C   UNL A   1      42.471  28.106  34.107  1.00  0.00     0.031 C 
ATOM     49  C   UNL A   1      41.924  32.696  32.113  1.00  0.00     0.029 A 
ATOM     50  N   UNL A   1      43.521  31.388  31.256  1.00  0.00    -0.354 N 
ATOM     51  C   UNL A   1      44.277  27.447  32.864  1.00  0.00     0.074 A 
ATOM     52  C   UNL A   1      43.367  27.141  33.947  1.00  0.00     0.031 C 
ATOM     53  C   UNL A   1      42.534  33.391  31.140  1.00  0.00     0.029 A 
ATOM     54  C   UNL A   1      43.598  32.574  30.566  1.00  0.00     0.049 A 
ATOM     55  H   UNL A   1      44.117  30.624  31.081  1.00  0.00     0.167 HD
ATOM     56  C   UNL A   1      45.235  26.605  32.408  1.00  0.00     0.037 A 
ATOM     57  C   UNL A   1      44.433  32.962  29.582  1.00  0.00     0.037 A 
ATOM     58  C   UNL A   1      46.119  26.901  31.311  1.00  0.00     0.049 A 
ATOM     59  C   UNL A   1      45.473  31.998  29.081  1.00  0.00     0.074 A 
ATOM     60  C   UNL A   1      47.084  26.090  30.740  1.00  0.00     0.029 A 
ATOM     61  N   UNL A   1      46.142  28.100  30.615  1.00  0.00    -0.354 N 
ATOM     62  N   UNL A   1      45.731  30.779  29.488  1.00  0.00    -0.248 NA
ATOM     63  C   UNL A   1      46.330  32.460  27.980  1.00  0.00     0.031 C 
ATOM     64  C   UNL A   1      47.711  26.809  29.716  1.00  0.00     0.029 A 
ATOM     65  C   UNL A   1      47.113  28.055  29.627  1.00  0.00     0.049 A 
ATOM     66  H   UNL A   1      45.556  28.870  30.796  1.00  0.00     0.167 HD
ATOM     67  C   UNL A   1      46.765  30.321  28.681  1.00  0.00     0.074 A 
ATOM     68  C   UNL A   1      47.075  31.388  27.752  1.00  0.00     0.031 C 
ATOM     69  C   UNL A   1      47.404  29.125  28.708  1.00  0.00     0.037 A 
BRANCH  56  70
ATOM     70  C   UNL A   1      45.365  25.269  33.084  1.00  0.00     0.058 A 
ATOM     71  C   UNL A   1      46.198  25.092  34.200  1.00  0.00     0.135 A 
ATOM     72  C   UNL A   1      44.616  24.167  32.643  1.00  0.00     0.135 A 
ATOM     73  F   UNL A   1      46.948  26.108  34.652  1.00  0.00    -0.206 F 
ATOM     74  C   UNL A   1      46.300  23.862  34.843  1.00  0.00     0.059 A 
ATOM     75  C   UNL A   1      44.685  22.933  33.285  1.00  0.00     0.059 A 
ATOM     76  F   UNL A   1      43.805  24.281  31.579  1.00  0.00    -0.206 F 
ATOM     77  C   UNL A   1      45.539  22.788  34.378  1.00  0.00     0.060 A 
BRANCH  77  78
ATOM     78  S   UNL A   1      45.670  21.204  35.233  1.00  0.00     0.124 S 
ATOM     79  O   UNL A   1      44.474  20.517  34.754  1.00  0.00    -0.237 OA
ATOM     80  O   UNL A   1      46.940  20.683  34.739  1.00  0.00    -0.237 OA
ATOM     81  O   UNL A   1      45.656  21.577  36.644  1.00  0.00    -0.744 OA
ENDBRANCH  77  78
ENDBRANCH  56  70
BRANCH  57  82
ATOM     82  C   UNL A   1      44.309  34.319  28.990  1.00  0.00     0.058 A 
ATOM     83  C   UNL A   1      44.746  35.452  29.690  1.00  0.00     0.135 A 
ATOM     84  C   UNL A   1      43.750  34.509  27.717  1.00  0.00     0.135 A 
ATOM     85  F   UNL A   1      45.283  35.318  30.912  1.00  0.00    -0.206 F 
ATOM     86  C   UNL A   1      44.614  36.731  29.161  1.00  0.00     0.059 A 
ATOM     87  C   UNL A   1      43.626  35.777  27.158  1.00  0.00     0.059 A 
ATOM     88  F   UNL A   1      43.333  33.454  27.000  1.00  0.00    -0.206 F 
ATOM     89  C   UNL A   1      44.049  36.884  27.893  1.00  0.00     0.060 A 
BRANCH  89  90
ATOM     90  S   UNL A   1      43.912  38.544  27.197  1.00  0.00     0.124 S 
ATOM     91  O   UNL A   1      42.626  38.468  26.513  1.00  0.00    -0.237 OA
ATOM     92  O   UNL A   1      43.953  39.385  28.389  1.00  0.00    -0.237 OA
ATOM     93  O   UNL A   1      45.084  38.640  26.332  1.00  0.00    -0.744 OA
ENDBRANCH  89  90
ENDBRANCH  57  82
BRANCH  69  94
ATOM     94  C   UNL A   1      48.483  28.902  27.687  1.00  0.00     0.058 A 
ATOM     95  C   UNL A   1      49.810  29.291  27.925  1.00  0.00     0.135 A 
ATOM     96  C   UNL A   1      48.191  28.265  26.470  1.00  0.00     0.135 A 
ATOM     97  F   UNL A   1      50.138  29.910  29.070  1.00  0.00    -0.206 F 
ATOM     98  C   UNL A   1      50.808  29.082  26.978  1.00  0.00     0.059 A 
ATOM     99  C   UNL A   1      49.178  28.026  25.519  1.00  0.00     0.059 A 
ATOM    100  F   UNL A   1      46.939  27.866  26.199  1.00  0.00    -0.206 F 
ATOM    101  C   UNL A   1      50.480  28.451  25.776  1.00  0.00     0.060 A 
BRANCH 101 102
ATOM    102  S   UNL A   1      51.785  28.167  24.561  1.00  0.00     0.124 S 
ATOM    103  O   UNL A   1      51.860  26.710  24.548  1.00  0.00    -0.237 OA
ATOM    104  O   UNL A   1      51.237  28.785  23.357  1.00  0.00    -0.237 OA
ATOM    105  O   UNL A   1      52.938  28.851  25.138  1.00  0.00    -0.744 OA
ENDBRANCH 101 102
ENDBRANCH  69  94
ENDBRANCH  43  44
ENDBRANCH  35  38
ENDBRANCH  33  34
ENDBRANCH  32  33
ENDBRANCH   1  32
TORSDOF 18
ENDMDL
MODEL 3
REMARK VINA RESULT:     -12.1      6.580      7.977
REMARK SMILES C[C@@H](C(=O)NCCCCNC(=O)c1ccc(-c2c3nc(c(-c4c(F)cc(S(=O)(=O)[O-])cc4F)c4ccc([nH]4)c(-c4c(F)cc(S(=O)(=O)[O-])cc4F)c4nc(c(-c5c(F)cc(S(=O)(=O)[O-])cc5F)c5ccc2[nH]5)C=C4)C=C3)cc1)N1C(=O)/C(=C/c2ccc(-c3ccc([N+](=O)[O-])cc3Cl)o2)SC1=S
REMARK SMILES IDX 7 1 6 2 5 3 3 4 4 5 2 7 1 8 79 9 80 10 100 11 81 12 82 13
REMARK SMILES IDX 99 14 101 15 83 16 84 17 85 18 98 19 86 20 87 21 88 22 89 23
REMARK SMILES IDX 96 24 90 25 95 26 97 27 91 28 92 29 93 30 94 31 8 32 9 33
REMARK SMILES IDX 10 34 11 35 12 37 13 38 14 39 78 40 15 41 77 42 16 43 17 44
REMARK SMILES IDX 18 45 71 46 19 47 76 48 70 49 72 50 20 51 75 52 69 53 68 54
REMARK SMILES IDX 21 56 55 57 34 58 54 59 35 60 38 61 53 62 73 63 36 64 37 65
REMARK SMILES IDX 52 67 74 68 39 69 22 70 23 71 32 72 24 73 25 74 31 75 33 76
REMARK SMILES IDX 26 77 27 78 28 79 29 80 30 81 56 82 57 83 66 84 58 85 59 86
REMARK SMILES IDX 65 87 67 88 60 89 61 90 62 91 63 92 64 93 40 94 41 95 50 96
REMARK SMILES IDX 42 97 43 98 49 99 51 100 44 101 45 102 46 103 47 104 48 105
REMARK H PARENT 5 6 10 36 72 55 38 66
REMARK Flexibility Score: inf
ROOT
ATOM      1  C   UNL A   1      35.529  33.753  33.176  1.00  0.00     0.023 C 
ENDROOT
BRANCH   1   2
ATOM      2  C   UNL A   1      34.840  34.898  32.426  1.00  0.00     0.116 C 
BRANCH   2   3
ATOM      3  N   UNL A   1      33.837  34.394  31.502  1.00  0.00    -0.354 N 
ATOM      4  C   UNL A   1      33.848  34.366  30.132  1.00  0.00     0.242 C 
ATOM      5  O   UNL A   1      32.769  34.263  29.545  1.00  0.00    -0.273 OA
ATOM      6  H   UNL A   1      33.029  34.019  31.923  1.00  0.00     0.163 HD
BRANCH   4   7
ATOM      7  C   UNL A   1      35.183  34.591  29.375  1.00  0.00     0.178 C 
ATOM      8  C   UNL A   1      34.720  35.003  27.964  1.00  0.00     0.042 C 
BRANCH   7   9
ATOM      9  N   UNL A   1      36.081  33.404  29.324  1.00  0.00    -0.281 N 
ATOM     10  C   UNL A   1      37.453  33.551  29.471  1.00  0.00     0.267 C 
ATOM     11  C   UNL A   1      35.739  32.193  28.751  1.00  0.00     0.149 C 
ATOM     12  O   UNL A   1      38.099  34.585  29.358  1.00  0.00    -0.268 OA
ATOM     13  C   UNL A   1      38.109  32.219  29.563  1.00  0.00     0.084 C 
ATOM     14  S   UNL A   1      37.015  31.015  29.019  1.00  0.00    -0.054 SA
ATOM     15  S   UNL A   1      34.406  31.781  27.831  1.00  0.00    -0.052 S 
ATOM     16  C   UNL A   1      39.366  32.054  30.001  1.00  0.00     0.068 C 
BRANCH  16  17
ATOM     17  C   UNL A   1      40.014  30.788  29.987  1.00  0.00     0.128 A 
ATOM     18  C   UNL A   1      39.958  29.780  30.945  1.00  0.00     0.051 A 
ATOM     19  O   UNL A   1      40.834  30.350  28.969  1.00  0.00    -0.457 OA
ATOM     20  C   UNL A   1      40.799  28.731  30.521  1.00  0.00     0.051 A 
ATOM     21  C   UNL A   1      41.334  29.130  29.318  1.00  0.00     0.136 A 
BRANCH  21  22
ATOM     22  C   UNL A   1      42.264  28.492  28.398  1.00  0.00     0.036 A 
ATOM     23  C   UNL A   1      43.372  29.242  27.959  1.00  0.00     0.020 A 
ATOM     24  C   UNL A   1      42.063  27.210  27.855  1.00  0.00     0.058 A 
ATOM     25  C   UNL A   1      44.248  28.743  26.992  1.00  0.00     0.086 A 
ATOM     26  C   UNL A   1      42.937  26.700  26.885  1.00  0.00     0.106 A 
ATOM     27  Cl  UNL A   1      40.703  26.226  28.277  1.00  0.00    -0.083 Cl
ATOM     28  C   UNL A   1      44.019  27.474  26.449  1.00  0.00     0.270 A 
BRANCH  28  29
ATOM     29  N   UNL A   1      44.900  26.969  25.389  1.00  0.00     0.062 N 
ATOM     30  O   UNL A   1      45.535  27.801  24.725  1.00  0.00    -0.258 OA
ATOM     31  O   UNL A   1      44.945  25.745  25.210  1.00  0.00    -0.258 OA
ENDBRANCH  28  29
ENDBRANCH  21  22
ENDBRANCH  16  17
ENDBRANCH   7   9
ENDBRANCH   4   7
ENDBRANCH   2   3
ENDBRANCH   1   2
BRANCH   1  32
ATOM     32  C   UNL A   1      35.899  34.062  34.629  1.00  0.00     0.023 C 
BRANCH  32  33
ATOM     33  C   UNL A   1      37.241  33.504  35.090  1.00  0.00     0.116 C 
BRANCH  33  34
ATOM     34  N   UNL A   1      37.151  32.802  36.359  1.00  0.00    -0.352 N 
ATOM     35  C   UNL A   1      37.918  31.765  36.839  1.00  0.00     0.251 C 
ATOM     36  H   UNL A   1      36.438  33.112  36.963  1.00  0.00     0.163 HD
ATOM     37  O   UNL A   1      37.599  31.212  37.885  1.00  0.00    -0.269 OA
BRANCH  35  38
ATOM     38  C   UNL A   1      39.100  31.300  36.079  1.00  0.00     0.039 A 
ATOM     39  C   UNL A   1      38.901  30.455  34.984  1.00  0.00     0.014 A 
ATOM     40  C   UNL A   1      40.393  31.689  36.438  1.00  0.00     0.014 A 
ATOM     41  C   UNL A   1      39.991  30.058  34.207  1.00  0.00     0.010 A 
ATOM     42  C   UNL A   1      41.472  31.343  35.626  1.00  0.00     0.010 A 
ATOM     43  C   UNL A   1      41.281  30.529  34.501  1.00  0.00    -0.014 A 
BRANCH  43  44
ATOM     44  C   UNL A   1      42.435  30.193  33.628  1.00  0.00     0.031 A 
ATOM     45  C   UNL A   1      42.894  31.156  32.568  1.00  0.00     0.074 A 
ATOM     46  C   UNL A   1      43.030  28.989  33.752  1.00  0.00     0.049 A 
ATOM     47  N   UNL A   1      43.841  31.013  31.677  1.00  0.00    -0.248 NA
ATOM     48  C   UNL A   1      42.179  32.440  32.482  1.00  0.00     0.031 C 
ATOM     49  C   UNL A   1      42.639  27.945  34.703  1.00  0.00     0.029 A 
ATOM     50  N   UNL A   1      44.082  28.436  33.068  1.00  0.00    -0.354 N 
ATOM     51  C   UNL A   1      43.832  32.178  30.920  1.00  0.00     0.074 A 
ATOM     52  C   UNL A   1      42.753  33.001  31.427  1.00  0.00     0.031 C 
ATOM     53  C   UNL A   1      43.452  26.887  34.554  1.00  0.00     0.029 A 
ATOM     54  C   UNL A   1      44.402  27.164  33.481  1.00  0.00     0.049 A 
ATOM     55  H   UNL A   1      44.564  28.905  32.350  1.00  0.00     0.167 HD
ATOM     56  C   UNL A   1      44.659  32.539  29.911  1.00  0.00     0.037 A 
ATOM     57  C   UNL A   1      45.350  26.314  33.042  1.00  0.00     0.037 A 
ATOM     58  C   UNL A   1      45.749  31.731  29.429  1.00  0.00     0.049 A 
ATOM     59  C   UNL A   1      46.269  26.748  31.934  1.00  0.00     0.074 A 
ATOM     60  C   UNL A   1      46.678  32.035  28.449  1.00  0.00     0.029 A 
ATOM     61  N   UNL A   1      46.062  30.463  29.896  1.00  0.00    -0.354 N 
ATOM     62  N   UNL A   1      46.280  27.878  31.269  1.00  0.00    -0.248 NA
ATOM     63  C   UNL A   1      47.311  25.796  31.523  1.00  0.00     0.031 C 
ATOM     64  C   UNL A   1      47.535  30.938  28.303  1.00  0.00     0.029 A 
ATOM     65  C   UNL A   1      47.162  29.966  29.216  1.00  0.00     0.049 A 
ATOM     66  H   UNL A   1      45.574  29.987  30.606  1.00  0.00     0.167 HD
ATOM     67  C   UNL A   1      47.340  27.781  30.375  1.00  0.00     0.074 A 
ATOM     68  C   UNL A   1      47.956  26.488  30.595  1.00  0.00     0.031 C 
ATOM     69  C   UNL A   1      47.764  28.679  29.452  1.00  0.00     0.037 A 
BRANCH  56  70
ATOM     70  C   UNL A   1      44.431  33.878  29.269  1.00  0.00     0.058 A 
ATOM     71  C   UNL A   1      43.777  33.995  28.032  1.00  0.00     0.135 A 
ATOM     72  C   UNL A   1      44.825  35.060  29.916  1.00  0.00     0.135 A 
ATOM     73  F   UNL A   1      43.394  32.896  27.364  1.00  0.00    -0.206 F 
ATOM     74  C   UNL A   1      43.541  35.236  27.448  1.00  0.00     0.059 A 
ATOM     75  C   UNL A   1      44.580  36.313  29.361  1.00  0.00     0.059 A 
ATOM     76  F   UNL A   1      45.456  35.005  31.100  1.00  0.00    -0.206 F 
ATOM     77  C   UNL A   1      43.947  36.390  28.121  1.00  0.00     0.060 A 
BRANCH  77  78
ATOM     78  S   UNL A   1      43.619  37.992  27.358  1.00  0.00     0.124 S 
ATOM     79  O   UNL A   1      42.465  37.682  26.518  1.00  0.00    -0.237 OA
ATOM     80  O   UNL A   1      43.348  38.842  28.514  1.00  0.00    -0.237 OA
ATOM     81  O   UNL A   1      44.855  38.288  26.642  1.00  0.00    -0.744 OA
ENDBRANCH  77  78
ENDBRANCH  56  70
BRANCH  57  82
ATOM     82  C   UNL A   1      45.495  24.972  33.664  1.00  0.00     0.058 A 
ATOM     83  C   UNL A   1      44.830  23.858  33.134  1.00  0.00     0.135 A 
ATOM     84  C   UNL A   1      46.296  24.778  34.799  1.00  0.00     0.135 A 
ATOM     85  F   UNL A   1      44.049  23.996  32.051  1.00  0.00    -0.206 F 
ATOM     86  C   UNL A   1      44.933  22.600  33.718  1.00  0.00     0.059 A 
ATOM     87  C   UNL A   1      46.433  23.526  35.390  1.00  0.00     0.059 A 
ATOM     88  F   UNL A   1      46.968  25.810  35.334  1.00  0.00    -0.206 F 
ATOM     89  C   UNL A   1      45.737  22.445  34.850  1.00  0.00     0.060 A 
BRANCH  89  90
ATOM     90  S   UNL A   1      45.896  20.803  35.585  1.00  0.00     0.124 S 
ATOM     91  O   UNL A   1      44.734  20.121  35.029  1.00  0.00    -0.237 OA
ATOM     92  O   UNL A   1      47.195  20.365  35.085  1.00  0.00    -0.237 OA
ATOM     93  O   UNL A   1      45.846  21.075  37.018  1.00  0.00    -0.744 OA
ENDBRANCH  89  90
ENDBRANCH  57  82
BRANCH  69  94
ATOM     94  C   UNL A   1      48.965  28.303  28.632  1.00  0.00     0.058 A 
ATOM     95  C   UNL A   1      48.836  27.606  27.420  1.00  0.00     0.135 A 
ATOM     96  C   UNL A   1      50.255  28.670  29.047  1.00  0.00     0.135 A 
ATOM     97  F   UNL A   1      47.625  27.227  26.984  1.00  0.00    -0.206 F 
ATOM     98  C   UNL A   1      49.949  27.259  26.661  1.00  0.00     0.059 A 
ATOM     99  C   UNL A   1      51.380  28.354  28.291  1.00  0.00     0.059 A 
ATOM    100  F   UNL A   1      50.429  29.346  30.193  1.00  0.00    -0.206 F 
ATOM    101  C   UNL A   1      51.218  27.636  27.108  1.00  0.00     0.060 A 
BRANCH 101 102
ATOM    102  S   UNL A   1      52.656  27.199  26.107  1.00  0.00     0.124 S 
ATOM    103  O   UNL A   1      53.620  26.815  27.132  1.00  0.00    -0.237 OA
ATOM    104  O   UNL A   1      52.145  26.112  25.276  1.00  0.00    -0.237 OA
ATOM    105  O   UNL A   1      52.957  28.436  25.392  1.00  0.00    -0.744 OA
ENDBRANCH 101 102
ENDBRANCH  69  94
ENDBRANCH  43  44
ENDBRANCH  35  38
ENDBRANCH  33  34
ENDBRANCH  32  33
ENDBRANCH   1  32
TORSDOF 18
ENDMDL
