MODEL 1
REMARK VINA RESULT:     -10.4      0.000      0.000
REMARK SMILES C[C@H]([NH2+]CCc1ccccc1)[C@@H](C)C(=O)NCCCCNC(=O)c1ccc(-c2c3nc(c(-c4c(F)cc(S(=O)(=O)[O-])cc4F)c4ccc([nH]4)c(-c4c(F)cc(S(=O)(=O)[O-])cc4F)c4nc(c(-c5c(F)cc(S(=O)(=O)[O-])cc5F)c5ccc2[nH]5)C=C4)C=C3)cc1
REMARK SMILES IDX 17 1 16 2 14 3 15 4 12 6 13 7 2 8 1 9 3 10 4 13 5 14 6 15
REMARK SMILES IDX 7 16 11 17 8 18 10 19 9 20 18 21 19 22 20 23 21 24 22 25
REMARK SMILES IDX 23 27 24 28 25 29 89 30 26 31 88 32 27 33 28 34 29 35 82 36
REMARK SMILES IDX 30 37 87 38 81 39 83 40 31 41 86 42 80 43 79 44 32 46 66 47
REMARK SMILES IDX 45 48 65 49 46 50 49 51 64 52 84 53 47 54 48 55 63 57 85 58
REMARK SMILES IDX 50 59 33 60 34 61 43 62 35 63 36 64 42 65 44 66 37 67 38 68
REMARK SMILES IDX 39 69 40 70 41 71 67 72 68 73 77 74 69 75 70 76 76 77 78 78
REMARK SMILES IDX 71 79 72 80 73 81 74 82 75 83 51 84 52 85 61 86 53 87 54 88
REMARK SMILES IDX 60 89 62 90 55 91 56 92 57 93 58 94 59 95
REMARK H PARENT 16 5 3 11 3 12 21 26 83 45 49 56
REMARK Flexibility Score: inf
ROOT
ATOM      1  C   UNL A   1      37.196  22.142  24.409  1.00  0.00     0.116 C 
ENDROOT
BRANCH   1   2
ATOM      2  N   UNL A   1      36.491  23.178  25.138  1.00  0.00    -0.356 N 
ATOM      3  C   UNL A   1      35.372  23.888  24.830  1.00  0.00     0.228 C 
ATOM      4  O   UNL A   1      34.994  24.734  25.648  1.00  0.00    -0.275 OA
ATOM      5  H   UNL A   1      36.892  23.408  26.007  1.00  0.00     0.163 HD
BRANCH   3   6
ATOM      6  C   UNL A   1      34.580  23.665  23.543  1.00  0.00     0.133 C 
ATOM      7  C   UNL A   1      33.950  24.981  23.074  1.00  0.00     0.024 C 
BRANCH   6   8
ATOM      8  C   UNL A   1      33.622  22.449  23.635  1.00  0.00     0.191 C 
ATOM      9  C   UNL A   1      32.630  22.480  22.460  1.00  0.00     0.076 C 
BRANCH   8  10
ATOM     10  N   UNL A   1      32.929  22.449  24.933  1.00  0.00    -0.343 N 
ATOM     11  H   UNL A   1      32.242  23.202  24.929  1.00  0.00     0.346 HD
ATOM     12  H   UNL A   1      33.646  22.571  25.648  1.00  0.00     0.346 HD
BRANCH  10  13
ATOM     13  C   UNL A   1      32.234  21.194  25.242  1.00  0.00     0.265 C 
BRANCH  13  14
ATOM     14  C   UNL A   1      33.216  20.083  25.658  1.00  0.00     0.097 C 
BRANCH  14  15
ATOM     15  C   UNL A   1      33.403  19.004  24.611  1.00  0.00    -0.042 A 
ATOM     16  C   UNL A   1      32.510  18.866  23.538  1.00  0.00     0.004 A 
ATOM     17  C   UNL A   1      34.457  18.089  24.736  1.00  0.00     0.004 A 
ATOM     18  C   UNL A   1      32.637  17.803  22.643  1.00  0.00     0.000 A 
ATOM     19  C   UNL A   1      34.590  17.033  23.833  1.00  0.00     0.000 A 
ATOM     20  C   UNL A   1      33.674  16.885  22.795  1.00  0.00     0.000 A 
ENDBRANCH  14  15
ENDBRANCH  13  14
ENDBRANCH  10  13
ENDBRANCH   8  10
ENDBRANCH   6   8
ENDBRANCH   3   6
ENDBRANCH   1   2
BRANCH   1  21
ATOM     21  C   UNL A   1      36.897  20.746  24.956  1.00  0.00     0.023 C 
BRANCH  21  22
ATOM     22  C   UNL A   1      38.102  19.809  25.025  1.00  0.00     0.023 C 
BRANCH  22  23
ATOM     23  C   UNL A   1      39.215  20.250  25.968  1.00  0.00     0.116 C 
BRANCH  23  24
ATOM     24  N   UNL A   1      40.339  19.327  26.005  1.00  0.00    -0.352 N 
ATOM     25  C   UNL A   1      41.662  19.606  26.255  1.00  0.00     0.251 C 
ATOM     26  H   UNL A   1      40.126  18.382  25.829  1.00  0.00     0.163 HD
ATOM     27  O   UNL A   1      42.514  18.729  26.154  1.00  0.00    -0.269 OA
BRANCH  25  28
ATOM     28  C   UNL A   1      42.046  20.989  26.605  1.00  0.00     0.039 A 
ATOM     29  C   UNL A   1      42.273  21.308  27.946  1.00  0.00     0.014 A 
ATOM     30  C   UNL A   1      42.247  21.940  25.602  1.00  0.00     0.014 A 
ATOM     31  C   UNL A   1      42.782  22.566  28.275  1.00  0.00     0.010 A 
ATOM     32  C   UNL A   1      42.815  23.167  25.926  1.00  0.00     0.010 A 
ATOM     33  C   UNL A   1      43.096  23.489  27.263  1.00  0.00    -0.014 A 
BRANCH  33  34
ATOM     34  C   UNL A   1      43.728  24.795  27.569  1.00  0.00     0.031 A 
ATOM     35  C   UNL A   1      42.876  25.950  28.015  1.00  0.00     0.074 A 
ATOM     36  C   UNL A   1      45.047  24.967  27.349  1.00  0.00     0.049 A 
ATOM     37  N   UNL A   1      43.208  27.201  28.190  1.00  0.00    -0.248 NA
ATOM     38  C   UNL A   1      41.454  25.661  28.266  1.00  0.00     0.031 C 
ATOM     39  C   UNL A   1      45.970  23.935  26.873  1.00  0.00     0.029 A 
ATOM     40  N   UNL A   1      45.836  26.083  27.475  1.00  0.00    -0.354 N 
ATOM     41  C   UNL A   1      42.034  27.857  28.543  1.00  0.00     0.074 A 
ATOM     42  C   UNL A   1      40.975  26.871  28.522  1.00  0.00     0.031 C 
ATOM     43  C   UNL A   1      47.200  24.462  26.755  1.00  0.00     0.029 A 
ATOM     44  C   UNL A   1      47.146  25.878  27.110  1.00  0.00     0.049 A 
ATOM     45  H   UNL A   1      45.497  26.950  27.797  1.00  0.00     0.167 HD
ATOM     46  C   UNL A   1      41.860  29.157  28.873  1.00  0.00     0.037 A 
ATOM     47  C   UNL A   1      48.183  26.736  27.054  1.00  0.00     0.037 A 
ATOM     48  C   UNL A   1      42.924  30.124  28.931  1.00  0.00     0.049 A 
ATOM     49  C   UNL A   1      47.969  28.172  27.443  1.00  0.00     0.074 A 
ATOM     50  C   UNL A   1      42.861  31.451  29.316  1.00  0.00     0.029 A 
ATOM     51  N   UNL A   1      44.246  29.864  28.599  1.00  0.00    -0.354 N 
ATOM     52  N   UNL A   1      46.863  28.764  27.826  1.00  0.00    -0.248 NA
ATOM     53  C   UNL A   1      49.141  29.059  27.398  1.00  0.00     0.031 C 
ATOM     54  C   UNL A   1      44.141  32.003  29.191  1.00  0.00     0.029 A 
ATOM     55  C   UNL A   1      45.006  31.009  28.761  1.00  0.00     0.049 A 
ATOM     56  H   UNL A   1      44.592  28.994  28.294  1.00  0.00     0.167 HD
ATOM     57  C   UNL A   1      47.209  30.084  28.090  1.00  0.00     0.074 A 
ATOM     58  C   UNL A   1      48.630  30.204  27.829  1.00  0.00     0.031 C 
ATOM     59  C   UNL A   1      46.423  31.105  28.512  1.00  0.00     0.037 A 
BRANCH  46  60
ATOM     60  C   UNL A   1      40.465  29.608  29.202  1.00  0.00     0.058 A 
ATOM     61  C   UNL A   1      39.484  29.744  28.208  1.00  0.00     0.135 A 
ATOM     62  C   UNL A   1      40.099  29.887  30.529  1.00  0.00     0.135 A 
ATOM     63  F   UNL A   1      39.787  29.506  26.922  1.00  0.00    -0.206 F 
ATOM     64  C   UNL A   1      38.196  30.170  28.513  1.00  0.00     0.059 A 
ATOM     65  C   UNL A   1      38.809  30.291  30.859  1.00  0.00     0.059 A 
ATOM     66  F   UNL A   1      40.999  29.775  31.517  1.00  0.00    -0.206 F 
ATOM     67  C   UNL A   1      37.869  30.445  29.841  1.00  0.00     0.060 A 
BRANCH  67  68
ATOM     68  S   UNL A   1      36.194  31.001  30.221  1.00  0.00     0.124 S 
ATOM     69  O   UNL A   1      36.399  32.434  30.407  1.00  0.00    -0.237 OA
ATOM     70  O   UNL A   1      35.456  30.618  29.022  1.00  0.00    -0.237 OA
ATOM     71  O   UNL A   1      35.854  30.252  31.427  1.00  0.00    -0.744 OA
ENDBRANCH  67  68
ENDBRANCH  46  60
BRANCH  47  72
ATOM     72  C   UNL A   1      49.522  26.253  26.627  1.00  0.00     0.058 A 
ATOM     73  C   UNL A   1      49.890  26.259  25.273  1.00  0.00     0.135 A 
ATOM     74  C   UNL A   1      50.466  25.798  27.560  1.00  0.00     0.135 A 
ATOM     75  F   UNL A   1      49.018  26.680  24.345  1.00  0.00    -0.206 F 
ATOM     76  C   UNL A   1      51.142  25.822  24.856  1.00  0.00     0.059 A 
ATOM     77  C   UNL A   1      51.734  25.374  27.170  1.00  0.00     0.059 A 
ATOM     78  F   UNL A   1      50.168  25.789  28.868  1.00  0.00    -0.206 F 
ATOM     79  C   UNL A   1      52.059  25.382  25.814  1.00  0.00     0.060 A 
BRANCH  79  80
ATOM     80  S   UNL A   1      53.703  24.869  25.269  1.00  0.00     0.124 S 
ATOM     81  O   UNL A   1      53.499  23.447  25.020  1.00  0.00    -0.237 OA
ATOM     82  O   UNL A   1      53.911  25.701  24.088  1.00  0.00    -0.237 OA
ATOM     83  O   UNL A   1      54.549  25.195  26.412  1.00  0.00    -0.744 OA
ENDBRANCH  79  80
ENDBRANCH  47  72
BRANCH  59  84
ATOM     84  C   UNL A   1      47.078  32.432  28.756  1.00  0.00     0.058 A 
ATOM     85  C   UNL A   1      47.154  33.409  27.753  1.00  0.00     0.135 A 
ATOM     86  C   UNL A   1      47.562  32.759  30.033  1.00  0.00     0.135 A 
ATOM     87  F   UNL A   1      46.713  33.141  26.514  1.00  0.00    -0.206 F 
ATOM     88  C   UNL A   1      47.690  34.668  28.006  1.00  0.00     0.059 A 
ATOM     89  C   UNL A   1      48.083  34.017  30.314  1.00  0.00     0.059 A 
ATOM     90  F   UNL A   1      47.504  31.860  31.028  1.00  0.00    -0.206 F 
ATOM     91  C   UNL A   1      48.148  34.963  29.292  1.00  0.00     0.060 A 
BRANCH  91  92
ATOM     92  S   UNL A   1      48.784  36.620  29.626  1.00  0.00     0.124 S 
ATOM     93  O   UNL A   1      47.710  37.191  30.431  1.00  0.00    -0.237 OA
ATOM     94  O   UNL A   1      50.029  36.341  30.335  1.00  0.00    -0.237 OA
ATOM     95  O   UNL A   1      48.946  37.196  28.294  1.00  0.00    -0.744 OA
ENDBRANCH  91  92
ENDBRANCH  59  84
ENDBRANCH  33  34
ENDBRANCH  25  28
ENDBRANCH  23  24
ENDBRANCH  22  23
ENDBRANCH  21  22
ENDBRANCH   1  21
TORSDOF 19
ENDMDL
MODEL 2
REMARK VINA RESULT:     -10.3      0.552      8.385
REMARK SMILES C[C@H]([NH2+]CCc1ccccc1)[C@@H](C)C(=O)NCCCCNC(=O)c1ccc(-c2c3nc(c(-c4c(F)cc(S(=O)(=O)[O-])cc4F)c4ccc([nH]4)c(-c4c(F)cc(S(=O)(=O)[O-])cc4F)c4nc(c(-c5c(F)cc(S(=O)(=O)[O-])cc5F)c5ccc2[nH]5)C=C4)C=C3)cc1
REMARK SMILES IDX 17 1 16 2 14 3 15 4 12 6 13 7 2 8 1 9 3 10 4 13 5 14 6 15
REMARK SMILES IDX 7 16 11 17 8 18 10 19 9 20 18 21 19 22 20 23 21 24 22 25
REMARK SMILES IDX 23 27 24 28 25 29 89 30 26 31 88 32 27 33 28 34 29 35 82 36
REMARK SMILES IDX 30 37 87 38 81 39 83 40 31 41 86 42 80 43 79 44 32 46 66 47
REMARK SMILES IDX 45 48 65 49 46 50 49 51 64 52 84 53 47 54 48 55 63 57 85 58
REMARK SMILES IDX 50 59 33 60 34 61 43 62 35 63 36 64 42 65 44 66 37 67 38 68
REMARK SMILES IDX 39 69 40 70 41 71 67 72 68 73 77 74 69 75 70 76 76 77 78 78
REMARK SMILES IDX 71 79 72 80 73 81 74 82 75 83 51 84 52 85 61 86 53 87 54 88
REMARK SMILES IDX 60 89 62 90 55 91 56 92 57 93 58 94 59 95
REMARK H PARENT 16 5 3 11 3 12 21 26 83 45 49 56
REMARK Flexibility Score: inf
ROOT
ATOM      1  C   UNL A   1      37.061  23.049  24.967  1.00  0.00     0.116 C 
ENDROOT
BRANCH   1   2
ATOM      2  N   UNL A   1      36.043  23.904  25.544  1.00  0.00    -0.356 N 
ATOM      3  C   UNL A   1      34.862  24.356  25.042  1.00  0.00     0.228 C 
ATOM      4  O   UNL A   1      34.185  25.095  25.764  1.00  0.00    -0.275 OA
ATOM      5  H   UNL A   1      36.241  24.212  26.458  1.00  0.00     0.163 HD
BRANCH   3   6
ATOM      6  C   UNL A   1      34.353  23.971  23.654  1.00  0.00     0.133 C 
ATOM      7  C   UNL A   1      33.679  25.174  22.985  1.00  0.00     0.024 C 
BRANCH   6   8
ATOM      8  C   UNL A   1      33.534  22.654  23.663  1.00  0.00     0.191 C 
ATOM      9  C   UNL A   1      32.748  22.523  22.347  1.00  0.00     0.076 C 
BRANCH   8  10
ATOM     10  N   UNL A   1      32.645  22.618  24.835  1.00  0.00    -0.343 N 
ATOM     11  H   UNL A   1      31.845  23.221  24.647  1.00  0.00     0.346 HD
ATOM     12  H   UNL A   1      33.198  22.932  25.632  1.00  0.00     0.346 HD
BRANCH  10  13
ATOM     13  C   UNL A   1      32.144  21.280  25.167  1.00  0.00     0.265 C 
BRANCH  13  14
ATOM     14  C   UNL A   1      33.289  20.312  25.521  1.00  0.00     0.097 C 
BRANCH  14  15
ATOM     15  C   UNL A   1      33.459  19.174  24.535  1.00  0.00    -0.042 A 
ATOM     16  C   UNL A   1      32.517  18.939  23.523  1.00  0.00     0.004 A 
ATOM     17  C   UNL A   1      34.549  18.302  24.661  1.00  0.00     0.004 A 
ATOM     18  C   UNL A   1      32.634  17.825  22.691  1.00  0.00     0.000 A 
ATOM     19  C   UNL A   1      34.671  17.195  23.820  1.00  0.00     0.000 A 
ATOM     20  C   UNL A   1      33.708  16.952  22.844  1.00  0.00     0.000 A 
ENDBRANCH  14  15
ENDBRANCH  13  14
ENDBRANCH  10  13
ENDBRANCH   8  10
ENDBRANCH   6   8
ENDBRANCH   3   6
ENDBRANCH   1   2
BRANCH   1  21
ATOM     21  C   UNL A   1      36.857  21.579  25.334  1.00  0.00     0.023 C 
BRANCH  21  22
ATOM     22  C   UNL A   1      38.064  20.677  25.082  1.00  0.00     0.023 C 
BRANCH  22  23
ATOM     23  C   UNL A   1      39.258  20.917  25.998  1.00  0.00     0.116 C 
BRANCH  23  24
ATOM     24  N   UNL A   1      40.143  19.767  26.106  1.00  0.00    -0.352 N 
ATOM     25  C   UNL A   1      41.508  19.755  26.273  1.00  0.00     0.251 C 
ATOM     26  H   UNL A   1      39.710  18.884  26.052  1.00  0.00     0.163 HD
ATOM     27  O   UNL A   1      42.129  18.698  26.248  1.00  0.00    -0.269 OA
BRANCH  25  28
ATOM     28  C   UNL A   1      42.217  21.040  26.441  1.00  0.00     0.039 A 
ATOM     29  C   UNL A   1      42.572  21.769  25.304  1.00  0.00     0.014 A 
ATOM     30  C   UNL A   1      42.462  21.548  27.719  1.00  0.00     0.014 A 
ATOM     31  C   UNL A   1      43.106  23.052  25.450  1.00  0.00     0.010 A 
ATOM     32  C   UNL A   1      42.931  22.850  27.859  1.00  0.00     0.010 A 
ATOM     33  C   UNL A   1      43.249  23.616  26.727  1.00  0.00    -0.014 A 
BRANCH  33  34
ATOM     34  C   UNL A   1      43.719  25.011  26.915  1.00  0.00     0.031 A 
ATOM     35  C   UNL A   1      45.170  25.342  26.710  1.00  0.00     0.074 A 
ATOM     36  C   UNL A   1      42.863  25.950  27.364  1.00  0.00     0.049 A 
ATOM     37  N   UNL A   1      45.806  26.455  26.960  1.00  0.00    -0.248 NA
ATOM     38  C   UNL A   1      46.024  24.265  26.182  1.00  0.00     0.031 C 
ATOM     39  C   UNL A   1      41.441  25.738  27.644  1.00  0.00     0.029 A 
ATOM     40  N   UNL A   1      43.071  27.268  27.688  1.00  0.00    -0.354 N 
ATOM     41  C   UNL A   1      47.138  26.208  26.650  1.00  0.00     0.074 A 
ATOM     42  C   UNL A   1      47.224  24.827  26.227  1.00  0.00     0.031 C 
ATOM     43  C   UNL A   1      40.903  26.886  28.088  1.00  0.00     0.029 A 
ATOM     44  C   UNL A   1      41.948  27.904  28.162  1.00  0.00     0.049 A 
ATOM     45  H   UNL A   1      43.942  27.716  27.589  1.00  0.00     0.167 HD
ATOM     46  C   UNL A   1      48.188  27.059  26.695  1.00  0.00     0.037 A 
ATOM     47  C   UNL A   1      41.781  29.160  28.618  1.00  0.00     0.037 A 
ATOM     48  C   UNL A   1      48.088  28.442  27.079  1.00  0.00     0.049 A 
ATOM     49  C   UNL A   1      42.960  30.095  28.641  1.00  0.00     0.074 A 
ATOM     50  C   UNL A   1      49.082  29.404  27.097  1.00  0.00     0.029 A 
ATOM     51  N   UNL A   1      46.923  29.061  27.508  1.00  0.00    -0.354 N 
ATOM     52  N   UNL A   1      44.202  29.859  28.294  1.00  0.00    -0.248 NA
ATOM     53  C   UNL A   1      42.717  31.465  29.115  1.00  0.00     0.031 C 
ATOM     54  C   UNL A   1      48.524  30.600  27.563  1.00  0.00     0.029 A 
ATOM     55  C   UNL A   1      47.175  30.390  27.802  1.00  0.00     0.049 A 
ATOM     56  H   UNL A   1      46.046  28.621  27.590  1.00  0.00     0.167 HD
ATOM     57  C   UNL A   1      44.883  31.056  28.483  1.00  0.00     0.074 A 
ATOM     58  C   UNL A   1      43.915  32.016  28.971  1.00  0.00     0.031 C 
ATOM     59  C   UNL A   1      46.193  31.335  28.271  1.00  0.00     0.037 A 
BRANCH  46  60
ATOM     60  C   UNL A   1      49.537  26.518  26.315  1.00  0.00     0.058 A 
ATOM     61  C   UNL A   1      50.301  25.757  27.212  1.00  0.00     0.135 A 
ATOM     62  C   UNL A   1      50.061  26.743  25.032  1.00  0.00     0.135 A 
ATOM     63  F   UNL A   1      49.854  25.526  28.457  1.00  0.00    -0.206 F 
ATOM     64  C   UNL A   1      51.554  25.264  26.862  1.00  0.00     0.059 A 
ATOM     65  C   UNL A   1      51.301  26.239  24.653  1.00  0.00     0.059 A 
ATOM     66  F   UNL A   1      49.371  27.467  24.137  1.00  0.00    -0.206 F 
ATOM     67  C   UNL A   1      52.047  25.514  25.581  1.00  0.00     0.060 A 
BRANCH  67  68
ATOM     68  S   UNL A   1      53.676  24.870  25.142  1.00  0.00     0.124 S 
ATOM     69  O   UNL A   1      54.464  25.259  26.307  1.00  0.00    -0.237 OA
ATOM     70  O   UNL A   1      53.422  23.441  24.998  1.00  0.00    -0.237 OA
ATOM     71  O   UNL A   1      53.995  25.574  23.904  1.00  0.00    -0.744 OA
ENDBRANCH  67  68
ENDBRANCH  46  60
BRANCH  47  72
ATOM     72  C   UNL A   1      40.441  29.613  29.073  1.00  0.00     0.058 A 
ATOM     73  C   UNL A   1      39.413  29.854  28.150  1.00  0.00     0.135 A 
ATOM     74  C   UNL A   1      40.154  29.791  30.435  1.00  0.00     0.135 A 
ATOM     75  F   UNL A   1      39.643  29.701  26.837  1.00  0.00    -0.206 F 
ATOM     76  C   UNL A   1      38.149  30.267  28.558  1.00  0.00     0.059 A 
ATOM     77  C   UNL A   1      38.891  30.185  30.870  1.00  0.00     0.059 A 
ATOM     78  F   UNL A   1      41.099  29.557  31.358  1.00  0.00    -0.206 F 
ATOM     79  C   UNL A   1      37.898  30.429  29.922  1.00  0.00     0.060 A 
BRANCH  79  80
ATOM     80  S   UNL A   1      36.238  30.911  30.447  1.00  0.00     0.124 S 
ATOM     81  O   UNL A   1      35.910  29.852  31.394  1.00  0.00    -0.237 OA
ATOM     82  O   UNL A   1      36.467  32.233  31.019  1.00  0.00    -0.237 OA
ATOM     83  O   UNL A   1      35.479  30.901  29.200  1.00  0.00    -0.744 OA
ENDBRANCH  79  80
ENDBRANCH  47  72
BRANCH  59  84
ATOM     84  C   UNL A   1      46.655  32.740  28.526  1.00  0.00     0.058 A 
ATOM     85  C   UNL A   1      46.664  33.705  27.508  1.00  0.00     0.135 A 
ATOM     86  C   UNL A   1      47.013  33.144  29.821  1.00  0.00     0.135 A 
ATOM     87  F   UNL A   1      46.338  33.365  26.251  1.00  0.00    -0.206 F 
ATOM     88  C   UNL A   1      47.017  35.026  27.766  1.00  0.00     0.059 A 
ATOM     89  C   UNL A   1      47.349  34.463  30.106  1.00  0.00     0.059 A 
ATOM     90  F   UNL A   1      47.012  32.259  30.830  1.00  0.00    -0.206 F 
ATOM     91  C   UNL A   1      47.353  35.396  29.069  1.00  0.00     0.060 A 
BRANCH  91  92
ATOM     92  S   UNL A   1      47.748  37.126  29.405  1.00  0.00     0.124 S 
ATOM     93  O   UNL A   1      48.824  36.998  30.382  1.00  0.00    -0.237 OA
ATOM     94  O   UNL A   1      48.142  37.619  28.089  1.00  0.00    -0.237 OA
ATOM     95  O   UNL A   1      46.493  37.666  29.919  1.00  0.00    -0.744 OA
ENDBRANCH  91  92
ENDBRANCH  59  84
ENDBRANCH  33  34
ENDBRANCH  25  28
ENDBRANCH  23  24
ENDBRANCH  22  23
ENDBRANCH  21  22
ENDBRANCH   1  21
TORSDOF 19
ENDMDL
MODEL 3
REMARK VINA RESULT:     -10.1      6.729     10.818
REMARK SMILES C[C@H]([NH2+]CCc1ccccc1)[C@@H](C)C(=O)NCCCCNC(=O)c1ccc(-c2c3nc(c(-c4c(F)cc(S(=O)(=O)[O-])cc4F)c4ccc([nH]4)c(-c4c(F)cc(S(=O)(=O)[O-])cc4F)c4nc(c(-c5c(F)cc(S(=O)(=O)[O-])cc5F)c5ccc2[nH]5)C=C4)C=C3)cc1
REMARK SMILES IDX 17 1 16 2 14 3 15 4 12 6 13 7 2 8 1 9 3 10 4 13 5 14 6 15
REMARK SMILES IDX 7 16 11 17 8 18 10 19 9 20 18 21 19 22 20 23 21 24 22 25
REMARK SMILES IDX 23 27 24 28 25 29 89 30 26 31 88 32 27 33 28 34 29 35 82 36
REMARK SMILES IDX 30 37 87 38 81 39 83 40 31 41 86 42 80 43 79 44 32 46 66 47
REMARK SMILES IDX 45 48 65 49 46 50 49 51 64 52 84 53 47 54 48 55 63 57 85 58
REMARK SMILES IDX 50 59 33 60 34 61 43 62 35 63 36 64 42 65 44 66 37 67 38 68
REMARK SMILES IDX 39 69 40 70 41 71 67 72 68 73 77 74 69 75 70 76 76 77 78 78
REMARK SMILES IDX 71 79 72 80 73 81 74 82 75 83 51 84 52 85 61 86 53 87 54 88
REMARK SMILES IDX 60 89 62 90 55 91 56 92 57 93 58 94 59 95
REMARK H PARENT 16 5 3 11 3 12 21 26 83 45 49 56
REMARK Flexibility Score: inf
ROOT
ATOM      1  C   UNL A   1      34.995  29.685  27.718  1.00  0.00     0.116 C 
ENDROOT
BRANCH   1   2
ATOM      2  N   UNL A   1      33.687  29.078  27.874  1.00  0.00    -0.356 N 
ATOM      3  C   UNL A   1      32.971  28.268  27.048  1.00  0.00     0.228 C 
ATOM      4  O   UNL A   1      31.858  27.902  27.439  1.00  0.00    -0.275 OA
ATOM      5  H   UNL A   1      33.241  29.289  28.725  1.00  0.00     0.163 HD
BRANCH   3   6
ATOM      6  C   UNL A   1      33.497  27.796  25.693  1.00  0.00     0.133 C 
ATOM      7  C   UNL A   1      33.384  28.923  24.661  1.00  0.00     0.024 C 
BRANCH   6   8
ATOM      8  C   UNL A   1      32.909  26.426  25.269  1.00  0.00     0.191 C 
ATOM      9  C   UNL A   1      34.017  25.359  25.280  1.00  0.00     0.076 C 
BRANCH   8  10
ATOM     10  N   UNL A   1      32.273  26.536  23.947  1.00  0.00    -0.343 N 
ATOM     11  H   UNL A   1      32.468  25.682  23.426  1.00  0.00     0.346 HD
ATOM     12  H   UNL A   1      32.662  27.368  23.502  1.00  0.00     0.346 HD
BRANCH  10  13
ATOM     13  C   UNL A   1      30.819  26.724  23.994  1.00  0.00     0.265 C 
BRANCH  13  14
ATOM     14  C   UNL A   1      30.296  27.467  22.749  1.00  0.00     0.097 C 
BRANCH  14  15
ATOM     15  C   UNL A   1      29.400  28.647  23.069  1.00  0.00    -0.042 A 
ATOM     16  C   UNL A   1      28.012  28.579  22.886  1.00  0.00     0.004 A 
ATOM     17  C   UNL A   1      29.967  29.851  23.508  1.00  0.00     0.004 A 
ATOM     18  C   UNL A   1      27.215  29.708  23.085  1.00  0.00     0.000 A 
ATOM     19  C   UNL A   1      29.168  30.975  23.719  1.00  0.00     0.000 A 
ATOM     20  C   UNL A   1      27.795  30.906  23.496  1.00  0.00     0.000 A 
ENDBRANCH  14  15
ENDBRANCH  13  14
ENDBRANCH  10  13
ENDBRANCH   8  10
ENDBRANCH   6   8
ENDBRANCH   3   6
ENDBRANCH   1   2
BRANCH   1  21
ATOM     21  C   UNL A   1      34.995  31.164  28.109  1.00  0.00     0.023 C 
BRANCH  21  22
ATOM     22  C   UNL A   1      34.093  32.056  27.259  1.00  0.00     0.023 C 
BRANCH  22  23
ATOM     23  C   UNL A   1      32.922  32.690  28.000  1.00  0.00     0.116 C 
BRANCH  23  24
ATOM     24  N   UNL A   1      32.913  34.143  27.930  1.00  0.00    -0.352 N 
ATOM     25  C   UNL A   1      33.701  35.035  28.619  1.00  0.00     0.251 C 
ATOM     26  H   UNL A   1      32.259  34.540  27.309  1.00  0.00     0.163 HD
ATOM     27  O   UNL A   1      33.506  36.242  28.524  1.00  0.00    -0.269 OA
BRANCH  25  28
ATOM     28  C   UNL A   1      34.757  34.512  29.510  1.00  0.00     0.039 A 
ATOM     29  C   UNL A   1      34.388  33.905  30.712  1.00  0.00     0.014 A 
ATOM     30  C   UNL A   1      36.098  34.563  29.119  1.00  0.00     0.014 A 
ATOM     31  C   UNL A   1      35.361  33.274  31.490  1.00  0.00     0.010 A 
ATOM     32  C   UNL A   1      37.053  33.878  29.862  1.00  0.00     0.010 A 
ATOM     33  C   UNL A   1      36.693  33.220  31.048  1.00  0.00    -0.014 A 
BRANCH  33  34
ATOM     34  C   UNL A   1      37.734  32.475  31.798  1.00  0.00     0.031 A 
ATOM     35  C   UNL A   1      38.184  32.974  33.142  1.00  0.00     0.074 A 
ATOM     36  C   UNL A   1      38.339  31.414  31.228  1.00  0.00     0.049 A 
ATOM     37  N   UNL A   1      39.172  32.557  33.888  1.00  0.00    -0.248 NA
ATOM     38  C   UNL A   1      37.443  34.114  33.705  1.00  0.00     0.031 C 
ATOM     39  C   UNL A   1      38.021  30.864  29.908  1.00  0.00     0.029 A 
ATOM     40  N   UNL A   1      39.367  30.623  31.676  1.00  0.00    -0.354 N 
ATOM     41  C   UNL A   1      39.192  33.399  34.994  1.00  0.00     0.074 A 
ATOM     42  C   UNL A   1      38.139  34.373  34.803  1.00  0.00     0.031 C 
ATOM     43  C   UNL A   1      38.829  29.821  29.658  1.00  0.00     0.029 A 
ATOM     44  C   UNL A   1      39.748  29.652  30.781  1.00  0.00     0.049 A 
ATOM     45  H   UNL A   1      39.791  30.740  32.557  1.00  0.00     0.167 HD
ATOM     46  C   UNL A   1      40.001  33.352  36.077  1.00  0.00     0.037 A 
ATOM     47  C   UNL A   1      40.736  28.738  30.849  1.00  0.00     0.037 A 
ATOM     48  C   UNL A   1      41.020  32.357  36.279  1.00  0.00     0.049 A 
ATOM     49  C   UNL A   1      41.610  28.693  32.072  1.00  0.00     0.074 A 
ATOM     50  C   UNL A   1      41.849  32.184  37.373  1.00  0.00     0.029 A 
ATOM     51  N   UNL A   1      41.344  31.360  35.369  1.00  0.00    -0.354 N 
ATOM     52  N   UNL A   1      41.580  29.464  33.132  1.00  0.00    -0.248 NA
ATOM     53  C   UNL A   1      42.650  27.655  32.111  1.00  0.00     0.031 C 
ATOM     54  C   UNL A   1      42.695  31.100  37.112  1.00  0.00     0.029 A 
ATOM     55  C   UNL A   1      42.368  30.577  35.872  1.00  0.00     0.049 A 
ATOM     56  H   UNL A   1      40.909  31.230  34.495  1.00  0.00     0.167 HD
ATOM     57  C   UNL A   1      42.579  28.990  33.975  1.00  0.00     0.074 A 
ATOM     58  C   UNL A   1      43.192  27.861  33.304  1.00  0.00     0.031 C 
ATOM     59  C   UNL A   1      42.953  29.446  35.195  1.00  0.00     0.037 A 
BRANCH  46  60
ATOM     60  C   UNL A   1      39.812  34.406  37.130  1.00  0.00     0.058 A 
ATOM     61  C   UNL A   1      38.951  34.209  38.220  1.00  0.00     0.135 A 
ATOM     62  C   UNL A   1      40.517  35.619  37.060  1.00  0.00     0.135 A 
ATOM     63  F   UNL A   1      38.241  33.075  38.325  1.00  0.00    -0.206 F 
ATOM     64  C   UNL A   1      38.770  35.190  39.189  1.00  0.00     0.059 A 
ATOM     65  C   UNL A   1      40.370  36.604  38.032  1.00  0.00     0.059 A 
ATOM     66  F   UNL A   1      41.352  35.859  36.038  1.00  0.00    -0.206 F 
ATOM     67  C   UNL A   1      39.482  36.386  39.084  1.00  0.00     0.060 A 
BRANCH  67  68
ATOM     68  S   UNL A   1      39.234  37.652  40.348  1.00  0.00     0.124 S 
ATOM     69  O   UNL A   1      38.108  38.397  39.795  1.00  0.00    -0.237 OA
ATOM     70  O   UNL A   1      38.945  36.857  41.537  1.00  0.00    -0.237 OA
ATOM     71  O   UNL A   1      40.509  38.363  40.369  1.00  0.00    -0.744 OA
ENDBRANCH  67  68
ENDBRANCH  46  60
BRANCH  47  72
ATOM     72  C   UNL A   1      40.938  27.780  29.731  1.00  0.00     0.058 A 
ATOM     73  C   UNL A   1      40.016  26.751  29.492  1.00  0.00     0.135 A 
ATOM     74  C   UNL A   1      42.040  27.885  28.869  1.00  0.00     0.135 A 
ATOM     75  F   UNL A   1      38.949  26.608  30.294  1.00  0.00    -0.206 F 
ATOM     76  C   UNL A   1      40.182  25.851  28.445  1.00  0.00     0.059 A 
ATOM     77  C   UNL A   1      42.219  27.009  27.802  1.00  0.00     0.059 A 
ATOM     78  F   UNL A   1      42.941  28.864  29.046  1.00  0.00    -0.206 F 
ATOM     79  C   UNL A   1      41.288  25.990  27.603  1.00  0.00     0.060 A 
BRANCH  79  80
ATOM     80  S   UNL A   1      41.467  24.852  26.212  1.00  0.00     0.124 S 
ATOM     81  O   UNL A   1      40.389  23.904  26.468  1.00  0.00    -0.237 OA
ATOM     82  O   UNL A   1      41.282  25.736  25.065  1.00  0.00    -0.237 OA
ATOM     83  O   UNL A   1      42.820  24.332  26.379  1.00  0.00    -0.744 OA
ENDBRANCH  79  80
ENDBRANCH  47  72
BRANCH  59  84
ATOM     84  C   UNL A   1      44.050  28.710  35.907  1.00  0.00     0.058 A 
ATOM     85  C   UNL A   1      43.778  27.615  36.740  1.00  0.00     0.135 A 
ATOM     86  C   UNL A   1      45.393  29.053  35.687  1.00  0.00     0.135 A 
ATOM     87  F   UNL A   1      42.509  27.254  36.989  1.00  0.00    -0.206 F 
ATOM     88  C   UNL A   1      44.802  26.885  37.336  1.00  0.00     0.059 A 
ATOM     89  C   UNL A   1      46.434  28.325  36.254  1.00  0.00     0.059 A 
ATOM     90  F   UNL A   1      45.705  30.088  34.890  1.00  0.00    -0.206 F 
ATOM     91  C   UNL A   1      46.127  27.245  37.082  1.00  0.00     0.060 A 
BRANCH  91  92
ATOM     92  S   UNL A   1      47.449  26.253  37.808  1.00  0.00     0.124 S 
ATOM     93  O   UNL A   1      47.016  26.156  39.197  1.00  0.00    -0.237 OA
ATOM     94  O   UNL A   1      47.377  25.018  37.033  1.00  0.00    -0.237 OA
ATOM     95  O   UNL A   1      48.644  27.059  37.577  1.00  0.00    -0.744 OA
ENDBRANCH  91  92
ENDBRANCH  59  84
ENDBRANCH  33  34
ENDBRANCH  25  28
ENDBRANCH  23  24
ENDBRANCH  22  23
ENDBRANCH  21  22
ENDBRANCH   1  21
TORSDOF 19
ENDMDL
