MODEL 1
REMARK VINA RESULT:      -9.4      0.000      0.000
REMARK SMILES COc1cc(/C=C2/SC(=S)N(c3ccc(C)cc3C)C2=O)ccc1O[C@@H](C)C(=O)NCCCCNC(=O)c1ccc(-c2c3nc(c(-c4c(F)cc(S(=O)(=O)[O-])cc4F)c4ccc([nH]4)c(-c4c(F)cc(S(=O)(=O)[O-])cc4F)c4nc(c(-c5c(F)cc(S(=O)(=O)[O-])cc5F)c5ccc2[nH]5)C=C4)C=C3)cc1
REMARK SMILES IDX 32 1 31 2 30 3 28 4 29 5 26 7 27 8 25 9 24 10 3 11 4 12 5 13
REMARK SMILES IDX 23 14 22 15 2 16 1 17 6 18 7 19 8 20 20 21 9 22 11 23 21 24
REMARK SMILES IDX 10 25 12 26 13 27 18 28 14 29 17 30 19 31 15 32 16 33 33 34
REMARK SMILES IDX 34 35 35 36 36 37 37 39 38 40 39 41 103 42 40 43 102 44
REMARK SMILES IDX 41 45 42 46 43 47 96 48 44 49 101 50 95 51 97 52 45 53
REMARK SMILES IDX 100 54 94 55 93 56 46 58 80 59 59 60 79 61 60 62 63 63 78 64
REMARK SMILES IDX 98 65 61 66 62 67 77 69 99 70 64 71 47 72 48 73 57 74 49 75
REMARK SMILES IDX 50 76 56 77 58 78 51 79 52 80 53 81 54 82 55 83 81 84 82 85
REMARK SMILES IDX 91 86 83 87 84 88 90 89 92 90 85 91 86 92 87 93 88 94 89 95
REMARK SMILES IDX 65 96 66 97 75 98 67 99 68 100 74 101 76 102 69 103 70 104
REMARK SMILES IDX 71 105 72 106 73 107
REMARK H PARENT 30 6 35 38 97 57 63 68
REMARK Flexibility Score: inf
ROOT
ATOM      1  C   UNL A   1      41.363  22.688  27.608  1.00  0.00     0.023 C 
ENDROOT
BRANCH   1   2
ATOM      2  C   UNL A   1      40.107  23.095  26.850  1.00  0.00     0.116 C 
BRANCH   2   3
ATOM      3  N   UNL A   1      40.241  24.349  26.149  1.00  0.00    -0.353 N 
ATOM      4  C   UNL A   1      40.510  25.624  26.493  1.00  0.00     0.260 C 
ATOM      5  O   UNL A   1      40.839  26.328  25.519  1.00  0.00    -0.271 OA
ATOM      6  H   UNL A   1      40.102  24.248  25.180  1.00  0.00     0.163 HD
BRANCH   4   7
ATOM      7  C   UNL A   1      40.492  26.314  27.921  1.00  0.00     0.259 C 
ATOM      8  C   UNL A   1      41.923  26.344  28.488  1.00  0.00     0.064 C 
BRANCH   7   9
ATOM      9  O   UNL A   1      39.615  26.539  29.002  1.00  0.00    -0.477 OA
BRANCH   9  10
ATOM     10  C   UNL A   1      38.889  27.676  29.094  1.00  0.00     0.162 A 
ATOM     11  C   UNL A   1      38.256  28.141  30.248  1.00  0.00     0.161 A 
ATOM     12  C   UNL A   1      37.483  29.315  30.181  1.00  0.00     0.058 A 
ATOM     13  C   UNL A   1      37.400  30.041  28.978  1.00  0.00    -0.020 A 
ATOM     14  C   UNL A   1      38.968  28.502  27.976  1.00  0.00     0.051 A 
ATOM     15  C   UNL A   1      38.270  29.703  27.941  1.00  0.00     0.012 A 
BRANCH  11  16
ATOM     16  O   UNL A   1      38.543  27.519  31.432  1.00  0.00    -0.493 OA
ATOM     17  C   UNL A   1      38.353  28.272  32.622  1.00  0.00     0.278 C 
ENDBRANCH  11  16
BRANCH  13  18
ATOM     18  C   UNL A   1      36.393  31.103  28.790  1.00  0.00     0.029 C 
ATOM     19  C   UNL A   1      35.232  30.987  28.112  1.00  0.00     0.081 C 
ATOM     20  S   UNL A   1      34.112  32.295  27.956  1.00  0.00    -0.054 SA
ATOM     21  C   UNL A   1      34.679  29.794  27.387  1.00  0.00     0.270 C 
ATOM     22  C   UNL A   1      32.988  31.370  26.953  1.00  0.00     0.152 C 
ATOM     23  N   UNL A   1      33.518  30.120  26.704  1.00  0.00    -0.261 N 
ATOM     24  O   UNL A   1      35.197  28.685  27.397  1.00  0.00    -0.268 OA
ATOM     25  S   UNL A   1      31.507  32.001  26.504  1.00  0.00    -0.051 S 
BRANCH  23  26
ATOM     26  C   UNL A   1      32.945  29.141  25.835  1.00  0.00     0.054 A 
ATOM     27  C   UNL A   1      33.285  29.173  24.471  1.00  0.00     0.027 A 
ATOM     28  C   UNL A   1      31.944  28.247  26.265  1.00  0.00    -0.027 A 
ATOM     29  C   UNL A   1      32.677  28.319  23.550  1.00  0.00     0.005 A 
ATOM     30  C   UNL A   1      31.356  27.375  25.324  1.00  0.00     0.009 A 
ATOM     31  C   UNL A   1      31.403  28.199  27.668  1.00  0.00     0.046 C 
ATOM     32  C   UNL A   1      31.707  27.411  23.969  1.00  0.00    -0.051 A 
ATOM     33  C   UNL A   1      31.039  26.514  22.969  1.00  0.00     0.044 C 
ENDBRANCH  23  26
ENDBRANCH  13  18
ENDBRANCH   9  10
ENDBRANCH   7   9
ENDBRANCH   4   7
ENDBRANCH   2   3
ENDBRANCH   1   2
BRANCH   1  34
ATOM     34  C   UNL A   1      42.627  22.504  26.765  1.00  0.00     0.023 C 
BRANCH  34  35
ATOM     35  C   UNL A   1      43.829  23.383  27.098  1.00  0.00     0.116 C 
BRANCH  35  36
ATOM     36  N   UNL A   1      44.764  23.588  26.001  1.00  0.00    -0.352 N 
ATOM     37  C   UNL A   1      45.344  24.771  25.585  1.00  0.00     0.251 C 
ATOM     38  H   UNL A   1      45.015  22.782  25.493  1.00  0.00     0.163 HD
ATOM     39  O   UNL A   1      46.107  24.779  24.623  1.00  0.00    -0.269 OA
BRANCH  37  40
ATOM     40  C   UNL A   1      44.988  26.034  26.279  1.00  0.00     0.039 A 
ATOM     41  C   UNL A   1      45.553  26.311  27.527  1.00  0.00     0.014 A 
ATOM     42  C   UNL A   1      44.189  26.988  25.644  1.00  0.00     0.014 A 
ATOM     43  C   UNL A   1      45.417  27.591  28.078  1.00  0.00     0.010 A 
ATOM     44  C   UNL A   1      44.122  28.282  26.157  1.00  0.00     0.010 A 
ATOM     45  C   UNL A   1      44.759  28.608  27.365  1.00  0.00    -0.014 A 
BRANCH  45  46
ATOM     46  C   UNL A   1      44.778  30.027  27.821  1.00  0.00     0.031 A 
ATOM     47  C   UNL A   1      45.979  30.897  27.565  1.00  0.00     0.074 A 
ATOM     48  C   UNL A   1      43.759  30.503  28.567  1.00  0.00     0.049 A 
ATOM     49  N   UNL A   1      46.232  32.107  27.995  1.00  0.00    -0.248 NA
ATOM     50  C   UNL A   1      47.054  30.315  26.746  1.00  0.00     0.031 C 
ATOM     51  C   UNL A   1      42.564  29.750  28.954  1.00  0.00     0.029 A 
ATOM     52  N   UNL A   1      43.574  31.732  29.154  1.00  0.00    -0.354 N 
ATOM     53  C   UNL A   1      47.502  32.421  27.526  1.00  0.00     0.074 A 
ATOM     54  C   UNL A   1      47.986  31.255  26.815  1.00  0.00     0.031 C 
ATOM     55  C   UNL A   1      41.761  30.537  29.687  1.00  0.00     0.029 A 
ATOM     56  C   UNL A   1      42.396  31.840  29.857  1.00  0.00     0.049 A 
ATOM     57  H   UNL A   1      44.223  32.468  29.077  1.00  0.00     0.167 HD
ATOM     58  C   UNL A   1      48.196  33.577  27.655  1.00  0.00     0.037 A 
ATOM     59  C   UNL A   1      41.885  32.866  30.564  1.00  0.00     0.037 A 
ATOM     60  C   UNL A   1      47.700  34.753  28.321  1.00  0.00     0.049 A 
ATOM     61  C   UNL A   1      42.652  34.157  30.656  1.00  0.00     0.074 A 
ATOM     62  C   UNL A   1      48.300  35.994  28.440  1.00  0.00     0.029 A 
ATOM     63  N   UNL A   1      46.479  34.836  28.975  1.00  0.00    -0.354 N 
ATOM     64  N   UNL A   1      43.828  34.452  30.157  1.00  0.00    -0.248 NA
ATOM     65  C   UNL A   1      42.023  35.254  31.406  1.00  0.00     0.031 C 
ATOM     66  C   UNL A   1      47.452  36.822  29.187  1.00  0.00     0.029 A 
ATOM     67  C   UNL A   1      46.311  36.104  29.506  1.00  0.00     0.049 A 
ATOM     68  H   UNL A   1      45.828  34.102  29.051  1.00  0.00     0.167 HD
ATOM     69  C   UNL A   1      44.070  35.774  30.512  1.00  0.00     0.074 A 
ATOM     70  C   UNL A   1      42.915  36.225  31.260  1.00  0.00     0.031 C 
ATOM     71  C   UNL A   1      45.152  36.544  30.242  1.00  0.00     0.037 A 
BRANCH  58  72
ATOM     72  C   UNL A   1      49.569  33.628  27.046  1.00  0.00     0.058 A 
ATOM     73  C   UNL A   1      49.780  34.136  25.753  1.00  0.00     0.135 A 
ATOM     74  C   UNL A   1      50.688  33.172  27.760  1.00  0.00     0.135 A 
ATOM     75  F   UNL A   1      48.742  34.573  25.023  1.00  0.00    -0.206 F 
ATOM     76  C   UNL A   1      51.044  34.151  25.175  1.00  0.00     0.059 A 
ATOM     77  C   UNL A   1      51.967  33.200  27.210  1.00  0.00     0.059 A 
ATOM     78  F   UNL A   1      50.544  32.679  29.001  1.00  0.00    -0.206 F 
ATOM     79  C   UNL A   1      52.130  33.672  25.908  1.00  0.00     0.060 A 
BRANCH  79  80
ATOM     80  S   UNL A   1      53.763  33.670  25.137  1.00  0.00     0.124 S 
ATOM     81  O   UNL A   1      53.413  33.757  23.722  1.00  0.00    -0.237 OA
ATOM     82  O   UNL A   1      54.383  34.862  25.708  1.00  0.00    -0.237 OA
ATOM     83  O   UNL A   1      54.338  32.400  25.566  1.00  0.00    -0.744 OA
ENDBRANCH  79  80
ENDBRANCH  58  72
BRANCH  59  84
ATOM     84  C   UNL A   1      40.555  32.729  31.212  1.00  0.00     0.058 A 
ATOM     85  C   UNL A   1      40.434  32.126  32.474  1.00  0.00     0.135 A 
ATOM     86  C   UNL A   1      39.387  33.209  30.601  1.00  0.00     0.135 A 
ATOM     87  F   UNL A   1      41.522  31.645  33.093  1.00  0.00    -0.206 F 
ATOM     88  C   UNL A   1      39.200  31.990  33.101  1.00  0.00     0.059 A 
ATOM     89  C   UNL A   1      38.144  33.102  31.218  1.00  0.00     0.059 A 
ATOM     90  F   UNL A   1      39.453  33.808  29.402  1.00  0.00    -0.206 F 
ATOM     91  C   UNL A   1      38.059  32.482  32.465  1.00  0.00     0.060 A 
BRANCH  91  92
ATOM     92  S   UNL A   1      36.467  32.349  33.308  1.00  0.00     0.124 S 
ATOM     93  O   UNL A   1      36.878  32.328  34.707  1.00  0.00    -0.237 OA
ATOM     94  O   UNL A   1      35.778  33.556  32.863  1.00  0.00    -0.237 OA
ATOM     95  O   UNL A   1      35.920  31.098  32.791  1.00  0.00    -0.744 OA
ENDBRANCH  91  92
ENDBRANCH  59  84
BRANCH  71  96
ATOM     96  C   UNL A   1      45.131  37.963  30.732  1.00  0.00     0.058 A 
ATOM     97  C   UNL A   1      45.693  38.320  31.968  1.00  0.00     0.135 A 
ATOM     98  C   UNL A   1      44.589  38.983  29.935  1.00  0.00     0.135 A 
ATOM     99  F   UNL A   1      46.216  37.380  32.769  1.00  0.00    -0.206 F 
ATOM    100  C   UNL A   1      45.704  39.641  32.403  1.00  0.00     0.059 A 
ATOM    101  C   UNL A   1      44.607  40.313  30.342  1.00  0.00     0.059 A 
ATOM    102  F   UNL A   1      44.046  38.692  28.742  1.00  0.00    -0.206 F 
ATOM    103  C   UNL A   1      45.160  40.632  31.582  1.00  0.00     0.060 A 
BRANCH 103 104
ATOM    104  S   UNL A   1      45.216  42.349  32.137  1.00  0.00     0.124 S 
ATOM    105  O   UNL A   1      46.586  42.455  32.627  1.00  0.00    -0.237 OA
ATOM    106  O   UNL A   1      44.921  43.086  30.912  1.00  0.00    -0.237 OA
ATOM    107  O   UNL A   1      44.175  42.408  33.160  1.00  0.00    -0.744 OA
ENDBRANCH 103 104
ENDBRANCH  71  96
ENDBRANCH  45  46
ENDBRANCH  37  40
ENDBRANCH  35  36
ENDBRANCH  34  35
ENDBRANCH   1  34
TORSDOF 19
ENDMDL
MODEL 2
REMARK VINA RESULT:      -9.3     10.842     14.952
REMARK SMILES COc1cc(/C=C2/SC(=S)N(c3ccc(C)cc3C)C2=O)ccc1O[C@@H](C)C(=O)NCCCCNC(=O)c1ccc(-c2c3nc(c(-c4c(F)cc(S(=O)(=O)[O-])cc4F)c4ccc([nH]4)c(-c4c(F)cc(S(=O)(=O)[O-])cc4F)c4nc(c(-c5c(F)cc(S(=O)(=O)[O-])cc5F)c5ccc2[nH]5)C=C4)C=C3)cc1
REMARK SMILES IDX 32 1 31 2 30 3 28 4 29 5 26 7 27 8 25 9 24 10 3 11 4 12 5 13
REMARK SMILES IDX 23 14 22 15 2 16 1 17 6 18 7 19 8 20 20 21 9 22 11 23 21 24
REMARK SMILES IDX 10 25 12 26 13 27 18 28 14 29 17 30 19 31 15 32 16 33 33 34
REMARK SMILES IDX 34 35 35 36 36 37 37 39 38 40 39 41 103 42 40 43 102 44
REMARK SMILES IDX 41 45 42 46 43 47 96 48 44 49 101 50 95 51 97 52 45 53
REMARK SMILES IDX 100 54 94 55 93 56 46 58 80 59 59 60 79 61 60 62 63 63 78 64
REMARK SMILES IDX 98 65 61 66 62 67 77 69 99 70 64 71 47 72 48 73 57 74 49 75
REMARK SMILES IDX 50 76 56 77 58 78 51 79 52 80 53 81 54 82 55 83 81 84 82 85
REMARK SMILES IDX 91 86 83 87 84 88 90 89 92 90 85 91 86 92 87 93 88 94 89 95
REMARK SMILES IDX 65 96 66 97 75 98 67 99 68 100 74 101 76 102 69 103 70 104
REMARK SMILES IDX 71 105 72 106 73 107
REMARK H PARENT 30 6 35 38 97 57 63 68
REMARK Flexibility Score: inf
ROOT
ATOM      1  C   UNL A   1      45.293  23.690  38.916  1.00  0.00     0.023 C 
ENDROOT
BRANCH   1   2
ATOM      2  C   UNL A   1      45.471  22.517  39.870  1.00  0.00     0.116 C 
BRANCH   2   3
ATOM      3  N   UNL A   1      46.810  21.978  39.873  1.00  0.00    -0.353 N 
ATOM      4  C   UNL A   1      47.387  20.824  39.485  1.00  0.00     0.260 C 
ATOM      5  O   UNL A   1      48.626  20.914  39.385  1.00  0.00    -0.271 OA
ATOM      6  H   UNL A   1      47.462  22.610  40.252  1.00  0.00     0.163 HD
BRANCH   4   7
ATOM      7  C   UNL A   1      46.725  19.429  39.124  1.00  0.00     0.259 C 
ATOM      8  C   UNL A   1      46.168  19.487  37.690  1.00  0.00     0.064 C 
BRANCH   7   9
ATOM      9  O   UNL A   1      46.118  18.325  39.758  1.00  0.00    -0.477 OA
BRANCH   9  10
ATOM     10  C   UNL A   1      45.948  18.290  41.099  1.00  0.00     0.162 A 
ATOM     11  C   UNL A   1      46.975  18.257  42.044  1.00  0.00     0.161 A 
ATOM     12  C   UNL A   1      46.647  18.162  43.409  1.00  0.00     0.058 A 
ATOM     13  C   UNL A   1      45.300  18.160  43.817  1.00  0.00    -0.020 A 
ATOM     14  C   UNL A   1      44.637  18.492  41.519  1.00  0.00     0.051 A 
ATOM     15  C   UNL A   1      44.324  18.481  42.873  1.00  0.00     0.012 A 
BRANCH  11  16
ATOM     16  O   UNL A   1      48.253  18.476  41.611  1.00  0.00    -0.493 OA
ATOM     17  C   UNL A   1      49.266  18.575  42.603  1.00  0.00     0.278 C 
ENDBRANCH  11  16
BRANCH  13  18
ATOM     18  C   UNL A   1      44.913  17.786  45.191  1.00  0.00     0.029 C 
ATOM     19  C   UNL A   1      44.550  16.554  45.607  1.00  0.00     0.081 C 
ATOM     20  S   UNL A   1      44.121  16.217  47.247  1.00  0.00    -0.054 SA
ATOM     21  C   UNL A   1      44.436  15.286  44.811  1.00  0.00     0.270 C 
ATOM     22  C   UNL A   1      43.758  14.517  46.927  1.00  0.00     0.152 C 
ATOM     23  N   UNL A   1      43.903  14.262  45.579  1.00  0.00    -0.261 N 
ATOM     24  O   UNL A   1      44.767  15.181  43.638  1.00  0.00    -0.268 OA
ATOM     25  S   UNL A   1      43.381  13.463  48.169  1.00  0.00    -0.051 S 
BRANCH  23  26
ATOM     26  C   UNL A   1      43.582  13.028  44.933  1.00  0.00     0.054 A 
ATOM     27  C   UNL A   1      44.547  12.005  44.925  1.00  0.00     0.027 A 
ATOM     28  C   UNL A   1      42.404  12.857  44.181  1.00  0.00    -0.027 A 
ATOM     29  C   UNL A   1      44.343  10.820  44.218  1.00  0.00     0.005 A 
ATOM     30  C   UNL A   1      42.203  11.643  43.490  1.00  0.00     0.009 A 
ATOM     31  C   UNL A   1      41.352  13.920  44.008  1.00  0.00     0.046 C 
ATOM     32  C   UNL A   1      43.168  10.628  43.494  1.00  0.00    -0.051 A 
ATOM     33  C   UNL A   1      42.967   9.361  42.715  1.00  0.00     0.044 C 
ENDBRANCH  23  26
ENDBRANCH  13  18
ENDBRANCH   9  10
ENDBRANCH   7   9
ENDBRANCH   4   7
ENDBRANCH   2   3
ENDBRANCH   1   2
BRANCH   1  34
ATOM     34  C   UNL A   1      45.299  23.350  37.423  1.00  0.00     0.023 C 
BRANCH  34  35
ATOM     35  C   UNL A   1      46.114  24.251  36.500  1.00  0.00     0.116 C 
BRANCH  35  36
ATOM     36  N   UNL A   1      47.253  24.906  37.127  1.00  0.00    -0.352 N 
ATOM     37  C   UNL A   1      47.429  26.253  37.378  1.00  0.00     0.251 C 
ATOM     38  H   UNL A   1      47.989  24.315  37.406  1.00  0.00     0.163 HD
ATOM     39  O   UNL A   1      48.464  26.652  37.905  1.00  0.00    -0.269 OA
BRANCH  37  40
ATOM     40  C   UNL A   1      46.378  27.212  36.955  1.00  0.00     0.039 A 
ATOM     41  C   UNL A   1      46.648  28.108  35.917  1.00  0.00     0.014 A 
ATOM     42  C   UNL A   1      45.096  27.146  37.506  1.00  0.00     0.014 A 
ATOM     43  C   UNL A   1      45.602  28.846  35.352  1.00  0.00     0.010 A 
ATOM     44  C   UNL A   1      44.045  27.822  36.891  1.00  0.00     0.010 A 
ATOM     45  C   UNL A   1      44.279  28.658  35.787  1.00  0.00    -0.014 A 
BRANCH  45  46
ATOM     46  C   UNL A   1      43.120  29.264  35.072  1.00  0.00     0.031 A 
ATOM     47  C   UNL A   1      42.740  28.793  33.693  1.00  0.00     0.074 A 
ATOM     48  C   UNL A   1      42.478  30.319  35.614  1.00  0.00     0.049 A 
ATOM     49  N   UNL A   1      41.852  29.283  32.867  1.00  0.00    -0.248 NA
ATOM     50  C   UNL A   1      43.483  27.639  33.161  1.00  0.00     0.031 C 
ATOM     51  C   UNL A   1      42.786  30.928  36.911  1.00  0.00     0.029 A 
ATOM     52  N   UNL A   1      41.442  31.083  35.133  1.00  0.00    -0.354 N 
ATOM     53  C   UNL A   1      41.948  28.520  31.709  1.00  0.00     0.074 A 
ATOM     54  C   UNL A   1      43.012  27.562  31.925  1.00  0.00     0.031 C 
ATOM     55  C   UNL A   1      41.943  31.949  37.134  1.00  0.00     0.029 A 
ATOM     56  C   UNL A   1      41.058  32.096  35.982  1.00  0.00     0.049 A 
ATOM     57  H   UNL A   1      41.013  30.921  34.262  1.00  0.00     0.167 HD
ATOM     58  C   UNL A   1      41.206  28.594  30.577  1.00  0.00     0.037 A 
ATOM     59  C   UNL A   1      40.106  33.041  35.851  1.00  0.00     0.037 A 
ATOM     60  C   UNL A   1      40.118  29.514  30.377  1.00  0.00     0.049 A 
ATOM     61  C   UNL A   1      39.265  33.075  34.605  1.00  0.00     0.074 A 
ATOM     62  C   UNL A   1      39.262  29.615  29.294  1.00  0.00     0.029 A 
ATOM     63  N   UNL A   1      39.729  30.489  31.285  1.00  0.00    -0.354 N 
ATOM     64  N   UNL A   1      39.334  32.308  33.544  1.00  0.00    -0.248 NA
ATOM     65  C   UNL A   1      38.215  34.103  34.538  1.00  0.00     0.031 C 
ATOM     66  C   UNL A   1      38.370  30.666  29.535  1.00  0.00     0.029 A 
ATOM     67  C   UNL A   1      38.651  31.201  30.782  1.00  0.00     0.049 A 
ATOM     68  H   UNL A   1      40.155  30.651  32.156  1.00  0.00     0.167 HD
ATOM     69  C   UNL A   1      38.324  32.744  32.694  1.00  0.00     0.074 A 
ATOM     70  C   UNL A   1      37.652  33.836  33.367  1.00  0.00     0.031 C 
ATOM     71  C   UNL A   1      37.985  32.280  31.466  1.00  0.00     0.037 A 
BRANCH  58  72
ATOM     72  C   UNL A   1      41.544  27.636  29.469  1.00  0.00     0.058 A 
ATOM     73  C   UNL A   1      40.709  26.550  29.158  1.00  0.00     0.135 A 
ATOM     74  C   UNL A   1      42.709  27.805  28.704  1.00  0.00     0.135 A 
ATOM     75  F   UNL A   1      39.590  26.335  29.868  1.00  0.00    -0.206 F 
ATOM     76  C   UNL A   1      41.038  25.642  28.158  1.00  0.00     0.059 A 
ATOM     77  C   UNL A   1      43.045  26.923  27.681  1.00  0.00     0.059 A 
ATOM     78  F   UNL A   1      43.541  28.829  28.956  1.00  0.00    -0.206 F 
ATOM     79  C   UNL A   1      42.214  25.833  27.431  1.00  0.00     0.060 A 
BRANCH  79  80
ATOM     80  S   UNL A   1      42.644  24.633  26.152  1.00  0.00     0.124 S 
ATOM     81  O   UNL A   1      41.727  23.540  26.461  1.00  0.00    -0.237 OA
ATOM     82  O   UNL A   1      42.362  25.366  24.922  1.00  0.00    -0.237 OA
ATOM     83  O   UNL A   1      44.055  24.361  26.406  1.00  0.00    -0.744 OA
ENDBRANCH  79  80
ENDBRANCH  58  72
BRANCH  59  84
ATOM     84  C   UNL A   1      39.871  34.014  36.950  1.00  0.00     0.058 A 
ATOM     85  C   UNL A   1      40.339  35.333  36.848  1.00  0.00     0.135 A 
ATOM     86  C   UNL A   1      39.166  33.656  38.108  1.00  0.00     0.135 A 
ATOM     87  F   UNL A   1      41.026  35.718  35.762  1.00  0.00    -0.206 F 
ATOM     88  C   UNL A   1      40.128  36.261  37.862  1.00  0.00     0.059 A 
ATOM     89  C   UNL A   1      38.925  34.573  39.128  1.00  0.00     0.059 A 
ATOM     90  F   UNL A   1      38.685  32.410  38.245  1.00  0.00    -0.206 F 
ATOM     91  C   UNL A   1      39.418  35.871  38.999  1.00  0.00     0.060 A 
BRANCH  91  92
ATOM     92  S   UNL A   1      39.103  37.096  40.289  1.00  0.00     0.124 S 
ATOM     93  O   UNL A   1      38.437  38.151  39.535  1.00  0.00    -0.237 OA
ATOM     94  O   UNL A   1      38.264  36.352  41.224  1.00  0.00    -0.237 OA
ATOM     95  O   UNL A   1      40.440  37.416  40.779  1.00  0.00    -0.744 OA
ENDBRANCH  91  92
ENDBRANCH  59  84
BRANCH  71  96
ATOM     96  C   UNL A   1      36.819  32.930  30.780  1.00  0.00     0.058 A 
ATOM     97  C   UNL A   1      35.497  32.661  31.166  1.00  0.00     0.135 A 
ATOM     98  C   UNL A   1      37.028  33.871  29.759  1.00  0.00     0.135 A 
ATOM     99  F   UNL A   1      35.245  31.763  32.132  1.00  0.00    -0.206 F 
ATOM    100  C   UNL A   1      34.420  33.292  30.553  1.00  0.00     0.059 A 
ATOM    101  C   UNL A   1      35.967  34.529  29.146  1.00  0.00     0.059 A 
ATOM    102  F   UNL A   1      38.275  34.168  29.359  1.00  0.00    -0.206 F 
ATOM    103  C   UNL A   1      34.665  34.226  29.544  1.00  0.00     0.060 A 
BRANCH 103 104
ATOM    104  S   UNL A   1      33.263  35.071  28.782  1.00  0.00     0.124 S 
ATOM    105  O   UNL A   1      32.403  35.313  29.935  1.00  0.00    -0.237 OA
ATOM    106  O   UNL A   1      33.887  36.255  28.198  1.00  0.00    -0.237 OA
ATOM    107  O   UNL A   1      32.763  34.095  27.818  1.00  0.00    -0.744 OA
ENDBRANCH 103 104
ENDBRANCH  71  96
ENDBRANCH  45  46
ENDBRANCH  37  40
ENDBRANCH  35  36
ENDBRANCH  34  35
ENDBRANCH   1  34
TORSDOF 19
ENDMDL
MODEL 3
REMARK VINA RESULT:      -9.2      4.031      8.621
REMARK SMILES COc1cc(/C=C2/SC(=S)N(c3ccc(C)cc3C)C2=O)ccc1O[C@@H](C)C(=O)NCCCCNC(=O)c1ccc(-c2c3nc(c(-c4c(F)cc(S(=O)(=O)[O-])cc4F)c4ccc([nH]4)c(-c4c(F)cc(S(=O)(=O)[O-])cc4F)c4nc(c(-c5c(F)cc(S(=O)(=O)[O-])cc5F)c5ccc2[nH]5)C=C4)C=C3)cc1
REMARK SMILES IDX 32 1 31 2 30 3 28 4 29 5 26 7 27 8 25 9 24 10 3 11 4 12 5 13
REMARK SMILES IDX 23 14 22 15 2 16 1 17 6 18 7 19 8 20 20 21 9 22 11 23 21 24
REMARK SMILES IDX 10 25 12 26 13 27 18 28 14 29 17 30 19 31 15 32 16 33 33 34
REMARK SMILES IDX 34 35 35 36 36 37 37 39 38 40 39 41 103 42 40 43 102 44
REMARK SMILES IDX 41 45 42 46 43 47 96 48 44 49 101 50 95 51 97 52 45 53
REMARK SMILES IDX 100 54 94 55 93 56 46 58 80 59 59 60 79 61 60 62 63 63 78 64
REMARK SMILES IDX 98 65 61 66 62 67 77 69 99 70 64 71 47 72 48 73 57 74 49 75
REMARK SMILES IDX 50 76 56 77 58 78 51 79 52 80 53 81 54 82 55 83 81 84 82 85
REMARK SMILES IDX 91 86 83 87 84 88 90 89 92 90 85 91 86 92 87 93 88 94 89 95
REMARK SMILES IDX 65 96 66 97 75 98 67 99 68 100 74 101 76 102 69 103 70 104
REMARK SMILES IDX 71 105 72 106 73 107
REMARK H PARENT 30 6 35 38 97 57 63 68
REMARK Flexibility Score: inf
ROOT
ATOM      1  C   UNL A   1      42.775  21.583  25.644  1.00  0.00     0.023 C 
ENDROOT
BRANCH   1   2
ATOM      2  C   UNL A   1      43.974  22.139  24.889  1.00  0.00     0.116 C 
BRANCH   2   3
ATOM      3  N   UNL A   1      44.087  23.575  24.968  1.00  0.00    -0.353 N 
ATOM      4  C   UNL A   1      45.025  24.449  25.384  1.00  0.00     0.260 C 
ATOM      5  O   UNL A   1      44.819  25.608  24.976  1.00  0.00    -0.271 OA
ATOM      6  H   UNL A   1      43.279  24.029  24.637  1.00  0.00     0.163 HD
BRANCH   4   7
ATOM      7  C   UNL A   1      46.322  24.204  26.264  1.00  0.00     0.259 C 
ATOM      8  C   UNL A   1      45.901  23.900  27.713  1.00  0.00     0.064 C 
BRANCH   7   9
ATOM      9  O   UNL A   1      47.688  24.549  26.294  1.00  0.00    -0.477 OA
BRANCH   9  10
ATOM     10  C   UNL A   1      48.086  25.838  26.381  1.00  0.00     0.162 A 
ATOM     11  C   UNL A   1      48.303  26.693  25.299  1.00  0.00     0.161 A 
ATOM     12  C   UNL A   1      48.775  27.997  25.538  1.00  0.00     0.058 A 
ATOM     13  C   UNL A   1      48.966  28.451  26.856  1.00  0.00    -0.020 A 
ATOM     14  C   UNL A   1      48.082  26.357  27.673  1.00  0.00     0.051 A 
ATOM     15  C   UNL A   1      48.469  27.672  27.902  1.00  0.00     0.012 A 
BRANCH  11  16
ATOM     16  O   UNL A   1      47.899  26.275  24.061  1.00  0.00    -0.493 OA
ATOM     17  C   UNL A   1      48.658  26.726  22.946  1.00  0.00     0.278 C 
ENDBRANCH  11  16
BRANCH  13  18
ATOM     18  C   UNL A   1      49.712  29.692  27.141  1.00  0.00     0.029 C 
ATOM     19  C   UNL A   1      49.175  30.914  27.339  1.00  0.00     0.081 C 
ATOM     20  S   UNL A   1      50.140  32.309  27.677  1.00  0.00    -0.054 SA
ATOM     21  C   UNL A   1      47.732  31.325  27.312  1.00  0.00     0.270 C 
ATOM     22  C   UNL A   1      48.752  33.402  27.736  1.00  0.00     0.152 C 
ATOM     23  N   UNL A   1      47.603  32.701  27.432  1.00  0.00    -0.261 N 
ATOM     24  O   UNL A   1      46.798  30.543  27.193  1.00  0.00    -0.268 OA
ATOM     25  S   UNL A   1      48.929  35.003  28.179  1.00  0.00    -0.051 S 
BRANCH  23  26
ATOM     26  C   UNL A   1      46.305  33.276  27.269  1.00  0.00     0.054 A 
ATOM     27  C   UNL A   1      45.970  33.837  26.024  1.00  0.00     0.027 A 
ATOM     28  C   UNL A   1      45.413  33.436  28.348  1.00  0.00    -0.027 A 
ATOM     29  C   UNL A   1      44.765  34.513  25.831  1.00  0.00     0.005 A 
ATOM     30  C   UNL A   1      44.189  34.103  28.130  1.00  0.00     0.009 A 
ATOM     31  C   UNL A   1      45.705  32.993  29.756  1.00  0.00     0.046 C 
ATOM     32  C   UNL A   1      43.863  34.651  26.884  1.00  0.00    -0.051 A 
ATOM     33  C   UNL A   1      42.581  35.403  26.676  1.00  0.00     0.044 C 
ENDBRANCH  23  26
ENDBRANCH  13  18
ENDBRANCH   9  10
ENDBRANCH   7   9
ENDBRANCH   4   7
ENDBRANCH   2   3
ENDBRANCH   1   2
BRANCH   1  34
ATOM     34  C   UNL A   1      42.692  21.940  27.130  1.00  0.00     0.023 C 
BRANCH  34  35
ATOM     35  C   UNL A   1      41.304  22.013  27.759  1.00  0.00     0.116 C 
BRANCH  35  36
ATOM     36  N   UNL A   1      40.197  21.836  26.831  1.00  0.00    -0.352 N 
ATOM     37  C   UNL A   1      39.288  22.781  26.397  1.00  0.00     0.251 C 
ATOM     38  H   UNL A   1      40.082  20.928  26.467  1.00  0.00     0.163 HD
ATOM     39  O   UNL A   1      38.393  22.465  25.617  1.00  0.00    -0.269 OA
BRANCH  37  40
ATOM     40  C   UNL A   1      39.373  24.164  26.929  1.00  0.00     0.039 A 
ATOM     41  C   UNL A   1      38.760  24.468  28.148  1.00  0.00     0.014 A 
ATOM     42  C   UNL A   1      40.152  25.125  26.279  1.00  0.00     0.014 A 
ATOM     43  C   UNL A   1      39.032  25.691  28.772  1.00  0.00     0.010 A 
ATOM     44  C   UNL A   1      40.481  26.307  26.938  1.00  0.00     0.010 A 
ATOM     45  C   UNL A   1      39.949  26.592  28.206  1.00  0.00    -0.014 A 
BRANCH  45  46
ATOM     46  C   UNL A   1      40.422  27.801  28.940  1.00  0.00     0.031 A 
ATOM     47  C   UNL A   1      41.765  27.807  29.620  1.00  0.00     0.074 A 
ATOM     48  C   UNL A   1      39.594  28.855  29.094  1.00  0.00     0.049 A 
ATOM     49  N   UNL A   1      42.289  28.710  30.410  1.00  0.00    -0.248 NA
ATOM     50  C   UNL A   1      42.616  26.625  29.413  1.00  0.00     0.031 C 
ATOM     51  C   UNL A   1      38.237  28.958  28.551  1.00  0.00     0.029 A 
ATOM     52  N   UNL A   1      39.764  30.038  29.772  1.00  0.00    -0.354 N 
ATOM     53  C   UNL A   1      43.514  28.195  30.817  1.00  0.00     0.074 A 
ATOM     54  C   UNL A   1      43.635  26.881  30.221  1.00  0.00     0.031 C 
ATOM     55  C   UNL A   1      37.710  30.144  28.892  1.00  0.00     0.029 A 
ATOM     56  C   UNL A   1      38.673  30.876  29.710  1.00  0.00     0.049 A 
ATOM     57  H   UNL A   1      40.590  30.267  30.256  1.00  0.00     0.167 HD
ATOM     58  C   UNL A   1      44.462  28.769  31.596  1.00  0.00     0.037 A 
ATOM     59  C   UNL A   1      38.466  32.092  30.251  1.00  0.00     0.037 A 
ATOM     60  C   UNL A   1      44.365  30.093  32.152  1.00  0.00     0.049 A 
ATOM     61  C   UNL A   1      39.550  32.729  31.077  1.00  0.00     0.074 A 
ATOM     62  C   UNL A   1      45.304  30.787  32.894  1.00  0.00     0.029 A 
ATOM     63  N   UNL A   1      43.264  30.928  32.021  1.00  0.00    -0.354 N 
ATOM     64  N   UNL A   1      40.726  32.248  31.403  1.00  0.00    -0.248 NA
ATOM     65  C   UNL A   1      39.281  34.074  31.606  1.00  0.00     0.031 C 
ATOM     66  C   UNL A   1      44.764  32.034  33.231  1.00  0.00     0.029 A 
ATOM     67  C   UNL A   1      43.499  32.127  32.674  1.00  0.00     0.049 A 
ATOM     68  H   UNL A   1      42.439  30.701  31.535  1.00  0.00     0.167 HD
ATOM     69  C   UNL A   1      41.345  33.240  32.155  1.00  0.00     0.074 A 
ATOM     70  C   UNL A   1      40.419  34.351  32.228  1.00  0.00     0.031 C 
ATOM     71  C   UNL A   1      42.572  33.229  32.733  1.00  0.00     0.037 A 
BRANCH  58  72
ATOM     72  C   UNL A   1      45.699  27.964  31.881  1.00  0.00     0.058 A 
ATOM     73  C   UNL A   1      46.912  28.224  31.221  1.00  0.00     0.135 A 
ATOM     74  C   UNL A   1      45.678  26.927  32.827  1.00  0.00     0.135 A 
ATOM     75  F   UNL A   1      46.982  29.196  30.298  1.00  0.00    -0.206 F 
ATOM     76  C   UNL A   1      48.047  27.457  31.457  1.00  0.00     0.059 A 
ATOM     77  C   UNL A   1      46.809  26.162  33.098  1.00  0.00     0.059 A 
ATOM     78  F   UNL A   1      44.546  26.638  33.489  1.00  0.00    -0.206 F 
ATOM     79  C   UNL A   1      47.983  26.422  32.391  1.00  0.00     0.060 A 
BRANCH  79  80
ATOM     80  S   UNL A   1      49.456  25.416  32.670  1.00  0.00     0.124 S 
ATOM     81  O   UNL A   1      50.390  26.410  33.191  1.00  0.00    -0.237 OA
ATOM     82  O   UNL A   1      48.985  24.425  33.633  1.00  0.00    -0.237 OA
ATOM     83  O   UNL A   1      49.766  24.897  31.342  1.00  0.00    -0.744 OA
ENDBRANCH  79  80
ENDBRANCH  58  72
BRANCH  59  84
ATOM     84  C   UNL A   1      37.188  32.807  30.000  1.00  0.00     0.058 A 
ATOM     85  C   UNL A   1      36.045  32.516  30.760  1.00  0.00     0.135 A 
ATOM     86  C   UNL A   1      37.085  33.800  29.015  1.00  0.00     0.135 A 
ATOM     87  F   UNL A   1      36.094  31.567  31.707  1.00  0.00    -0.206 F 
ATOM     88  C   UNL A   1      34.839  33.175  30.544  1.00  0.00     0.059 A 
ATOM     89  C   UNL A   1      35.894  34.488  28.794  1.00  0.00     0.059 A 
ATOM     90  F   UNL A   1      38.155  34.126  28.273  1.00  0.00    -0.206 F 
ATOM     91  C   UNL A   1      34.774  34.161  29.558  1.00  0.00     0.060 A 
BRANCH  91  92
ATOM     92  S   UNL A   1      33.219  35.048  29.318  1.00  0.00     0.124 S 
ATOM     93  O   UNL A   1      32.561  34.220  28.314  1.00  0.00    -0.237 OA
ATOM     94  O   UNL A   1      32.634  35.016  30.655  1.00  0.00    -0.237 OA
ATOM     95  O   UNL A   1      33.653  36.366  28.866  1.00  0.00    -0.744 OA
ENDBRANCH  91  92
ENDBRANCH  59  84
BRANCH  71  96
ATOM     96  C   UNL A   1      42.998  34.464  33.472  1.00  0.00     0.058 A 
ATOM     97  C   UNL A   1      42.877  34.561  34.867  1.00  0.00     0.135 A 
ATOM     98  C   UNL A   1      43.580  35.540  32.785  1.00  0.00     0.135 A 
ATOM     99  F   UNL A   1      42.319  33.562  35.569  1.00  0.00    -0.206 F 
ATOM    100  C   UNL A   1      43.307  35.692  35.554  1.00  0.00     0.059 A 
ATOM    101  C   UNL A   1      44.035  36.672  33.454  1.00  0.00     0.059 A 
ATOM    102  F   UNL A   1      43.724  35.491  31.451  1.00  0.00    -0.206 F 
ATOM    103  C   UNL A   1      43.886  36.743  34.838  1.00  0.00     0.060 A 
BRANCH 103 104
ATOM    104  S   UNL A   1      44.478  38.189  35.743  1.00  0.00     0.124 S 
ATOM    105  O   UNL A   1      43.737  38.077  36.994  1.00  0.00    -0.237 OA
ATOM    106  O   UNL A   1      45.914  37.939  35.831  1.00  0.00    -0.237 OA
ATOM    107  O   UNL A   1      44.095  39.305  34.883  1.00  0.00    -0.744 OA
ENDBRANCH 103 104
ENDBRANCH  71  96
ENDBRANCH  45  46
ENDBRANCH  37  40
ENDBRANCH  35  36
ENDBRANCH  34  35
ENDBRANCH   1  34
TORSDOF 19
ENDMDL
