MODEL 1
REMARK VINA RESULT:     -13.0      0.000      0.000
REMARK SMILES CS(=O)(=O)c1ccc(C(=O)N2C[C@@H](C(=O)NCCCCNC(=O)c3ccc(-c4c5nc(c(-c6c(F)cc(S(=O)(=O)[O-])cc6F)c6ccc([nH]6)c(-c6c(F)cc(S(=O)(=O)[O-])cc6F)c6nc(c(-c7c(F)cc(S(=O)(=O)[O-])cc7F)c7ccc4[nH]7)C=C6)C=C5)cc3)[C@H](c3ccncc3)C2)cc1
REMARK SMILES IDX 18 1 17 2 16 3 14 4 15 5 13 7 11 8 12 9 97 10 90 11 9 12
REMARK SMILES IDX 10 13 8 14 5 15 6 16 99 17 7 18 98 19 2 20 1 21 3 22 4 23
REMARK SMILES IDX 91 24 92 25 96 26 93 27 95 28 94 29 19 30 20 31 21 32 22 33
REMARK SMILES IDX 23 35 24 36 25 37 89 38 26 39 88 40 27 41 28 42 29 43 82 44
REMARK SMILES IDX 30 45 87 46 81 47 83 48 31 49 86 50 80 51 79 52 32 54 66 55
REMARK SMILES IDX 45 56 65 57 46 58 49 59 64 60 84 61 47 62 48 63 63 65 85 66
REMARK SMILES IDX 50 67 33 68 34 69 43 70 35 71 36 72 42 73 44 74 37 75 38 76
REMARK SMILES IDX 39 77 40 78 41 79 67 80 68 81 77 82 69 83 70 84 76 85 78 86
REMARK SMILES IDX 71 87 72 88 73 89 74 90 75 91 51 92 52 93 61 94 53 95 54 96
REMARK SMILES IDX 60 97 62 98 55 99 56 100 57 101 58 102 59 103
REMARK H PARENT 16 6 21 34 83 53 49 64
REMARK Flexibility Score: inf
ROOT
ATOM      1  C   UNL A   1      33.152  30.882  27.227  1.00  0.00     0.023 C 
ENDROOT
BRANCH   1   2
ATOM      2  C   UNL A   1      32.343  30.097  26.194  1.00  0.00     0.116 C 
BRANCH   2   3
ATOM      3  N   UNL A   1      33.093  29.945  24.961  1.00  0.00    -0.356 N 
ATOM      4  C   UNL A   1      33.039  28.952  24.027  1.00  0.00     0.225 C 
ATOM      5  O   UNL A   1      33.860  28.968  23.111  1.00  0.00    -0.275 OA
ATOM      6  H   UNL A   1      33.736  30.665  24.770  1.00  0.00     0.163 HD
BRANCH   4   7
ATOM      7  C   UNL A   1      31.955  27.899  24.133  1.00  0.00     0.107 C 
ATOM      8  N   UNL A   1      31.523  25.629  24.093  1.00  0.00    -0.337 N 
ATOM      9  C   UNL A   1      32.541  26.555  24.531  1.00  0.00     0.134 C 
ATOM     10  C   UNL A   1      31.030  26.053  22.797  1.00  0.00     0.129 C 
ATOM     11  C   UNL A   1      31.211  27.597  22.788  1.00  0.00     0.053 C 
BRANCH   8  12
ATOM     12  C   UNL A   1      31.003  24.524  24.736  1.00  0.00     0.253 C 
ATOM     13  O   UNL A   1      30.052  24.607  25.511  1.00  0.00    -0.269 OA
BRANCH  12  14
ATOM     14  C   UNL A   1      31.685  23.201  24.608  1.00  0.00     0.040 A 
ATOM     15  C   UNL A   1      32.530  20.539  24.358  1.00  0.00     0.067 A 
ATOM     16  C   UNL A   1      32.173  21.261  23.216  1.00  0.00     0.021 A 
ATOM     17  C   UNL A   1      32.497  21.143  25.619  1.00  0.00     0.021 A 
ATOM     18  C   UNL A   1      31.756  22.592  23.345  1.00  0.00     0.015 A 
ATOM     19  C   UNL A   1      32.048  22.459  25.741  1.00  0.00     0.015 A 
BRANCH  15  20
ATOM     20  S   UNL A   1      32.929  18.808  24.272  1.00  0.00     0.175 S 
ATOM     21  C   UNL A   1      32.436  18.254  22.666  1.00  0.00     0.163 C 
ATOM     22  O   UNL A   1      32.092  18.149  25.254  1.00  0.00    -0.224 OA
ATOM     23  O   UNL A   1      34.376  18.708  24.330  1.00  0.00    -0.224 OA
ENDBRANCH  15  20
ENDBRANCH  12  14
ENDBRANCH   8  12
BRANCH  11  24
ATOM     24  C   UNL A   1      29.966  28.469  22.640  1.00  0.00    -0.039 A 
ATOM     25  C   UNL A   1      30.078  29.705  21.982  1.00  0.00     0.024 A 
ATOM     26  C   UNL A   1      28.693  28.115  23.101  1.00  0.00     0.024 A 
ATOM     27  C   UNL A   1      28.960  30.515  21.838  1.00  0.00     0.111 A 
ATOM     28  C   UNL A   1      27.628  28.986  22.896  1.00  0.00     0.111 A 
ATOM     29  N   UNL A   1      27.734  30.181  22.282  1.00  0.00    -0.265 NA
ENDBRANCH  11  24
ENDBRANCH   4   7
ENDBRANCH   2   3
ENDBRANCH   1   2
BRANCH   1  30
ATOM     30  C   UNL A   1      34.517  30.269  27.553  1.00  0.00     0.023 C 
BRANCH  30  31
ATOM     31  C   UNL A   1      35.537  31.249  28.120  1.00  0.00     0.116 C 
BRANCH  31  32
ATOM     32  N   UNL A   1      35.400  31.444  29.556  1.00  0.00    -0.352 N 
ATOM     33  C   UNL A   1      36.268  31.046  30.545  1.00  0.00     0.251 C 
ATOM     34  H   UNL A   1      34.590  31.917  29.854  1.00  0.00     0.163 HD
ATOM     35  O   UNL A   1      35.964  31.162  31.727  1.00  0.00    -0.269 OA
BRANCH  33  36
ATOM     36  C   UNL A   1      37.555  30.437  30.154  1.00  0.00     0.039 A 
ATOM     37  C   UNL A   1      37.944  30.472  28.812  1.00  0.00     0.014 A 
ATOM     38  C   UNL A   1      38.400  29.896  31.126  1.00  0.00     0.014 A 
ATOM     39  C   UNL A   1      39.218  30.026  28.454  1.00  0.00     0.010 A 
ATOM     40  C   UNL A   1      39.687  29.507  30.775  1.00  0.00     0.010 A 
ATOM     41  C   UNL A   1      40.111  29.574  29.438  1.00  0.00    -0.014 A 
BRANCH  41  42
ATOM     42  C   UNL A   1      41.495  29.150  29.111  1.00  0.00     0.031 A 
ATOM     43  C   UNL A   1      42.585  30.185  29.047  1.00  0.00     0.074 A 
ATOM     44  C   UNL A   1      41.745  27.873  28.763  1.00  0.00     0.049 A 
ATOM     45  N   UNL A   1      43.803  30.073  28.588  1.00  0.00    -0.248 NA
ATOM     46  C   UNL A   1      42.245  31.533  29.533  1.00  0.00     0.031 C 
ATOM     47  C   UNL A   1      40.763  26.787  28.750  1.00  0.00     0.029 A 
ATOM     48  N   UNL A   1      42.901  27.277  28.320  1.00  0.00    -0.354 N 
ATOM     49  C   UNL A   1      44.361  31.342  28.689  1.00  0.00     0.074 A 
ATOM     50  C   UNL A   1      43.342  32.213  29.232  1.00  0.00     0.031 C 
ATOM     51  C   UNL A   1      41.356  25.661  28.317  1.00  0.00     0.029 A 
ATOM     52  C   UNL A   1      42.746  25.952  27.984  1.00  0.00     0.049 A 
ATOM     53  H   UNL A   1      43.760  27.754  28.250  1.00  0.00     0.167 HD
ATOM     54  C   UNL A   1      45.614  31.740  28.370  1.00  0.00     0.037 A 
ATOM     55  C   UNL A   1      43.620  25.079  27.444  1.00  0.00     0.037 A 
ATOM     56  C   UNL A   1      46.640  30.854  27.886  1.00  0.00     0.049 A 
ATOM     57  C   UNL A   1      45.021  25.537  27.136  1.00  0.00     0.074 A 
ATOM     58  C   UNL A   1      47.960  31.148  27.596  1.00  0.00     0.029 A 
ATOM     59  N   UNL A   1      46.463  29.502  27.635  1.00  0.00    -0.354 N 
ATOM     60  N   UNL A   1      45.545  26.732  27.279  1.00  0.00    -0.248 NA
ATOM     61  C   UNL A   1      45.951  24.534  26.597  1.00  0.00     0.031 C 
ATOM     62  C   UNL A   1      48.577  29.977  27.146  1.00  0.00     0.029 A 
ATOM     63  C   UNL A   1      47.650  28.948  27.191  1.00  0.00     0.049 A 
ATOM     64  H   UNL A   1      45.618  29.010  27.754  1.00  0.00     0.167 HD
ATOM     65  C   UNL A   1      46.873  26.613  26.884  1.00  0.00     0.074 A 
ATOM     66  C   UNL A   1      47.073  25.234  26.493  1.00  0.00     0.031 C 
ATOM     67  C   UNL A   1      47.839  27.562  26.848  1.00  0.00     0.037 A 
BRANCH  54  68
ATOM     68  C   UNL A   1      45.957  33.191  28.540  1.00  0.00     0.058 A 
ATOM     69  C   UNL A   1      45.714  34.127  27.523  1.00  0.00     0.135 A 
ATOM     70  C   UNL A   1      46.479  33.661  29.755  1.00  0.00     0.135 A 
ATOM     71  F   UNL A   1      45.233  33.726  26.335  1.00  0.00    -0.206 F 
ATOM     72  C   UNL A   1      45.993  35.478  27.700  1.00  0.00     0.059 A 
ATOM     73  C   UNL A   1      46.741  35.011  29.963  1.00  0.00     0.059 A 
ATOM     74  F   UNL A   1      46.732  32.805  30.758  1.00  0.00    -0.206 F 
ATOM     75  C   UNL A   1      46.503  35.911  28.925  1.00  0.00     0.060 A 
BRANCH  75  76
ATOM     76  S   UNL A   1      46.831  37.672  29.150  1.00  0.00     0.124 S 
ATOM     77  O   UNL A   1      45.767  38.269  28.349  1.00  0.00    -0.237 OA
ATOM     78  O   UNL A   1      46.702  37.833  30.594  1.00  0.00    -0.237 OA
ATOM     79  O   UNL A   1      48.182  37.836  28.622  1.00  0.00    -0.744 OA
ENDBRANCH  75  76
ENDBRANCH  54  68
BRANCH  55  80
ATOM     80  C   UNL A   1      43.205  23.680  27.160  1.00  0.00     0.058 A 
ATOM     81  C   UNL A   1      42.899  23.271  25.854  1.00  0.00     0.135 A 
ATOM     82  C   UNL A   1      43.091  22.730  28.186  1.00  0.00     0.135 A 
ATOM     83  F   UNL A   1      42.989  24.145  24.840  1.00  0.00    -0.206 F 
ATOM     84  C   UNL A   1      42.467  21.978  25.576  1.00  0.00     0.059 A 
ATOM     85  C   UNL A   1      42.683  21.424  27.931  1.00  0.00     0.059 A 
ATOM     86  F   UNL A   1      43.391  23.065  29.451  1.00  0.00    -0.206 F 
ATOM     87  C   UNL A   1      42.357  21.062  26.624  1.00  0.00     0.060 A 
BRANCH  87  88
ATOM     88  S   UNL A   1      41.818  19.379  26.255  1.00  0.00     0.124 S 
ATOM     89  O   UNL A   1      40.378  19.559  26.113  1.00  0.00    -0.237 OA
ATOM     90  O   UNL A   1      42.549  19.081  25.028  1.00  0.00    -0.237 OA
ATOM     91  O   UNL A   1      42.249  18.626  27.429  1.00  0.00    -0.744 OA
ENDBRANCH  87  88
ENDBRANCH  55  80
BRANCH  67  92
ATOM     92  C   UNL A   1      49.220  27.142  26.438  1.00  0.00     0.058 A 
ATOM     93  C   UNL A   1      50.162  26.695  27.375  1.00  0.00     0.135 A 
ATOM     94  C   UNL A   1      49.564  27.087  25.078  1.00  0.00     0.135 A 
ATOM     95  F   UNL A   1      49.881  26.736  28.688  1.00  0.00    -0.206 F 
ATOM     96  C   UNL A   1      51.401  26.206  26.978  1.00  0.00     0.059 A 
ATOM     97  C   UNL A   1      50.789  26.583  24.657  1.00  0.00     0.059 A 
ATOM     98  F   UNL A   1      48.692  27.497  24.143  1.00  0.00    -0.206 F 
ATOM     99  C   UNL A   1      51.703  26.145  25.616  1.00  0.00     0.060 A 
BRANCH  99 100
ATOM    100  S   UNL A   1      53.281  25.432  25.107  1.00  0.00     0.124 S 
ATOM    101  O   UNL A   1      53.319  25.782  23.692  1.00  0.00    -0.237 OA
ATOM    102  O   UNL A   1      54.234  26.136  25.960  1.00  0.00    -0.237 OA
ATOM    103  O   UNL A   1      53.122  24.011  25.399  1.00  0.00    -0.744 OA
ENDBRANCH  99 100
ENDBRANCH  67  92
ENDBRANCH  41  42
ENDBRANCH  33  36
ENDBRANCH  31  32
ENDBRANCH  30  31
ENDBRANCH   1  30
TORSDOF 18
ENDMDL
MODEL 2
REMARK VINA RESULT:     -12.7      0.987      7.989
REMARK SMILES CS(=O)(=O)c1ccc(C(=O)N2C[C@@H](C(=O)NCCCCNC(=O)c3ccc(-c4c5nc(c(-c6c(F)cc(S(=O)(=O)[O-])cc6F)c6ccc([nH]6)c(-c6c(F)cc(S(=O)(=O)[O-])cc6F)c6nc(c(-c7c(F)cc(S(=O)(=O)[O-])cc7F)c7ccc4[nH]7)C=C6)C=C5)cc3)[C@H](c3ccncc3)C2)cc1
REMARK SMILES IDX 18 1 17 2 16 3 14 4 15 5 13 7 11 8 12 9 97 10 90 11 9 12
REMARK SMILES IDX 10 13 8 14 5 15 6 16 99 17 7 18 98 19 2 20 1 21 3 22 4 23
REMARK SMILES IDX 91 24 92 25 96 26 93 27 95 28 94 29 19 30 20 31 21 32 22 33
REMARK SMILES IDX 23 35 24 36 25 37 89 38 26 39 88 40 27 41 28 42 29 43 82 44
REMARK SMILES IDX 30 45 87 46 81 47 83 48 31 49 86 50 80 51 79 52 32 54 66 55
REMARK SMILES IDX 45 56 65 57 46 58 49 59 64 60 84 61 47 62 48 63 63 65 85 66
REMARK SMILES IDX 50 67 33 68 34 69 43 70 35 71 36 72 42 73 44 74 37 75 38 76
REMARK SMILES IDX 39 77 40 78 41 79 67 80 68 81 77 82 69 83 70 84 76 85 78 86
REMARK SMILES IDX 71 87 72 88 73 89 74 90 75 91 51 92 52 93 61 94 53 95 54 96
REMARK SMILES IDX 60 97 62 98 55 99 56 100 57 101 58 102 59 103
REMARK H PARENT 16 6 21 34 83 53 49 64
REMARK Flexibility Score: inf
ROOT
ATOM      1  C   UNL A   1      33.233  30.084  27.408  1.00  0.00     0.023 C 
ENDROOT
BRANCH   1   2
ATOM      2  C   UNL A   1      32.292  30.252  26.214  1.00  0.00     0.116 C 
BRANCH   2   3
ATOM      3  N   UNL A   1      32.994  30.011  24.967  1.00  0.00    -0.356 N 
ATOM      4  C   UNL A   1      32.911  28.951  24.113  1.00  0.00     0.225 C 
ATOM      5  O   UNL A   1      33.695  28.902  23.167  1.00  0.00    -0.275 OA
ATOM      6  H   UNL A   1      33.625  30.717  24.698  1.00  0.00     0.163 HD
BRANCH   4   7
ATOM      7  C   UNL A   1      31.839  27.905  24.339  1.00  0.00     0.107 C 
ATOM      8  N   UNL A   1      31.381  25.639  24.311  1.00  0.00    -0.337 N 
ATOM      9  C   UNL A   1      32.458  26.547  24.629  1.00  0.00     0.134 C 
ATOM     10  C   UNL A   1      30.726  26.096  23.100  1.00  0.00     0.129 C 
ATOM     11  C   UNL A   1      30.921  27.638  23.099  1.00  0.00     0.053 C 
BRANCH   8  12
ATOM     12  C   UNL A   1      30.939  24.525  24.993  1.00  0.00     0.253 C 
ATOM     13  O   UNL A   1      30.087  24.596  25.878  1.00  0.00    -0.269 OA
BRANCH  12  14
ATOM     14  C   UNL A   1      31.596  23.204  24.764  1.00  0.00     0.040 A 
ATOM     15  C   UNL A   1      32.395  20.548  24.346  1.00  0.00     0.067 A 
ATOM     16  C   UNL A   1      31.969  21.321  23.262  1.00  0.00     0.021 A 
ATOM     17  C   UNL A   1      32.452  21.098  25.630  1.00  0.00     0.021 A 
ATOM     18  C   UNL A   1      31.576  22.649  23.474  1.00  0.00     0.015 A 
ATOM     19  C   UNL A   1      32.027  22.411  25.838  1.00  0.00     0.015 A 
BRANCH  15  20
ATOM     20  S   UNL A   1      32.769  18.819  24.160  1.00  0.00     0.175 S 
ATOM     21  C   UNL A   1      34.496  18.635  24.496  1.00  0.00     0.163 C 
ATOM     22  O   UNL A   1      32.543  18.504  22.763  1.00  0.00    -0.224 OA
ATOM     23  O   UNL A   1      32.055  18.120  25.212  1.00  0.00    -0.224 OA
ENDBRANCH  15  20
ENDBRANCH  12  14
ENDBRANCH   8  12
BRANCH  11  24
ATOM     24  C   UNL A   1      29.676  28.522  23.135  1.00  0.00    -0.039 A 
ATOM     25  C   UNL A   1      29.838  29.915  23.234  1.00  0.00     0.024 A 
ATOM     26  C   UNL A   1      28.364  28.045  23.055  1.00  0.00     0.024 A 
ATOM     27  C   UNL A   1      28.720  30.739  23.270  1.00  0.00     0.111 A 
ATOM     28  C   UNL A   1      27.308  28.950  23.084  1.00  0.00     0.111 A 
ATOM     29  N   UNL A   1      27.456  30.285  23.197  1.00  0.00    -0.265 NA
ENDBRANCH  11  24
ENDBRANCH   4   7
ENDBRANCH   2   3
ENDBRANCH   1   2
BRANCH   1  30
ATOM     30  C   UNL A   1      34.419  29.152  27.146  1.00  0.00     0.023 C 
BRANCH  30  31
ATOM     31  C   UNL A   1      35.721  29.572  27.815  1.00  0.00     0.116 C 
BRANCH  31  32
ATOM     32  N   UNL A   1      35.595  29.733  29.256  1.00  0.00    -0.352 N 
ATOM     33  C   UNL A   1      36.598  29.709  30.196  1.00  0.00     0.251 C 
ATOM     34  H   UNL A   1      34.683  29.876  29.598  1.00  0.00     0.163 HD
ATOM     35  O   UNL A   1      36.334  29.729  31.393  1.00  0.00    -0.269 OA
BRANCH  33  36
ATOM     36  C   UNL A   1      37.998  29.616  29.734  1.00  0.00     0.039 A 
ATOM     37  C   UNL A   1      38.981  29.182  30.627  1.00  0.00     0.014 A 
ATOM     38  C   UNL A   1      38.317  29.896  28.403  1.00  0.00     0.014 A 
ATOM     39  C   UNL A   1      40.279  28.957  30.163  1.00  0.00     0.010 A 
ATOM     40  C   UNL A   1      39.595  29.615  27.932  1.00  0.00     0.010 A 
ATOM     41  C   UNL A   1      40.585  29.138  28.805  1.00  0.00    -0.014 A 
BRANCH  41  42
ATOM     42  C   UNL A   1      41.935  28.851  28.257  1.00  0.00     0.031 A 
ATOM     43  C   UNL A   1      42.269  27.451  27.821  1.00  0.00     0.074 A 
ATOM     44  C   UNL A   1      42.882  29.810  28.260  1.00  0.00     0.049 A 
ATOM     45  N   UNL A   1      43.429  26.938  27.509  1.00  0.00    -0.248 NA
ATOM     46  C   UNL A   1      41.151  26.494  27.762  1.00  0.00     0.031 C 
ATOM     47  C   UNL A   1      42.689  31.194  28.694  1.00  0.00     0.029 A 
ATOM     48  N   UNL A   1      44.210  29.754  27.914  1.00  0.00    -0.354 N 
ATOM     49  C   UNL A   1      43.190  25.592  27.260  1.00  0.00     0.074 A 
ATOM     50  C   UNL A   1      41.779  25.362  27.478  1.00  0.00     0.031 C 
ATOM     51  C   UNL A   1      43.856  31.855  28.593  1.00  0.00     0.029 A 
ATOM     52  C   UNL A   1      44.887  30.933  28.127  1.00  0.00     0.049 A 
ATOM     53  H   UNL A   1      44.638  28.946  27.549  1.00  0.00     0.167 HD
ATOM     54  C   UNL A   1      44.068  24.638  26.871  1.00  0.00     0.037 A 
ATOM     55  C   UNL A   1      46.194  31.229  27.987  1.00  0.00     0.037 A 
ATOM     56  C   UNL A   1      45.459  24.889  26.599  1.00  0.00     0.049 A 
ATOM     57  C   UNL A   1      47.143  30.159  27.514  1.00  0.00     0.074 A 
ATOM     58  C   UNL A   1      46.416  24.002  26.137  1.00  0.00     0.029 A 
ATOM     59  N   UNL A   1      46.086  26.116  26.751  1.00  0.00    -0.354 N 
ATOM     60  N   UNL A   1      46.892  28.901  27.240  1.00  0.00    -0.248 NA
ATOM     61  C   UNL A   1      48.549  30.545  27.327  1.00  0.00     0.031 C 
ATOM     62  C   UNL A   1      47.629  24.689  26.031  1.00  0.00     0.029 A 
ATOM     63  C   UNL A   1      47.418  26.009  26.394  1.00  0.00     0.049 A 
ATOM     64  H   UNL A   1      45.648  26.939  27.066  1.00  0.00     0.167 HD
ATOM     65  C   UNL A   1      48.099  28.357  26.814  1.00  0.00     0.074 A 
ATOM     66  C   UNL A   1      49.080  29.419  26.868  1.00  0.00     0.031 C 
ATOM     67  C   UNL A   1      48.368  27.092  26.414  1.00  0.00     0.037 A 
BRANCH  54  68
ATOM     68  C   UNL A   1      43.557  23.237  26.704  1.00  0.00     0.058 A 
ATOM     69  C   UNL A   1      43.421  22.651  25.436  1.00  0.00     0.135 A 
ATOM     70  C   UNL A   1      43.256  22.451  27.828  1.00  0.00     0.135 A 
ATOM     71  F   UNL A   1      43.678  23.366  24.330  1.00  0.00    -0.206 F 
ATOM     72  C   UNL A   1      42.989  21.337  25.288  1.00  0.00     0.059 A 
ATOM     73  C   UNL A   1      42.845  21.128  27.703  1.00  0.00     0.059 A 
ATOM     74  F   UNL A   1      43.366  22.967  29.062  1.00  0.00    -0.206 F 
ATOM     75  C   UNL A   1      42.707  20.583  26.428  1.00  0.00     0.060 A 
BRANCH  75  76
ATOM     76  S   UNL A   1      42.176  18.870  26.220  1.00  0.00     0.124 S 
ATOM     77  O   UNL A   1      43.157  18.377  25.258  1.00  0.00    -0.237 OA
ATOM     78  O   UNL A   1      42.294  18.338  27.573  1.00  0.00    -0.237 OA
ATOM     79  O   UNL A   1      40.811  18.996  25.716  1.00  0.00    -0.744 OA
ENDBRANCH  75  76
ENDBRANCH  54  68
BRANCH  55  80
ATOM     80  C   UNL A   1      46.691  32.596  28.293  1.00  0.00     0.058 A 
ATOM     81  C   UNL A   1      46.725  33.589  27.303  1.00  0.00     0.135 A 
ATOM     82  C   UNL A   1      47.154  32.934  29.574  1.00  0.00     0.135 A 
ATOM     83  F   UNL A   1      46.296  33.312  26.062  1.00  0.00    -0.206 F 
ATOM     84  C   UNL A   1      47.226  34.860  27.561  1.00  0.00     0.059 A 
ATOM     85  C   UNL A   1      47.640  34.206  29.863  1.00  0.00     0.059 A 
ATOM     86  F   UNL A   1      47.125  32.027  30.562  1.00  0.00    -0.206 F 
ATOM     87  C   UNL A   1      47.687  35.158  28.845  1.00  0.00     0.060 A 
BRANCH  87  88
ATOM     88  S   UNL A   1      48.316  36.817  29.180  1.00  0.00     0.124 S 
ATOM     89  O   UNL A   1      49.436  36.898  28.250  1.00  0.00    -0.237 OA
ATOM     90  O   UNL A   1      47.163  37.655  28.867  1.00  0.00    -0.237 OA
ATOM     91  O   UNL A   1      48.671  36.758  30.595  1.00  0.00    -0.744 OA
ENDBRANCH  87  88
ENDBRANCH  55  80
BRANCH  67  92
ATOM     92  C   UNL A   1      49.758  26.788  25.936  1.00  0.00     0.058 A 
ATOM     93  C   UNL A   1      50.114  26.906  24.585  1.00  0.00     0.135 A 
ATOM     94  C   UNL A   1      50.768  26.479  26.861  1.00  0.00     0.135 A 
ATOM     95  F   UNL A   1      49.181  27.193  23.662  1.00  0.00    -0.206 F 
ATOM     96  C   UNL A   1      51.428  26.729  24.165  1.00  0.00     0.059 A 
ATOM     97  C   UNL A   1      52.091  26.318  26.466  1.00  0.00     0.059 A 
ATOM     98  F   UNL A   1      50.477  26.362  28.166  1.00  0.00    -0.206 F 
ATOM     99  C   UNL A   1      52.412  26.444  25.114  1.00  0.00     0.060 A 
BRANCH  99 100
ATOM    100  S   UNL A   1      54.127  26.297  24.571  1.00  0.00     0.124 S 
ATOM    101  O   UNL A   1      54.008  26.581  23.145  1.00  0.00    -0.237 OA
ATOM    102  O   UNL A   1      54.798  27.319  25.367  1.00  0.00    -0.237 OA
ATOM    103  O   UNL A   1      54.473  24.920  24.911  1.00  0.00    -0.744 OA
ENDBRANCH  99 100
ENDBRANCH  67  92
ENDBRANCH  41  42
ENDBRANCH  33  36
ENDBRANCH  31  32
ENDBRANCH  30  31
ENDBRANCH   1  30
TORSDOF 18
ENDMDL
MODEL 3
REMARK VINA RESULT:     -12.4      6.151     11.648
REMARK SMILES CS(=O)(=O)c1ccc(C(=O)N2C[C@@H](C(=O)NCCCCNC(=O)c3ccc(-c4c5nc(c(-c6c(F)cc(S(=O)(=O)[O-])cc6F)c6ccc([nH]6)c(-c6c(F)cc(S(=O)(=O)[O-])cc6F)c6nc(c(-c7c(F)cc(S(=O)(=O)[O-])cc7F)c7ccc4[nH]7)C=C6)C=C5)cc3)[C@H](c3ccncc3)C2)cc1
REMARK SMILES IDX 18 1 17 2 16 3 14 4 15 5 13 7 11 8 12 9 97 10 90 11 9 12
REMARK SMILES IDX 10 13 8 14 5 15 6 16 99 17 7 18 98 19 2 20 1 21 3 22 4 23
REMARK SMILES IDX 91 24 92 25 96 26 93 27 95 28 94 29 19 30 20 31 21 32 22 33
REMARK SMILES IDX 23 35 24 36 25 37 89 38 26 39 88 40 27 41 28 42 29 43 82 44
REMARK SMILES IDX 30 45 87 46 81 47 83 48 31 49 86 50 80 51 79 52 32 54 66 55
REMARK SMILES IDX 45 56 65 57 46 58 49 59 64 60 84 61 47 62 48 63 63 65 85 66
REMARK SMILES IDX 50 67 33 68 34 69 43 70 35 71 36 72 42 73 44 74 37 75 38 76
REMARK SMILES IDX 39 77 40 78 41 79 67 80 68 81 77 82 69 83 70 84 76 85 78 86
REMARK SMILES IDX 71 87 72 88 73 89 74 90 75 91 51 92 52 93 61 94 53 95 54 96
REMARK SMILES IDX 60 97 62 98 55 99 56 100 57 101 58 102 59 103
REMARK H PARENT 16 6 21 34 83 53 49 64
REMARK Flexibility Score: inf
ROOT
ATOM      1  C   UNL A   1      38.521  23.101  26.173  1.00  0.00     0.023 C 
ENDROOT
BRANCH   1   2
ATOM      2  C   UNL A   1      37.266  22.394  25.659  1.00  0.00     0.116 C 
BRANCH   2   3
ATOM      3  N   UNL A   1      36.998  22.760  24.280  1.00  0.00    -0.356 N 
ATOM      4  C   UNL A   1      35.814  22.784  23.602  1.00  0.00     0.225 C 
ATOM      5  O   UNL A   1      35.839  23.014  22.394  1.00  0.00    -0.275 OA
ATOM      6  H   UNL A   1      37.785  23.030  23.757  1.00  0.00     0.163 HD
BRANCH   4   7
ATOM      7  C   UNL A   1      34.523  22.566  24.364  1.00  0.00     0.107 C 
ATOM      8  N   UNL A   1      33.302  23.193  26.224  1.00  0.00    -0.337 N 
ATOM      9  C   UNL A   1      34.206  23.759  25.249  1.00  0.00     0.134 C 
ATOM     10  C   UNL A   1      33.791  21.884  26.610  1.00  0.00     0.129 C 
ATOM     11  C   UNL A   1      34.556  21.360  25.362  1.00  0.00     0.053 C 
BRANCH   8  12
ATOM     12  C   UNL A   1      32.128  23.705  26.736  1.00  0.00     0.253 C 
ATOM     13  O   UNL A   1      31.605  23.248  27.751  1.00  0.00    -0.269 OA
BRANCH  12  14
ATOM     14  C   UNL A   1      31.382  24.754  25.979  1.00  0.00     0.040 A 
ATOM     15  C   UNL A   1      30.348  26.716  24.263  1.00  0.00     0.067 A 
ATOM     16  C   UNL A   1      30.173  25.365  23.953  1.00  0.00     0.021 A 
ATOM     17  C   UNL A   1      31.010  27.095  25.435  1.00  0.00     0.021 A 
ATOM     18  C   UNL A   1      30.686  24.387  24.816  1.00  0.00     0.015 A 
ATOM     19  C   UNL A   1      31.547  26.116  26.271  1.00  0.00     0.015 A 
BRANCH  15  20
ATOM     20  S   UNL A   1      29.844  27.997  23.136  1.00  0.00     0.175 S 
ATOM     21  C   UNL A   1      30.446  29.522  23.800  1.00  0.00     0.163 C 
ATOM     22  O   UNL A   1      28.396  28.026  23.177  1.00  0.00    -0.224 OA
ATOM     23  O   UNL A   1      30.556  27.765  21.893  1.00  0.00    -0.224 OA
ENDBRANCH  15  20
ENDBRANCH  12  14
ENDBRANCH   8  12
BRANCH  11  24
ATOM     24  C   UNL A   1      34.057  20.079  24.696  1.00  0.00    -0.039 A 
ATOM     25  C   UNL A   1      34.880  18.940  24.717  1.00  0.00     0.024 A 
ATOM     26  C   UNL A   1      32.813  19.946  24.071  1.00  0.00     0.024 A 
ATOM     27  C   UNL A   1      34.448  17.765  24.117  1.00  0.00     0.111 A 
ATOM     28  C   UNL A   1      32.462  18.722  23.510  1.00  0.00     0.111 A 
ATOM     29  N   UNL A   1      33.254  17.632  23.511  1.00  0.00    -0.265 NA
ENDBRANCH  11  24
ENDBRANCH   4   7
ENDBRANCH   2   3
ENDBRANCH   1   2
BRANCH   1  30
ATOM     30  C   UNL A   1      39.648  22.153  26.591  1.00  0.00     0.023 C 
BRANCH  30  31
ATOM     31  C   UNL A   1      40.894  22.843  27.134  1.00  0.00     0.116 C 
BRANCH  31  32
ATOM     32  N   UNL A   1      41.796  23.294  26.086  1.00  0.00    -0.352 N 
ATOM     33  C   UNL A   1      42.283  24.565  25.885  1.00  0.00     0.251 C 
ATOM     34  H   UNL A   1      42.093  22.610  25.443  1.00  0.00     0.163 HD
ATOM     35  O   UNL A   1      42.936  24.833  24.882  1.00  0.00    -0.269 OA
BRANCH  33  36
ATOM     36  C   UNL A   1      41.969  25.609  26.881  1.00  0.00     0.039 A 
ATOM     37  C   UNL A   1      40.933  25.389  27.792  1.00  0.00     0.014 A 
ATOM     38  C   UNL A   1      42.745  26.768  26.950  1.00  0.00     0.014 A 
ATOM     39  C   UNL A   1      40.719  26.305  28.824  1.00  0.00     0.010 A 
ATOM     40  C   UNL A   1      42.568  27.648  28.012  1.00  0.00     0.010 A 
ATOM     41  C   UNL A   1      41.559  27.422  28.962  1.00  0.00    -0.014 A 
BRANCH  41  42
ATOM     42  C   UNL A   1      41.408  28.387  30.080  1.00  0.00     0.031 A 
ATOM     43  C   UNL A   1      42.259  28.227  31.309  1.00  0.00     0.074 A 
ATOM     44  C   UNL A   1      40.440  29.323  30.037  1.00  0.00     0.049 A 
ATOM     45  N   UNL A   1      42.155  28.820  32.469  1.00  0.00    -0.248 NA
ATOM     46  C   UNL A   1      43.352  27.242  31.232  1.00  0.00     0.031 C 
ATOM     47  C   UNL A   1      39.527  29.551  28.916  1.00  0.00     0.029 A 
ATOM     48  N   UNL A   1      40.040  30.239  30.980  1.00  0.00    -0.354 N 
ATOM     49  C   UNL A   1      43.137  28.252  33.271  1.00  0.00     0.074 A 
ATOM     50  C   UNL A   1      43.812  27.252  32.475  1.00  0.00     0.031 C 
ATOM     51  C   UNL A   1      38.672  30.538  29.237  1.00  0.00     0.029 A 
ATOM     52  C   UNL A   1      38.949  30.985  30.598  1.00  0.00     0.049 A 
ATOM     53  H   UNL A   1      40.492  30.351  31.847  1.00  0.00     0.167 HD
ATOM     54  C   UNL A   1      43.453  28.548  34.553  1.00  0.00     0.037 A 
ATOM     55  C   UNL A   1      38.237  31.906  31.279  1.00  0.00     0.037 A 
ATOM     56  C   UNL A   1      42.814  29.585  35.320  1.00  0.00     0.049 A 
ATOM     57  C   UNL A   1      38.636  32.245  32.691  1.00  0.00     0.074 A 
ATOM     58  C   UNL A   1      43.108  30.006  36.605  1.00  0.00     0.029 A 
ATOM     59  N   UNL A   1      41.766  30.371  34.867  1.00  0.00    -0.354 N 
ATOM     60  N   UNL A   1      39.596  31.729  33.420  1.00  0.00    -0.248 NA
ATOM     61  C   UNL A   1      37.861  33.293  33.372  1.00  0.00     0.031 C 
ATOM     62  C   UNL A   1      42.220  31.033  36.938  1.00  0.00     0.029 A 
ATOM     63  C   UNL A   1      41.399  31.274  35.849  1.00  0.00     0.049 A 
ATOM     64  H   UNL A   1      41.346  30.297  33.980  1.00  0.00     0.167 HD
ATOM     65  C   UNL A   1      39.564  32.414  34.630  1.00  0.00     0.074 A 
ATOM     66  C   UNL A   1      38.489  33.379  34.537  1.00  0.00     0.031 C 
ATOM     67  C   UNL A   1      40.353  32.256  35.719  1.00  0.00     0.037 A 
BRANCH  54  68
ATOM     68  C   UNL A   1      44.543  27.752  35.211  1.00  0.00     0.058 A 
ATOM     69  C   UNL A   1      45.882  28.169  35.171  1.00  0.00     0.135 A 
ATOM     70  C   UNL A   1      44.236  26.593  35.940  1.00  0.00     0.135 A 
ATOM     71  F   UNL A   1      46.231  29.261  34.473  1.00  0.00    -0.206 F 
ATOM     72  C   UNL A   1      46.883  27.453  35.819  1.00  0.00     0.059 A 
ATOM     73  C   UNL A   1      45.218  25.875  36.616  1.00  0.00     0.059 A 
ATOM     74  F   UNL A   1      42.970  26.151  36.005  1.00  0.00    -0.206 F 
ATOM     75  C   UNL A   1      46.540  26.309  36.542  1.00  0.00     0.060 A 
BRANCH  75  76
ATOM     76  S   UNL A   1      47.847  25.408  37.402  1.00  0.00     0.124 S 
ATOM     77  O   UNL A   1      47.374  25.459  38.782  1.00  0.00    -0.237 OA
ATOM     78  O   UNL A   1      47.795  24.096  36.764  1.00  0.00    -0.237 OA
ATOM     79  O   UNL A   1      49.044  26.193  37.119  1.00  0.00    -0.744 OA
ENDBRANCH  75  76
ENDBRANCH  54  68
BRANCH  55  80
ATOM     80  C   UNL A   1      37.075  32.578  30.641  1.00  0.00     0.058 A 
ATOM     81  C   UNL A   1      35.767  32.124  30.868  1.00  0.00     0.135 A 
ATOM     82  C   UNL A   1      37.246  33.674  29.783  1.00  0.00     0.135 A 
ATOM     83  F   UNL A   1      35.553  31.076  31.677  1.00  0.00    -0.206 F 
ATOM     84  C   UNL A   1      34.672  32.713  30.245  1.00  0.00     0.059 A 
ATOM     85  C   UNL A   1      36.165  34.296  29.166  1.00  0.00     0.059 A 
ATOM     86  F   UNL A   1      38.475  34.160  29.548  1.00  0.00    -0.206 F 
ATOM     87  C   UNL A   1      34.882  33.798  29.391  1.00  0.00     0.060 A 
BRANCH  87  88
ATOM     88  S   UNL A   1      33.455  34.573  28.603  1.00  0.00     0.124 S 
ATOM     89  O   UNL A   1      32.969  33.494  27.751  1.00  0.00    -0.237 OA
ATOM     90  O   UNL A   1      32.614  34.911  29.748  1.00  0.00    -0.237 OA
ATOM     91  O   UNL A   1      34.039  35.716  27.907  1.00  0.00    -0.744 OA
ENDBRANCH  87  88
ENDBRANCH  55  80
BRANCH  67  92
ATOM     92  C   UNL A   1      40.142  33.185  36.879  1.00  0.00     0.058 A 
ATOM     93  C   UNL A   1      39.195  32.914  37.876  1.00  0.00     0.135 A 
ATOM     94  C   UNL A   1      40.976  34.302  37.046  1.00  0.00     0.135 A 
ATOM     95  F   UNL A   1      38.370  31.861  37.757  1.00  0.00    -0.206 F 
ATOM     96  C   UNL A   1      39.080  33.720  39.003  1.00  0.00     0.059 A 
ATOM     97  C   UNL A   1      40.893  35.110  38.174  1.00  0.00     0.059 A 
ATOM     98  F   UNL A   1      41.904  34.597  36.121  1.00  0.00    -0.206 F 
ATOM     99  C   UNL A   1      39.940  34.811  39.148  1.00  0.00     0.060 A 
BRANCH  99 100
ATOM    100  S   UNL A   1      39.839  35.803  40.653  1.00  0.00     0.124 S 
ATOM    101  O   UNL A   1      41.245  36.088  40.913  1.00  0.00    -0.237 OA
ATOM    102  O   UNL A   1      39.030  36.941  40.225  1.00  0.00    -0.237 OA
ATOM    103  O   UNL A   1      39.191  34.907  41.607  1.00  0.00    -0.744 OA
ENDBRANCH  99 100
ENDBRANCH  67  92
ENDBRANCH  41  42
ENDBRANCH  33  36
ENDBRANCH  31  32
ENDBRANCH  30  31
ENDBRANCH   1  30
TORSDOF 18
ENDMDL
