MODEL 1
REMARK VINA RESULT:     -12.2      0.000      0.000
REMARK SMILES C[C@H](NC(=O)c1ccc(C(C)(C)C)cc1)C(=O)N[C@@H](C(=O)NCCCCNC(=O)c1ccc(-c2c3nc(c(-c4c(F)cc(S(=O)(=O)[O-])cc4F)c4ccc([nH]4)c(-c4c(F)cc(S(=O)(=O)[O-])cc4F)c4nc(c(-c5c(F)cc(S(=O)(=O)[O-])cc5F)c5ccc2[nH]5)C=C4)C=C3)cc1)[C@H](C)O
REMARK SMILES IDX 23 1 22 2 20 3 21 4 19 6 18 7 16 8 17 9 2 11 1 12 3 13 4 14
REMARK SMILES IDX 5 16 6 17 7 18 15 19 8 20 14 21 9 22 10 23 11 24 12 25 13 26
REMARK SMILES IDX 96 27 97 28 98 29 24 31 25 32 26 33 27 34 28 35 29 37 30 38
REMARK SMILES IDX 31 39 95 40 32 41 94 42 33 43 34 44 35 45 88 46 36 47 93 48
REMARK SMILES IDX 87 49 89 50 37 51 92 52 86 53 85 54 38 56 72 57 51 58 71 59
REMARK SMILES IDX 52 60 55 61 70 62 90 63 53 64 54 65 69 67 91 68 56 69 39 70
REMARK SMILES IDX 40 71 49 72 41 73 42 74 48 75 50 76 43 77 44 78 45 79 46 80
REMARK SMILES IDX 47 81 73 82 74 83 83 84 75 85 76 86 82 87 84 88 77 89 78 90
REMARK SMILES IDX 79 91 80 92 81 93 57 94 58 95 67 96 59 97 60 98 66 99 68 100
REMARK SMILES IDX 61 101 62 102 63 103 64 104 65 105
REMARK H PARENT 22 5 18 10 3 15 98 30 27 36 89 55 55 66
REMARK Flexibility Score: inf
ROOT
ATOM      1  C   UNL A   1      32.720  28.992  25.996  1.00  0.00     0.116 C 
ENDROOT
BRANCH   1   2
ATOM      2  N   UNL A   1      33.648  29.074  24.900  1.00  0.00    -0.354 N 
ATOM      3  C   UNL A   1      33.418  28.777  23.586  1.00  0.00     0.245 C 
ATOM      4  O   UNL A   1      34.170  29.325  22.768  1.00  0.00    -0.273 OA
ATOM      5  H   UNL A   1      34.556  29.379  25.122  1.00  0.00     0.163 HD
BRANCH   3   6
ATOM      6  C   UNL A   1      32.177  27.946  23.109  1.00  0.00     0.200 C 
BRANCH   6   7
ATOM      7  N   UNL A   1      32.461  27.056  21.969  1.00  0.00    -0.340 N 
ATOM      8  C   UNL A   1      32.463  25.696  21.841  1.00  0.00     0.243 C 
ATOM      9  O   UNL A   1      32.789  25.247  20.736  1.00  0.00    -0.273 OA
ATOM     10  H   UNL A   1      32.694  27.534  21.140  1.00  0.00     0.164 HD
BRANCH   8  11
ATOM     11  C   UNL A   1      32.172  24.705  23.011  1.00  0.00     0.168 C 
ATOM     12  C   UNL A   1      30.685  24.508  23.269  1.00  0.00     0.041 C 
BRANCH  11  13
ATOM     13  N   UNL A   1      32.972  25.056  24.190  1.00  0.00    -0.341 N 
ATOM     14  C   UNL A   1      33.494  24.304  25.204  1.00  0.00     0.251 C 
ATOM     15  H   UNL A   1      33.170  26.017  24.265  1.00  0.00     0.164 HD
ATOM     16  O   UNL A   1      34.026  24.844  26.168  1.00  0.00    -0.269 OA
BRANCH  14  17
ATOM     17  C   UNL A   1      33.442  22.844  25.112  1.00  0.00     0.039 A 
ATOM     18  C   UNL A   1      32.245  22.175  25.342  1.00  0.00     0.014 A 
ATOM     19  C   UNL A   1      34.597  22.148  24.761  1.00  0.00     0.014 A 
ATOM     20  C   UNL A   1      32.185  20.801  25.106  1.00  0.00     0.005 A 
ATOM     21  C   UNL A   1      34.527  20.779  24.524  1.00  0.00     0.005 A 
ATOM     22  C   UNL A   1      33.310  20.084  24.641  1.00  0.00    -0.043 A 
BRANCH  22  23
ATOM     23  C   UNL A   1      33.191  18.595  24.279  1.00  0.00    -0.013 C 
ATOM     24  C   UNL A   1      32.562  18.468  22.881  1.00  0.00     0.016 C 
ATOM     25  C   UNL A   1      34.586  17.929  24.282  1.00  0.00     0.016 C 
ATOM     26  C   UNL A   1      32.320  17.794  25.276  1.00  0.00     0.016 C 
ENDBRANCH  22  23
ENDBRANCH  14  17
ENDBRANCH  11  13
ENDBRANCH   8  11
ENDBRANCH   6   7
BRANCH   6  27
ATOM     27  C   UNL A   1      30.974  28.923  22.822  1.00  0.00     0.143 C 
ATOM     28  C   UNL A   1      29.607  28.266  22.660  1.00  0.00     0.041 C 
BRANCH  27  29
ATOM     29  O   UNL A   1      31.122  29.681  21.612  1.00  0.00    -0.391 OA
ATOM     30  H   UNL A   1      30.719  29.195  20.875  1.00  0.00     0.211 HD
ENDBRANCH  27  29
ENDBRANCH   6  27
ENDBRANCH   3   6
ENDBRANCH   1   2
BRANCH   1  31
ATOM     31  C   UNL A   1      33.197  29.674  27.269  1.00  0.00     0.023 C 
BRANCH  31  32
ATOM     32  C   UNL A   1      34.632  30.196  27.199  1.00  0.00     0.023 C 
BRANCH  32  33
ATOM     33  C   UNL A   1      35.641  29.466  28.084  1.00  0.00     0.116 C 
BRANCH  33  34
ATOM     34  N   UNL A   1      35.506  29.762  29.502  1.00  0.00    -0.352 N 
ATOM     35  C   UNL A   1      36.500  29.865  30.448  1.00  0.00     0.251 C 
ATOM     36  H   UNL A   1      34.587  29.905  29.827  1.00  0.00     0.163 HD
ATOM     37  O   UNL A   1      36.216  30.025  31.632  1.00  0.00    -0.269 OA
BRANCH  35  38
ATOM     38  C   UNL A   1      37.912  29.729  30.029  1.00  0.00     0.039 A 
ATOM     39  C   UNL A   1      38.847  29.268  30.958  1.00  0.00     0.014 A 
ATOM     40  C   UNL A   1      38.298  30.002  28.714  1.00  0.00     0.014 A 
ATOM     41  C   UNL A   1      40.154  29.001  30.546  1.00  0.00     0.010 A 
ATOM     42  C   UNL A   1      39.581  29.669  28.289  1.00  0.00     0.010 A 
ATOM     43  C   UNL A   1      40.520  29.159  29.199  1.00  0.00    -0.014 A 
BRANCH  43  44
ATOM     44  C   UNL A   1      41.873  28.770  28.727  1.00  0.00     0.031 A 
ATOM     45  C   UNL A   1      42.974  29.791  28.647  1.00  0.00     0.074 A 
ATOM     46  C   UNL A   1      42.092  27.505  28.315  1.00  0.00     0.049 A 
ATOM     47  N   UNL A   1      44.210  29.640  28.245  1.00  0.00    -0.248 NA
ATOM     48  C   UNL A   1      42.635  31.167  29.041  1.00  0.00     0.031 C 
ATOM     49  C   UNL A   1      41.085  26.442  28.273  1.00  0.00     0.029 A 
ATOM     50  N   UNL A   1      43.232  26.900  27.850  1.00  0.00    -0.354 N 
ATOM     51  C   UNL A   1      44.791  30.899  28.325  1.00  0.00     0.074 A 
ATOM     52  C   UNL A   1      43.758  31.814  28.763  1.00  0.00     0.031 C 
ATOM     53  C   UNL A   1      41.659  25.309  27.837  1.00  0.00     0.029 A 
ATOM     54  C   UNL A   1      43.066  25.568  27.547  1.00  0.00     0.049 A 
ATOM     55  H   UNL A   1      44.088  27.372  27.743  1.00  0.00     0.167 HD
ATOM     56  C   UNL A   1      46.074  31.258  28.080  1.00  0.00     0.037 A 
ATOM     57  C   UNL A   1      43.950  24.657  27.098  1.00  0.00     0.037 A 
ATOM     58  C   UNL A   1      47.107  30.339  27.678  1.00  0.00     0.049 A 
ATOM     59  C   UNL A   1      45.381  25.067  26.883  1.00  0.00     0.074 A 
ATOM     60  C   UNL A   1      48.452  30.591  27.471  1.00  0.00     0.029 A 
ATOM     61  N   UNL A   1      46.911  28.990  27.425  1.00  0.00    -0.354 N 
ATOM     62  N   UNL A   1      45.930  26.248  27.036  1.00  0.00    -0.248 NA
ATOM     63  C   UNL A   1      46.314  24.018  26.449  1.00  0.00     0.031 C 
ATOM     64  C   UNL A   1      49.064  29.399  27.068  1.00  0.00     0.029 A 
ATOM     65  C   UNL A   1      48.107  28.397  27.056  1.00  0.00     0.049 A 
ATOM     66  H   UNL A   1      46.047  28.522  27.498  1.00  0.00     0.167 HD
ATOM     67  C   UNL A   1      47.278  26.081  26.737  1.00  0.00     0.074 A 
ATOM     68  C   UNL A   1      47.462  24.681  26.408  1.00  0.00     0.031 C 
ATOM     69  C   UNL A   1      48.271  27.003  26.735  1.00  0.00     0.037 A 
BRANCH  56  70
ATOM     70  C   UNL A   1      46.432  32.706  28.260  1.00  0.00     0.058 A 
ATOM     71  C   UNL A   1      46.931  33.193  29.479  1.00  0.00     0.135 A 
ATOM     72  C   UNL A   1      46.295  33.616  27.198  1.00  0.00     0.135 A 
ATOM     73  F   UNL A   1      47.068  32.368  30.530  1.00  0.00    -0.206 F 
ATOM     74  C   UNL A   1      47.250  34.535  29.651  1.00  0.00     0.059 A 
ATOM     75  C   UNL A   1      46.632  34.959  27.341  1.00  0.00     0.059 A 
ATOM     76  F   UNL A   1      45.822  33.204  26.012  1.00  0.00    -0.206 F 
ATOM     77  C   UNL A   1      47.093  35.412  28.576  1.00  0.00     0.060 A 
BRANCH  77  78
ATOM     78  S   UNL A   1      47.509  37.153  28.814  1.00  0.00     0.124 S 
ATOM     79  O   UNL A   1      47.275  37.691  27.477  1.00  0.00    -0.237 OA
ATOM     80  O   UNL A   1      46.556  37.568  29.838  1.00  0.00    -0.237 OA
ATOM     81  O   UNL A   1      48.904  37.112  29.240  1.00  0.00    -0.744 OA
ENDBRANCH  77  78
ENDBRANCH  56  70
BRANCH  57  82
ATOM     82  C   UNL A   1      43.516  23.255  26.868  1.00  0.00     0.058 A 
ATOM     83  C   UNL A   1      43.377  22.751  25.566  1.00  0.00     0.135 A 
ATOM     84  C   UNL A   1      43.253  22.387  27.939  1.00  0.00     0.135 A 
ATOM     85  F   UNL A   1      43.615  23.545  24.512  1.00  0.00    -0.206 F 
ATOM     86  C   UNL A   1      42.980  21.439  25.332  1.00  0.00     0.059 A 
ATOM     87  C   UNL A   1      42.873  21.065  27.730  1.00  0.00     0.059 A 
ATOM     88  F   UNL A   1      43.389  22.818  29.203  1.00  0.00    -0.206 F 
ATOM     89  C   UNL A   1      42.730  20.603  26.421  1.00  0.00     0.060 A 
BRANCH  89  90
ATOM     90  S   UNL A   1      42.268  18.884  26.111  1.00  0.00     0.124 S 
ATOM     91  O   UNL A   1      40.862  19.020  25.748  1.00  0.00    -0.237 OA
ATOM     92  O   UNL A   1      43.174  18.512  25.028  1.00  0.00    -0.237 OA
ATOM     93  O   UNL A   1      42.533  18.232  27.389  1.00  0.00    -0.744 OA
ENDBRANCH  89  90
ENDBRANCH  57  82
BRANCH  69  94
ATOM     94  C   UNL A   1      49.651  26.520  26.389  1.00  0.00     0.058 A 
ATOM     95  C   UNL A   1      50.467  25.888  27.340  1.00  0.00     0.135 A 
ATOM     96  C   UNL A   1      50.149  26.662  25.085  1.00  0.00     0.135 A 
ATOM     97  F   UNL A   1      50.037  25.733  28.602  1.00  0.00    -0.206 F 
ATOM     98  C   UNL A   1      51.742  25.436  27.015  1.00  0.00     0.059 A 
ATOM     99  C   UNL A   1      51.412  26.198  24.732  1.00  0.00     0.059 A 
ATOM    100  F   UNL A   1      49.403  27.252  24.136  1.00  0.00    -0.206 F 
ATOM    101  C   UNL A   1      52.207  25.600  25.710  1.00  0.00     0.060 A 
BRANCH 101 102
ATOM    102  S   UNL A   1      53.856  24.994  25.291  1.00  0.00     0.124 S 
ATOM    103  O   UNL A   1      53.618  23.560  25.170  1.00  0.00    -0.237 OA
ATOM    104  O   UNL A   1      54.143  25.696  24.044  1.00  0.00    -0.237 OA
ATOM    105  O   UNL A   1      54.666  25.404  26.434  1.00  0.00    -0.744 OA
ENDBRANCH 101 102
ENDBRANCH  69  94
ENDBRANCH  43  44
ENDBRANCH  35  38
ENDBRANCH  33  34
ENDBRANCH  32  33
ENDBRANCH  31  32
ENDBRANCH   1  31
TORSDOF 21
ENDMDL
MODEL 2
REMARK VINA RESULT:     -12.2      1.287      2.064
REMARK SMILES C[C@H](NC(=O)c1ccc(C(C)(C)C)cc1)C(=O)N[C@@H](C(=O)NCCCCNC(=O)c1ccc(-c2c3nc(c(-c4c(F)cc(S(=O)(=O)[O-])cc4F)c4ccc([nH]4)c(-c4c(F)cc(S(=O)(=O)[O-])cc4F)c4nc(c(-c5c(F)cc(S(=O)(=O)[O-])cc5F)c5ccc2[nH]5)C=C4)C=C3)cc1)[C@H](C)O
REMARK SMILES IDX 23 1 22 2 20 3 21 4 19 6 18 7 16 8 17 9 2 11 1 12 3 13 4 14
REMARK SMILES IDX 5 16 6 17 7 18 15 19 8 20 14 21 9 22 10 23 11 24 12 25 13 26
REMARK SMILES IDX 96 27 97 28 98 29 24 31 25 32 26 33 27 34 28 35 29 37 30 38
REMARK SMILES IDX 31 39 95 40 32 41 94 42 33 43 34 44 35 45 88 46 36 47 93 48
REMARK SMILES IDX 87 49 89 50 37 51 92 52 86 53 85 54 38 56 72 57 51 58 71 59
REMARK SMILES IDX 52 60 55 61 70 62 90 63 53 64 54 65 69 67 91 68 56 69 39 70
REMARK SMILES IDX 40 71 49 72 41 73 42 74 48 75 50 76 43 77 44 78 45 79 46 80
REMARK SMILES IDX 47 81 73 82 74 83 83 84 75 85 76 86 82 87 84 88 77 89 78 90
REMARK SMILES IDX 79 91 80 92 81 93 57 94 58 95 67 96 59 97 60 98 66 99 68 100
REMARK SMILES IDX 61 101 62 102 63 103 64 104 65 105
REMARK H PARENT 22 5 18 10 3 15 98 30 27 36 89 55 55 66
REMARK Flexibility Score: inf
ROOT
ATOM      1  C   UNL A   1      32.008  30.330  26.838  1.00  0.00     0.116 C 
ENDROOT
BRANCH   1   2
ATOM      2  N   UNL A   1      32.055  28.905  27.029  1.00  0.00    -0.354 N 
ATOM      3  C   UNL A   1      32.025  27.931  26.071  1.00  0.00     0.245 C 
ATOM      4  O   UNL A   1      32.517  26.840  26.391  1.00  0.00    -0.273 OA
ATOM      5  H   UNL A   1      32.116  28.594  27.960  1.00  0.00     0.163 HD
BRANCH   3   6
ATOM      6  C   UNL A   1      31.569  28.207  24.596  1.00  0.00     0.200 C 
BRANCH   6   7
ATOM      7  N   UNL A   1      30.240  27.658  24.273  1.00  0.00    -0.340 N 
ATOM      8  C   UNL A   1      29.765  26.379  24.203  1.00  0.00     0.243 C 
ATOM      9  O   UNL A   1      28.584  26.248  23.860  1.00  0.00    -0.273 OA
ATOM     10  H   UNL A   1      29.565  28.345  24.069  1.00  0.00     0.164 HD
BRANCH   8  11
ATOM     11  C   UNL A   1      30.637  25.106  24.437  1.00  0.00     0.168 C 
ATOM     12  C   UNL A   1      30.652  24.168  23.237  1.00  0.00     0.041 C 
BRANCH  11  13
ATOM     13  N   UNL A   1      30.293  24.478  25.718  1.00  0.00    -0.341 N 
ATOM     14  C   UNL A   1      30.944  23.564  26.498  1.00  0.00     0.251 C 
ATOM     15  H   UNL A   1      29.430  24.772  26.087  1.00  0.00     0.164 HD
ATOM     16  O   UNL A   1      30.392  23.081  27.480  1.00  0.00    -0.269 OA
BRANCH  14  17
ATOM     17  C   UNL A   1      32.321  23.192  26.167  1.00  0.00     0.039 A 
ATOM     18  C   UNL A   1      32.573  22.029  25.449  1.00  0.00     0.014 A 
ATOM     19  C   UNL A   1      33.359  24.037  26.552  1.00  0.00     0.014 A 
ATOM     20  C   UNL A   1      33.876  21.770  25.020  1.00  0.00     0.005 A 
ATOM     21  C   UNL A   1      34.655  23.774  26.117  1.00  0.00     0.005 A 
ATOM     22  C   UNL A   1      34.933  22.665  25.299  1.00  0.00    -0.043 A 
BRANCH  22  23
ATOM     23  C   UNL A   1      36.335  22.419  24.720  1.00  0.00    -0.013 C 
ATOM     24  C   UNL A   1      37.361  23.234  25.527  1.00  0.00     0.016 C 
ATOM     25  C   UNL A   1      36.692  20.916  24.798  1.00  0.00     0.016 C 
ATOM     26  C   UNL A   1      36.459  22.823  23.232  1.00  0.00     0.016 C 
ENDBRANCH  22  23
ENDBRANCH  14  17
ENDBRANCH  11  13
ENDBRANCH   8  11
ENDBRANCH   6   7
BRANCH   6  27
ATOM     27  C   UNL A   1      32.684  27.703  23.603  1.00  0.00     0.143 C 
ATOM     28  C   UNL A   1      34.004  28.468  23.639  1.00  0.00     0.041 C 
BRANCH  27  29
ATOM     29  O   UNL A   1      32.300  27.774  22.221  1.00  0.00    -0.391 OA
ATOM     30  H   UNL A   1      31.394  28.113  22.154  1.00  0.00     0.211 HD
ENDBRANCH  27  29
ENDBRANCH   6  27
ENDBRANCH   3   6
ENDBRANCH   1   2
BRANCH   1  31
ATOM     31  C   UNL A   1      33.275  31.058  27.257  1.00  0.00     0.023 C 
BRANCH  31  32
ATOM     32  C   UNL A   1      34.459  30.136  27.548  1.00  0.00     0.023 C 
BRANCH  32  33
ATOM     33  C   UNL A   1      35.641  30.790  28.261  1.00  0.00     0.116 C 
BRANCH  33  34
ATOM     34  N   UNL A   1      35.544  30.765  29.713  1.00  0.00    -0.352 N 
ATOM     35  C   UNL A   1      36.436  30.233  30.616  1.00  0.00     0.251 C 
ATOM     36  H   UNL A   1      34.737  31.180  30.098  1.00  0.00     0.163 HD
ATOM     37  O   UNL A   1      36.162  30.204  31.813  1.00  0.00    -0.269 OA
BRANCH  35  38
ATOM     38  C   UNL A   1      37.703  29.653  30.123  1.00  0.00     0.039 A 
ATOM     39  C   UNL A   1      38.005  29.754  28.764  1.00  0.00     0.014 A 
ATOM     40  C   UNL A   1      38.612  29.062  31.007  1.00  0.00     0.014 A 
ATOM     41  C   UNL A   1      39.255  29.338  28.303  1.00  0.00     0.010 A 
ATOM     42  C   UNL A   1      39.882  28.713  30.558  1.00  0.00     0.010 A 
ATOM     43  C   UNL A   1      40.219  28.854  29.203  1.00  0.00    -0.014 A 
BRANCH  43  44
ATOM     44  C   UNL A   1      41.589  28.515  28.742  1.00  0.00     0.031 A 
ATOM     45  C   UNL A   1      42.655  29.575  28.677  1.00  0.00     0.074 A 
ATOM     46  C   UNL A   1      41.856  27.261  28.325  1.00  0.00     0.049 A 
ATOM     47  N   UNL A   1      43.899  29.469  28.287  1.00  0.00    -0.248 NA
ATOM     48  C   UNL A   1      42.264  30.936  29.076  1.00  0.00     0.031 C 
ATOM     49  C   UNL A   1      40.888  26.164  28.268  1.00  0.00     0.029 A 
ATOM     50  N   UNL A   1      43.021  26.699  27.867  1.00  0.00    -0.354 N 
ATOM     51  C   UNL A   1      44.435  30.748  28.379  1.00  0.00     0.074 A 
ATOM     52  C   UNL A   1      43.366  31.623  28.812  1.00  0.00     0.031 C 
ATOM     53  C   UNL A   1      41.505  25.054  27.832  1.00  0.00     0.029 A 
ATOM     54  C   UNL A   1      42.904  25.364  27.556  1.00  0.00     0.049 A 
ATOM     55  H   UNL A   1      43.861  27.202  27.771  1.00  0.00     0.167 HD
ATOM     56  C   UNL A   1      45.707  31.152  28.147  1.00  0.00     0.037 A 
ATOM     57  C   UNL A   1      43.824  24.487  27.110  1.00  0.00     0.037 A 
ATOM     58  C   UNL A   1      46.775  30.273  27.750  1.00  0.00     0.049 A 
ATOM     59  C   UNL A   1      45.241  24.948  26.911  1.00  0.00     0.074 A 
ATOM     60  C   UNL A   1      48.112  30.573  27.556  1.00  0.00     0.029 A 
ATOM     61  N   UNL A   1      46.628  28.919  27.488  1.00  0.00    -0.354 N 
ATOM     62  N   UNL A   1      45.748  26.146  27.076  1.00  0.00    -0.248 NA
ATOM     63  C   UNL A   1      46.214  23.935  26.480  1.00  0.00     0.031 C 
ATOM     64  C   UNL A   1      48.769  29.405  27.153  1.00  0.00     0.029 A 
ATOM     65  C   UNL A   1      47.848  28.370  27.127  1.00  0.00     0.049 A 
ATOM     66  H   UNL A   1      45.781  28.420  27.551  1.00  0.00     0.167 HD
ATOM     67  C   UNL A   1      47.103  26.028  26.788  1.00  0.00     0.074 A 
ATOM     68  C   UNL A   1      47.339  24.638  26.454  1.00  0.00     0.031 C 
ATOM     69  C   UNL A   1      48.064  26.984  26.800  1.00  0.00     0.037 A 
BRANCH  56  70
ATOM     70  C   UNL A   1      46.012  32.611  28.338  1.00  0.00     0.058 A 
ATOM     71  C   UNL A   1      46.412  33.120  29.585  1.00  0.00     0.135 A 
ATOM     72  C   UNL A   1      45.924  33.509  27.262  1.00  0.00     0.135 A 
ATOM     73  F   UNL A   1      46.498  32.307  30.650  1.00  0.00    -0.206 F 
ATOM     74  C   UNL A   1      46.682  34.472  29.766  1.00  0.00     0.059 A 
ATOM     75  C   UNL A   1      46.214  34.862  27.415  1.00  0.00     0.059 A 
ATOM     76  F   UNL A   1      45.545  33.075  26.049  1.00  0.00    -0.206 F 
ATOM     77  C   UNL A   1      46.576  35.336  28.675  1.00  0.00     0.060 A 
BRANCH  77  78
ATOM     78  S   UNL A   1      46.927  37.090  28.925  1.00  0.00     0.124 S 
ATOM     79  O   UNL A   1      47.440  37.472  27.612  1.00  0.00    -0.237 OA
ATOM     80  O   UNL A   1      45.616  37.627  29.273  1.00  0.00    -0.237 OA
ATOM     81  O   UNL A   1      47.907  37.088  30.006  1.00  0.00    -0.744 OA
ENDBRANCH  77  78
ENDBRANCH  56  70
BRANCH  57  82
ATOM     82  C   UNL A   1      43.441  23.071  26.869  1.00  0.00     0.058 A 
ATOM     83  C   UNL A   1      43.375  22.558  25.565  1.00  0.00     0.135 A 
ATOM     84  C   UNL A   1      43.156  22.201  27.931  1.00  0.00     0.135 A 
ATOM     85  F   UNL A   1      43.637  23.355  24.518  1.00  0.00    -0.206 F 
ATOM     86  C   UNL A   1      43.027  21.235  25.320  1.00  0.00     0.059 A 
ATOM     87  C   UNL A   1      42.824  20.868  27.713  1.00  0.00     0.059 A 
ATOM     88  F   UNL A   1      43.223  22.641  29.198  1.00  0.00    -0.206 F 
ATOM     89  C   UNL A   1      42.753  20.396  26.402  1.00  0.00     0.060 A 
BRANCH  89  90
ATOM     90  S   UNL A   1      42.356  18.664  26.080  1.00  0.00     0.124 S 
ATOM     91  O   UNL A   1      43.279  18.347  24.997  1.00  0.00    -0.237 OA
ATOM     92  O   UNL A   1      42.643  18.037  27.367  1.00  0.00    -0.237 OA
ATOM     93  O   UNL A   1      40.943  18.709  25.717  1.00  0.00    -0.744 OA
ENDBRANCH  89  90
ENDBRANCH  57  82
BRANCH  69  94
ATOM     94  C   UNL A   1      49.463  26.552  26.464  1.00  0.00     0.058 A 
ATOM     95  C   UNL A   1      50.302  25.973  27.428  1.00  0.00     0.135 A 
ATOM     96  C   UNL A   1      49.956  26.689  25.158  1.00  0.00     0.135 A 
ATOM     97  F   UNL A   1      49.878  25.825  28.693  1.00  0.00    -0.206 F 
ATOM     98  C   UNL A   1      51.595  25.568  27.113  1.00  0.00     0.059 A 
ATOM     99  C   UNL A   1      51.238  26.270  24.815  1.00  0.00     0.059 A 
ATOM    100  F   UNL A   1      49.188  27.228  24.197  1.00  0.00    -0.206 F 
ATOM    101  C   UNL A   1      52.055  25.724  25.805  1.00  0.00     0.060 A 
BRANCH 101 102
ATOM    102  S   UNL A   1      53.728  25.179  25.399  1.00  0.00     0.124 S 
ATOM    103  O   UNL A   1      54.498  25.759  26.493  1.00  0.00    -0.237 OA
ATOM    104  O   UNL A   1      53.599  23.725  25.417  1.00  0.00    -0.237 OA
ATOM    105  O   UNL A   1      53.964  25.763  24.083  1.00  0.00    -0.744 OA
ENDBRANCH 101 102
ENDBRANCH  69  94
ENDBRANCH  43  44
ENDBRANCH  35  38
ENDBRANCH  33  34
ENDBRANCH  32  33
ENDBRANCH  31  32
ENDBRANCH   1  31
TORSDOF 21
ENDMDL
MODEL 3
REMARK VINA RESULT:     -11.9      1.507      8.239
REMARK SMILES C[C@H](NC(=O)c1ccc(C(C)(C)C)cc1)C(=O)N[C@@H](C(=O)NCCCCNC(=O)c1ccc(-c2c3nc(c(-c4c(F)cc(S(=O)(=O)[O-])cc4F)c4ccc([nH]4)c(-c4c(F)cc(S(=O)(=O)[O-])cc4F)c4nc(c(-c5c(F)cc(S(=O)(=O)[O-])cc5F)c5ccc2[nH]5)C=C4)C=C3)cc1)[C@H](C)O
REMARK SMILES IDX 23 1 22 2 20 3 21 4 19 6 18 7 16 8 17 9 2 11 1 12 3 13 4 14
REMARK SMILES IDX 5 16 6 17 7 18 15 19 8 20 14 21 9 22 10 23 11 24 12 25 13 26
REMARK SMILES IDX 96 27 97 28 98 29 24 31 25 32 26 33 27 34 28 35 29 37 30 38
REMARK SMILES IDX 31 39 95 40 32 41 94 42 33 43 34 44 35 45 88 46 36 47 93 48
REMARK SMILES IDX 87 49 89 50 37 51 92 52 86 53 85 54 38 56 72 57 51 58 71 59
REMARK SMILES IDX 52 60 55 61 70 62 90 63 53 64 54 65 69 67 91 68 56 69 39 70
REMARK SMILES IDX 40 71 49 72 41 73 42 74 48 75 50 76 43 77 44 78 45 79 46 80
REMARK SMILES IDX 47 81 73 82 74 83 83 84 75 85 76 86 82 87 84 88 77 89 78 90
REMARK SMILES IDX 79 91 80 92 81 93 57 94 58 95 67 96 59 97 60 98 66 99 68 100
REMARK SMILES IDX 61 101 62 102 63 103 64 104 65 105
REMARK H PARENT 22 5 18 10 3 15 98 30 27 36 89 55 55 66
REMARK Flexibility Score: inf
ROOT
ATOM      1  C   UNL A   1      32.406  30.138  25.875  1.00  0.00     0.116 C 
ENDROOT
BRANCH   1   2
ATOM      2  N   UNL A   1      32.964  29.567  24.678  1.00  0.00    -0.354 N 
ATOM      3  C   UNL A   1      32.292  29.040  23.611  1.00  0.00     0.245 C 
ATOM      4  O   UNL A   1      32.910  29.023  22.537  1.00  0.00    -0.273 OA
ATOM      5  H   UNL A   1      33.946  29.553  24.621  1.00  0.00     0.163 HD
BRANCH   3   6
ATOM      6  C   UNL A   1      30.776  28.645  23.675  1.00  0.00     0.200 C 
BRANCH   6   7
ATOM      7  N   UNL A   1      30.512  27.243  23.307  1.00  0.00    -0.340 N 
ATOM      8  C   UNL A   1      30.400  26.102  24.049  1.00  0.00     0.243 C 
ATOM      9  O   UNL A   1      30.208  25.053  23.422  1.00  0.00    -0.273 OA
ATOM     10  H   UNL A   1      30.393  27.101  22.339  1.00  0.00     0.164 HD
BRANCH   8  11
ATOM     11  C   UNL A   1      30.590  26.040  25.597  1.00  0.00     0.168 C 
ATOM     12  C   UNL A   1      31.976  26.483  26.045  1.00  0.00     0.041 C 
BRANCH  11  13
ATOM     13  N   UNL A   1      30.150  24.740  26.116  1.00  0.00    -0.341 N 
ATOM     14  C   UNL A   1      30.758  23.517  26.166  1.00  0.00     0.251 C 
ATOM     15  H   UNL A   1      29.245  24.750  26.502  1.00  0.00     0.164 HD
ATOM     16  O   UNL A   1      30.133  22.528  26.534  1.00  0.00    -0.269 OA
BRANCH  14  17
ATOM     17  C   UNL A   1      32.172  23.406  25.806  1.00  0.00     0.039 A 
ATOM     18  C   UNL A   1      33.151  23.527  26.786  1.00  0.00     0.014 A 
ATOM     19  C   UNL A   1      32.513  23.145  24.481  1.00  0.00     0.014 A 
ATOM     20  C   UNL A   1      34.480  23.274  26.446  1.00  0.00     0.005 A 
ATOM     21  C   UNL A   1      33.840  22.889  24.151  1.00  0.00     0.005 A 
ATOM     22  C   UNL A   1      34.845  22.897  25.134  1.00  0.00    -0.043 A 
BRANCH  22  23
ATOM     23  C   UNL A   1      36.297  22.511  24.810  1.00  0.00    -0.013 C 
ATOM     24  C   UNL A   1      36.580  22.822  23.329  1.00  0.00     0.016 C 
ATOM     25  C   UNL A   1      37.276  23.309  25.702  1.00  0.00     0.016 C 
ATOM     26  C   UNL A   1      36.600  21.014  25.056  1.00  0.00     0.016 C 
ENDBRANCH  22  23
ENDBRANCH  14  17
ENDBRANCH  11  13
ENDBRANCH   8  11
ENDBRANCH   6   7
BRANCH   6  27
ATOM     27  C   UNL A   1      29.936  29.660  22.810  1.00  0.00     0.143 C 
ATOM     28  C   UNL A   1      28.462  29.314  22.622  1.00  0.00     0.041 C 
BRANCH  27  29
ATOM     29  O   UNL A   1      30.415  29.808  21.465  1.00  0.00    -0.391 OA
ATOM     30  H   UNL A   1      30.636  28.935  21.103  1.00  0.00     0.211 HD
ENDBRANCH  27  29
ENDBRANCH   6  27
ENDBRANCH   3   6
ENDBRANCH   1   2
BRANCH   1  31
ATOM     31  C   UNL A   1      33.419  30.372  26.985  1.00  0.00     0.023 C 
BRANCH  31  32
ATOM     32  C   UNL A   1      34.432  29.240  27.156  1.00  0.00     0.023 C 
BRANCH  32  33
ATOM     33  C   UNL A   1      35.722  29.617  27.882  1.00  0.00     0.116 C 
BRANCH  33  34
ATOM     34  N   UNL A   1      35.561  29.804  29.316  1.00  0.00    -0.352 N 
ATOM     35  C   UNL A   1      36.539  29.854  30.283  1.00  0.00     0.251 C 
ATOM     36  H   UNL A   1      34.634  29.907  29.635  1.00  0.00     0.163 HD
ATOM     37  O   UNL A   1      36.234  29.921  31.470  1.00  0.00    -0.269 OA
BRANCH  35  38
ATOM     38  C   UNL A   1      37.959  29.775  29.878  1.00  0.00     0.039 A 
ATOM     39  C   UNL A   1      38.910  29.413  30.834  1.00  0.00     0.014 A 
ATOM     40  C   UNL A   1      38.340  30.002  28.552  1.00  0.00     0.014 A 
ATOM     41  C   UNL A   1      40.233  29.197  30.442  1.00  0.00     0.010 A 
ATOM     42  C   UNL A   1      39.642  29.719  28.151  1.00  0.00     0.010 A 
ATOM     43  C   UNL A   1      40.600  29.306  29.089  1.00  0.00    -0.014 A 
BRANCH  43  44
ATOM     44  C   UNL A   1      41.976  28.969  28.644  1.00  0.00     0.031 A 
ATOM     45  C   UNL A   1      42.305  27.578  28.177  1.00  0.00     0.074 A 
ATOM     46  C   UNL A   1      42.943  29.905  28.717  1.00  0.00     0.049 A 
ATOM     47  N   UNL A   1      43.451  27.096  27.768  1.00  0.00    -0.248 NA
ATOM     48  C   UNL A   1      41.214  26.592  28.200  1.00  0.00     0.031 C 
ATOM     49  C   UNL A   1      42.766  31.268  29.224  1.00  0.00     0.029 A 
ATOM     50  N   UNL A   1      44.269  29.852  28.368  1.00  0.00    -0.354 N 
ATOM     51  C   UNL A   1      43.223  25.752  27.499  1.00  0.00     0.074 A 
ATOM     52  C   UNL A   1      41.842  25.483  27.841  1.00  0.00     0.031 C 
ATOM     53  C   UNL A   1      43.930  31.930  29.124  1.00  0.00     0.029 A 
ATOM     54  C   UNL A   1      44.941  31.035  28.569  1.00  0.00     0.049 A 
ATOM     55  H   UNL A   1      44.699  29.044  28.007  1.00  0.00     0.167 HD
ATOM     56  C   UNL A   1      44.077  24.833  26.990  1.00  0.00     0.037 A 
ATOM     57  C   UNL A   1      46.223  31.365  28.323  1.00  0.00     0.037 A 
ATOM     58  C   UNL A   1      45.439  25.114  26.619  1.00  0.00     0.049 A 
ATOM     59  C   UNL A   1      47.138  30.342  27.709  1.00  0.00     0.074 A 
ATOM     60  C   UNL A   1      46.365  24.269  26.032  1.00  0.00     0.029 A 
ATOM     61  N   UNL A   1      46.070  26.336  26.795  1.00  0.00    -0.354 N 
ATOM     62  N   UNL A   1      46.884  29.096  27.391  1.00  0.00    -0.248 NA
ATOM     63  C   UNL A   1      48.510  30.774  27.408  1.00  0.00     0.031 C 
ATOM     64  C   UNL A   1      47.565  24.973  25.877  1.00  0.00     0.029 A 
ATOM     65  C   UNL A   1      47.376  26.266  26.337  1.00  0.00     0.049 A 
ATOM     66  H   UNL A   1      45.652  27.136  27.189  1.00  0.00     0.167 HD
ATOM     67  C   UNL A   1      48.057  28.600  26.833  1.00  0.00     0.074 A 
ATOM     68  C   UNL A   1      49.017  29.686  26.845  1.00  0.00     0.031 C 
ATOM     69  C   UNL A   1      48.316  27.358  26.355  1.00  0.00     0.037 A 
BRANCH  56  70
ATOM     70  C   UNL A   1      43.552  23.440  26.789  1.00  0.00     0.058 A 
ATOM     71  C   UNL A   1      43.306  22.926  25.505  1.00  0.00     0.135 A 
ATOM     72  C   UNL A   1      43.309  22.599  27.888  1.00  0.00     0.135 A 
ATOM     73  F   UNL A   1      43.507  23.693  24.421  1.00  0.00    -0.206 F 
ATOM     74  C   UNL A   1      42.807  21.642  25.318  1.00  0.00     0.059 A 
ATOM     75  C   UNL A   1      42.833  21.302  27.722  1.00  0.00     0.059 A 
ATOM     76  F   UNL A   1      43.526  23.040  29.137  1.00  0.00    -0.206 F 
ATOM     77  C   UNL A   1      42.570  20.838  26.434  1.00  0.00     0.060 A 
BRANCH  77  78
ATOM     78  S   UNL A   1      41.919  19.173  26.178  1.00  0.00     0.124 S 
ATOM     79  O   UNL A   1      42.638  18.764  24.974  1.00  0.00    -0.237 OA
ATOM     80  O   UNL A   1      42.306  18.491  27.408  1.00  0.00    -0.237 OA
ATOM     81  O   UNL A   1      40.486  19.392  26.010  1.00  0.00    -0.744 OA
ENDBRANCH  77  78
ENDBRANCH  56  70
BRANCH  57  82
ATOM     82  C   UNL A   1      46.702  32.741  28.613  1.00  0.00     0.058 A 
ATOM     83  C   UNL A   1      47.305  33.046  29.843  1.00  0.00     0.135 A 
ATOM     84  C   UNL A   1      46.589  33.769  27.666  1.00  0.00     0.135 A 
ATOM     85  F   UNL A   1      47.432  32.096  30.781  1.00  0.00    -0.206 F 
ATOM     86  C   UNL A   1      47.767  34.326  30.130  1.00  0.00     0.059 A 
ATOM     87  C   UNL A   1      47.061  35.052  27.922  1.00  0.00     0.059 A 
ATOM     88  F   UNL A   1      46.036  33.521  26.468  1.00  0.00    -0.206 F 
ATOM     89  C   UNL A   1      47.641  35.323  29.161  1.00  0.00     0.060 A 
BRANCH  89  90
ATOM     90  S   UNL A   1      48.293  36.970  29.518  1.00  0.00     0.124 S 
ATOM     91  O   UNL A   1      48.569  37.473  28.178  1.00  0.00    -0.237 OA
ATOM     92  O   UNL A   1      47.176  37.599  30.218  1.00  0.00    -0.237 OA
ATOM     93  O   UNL A   1      49.462  36.692  30.345  1.00  0.00    -0.744 OA
ENDBRANCH  89  90
ENDBRANCH  57  82
BRANCH  69  94
ATOM     94  C   UNL A   1      49.683  27.116  25.783  1.00  0.00     0.058 A 
ATOM     95  C   UNL A   1      49.944  27.276  24.413  1.00  0.00     0.135 A 
ATOM     96  C   UNL A   1      50.751  26.754  26.619  1.00  0.00     0.135 A 
ATOM     97  F   UNL A   1      48.955  27.618  23.572  1.00  0.00    -0.206 F 
ATOM     98  C   UNL A   1      51.213  27.058  23.887  1.00  0.00     0.059 A 
ATOM     99  C   UNL A   1      52.033  26.551  26.117  1.00  0.00     0.059 A 
ATOM    100  F   UNL A   1      50.554  26.597  27.938  1.00  0.00    -0.206 F 
ATOM    101  C   UNL A   1      52.250  26.692  24.747  1.00  0.00     0.060 A 
BRANCH 101 102
ATOM    102  S   UNL A   1      53.899  26.429  24.059  1.00  0.00     0.124 S 
ATOM    103  O   UNL A   1      54.568  27.673  24.422  1.00  0.00    -0.237 OA
ATOM    104  O   UNL A   1      54.351  25.236  24.769  1.00  0.00    -0.237 OA
ATOM    105  O   UNL A   1      53.645  26.242  22.634  1.00  0.00    -0.744 OA
ENDBRANCH 101 102
ENDBRANCH  69  94
ENDBRANCH  43  44
ENDBRANCH  35  38
ENDBRANCH  33  34
ENDBRANCH  32  33
ENDBRANCH  31  32
ENDBRANCH   1  31
TORSDOF 21
ENDMDL
