MODEL 1
REMARK VINA RESULT:     -11.9      0.000      0.000
REMARK SMILES CC(=O)N1CCN(C(=O)c2ccc(=O)n(CCC(=O)NCCCCNC(=O)c3ccc(-c4c5nc(c(-c6c(F)cc(S(=O)(=O)[O-])cc6F)c6ccc([nH]6)c(-c6c(F)cc(S(=O)(=O)[O-])cc6F)c6nc(c(-c7c(F)cc(S(=O)(=O)[O-])cc7F)c7ccc4[nH]7)C=C6)C=C5)cc3)n2)CC1
REMARK SMILES IDX 22 1 21 2 20 3 18 4 19 5 17 7 16 8 15 9 10 10 11 11 94 12
REMARK SMILES IDX 12 13 13 14 14 15 8 16 1 17 2 18 3 19 4 20 5 21 96 22 6 23
REMARK SMILES IDX 95 24 7 25 9 26 23 27 24 28 25 29 26 30 27 32 28 33 29 34
REMARK SMILES IDX 93 35 30 36 92 37 31 38 32 39 33 40 86 41 34 42 91 43 85 44
REMARK SMILES IDX 87 45 35 46 90 47 84 48 83 49 36 51 70 52 49 53 69 54 50 55
REMARK SMILES IDX 53 56 68 57 88 58 51 59 52 60 67 62 89 63 54 64 37 65 38 66
REMARK SMILES IDX 47 67 39 68 40 69 46 70 48 71 41 72 42 73 43 74 44 75 45 76
REMARK SMILES IDX 71 77 72 78 81 79 73 80 74 81 80 82 82 83 75 84 76 85 77 86
REMARK SMILES IDX 78 87 79 88 55 89 56 90 65 91 57 92 58 93 64 94 66 95 59 96
REMARK SMILES IDX 60 97 61 98 62 99 63 100
REMARK H PARENT 20 6 25 31 87 50 53 61
REMARK Flexibility Score: inf
ROOT
ATOM      1  C   UNL A   1      37.907  23.895  26.090  1.00  0.00     0.023 C 
ENDROOT
BRANCH   1   2
ATOM      2  C   UNL A   1      36.521  23.646  25.492  1.00  0.00     0.116 C 
BRANCH   2   3
ATOM      3  N   UNL A   1      35.588  23.087  26.449  1.00  0.00    -0.356 N 
ATOM      4  C   UNL A   1      35.051  21.841  26.532  1.00  0.00     0.221 C 
ATOM      5  O   UNL A   1      34.382  21.547  27.526  1.00  0.00    -0.275 OA
ATOM      6  H   UNL A   1      35.296  23.710  27.154  1.00  0.00     0.163 HD
BRANCH   4   7
ATOM      7  C   UNL A   1      35.256  20.825  25.433  1.00  0.00     0.124 C 
BRANCH   7   8
ATOM      8  C   UNL A   1      34.422  21.199  24.211  1.00  0.00     0.158 C 
BRANCH   8   9
ATOM      9  N   UNL A   1      33.163  21.849  24.577  1.00  0.00    -0.229 N 
ATOM     10  C   UNL A   1      31.925  23.762  24.537  1.00  0.00     0.149 A 
ATOM     11  C   UNL A   1      30.866  23.190  25.384  1.00  0.00     0.042 A 
ATOM     12  N   UNL A   1      33.030  23.171  24.201  1.00  0.00    -0.164 NA
ATOM     13  C   UNL A   1      30.969  21.884  25.629  1.00  0.00     0.076 A 
ATOM     14  C   UNL A   1      32.128  21.106  25.131  1.00  0.00     0.266 A 
ATOM     15  O   UNL A   1      32.131  19.887  25.262  1.00  0.00    -0.268 OA
BRANCH  10  16
ATOM     16  C   UNL A   1      31.617  25.109  23.913  1.00  0.00     0.274 C 
ATOM     17  C   UNL A   1      34.354  29.372  27.710  1.00  0.00     0.114 C 
ATOM     18  C   UNL A   1      33.361  29.572  26.591  1.00  0.00     0.219 C 
ATOM     19  O   UNL A   1      33.287  30.659  26.018  1.00  0.00    -0.275 OA
ATOM     20  N   UNL A   1      32.569  28.492  26.249  1.00  0.00    -0.339 N 
ATOM     21  C   UNL A   1      31.626  28.596  25.129  1.00  0.00     0.141 C 
ATOM     22  C   UNL A   1      32.638  27.157  26.847  1.00  0.00     0.141 C 
ATOM     23  C   UNL A   1      31.944  27.556  24.041  1.00  0.00     0.141 C 
ATOM     24  C   UNL A   1      32.998  26.116  25.782  1.00  0.00     0.141 C 
ATOM     25  N   UNL A   1      32.124  26.211  24.600  1.00  0.00    -0.334 N 
ATOM     26  O   UNL A   1      30.983  25.143  22.871  1.00  0.00    -0.267 OA
ENDBRANCH  10  16
ENDBRANCH   8   9
ENDBRANCH   7   8
ENDBRANCH   4   7
ENDBRANCH   2   3
ENDBRANCH   1   2
BRANCH   1  27
ATOM     27  C   UNL A   1      38.778  22.635  26.161  1.00  0.00     0.023 C 
BRANCH  27  28
ATOM     28  C   UNL A   1      40.079  22.787  26.954  1.00  0.00     0.116 C 
BRANCH  28  29
ATOM     29  N   UNL A   1      41.145  23.482  26.252  1.00  0.00    -0.352 N 
ATOM     30  C   UNL A   1      41.615  24.775  26.329  1.00  0.00     0.251 C 
ATOM     31  H   UNL A   1      41.622  22.923  25.597  1.00  0.00     0.163 HD
ATOM     32  O   UNL A   1      42.534  25.103  25.579  1.00  0.00    -0.269 OA
BRANCH  30  33
ATOM     33  C   UNL A   1      40.984  25.795  27.210  1.00  0.00     0.039 A 
ATOM     34  C   UNL A   1      41.172  27.163  27.043  1.00  0.00     0.014 A 
ATOM     35  C   UNL A   1      40.197  25.350  28.281  1.00  0.00     0.014 A 
ATOM     36  C   UNL A   1      40.813  28.049  28.059  1.00  0.00     0.010 A 
ATOM     37  C   UNL A   1      39.743  26.253  29.251  1.00  0.00     0.010 A 
ATOM     38  C   UNL A   1      40.132  27.599  29.199  1.00  0.00    -0.014 A 
BRANCH  38  39
ATOM     39  C   UNL A   1      39.987  28.503  30.377  1.00  0.00     0.031 A 
ATOM     40  C   UNL A   1      41.069  28.534  31.433  1.00  0.00     0.074 A 
ATOM     41  C   UNL A   1      38.977  29.393  30.456  1.00  0.00     0.049 A 
ATOM     42  N   UNL A   1      41.101  29.193  32.563  1.00  0.00    -0.248 NA
ATOM     43  C   UNL A   1      42.265  27.708  31.197  1.00  0.00     0.031 C 
ATOM     44  C   UNL A   1      37.883  29.531  29.494  1.00  0.00     0.029 A 
ATOM     45  N   UNL A   1      38.753  30.407  31.356  1.00  0.00    -0.354 N 
ATOM     46  C   UNL A   1      42.263  28.788  33.209  1.00  0.00     0.074 A 
ATOM     47  C   UNL A   1      42.932  27.852  32.333  1.00  0.00     0.031 C 
ATOM     48  C   UNL A   1      37.180  30.639  29.784  1.00  0.00     0.029 A 
ATOM     49  C   UNL A   1      37.736  31.254  30.986  1.00  0.00     0.049 A 
ATOM     50  H   UNL A   1      39.271  30.514  32.186  1.00  0.00     0.167 HD
ATOM     51  C   UNL A   1      42.728  29.150  34.428  1.00  0.00     0.037 A 
ATOM     52  C   UNL A   1      37.314  32.406  31.539  1.00  0.00     0.037 A 
ATOM     53  C   UNL A   1      42.127  30.156  35.258  1.00  0.00     0.049 A 
ATOM     54  C   UNL A   1      37.935  32.895  32.815  1.00  0.00     0.074 A 
ATOM     55  C   UNL A   1      42.452  30.528  36.552  1.00  0.00     0.029 A 
ATOM     56  N   UNL A   1      41.113  31.002  34.841  1.00  0.00    -0.354 N 
ATOM     57  N   UNL A   1      38.914  32.365  33.506  1.00  0.00    -0.248 NA
ATOM     58  C   UNL A   1      37.372  34.120  33.402  1.00  0.00     0.031 C 
ATOM     59  C   UNL A   1      41.652  31.624  36.905  1.00  0.00     0.029 A 
ATOM     60  C   UNL A   1      40.833  31.929  35.830  1.00  0.00     0.049 A 
ATOM     61  H   UNL A   1      40.659  30.952  33.969  1.00  0.00     0.167 HD
ATOM     62  C   UNL A   1      39.054  33.165  34.633  1.00  0.00     0.074 A 
ATOM     63  C   UNL A   1      38.096  34.245  34.506  1.00  0.00     0.031 C 
ATOM     64  C   UNL A   1      39.881  32.996  35.693  1.00  0.00     0.037 A 
BRANCH  51  65
ATOM     65  C   UNL A   1      43.927  28.416  34.943  1.00  0.00     0.058 A 
ATOM     66  C   UNL A   1      43.813  27.194  35.620  1.00  0.00     0.135 A 
ATOM     67  C   UNL A   1      45.210  28.960  34.771  1.00  0.00     0.135 A 
ATOM     68  F   UNL A   1      42.604  26.651  35.832  1.00  0.00    -0.206 F 
ATOM     69  C   UNL A   1      44.932  26.542  36.128  1.00  0.00     0.059 A 
ATOM     70  C   UNL A   1      46.343  28.321  35.261  1.00  0.00     0.059 A 
ATOM     71  F   UNL A   1      45.367  30.134  34.139  1.00  0.00    -0.206 F 
ATOM     72  C   UNL A   1      46.192  27.119  35.953  1.00  0.00     0.060 A 
BRANCH  72  73
ATOM     73  S   UNL A   1      47.648  26.293  36.631  1.00  0.00     0.124 S 
ATOM     74  O   UNL A   1      48.515  27.431  36.921  1.00  0.00    -0.237 OA
ATOM     75  O   UNL A   1      47.113  25.593  37.793  1.00  0.00    -0.237 OA
ATOM     76  O   UNL A   1      48.081  25.435  35.532  1.00  0.00    -0.744 OA
ENDBRANCH  72  73
ENDBRANCH  51  65
BRANCH  52  77
ATOM     77  C   UNL A   1      36.263  33.201  30.864  1.00  0.00     0.058 A 
ATOM     78  C   UNL A   1      34.961  33.238  31.387  1.00  0.00     0.135 A 
ATOM     79  C   UNL A   1      36.535  33.956  29.716  1.00  0.00     0.135 A 
ATOM     80  F   UNL A   1      34.660  32.527  32.484  1.00  0.00    -0.206 F 
ATOM     81  C   UNL A   1      33.961  34.002  30.795  1.00  0.00     0.059 A 
ATOM     82  C   UNL A   1      35.554  34.734  29.110  1.00  0.00     0.059 A 
ATOM     83  F   UNL A   1      37.769  33.955  29.189  1.00  0.00    -0.206 F 
ATOM     84  C   UNL A   1      34.268  34.747  29.657  1.00  0.00     0.060 A 
BRANCH  84  85
ATOM     85  S   UNL A   1      33.007  35.808  28.918  1.00  0.00     0.124 S 
ATOM     86  O   UNL A   1      33.823  36.846  28.300  1.00  0.00    -0.237 OA
ATOM     87  O   UNL A   1      32.320  34.905  28.000  1.00  0.00    -0.237 OA
ATOM     88  O   UNL A   1      32.221  36.222  30.078  1.00  0.00    -0.744 OA
ENDBRANCH  84  85
ENDBRANCH  52  77
BRANCH  64  89
ATOM     89  C   UNL A   1      39.758  33.978  36.816  1.00  0.00     0.058 A 
ATOM     90  C   UNL A   1      38.914  33.712  37.905  1.00  0.00     0.135 A 
ATOM     91  C   UNL A   1      40.503  35.164  36.826  1.00  0.00     0.135 A 
ATOM     92  F   UNL A   1      38.182  32.587  37.932  1.00  0.00    -0.206 F 
ATOM     93  C   UNL A   1      38.806  34.599  38.969  1.00  0.00     0.059 A 
ATOM     94  C   UNL A   1      40.412  36.065  37.883  1.00  0.00     0.059 A 
ATOM     95  F   UNL A   1      41.321  35.458  35.803  1.00  0.00    -0.206 F 
ATOM     96  C   UNL A   1      39.555  35.776  38.946  1.00  0.00     0.060 A 
BRANCH  96  97
ATOM     97  S   UNL A   1      39.435  36.917  40.341  1.00  0.00     0.124 S 
ATOM     98  O   UNL A   1      38.660  36.131  41.295  1.00  0.00    -0.237 OA
ATOM     99  O   UNL A   1      40.833  37.143  40.695  1.00  0.00    -0.237 OA
ATOM    100  O   UNL A   1      38.747  38.070  39.768  1.00  0.00    -0.744 OA
ENDBRANCH  96  97
ENDBRANCH  64  89
ENDBRANCH  38  39
ENDBRANCH  30  33
ENDBRANCH  28  29
ENDBRANCH  27  28
ENDBRANCH   1  27
TORSDOF 17
ENDMDL
MODEL 2
REMARK VINA RESULT:     -11.8      1.334      8.185
REMARK SMILES CC(=O)N1CCN(C(=O)c2ccc(=O)n(CCC(=O)NCCCCNC(=O)c3ccc(-c4c5nc(c(-c6c(F)cc(S(=O)(=O)[O-])cc6F)c6ccc([nH]6)c(-c6c(F)cc(S(=O)(=O)[O-])cc6F)c6nc(c(-c7c(F)cc(S(=O)(=O)[O-])cc7F)c7ccc4[nH]7)C=C6)C=C5)cc3)n2)CC1
REMARK SMILES IDX 22 1 21 2 20 3 18 4 19 5 17 7 16 8 15 9 10 10 11 11 94 12
REMARK SMILES IDX 12 13 13 14 14 15 8 16 1 17 2 18 3 19 4 20 5 21 96 22 6 23
REMARK SMILES IDX 95 24 7 25 9 26 23 27 24 28 25 29 26 30 27 32 28 33 29 34
REMARK SMILES IDX 93 35 30 36 92 37 31 38 32 39 33 40 86 41 34 42 91 43 85 44
REMARK SMILES IDX 87 45 35 46 90 47 84 48 83 49 36 51 70 52 49 53 69 54 50 55
REMARK SMILES IDX 53 56 68 57 88 58 51 59 52 60 67 62 89 63 54 64 37 65 38 66
REMARK SMILES IDX 47 67 39 68 40 69 46 70 48 71 41 72 42 73 43 74 44 75 45 76
REMARK SMILES IDX 71 77 72 78 81 79 73 80 74 81 80 82 82 83 75 84 76 85 77 86
REMARK SMILES IDX 78 87 79 88 55 89 56 90 65 91 57 92 58 93 64 94 66 95 59 96
REMARK SMILES IDX 60 97 61 98 62 99 63 100
REMARK H PARENT 20 6 25 31 87 50 53 61
REMARK Flexibility Score: inf
ROOT
ATOM      1  C   UNL A   1      37.132  23.408  25.200  1.00  0.00     0.023 C 
ENDROOT
BRANCH   1   2
ATOM      2  C   UNL A   1      36.242  22.164  25.146  1.00  0.00     0.116 C 
BRANCH   2   3
ATOM      3  N   UNL A   1      35.486  21.961  26.365  1.00  0.00    -0.356 N 
ATOM      4  C   UNL A   1      34.339  22.548  26.800  1.00  0.00     0.221 C 
ATOM      5  O   UNL A   1      33.795  22.109  27.816  1.00  0.00    -0.275 OA
ATOM      6  H   UNL A   1      35.862  21.287  26.977  1.00  0.00     0.163 HD
BRANCH   4   7
ATOM      7  C   UNL A   1      33.734  23.722  26.066  1.00  0.00     0.124 C 
BRANCH   7   8
ATOM      8  C   UNL A   1      32.917  23.230  24.875  1.00  0.00     0.158 C 
BRANCH   8   9
ATOM      9  N   UNL A   1      32.649  24.295  23.908  1.00  0.00    -0.229 N 
ATOM     10  C   UNL A   1      31.712  26.339  23.535  1.00  0.00     0.149 A 
ATOM     11  C   UNL A   1      31.965  26.281  22.087  1.00  0.00     0.042 A 
ATOM     12  N   UNL A   1      31.970  25.398  24.390  1.00  0.00    -0.164 NA
ATOM     13  C   UNL A   1      32.722  25.264  21.676  1.00  0.00     0.076 A 
ATOM     14  C   UNL A   1      33.196  24.234  22.631  1.00  0.00     0.266 A 
ATOM     15  O   UNL A   1      33.992  23.385  22.249  1.00  0.00    -0.268 OA
BRANCH  10  16
ATOM     16  C   UNL A   1      31.224  27.673  24.068  1.00  0.00     0.274 C 
ATOM     17  C   UNL A   1      36.066  30.008  27.413  1.00  0.00     0.114 C 
ATOM     18  C   UNL A   1      34.629  30.461  27.350  1.00  0.00     0.219 C 
ATOM     19  O   UNL A   1      34.332  31.619  27.643  1.00  0.00    -0.275 OA
ATOM     20  N   UNL A   1      33.689  29.531  26.945  1.00  0.00    -0.339 N 
ATOM     21  C   UNL A   1      32.281  29.920  26.801  1.00  0.00     0.141 C 
ATOM     22  C   UNL A   1      33.973  28.155  26.531  1.00  0.00     0.141 C 
ATOM     23  C   UNL A   1      31.794  29.703  25.358  1.00  0.00     0.141 C 
ATOM     24  C   UNL A   1      33.531  27.937  25.080  1.00  0.00     0.141 C 
ATOM     25  N   UNL A   1      32.141  28.369  24.854  1.00  0.00    -0.334 N 
ATOM     26  O   UNL A   1      30.103  28.050  23.768  1.00  0.00    -0.267 OA
ENDBRANCH  10  16
ENDBRANCH   8   9
ENDBRANCH   7   8
ENDBRANCH   4   7
ENDBRANCH   2   3
ENDBRANCH   1   2
BRANCH   1  27
ATOM     27  C   UNL A   1      37.681  23.707  26.601  1.00  0.00     0.023 C 
BRANCH  27  28
ATOM     28  C   UNL A   1      39.202  23.603  26.739  1.00  0.00     0.116 C 
BRANCH  28  29
ATOM     29  N   UNL A   1      39.955  24.547  25.929  1.00  0.00    -0.352 N 
ATOM     30  C   UNL A   1      40.637  25.701  26.246  1.00  0.00     0.251 C 
ATOM     31  H   UNL A   1      39.983  24.318  24.972  1.00  0.00     0.163 HD
ATOM     32  O   UNL A   1      41.173  26.327  25.332  1.00  0.00    -0.269 OA
BRANCH  30  33
ATOM     33  C   UNL A   1      40.659  26.253  27.628  1.00  0.00     0.039 A 
ATOM     34  C   UNL A   1      39.508  26.445  28.387  1.00  0.00     0.014 A 
ATOM     35  C   UNL A   1      41.894  26.633  28.171  1.00  0.00     0.014 A 
ATOM     36  C   UNL A   1      39.551  27.233  29.537  1.00  0.00     0.010 A 
ATOM     37  C   UNL A   1      41.950  27.333  29.383  1.00  0.00     0.010 A 
ATOM     38  C   UNL A   1      40.768  27.726  30.027  1.00  0.00    -0.014 A 
BRANCH  38  39
ATOM     39  C   UNL A   1      40.767  28.768  31.096  1.00  0.00     0.031 A 
ATOM     40  C   UNL A   1      39.663  29.800  31.132  1.00  0.00     0.074 A 
ATOM     41  C   UNL A   1      41.654  28.727  32.112  1.00  0.00     0.049 A 
ATOM     42  N   UNL A   1      39.519  30.827  31.931  1.00  0.00    -0.248 NA
ATOM     43  C   UNL A   1      38.588  29.674  30.133  1.00  0.00     0.031 C 
ATOM     44  C   UNL A   1      42.746  27.764  32.255  1.00  0.00     0.029 A 
ATOM     45  N   UNL A   1      41.723  29.479  33.260  1.00  0.00    -0.354 N 
ATOM     46  C   UNL A   1      38.402  31.515  31.472  1.00  0.00     0.074 A 
ATOM     47  C   UNL A   1      37.881  30.773  30.346  1.00  0.00     0.031 C 
ATOM     48  C   UNL A   1      43.294  27.901  33.475  1.00  0.00     0.029 A 
ATOM     49  C   UNL A   1      42.633  29.000  34.172  1.00  0.00     0.049 A 
ATOM     50  H   UNL A   1      41.175  30.282  33.414  1.00  0.00     0.167 HD
ATOM     51  C   UNL A   1      37.864  32.667  31.936  1.00  0.00     0.037 A 
ATOM     52  C   UNL A   1      42.891  29.390  35.435  1.00  0.00     0.037 A 
ATOM     53  C   UNL A   1      38.311  33.352  33.116  1.00  0.00     0.049 A 
ATOM     54  C   UNL A   1      42.181  30.580  36.011  1.00  0.00     0.074 A 
ATOM     55  C   UNL A   1      37.908  34.578  33.618  1.00  0.00     0.029 A 
ATOM     56  N   UNL A   1      39.219  32.828  34.021  1.00  0.00    -0.354 N 
ATOM     57  N   UNL A   1      41.260  31.331  35.459  1.00  0.00    -0.248 NA
ATOM     58  C   UNL A   1      42.569  30.993  37.367  1.00  0.00     0.031 C 
ATOM     59  C   UNL A   1      38.553  34.780  34.847  1.00  0.00     0.029 A 
ATOM     60  C   UNL A   1      39.354  33.679  35.104  1.00  0.00     0.049 A 
ATOM     61  H   UNL A   1      39.698  31.975  33.910  1.00  0.00     0.167 HD
ATOM     62  C   UNL A   1      40.991  32.333  36.383  1.00  0.00     0.074 A 
ATOM     63  C   UNL A   1      41.806  32.064  37.549  1.00  0.00     0.031 C 
ATOM     64  C   UNL A   1      40.166  33.401  36.256  1.00  0.00     0.037 A 
BRANCH  51  65
ATOM     65  C   UNL A   1      36.755  33.271  31.131  1.00  0.00     0.058 A 
ATOM     66  C   UNL A   1      37.001  33.981  29.949  1.00  0.00     0.135 A 
ATOM     67  C   UNL A   1      35.426  33.151  31.567  1.00  0.00     0.135 A 
ATOM     68  F   UNL A   1      38.259  34.146  29.509  1.00  0.00    -0.206 F 
ATOM     69  C   UNL A   1      35.965  34.571  29.231  1.00  0.00     0.059 A 
ATOM     70  C   UNL A   1      34.374  33.723  30.861  1.00  0.00     0.059 A 
ATOM     71  F   UNL A   1      35.143  32.489  32.701  1.00  0.00    -0.206 F 
ATOM     72  C   UNL A   1      34.656  34.446  29.702  1.00  0.00     0.060 A 
BRANCH  72  73
ATOM     73  S   UNL A   1      33.307  35.229  28.792  1.00  0.00     0.124 S 
ATOM     74  O   UNL A   1      34.041  36.133  27.911  1.00  0.00    -0.237 OA
ATOM     75  O   UNL A   1      32.656  34.099  28.138  1.00  0.00    -0.237 OA
ATOM     76  O   UNL A   1      32.527  35.872  29.846  1.00  0.00    -0.744 OA
ENDBRANCH  72  73
ENDBRANCH  51  65
BRANCH  52  77
ATOM     77  C   UNL A   1      43.850  28.617  36.259  1.00  0.00     0.058 A 
ATOM     78  C   UNL A   1      45.190  29.024  36.349  1.00  0.00     0.135 A 
ATOM     79  C   UNL A   1      43.451  27.490  36.988  1.00  0.00     0.135 A 
ATOM     80  F   UNL A   1      45.612  30.098  35.664  1.00  0.00    -0.206 F 
ATOM     81  C   UNL A   1      46.105  28.340  37.140  1.00  0.00     0.059 A 
ATOM     82  C   UNL A   1      44.346  26.794  37.793  1.00  0.00     0.059 A 
ATOM     83  F   UNL A   1      42.177  27.073  36.936  1.00  0.00    -0.206 F 
ATOM     84  C   UNL A   1      45.674  27.225  37.860  1.00  0.00     0.060 A 
BRANCH  84  85
ATOM     85  S   UNL A   1      46.825  26.369  38.956  1.00  0.00     0.124 S 
ATOM     86  O   UNL A   1      47.804  27.415  39.226  1.00  0.00    -0.237 OA
ATOM     87  O   UNL A   1      45.978  25.983  40.080  1.00  0.00    -0.237 OA
ATOM     88  O   UNL A   1      47.289  25.261  38.126  1.00  0.00    -0.744 OA
ENDBRANCH  84  85
ENDBRANCH  52  77
BRANCH  64  89
ATOM     89  C   UNL A   1      40.134  34.375  37.391  1.00  0.00     0.058 A 
ATOM     90  C   UNL A   1      39.153  34.275  38.389  1.00  0.00     0.135 A 
ATOM     91  C   UNL A   1      41.098  35.386  37.506  1.00  0.00     0.135 A 
ATOM     92  F   UNL A   1      38.211  33.321  38.316  1.00  0.00    -0.206 F 
ATOM     93  C   UNL A   1      39.123  35.154  39.464  1.00  0.00     0.059 A 
ATOM     94  C   UNL A   1      41.088  36.276  38.576  1.00  0.00     0.059 A 
ATOM     95  F   UNL A   1      42.053  35.518  36.572  1.00  0.00    -0.206 F 
ATOM     96  C   UNL A   1      40.091  36.156  39.546  1.00  0.00     0.060 A 
BRANCH  96  97
ATOM     97  S   UNL A   1      40.068  37.283  40.957  1.00  0.00     0.124 S 
ATOM     98  O   UNL A   1      38.908  36.800  41.698  1.00  0.00    -0.237 OA
ATOM     99  O   UNL A   1      41.364  37.042  41.584  1.00  0.00    -0.237 OA
ATOM    100  O   UNL A   1      39.917  38.593  40.332  1.00  0.00    -0.744 OA
ENDBRANCH  96  97
ENDBRANCH  64  89
ENDBRANCH  38  39
ENDBRANCH  30  33
ENDBRANCH  28  29
ENDBRANCH  27  28
ENDBRANCH   1  27
TORSDOF 17
ENDMDL
MODEL 3
REMARK VINA RESULT:     -11.8      1.114      2.014
REMARK SMILES CC(=O)N1CCN(C(=O)c2ccc(=O)n(CCC(=O)NCCCCNC(=O)c3ccc(-c4c5nc(c(-c6c(F)cc(S(=O)(=O)[O-])cc6F)c6ccc([nH]6)c(-c6c(F)cc(S(=O)(=O)[O-])cc6F)c6nc(c(-c7c(F)cc(S(=O)(=O)[O-])cc7F)c7ccc4[nH]7)C=C6)C=C5)cc3)n2)CC1
REMARK SMILES IDX 22 1 21 2 20 3 18 4 19 5 17 7 16 8 15 9 10 10 11 11 94 12
REMARK SMILES IDX 12 13 13 14 14 15 8 16 1 17 2 18 3 19 4 20 5 21 96 22 6 23
REMARK SMILES IDX 95 24 7 25 9 26 23 27 24 28 25 29 26 30 27 32 28 33 29 34
REMARK SMILES IDX 93 35 30 36 92 37 31 38 32 39 33 40 86 41 34 42 91 43 85 44
REMARK SMILES IDX 87 45 35 46 90 47 84 48 83 49 36 51 70 52 49 53 69 54 50 55
REMARK SMILES IDX 53 56 68 57 88 58 51 59 52 60 67 62 89 63 54 64 37 65 38 66
REMARK SMILES IDX 47 67 39 68 40 69 46 70 48 71 41 72 42 73 43 74 44 75 45 76
REMARK SMILES IDX 71 77 72 78 81 79 73 80 74 81 80 82 82 83 75 84 76 85 77 86
REMARK SMILES IDX 78 87 79 88 55 89 56 90 65 91 57 92 58 93 64 94 66 95 59 96
REMARK SMILES IDX 60 97 61 98 62 99 63 100
REMARK H PARENT 20 6 25 31 87 50 53 61
REMARK Flexibility Score: inf
ROOT
ATOM      1  C   UNL A   1      40.773  21.487  27.667  1.00  0.00     0.023 C 
ENDROOT
BRANCH   1   2
ATOM      2  C   UNL A   1      39.823  21.498  26.468  1.00  0.00     0.116 C 
BRANCH   2   3
ATOM      3  N   UNL A   1      39.046  22.717  26.378  1.00  0.00    -0.356 N 
ATOM      4  C   UNL A   1      37.857  22.962  25.766  1.00  0.00     0.221 C 
ATOM      5  O   UNL A   1      37.311  24.054  25.944  1.00  0.00    -0.275 OA
ATOM      6  H   UNL A   1      39.444  23.495  26.833  1.00  0.00     0.163 HD
BRANCH   4   7
ATOM      7  C   UNL A   1      37.205  21.928  24.878  1.00  0.00     0.124 C 
BRANCH   7   8
ATOM      8  C   UNL A   1      36.001  21.313  25.585  1.00  0.00     0.158 C 
BRANCH   8   9
ATOM      9  N   UNL A   1      34.750  21.565  24.871  1.00  0.00    -0.229 N 
ATOM     10  C   UNL A   1      33.446  23.091  23.790  1.00  0.00     0.149 A 
ATOM     11  C   UNL A   1      32.322  22.151  23.648  1.00  0.00     0.042 A 
ATOM     12  N   UNL A   1      34.561  22.853  24.409  1.00  0.00    -0.164 NA
ATOM     13  C   UNL A   1      32.580  20.891  23.998  1.00  0.00     0.076 A 
ATOM     14  C   UNL A   1      33.898  20.512  24.560  1.00  0.00     0.266 A 
ATOM     15  O   UNL A   1      34.148  19.328  24.752  1.00  0.00    -0.268 OA
BRANCH  10  16
ATOM     16  C   UNL A   1      33.316  24.396  23.030  1.00  0.00     0.274 C 
ATOM     17  C   UNL A   1      31.659  28.697  27.370  1.00  0.00     0.114 C 
ATOM     18  C   UNL A   1      31.658  28.795  25.865  1.00  0.00     0.219 C 
ATOM     19  O   UNL A   1      31.722  29.896  25.317  1.00  0.00    -0.275 OA
ATOM     20  N   UNL A   1      31.595  27.611  25.154  1.00  0.00    -0.339 N 
ATOM     21  C   UNL A   1      31.654  27.628  23.687  1.00  0.00     0.141 C 
ATOM     22  C   UNL A   1      31.572  26.267  25.733  1.00  0.00     0.141 C 
ATOM     23  C   UNL A   1      32.859  26.821  23.174  1.00  0.00     0.141 C 
ATOM     24  C   UNL A   1      32.791  25.466  25.264  1.00  0.00     0.141 C 
ATOM     25  N   UNL A   1      32.943  25.497  23.800  1.00  0.00    -0.334 N 
ATOM     26  O   UNL A   1      33.557  24.407  21.833  1.00  0.00    -0.267 OA
ENDBRANCH  10  16
ENDBRANCH   8   9
ENDBRANCH   7   8
ENDBRANCH   4   7
ENDBRANCH   2   3
ENDBRANCH   1   2
BRANCH   1  27
ATOM     27  C   UNL A   1      42.225  21.820  27.301  1.00  0.00     0.023 C 
BRANCH  27  28
ATOM     28  C   UNL A   1      42.601  23.300  27.411  1.00  0.00     0.116 C 
BRANCH  28  29
ATOM     29  N   UNL A   1      42.620  24.021  26.149  1.00  0.00    -0.352 N 
ATOM     30  C   UNL A   1      42.193  25.283  25.798  1.00  0.00     0.251 C 
ATOM     31  H   UNL A   1      43.012  23.511  25.404  1.00  0.00     0.163 HD
ATOM     32  O   UNL A   1      42.313  25.628  24.622  1.00  0.00    -0.269 OA
BRANCH  30  33
ATOM     33  C   UNL A   1      41.511  26.186  26.765  1.00  0.00     0.039 A 
ATOM     34  C   UNL A   1      41.616  27.572  26.712  1.00  0.00     0.014 A 
ATOM     35  C   UNL A   1      40.763  25.606  27.799  1.00  0.00     0.014 A 
ATOM     36  C   UNL A   1      41.215  28.346  27.801  1.00  0.00     0.010 A 
ATOM     37  C   UNL A   1      40.265  26.396  28.843  1.00  0.00     0.010 A 
ATOM     38  C   UNL A   1      40.574  27.763  28.903  1.00  0.00    -0.014 A 
BRANCH  38  39
ATOM     39  C   UNL A   1      40.387  28.555  30.154  1.00  0.00     0.031 A 
ATOM     40  C   UNL A   1      41.457  28.528  31.221  1.00  0.00     0.074 A 
ATOM     41  C   UNL A   1      39.346  29.401  30.297  1.00  0.00     0.049 A 
ATOM     42  N   UNL A   1      41.455  29.087  32.405  1.00  0.00    -0.248 NA
ATOM     43  C   UNL A   1      42.683  27.766  30.929  1.00  0.00     0.031 C 
ATOM     44  C   UNL A   1      38.257  29.585  29.337  1.00  0.00     0.029 A 
ATOM     45  N   UNL A   1      39.079  30.323  31.280  1.00  0.00    -0.354 N 
ATOM     46  C   UNL A   1      42.625  28.665  33.028  1.00  0.00     0.074 A 
ATOM     47  C   UNL A   1      43.333  27.833  32.081  1.00  0.00     0.031 C 
ATOM     48  C   UNL A   1      37.514  30.640  29.715  1.00  0.00     0.029 A 
ATOM     49  C   UNL A   1      38.038  31.165  30.972  1.00  0.00     0.049 A 
ATOM     50  H   UNL A   1      39.585  30.375  32.122  1.00  0.00     0.167 HD
ATOM     51  C   UNL A   1      43.065  28.935  34.279  1.00  0.00     0.037 A 
ATOM     52  C   UNL A   1      37.571  32.250  31.619  1.00  0.00     0.037 A 
ATOM     53  C   UNL A   1      42.423  29.843  35.186  1.00  0.00     0.049 A 
ATOM     54  C   UNL A   1      38.163  32.646  32.940  1.00  0.00     0.074 A 
ATOM     55  C   UNL A   1      42.723  30.111  36.511  1.00  0.00     0.029 A 
ATOM     56  N   UNL A   1      41.384  30.688  34.833  1.00  0.00    -0.354 N 
ATOM     57  N   UNL A   1      39.153  32.089  33.594  1.00  0.00    -0.248 NA
ATOM     58  C   UNL A   1      37.553  33.794  33.625  1.00  0.00     0.031 C 
ATOM     59  C   UNL A   1      41.883  31.144  36.949  1.00  0.00     0.029 A 
ATOM     60  C   UNL A   1      41.064  31.515  35.895  1.00  0.00     0.049 A 
ATOM     61  H   UNL A   1      40.940  30.700  33.954  1.00  0.00     0.167 HD
ATOM     62  C   UNL A   1      39.255  32.792  34.788  1.00  0.00     0.074 A 
ATOM     63  C   UNL A   1      38.262  33.846  34.745  1.00  0.00     0.031 C 
ATOM     64  C   UNL A   1      40.077  32.558  35.840  1.00  0.00     0.037 A 
BRANCH  51  65
ATOM     65  C   UNL A   1      44.284  28.198  34.743  1.00  0.00     0.058 A 
ATOM     66  C   UNL A   1      45.570  28.741  34.616  1.00  0.00     0.135 A 
ATOM     67  C   UNL A   1      44.158  26.918  35.306  1.00  0.00     0.135 A 
ATOM     68  F   UNL A   1      45.740  29.950  34.057  1.00  0.00    -0.206 F 
ATOM     69  C   UNL A   1      46.697  28.030  35.016  1.00  0.00     0.059 A 
ATOM     70  C   UNL A   1      45.270  26.194  35.722  1.00  0.00     0.059 A 
ATOM     71  F   UNL A   1      42.947  26.353  35.437  1.00  0.00    -0.206 F 
ATOM     72  C   UNL A   1      46.538  26.752  35.557  1.00  0.00     0.060 A 
BRANCH  72  73
ATOM     73  S   UNL A   1      47.996  25.811  36.056  1.00  0.00     0.124 S 
ATOM     74  O   UNL A   1      48.454  25.289  34.772  1.00  0.00    -0.237 OA
ATOM     75  O   UNL A   1      48.846  26.828  36.666  1.00  0.00    -0.237 OA
ATOM     76  O   UNL A   1      47.449  24.820  36.979  1.00  0.00    -0.744 OA
ENDBRANCH  72  73
ENDBRANCH  51  65
BRANCH  52  77
ATOM     77  C   UNL A   1      36.499  33.066  31.003  1.00  0.00     0.058 A 
ATOM     78  C   UNL A   1      36.798  33.943  29.948  1.00  0.00     0.135 A 
ATOM     79  C   UNL A   1      35.167  32.968  31.424  1.00  0.00     0.135 A 
ATOM     80  F   UNL A   1      38.063  34.066  29.518  1.00  0.00    -0.206 F 
ATOM     81  C   UNL A   1      35.809  34.696  29.327  1.00  0.00     0.059 A 
ATOM     82  C   UNL A   1      34.159  33.706  30.813  1.00  0.00     0.059 A 
ATOM     83  F   UNL A   1      34.838  32.135  32.423  1.00  0.00    -0.206 F 
ATOM     84  C   UNL A   1      34.491  34.570  29.766  1.00  0.00     0.060 A 
BRANCH  84  85
ATOM     85  S   UNL A   1      33.178  35.478  28.922  1.00  0.00     0.124 S 
ATOM     86  O   UNL A   1      32.460  36.067  30.046  1.00  0.00    -0.237 OA
ATOM     87  O   UNL A   1      33.919  36.412  28.079  1.00  0.00    -0.237 OA
ATOM     88  O   UNL A   1      32.475  34.422  28.199  1.00  0.00    -0.744 OA
ENDBRANCH  84  85
ENDBRANCH  52  77
BRANCH  64  89
ATOM     89  C   UNL A   1      39.910  33.433  37.042  1.00  0.00     0.058 A 
ATOM     90  C   UNL A   1      38.936  33.137  38.008  1.00  0.00     0.135 A 
ATOM     91  C   UNL A   1      40.739  34.543  37.252  1.00  0.00     0.135 A 
ATOM     92  F   UNL A   1      38.121  32.083  37.844  1.00  0.00    -0.206 F 
ATOM     93  C   UNL A   1      38.784  33.922  39.144  1.00  0.00     0.059 A 
ATOM     94  C   UNL A   1      40.605  35.341  38.384  1.00  0.00     0.059 A 
ATOM     95  F   UNL A   1      41.682  34.862  36.352  1.00  0.00    -0.206 F 
ATOM     96  C   UNL A   1      39.618  35.026  39.321  1.00  0.00     0.060 A 
BRANCH  96  97
ATOM     97  S   UNL A   1      39.438  36.032  40.810  1.00  0.00     0.124 S 
ATOM     98  O   UNL A   1      40.817  36.437  41.057  1.00  0.00    -0.237 OA
ATOM     99  O   UNL A   1      38.535  37.094  40.374  1.00  0.00    -0.237 OA
ATOM    100  O   UNL A   1      38.871  35.097  41.776  1.00  0.00    -0.744 OA
ENDBRANCH  96  97
ENDBRANCH  64  89
ENDBRANCH  38  39
ENDBRANCH  30  33
ENDBRANCH  28  29
ENDBRANCH  27  28
ENDBRANCH   1  27
TORSDOF 17
ENDMDL
