MODEL 1
REMARK VINA RESULT:     -13.2      0.000      0.000
REMARK SMILES Cc1c(-c2nn(-c3ccccc3)cc2/C=N/O)nnn1-c1ccc(C(=O)NCCCCNC(=O)c2ccc(-c3c4nc(c(-c5c(F)cc(S(=O)(=O)[O-])cc5F)c5ccc([nH]5)c(-c5c(F)cc(S(=O)(=O)[O-])cc5F)c5nc(c(-c6c(F)cc(S(=O)(=O)[O-])cc6F)c6ccc3[nH]6)C=C5)C=C4)cc2)cc1
REMARK SMILES IDX 29 1 28 2 27 3 25 4 26 5 24 7 21 8 22 9 102 10 23 11 101 12
REMARK SMILES IDX 20 13 1 14 2 15 3 16 18 17 19 18 4 19 5 20 14 21 6 22 13 23
REMARK SMILES IDX 15 24 16 25 17 26 7 28 8 29 12 30 9 31 11 32 10 33 30 34
REMARK SMILES IDX 31 35 32 36 33 37 34 39 35 40 36 41 100 42 37 43 99 44 38 45
REMARK SMILES IDX 39 46 40 47 93 48 41 49 98 50 92 51 94 52 42 53 97 54 91 55
REMARK SMILES IDX 90 56 43 58 77 59 56 60 76 61 57 62 60 63 75 64 95 65 58 66
REMARK SMILES IDX 59 67 74 69 96 70 61 71 44 72 45 73 54 74 46 75 47 76 53 77
REMARK SMILES IDX 55 78 48 79 49 80 50 81 51 82 52 83 78 84 79 85 88 86 80 87
REMARK SMILES IDX 81 88 87 89 89 90 82 91 83 92 84 93 85 94 86 95 62 96 63 97
REMARK SMILES IDX 72 98 64 99 65 100 71 101 73 102 66 103 67 104 68 105 69 106
REMARK SMILES IDX 70 107
REMARK H PARENT 27 6 17 27 32 38 94 57 60 68
REMARK Flexibility Score: inf
ROOT
ATOM      1  C   UNL A   1      31.793  29.820  27.019  1.00  0.00     0.023 C 
ENDROOT
BRANCH   1   2
ATOM      2  C   UNL A   1      31.814  31.111  26.189  1.00  0.00     0.116 C 
BRANCH   2   3
ATOM      3  N   UNL A   1      30.793  31.095  25.160  1.00  0.00    -0.352 N 
ATOM      4  C   UNL A   1      30.466  30.215  24.159  1.00  0.00     0.251 C 
ATOM      5  O   UNL A   1      29.519  30.529  23.436  1.00  0.00    -0.269 OA
ATOM      6  H   UNL A   1      30.208  31.887  25.185  1.00  0.00     0.163 HD
BRANCH   4   7
ATOM      7  C   UNL A   1      31.158  28.914  23.907  1.00  0.00     0.039 A 
ATOM      8  C   UNL A   1      32.278  26.358  23.497  1.00  0.00     0.067 A 
ATOM      9  C   UNL A   1      30.903  26.486  23.694  1.00  0.00     0.029 A 
ATOM     10  C   UNL A   1      33.084  27.499  23.448  1.00  0.00     0.029 A 
ATOM     11  C   UNL A   1      30.359  27.754  23.932  1.00  0.00     0.016 A 
ATOM     12  C   UNL A   1      32.514  28.768  23.609  1.00  0.00     0.016 A 
BRANCH   8  13
ATOM     13  N   UNL A   1      32.847  25.083  23.292  1.00  0.00    -0.217 N 
ATOM     14  C   UNL A   1      32.549  24.036  25.586  1.00  0.00     0.069 C 
ATOM     15  C   UNL A   1      33.121  24.095  24.221  1.00  0.00     0.071 A 
ATOM     16  C   UNL A   1      33.897  23.202  23.510  1.00  0.00     0.137 A 
ATOM     17  N   UNL A   1      33.979  23.582  22.203  1.00  0.00    -0.128 NA
ATOM     18  N   UNL A   1      33.271  24.697  22.063  1.00  0.00    -0.061 NA
BRANCH  16  19
ATOM     19  C   UNL A   1      34.466  21.943  23.974  1.00  0.00     0.124 A 
ATOM     20  N   UNL A   1      33.802  20.789  23.854  1.00  0.00    -0.165 NA
ATOM     21  C   UNL A   1      35.705  21.786  24.639  1.00  0.00     0.044 A 
ATOM     22  N   UNL A   1      34.529  19.904  24.565  1.00  0.00    -0.240 N 
ATOM     23  C   UNL A   1      35.687  20.465  25.052  1.00  0.00     0.125 A 
BRANCH  21  24
ATOM     24  C   UNL A   1      36.787  22.704  24.884  1.00  0.00     0.166 C 
ATOM     25  N   UNL A   1      37.716  22.409  25.732  1.00  0.00    -0.097 NA
BRANCH  25  26
ATOM     26  O   UNL A   1      38.618  23.477  25.819  1.00  0.00    -0.411 OA
ATOM     27  H   UNL A   1      38.568  24.184  25.206  1.00  0.00     0.330 HD
ENDBRANCH  25  26
ENDBRANCH  21  24
BRANCH  22  28
ATOM     28  C   UNL A   1      34.064  18.586  24.762  1.00  0.00     0.065 A 
ATOM     29  C   UNL A   1      32.883  18.381  25.486  1.00  0.00     0.028 A 
ATOM     30  C   UNL A   1      34.792  17.496  24.270  1.00  0.00     0.028 A 
ATOM     31  C   UNL A   1      32.416  17.084  25.695  1.00  0.00     0.002 A 
ATOM     32  C   UNL A   1      34.346  16.199  24.534  1.00  0.00     0.002 A 
ATOM     33  C   UNL A   1      33.154  15.995  25.231  1.00  0.00     0.000 A 
ENDBRANCH  22  28
ENDBRANCH  16  19
ENDBRANCH   8  13
ENDBRANCH   4   7
ENDBRANCH   2   3
ENDBRANCH   1   2
BRANCH   1  34
ATOM     34  C   UNL A   1      33.151  29.114  27.163  1.00  0.00     0.023 C 
BRANCH  34  35
ATOM     35  C   UNL A   1      34.376  30.026  27.088  1.00  0.00     0.116 C 
BRANCH  35  36
ATOM     36  N   UNL A   1      34.211  31.265  27.851  1.00  0.00    -0.352 N 
ATOM     37  C   UNL A   1      34.844  31.657  29.020  1.00  0.00     0.251 C 
ATOM     38  H   UNL A   1      33.563  31.908  27.484  1.00  0.00     0.163 HD
ATOM     39  O   UNL A   1      34.334  32.488  29.754  1.00  0.00    -0.269 OA
BRANCH  37  40
ATOM     40  C   UNL A   1      36.160  31.075  29.346  1.00  0.00     0.039 A 
ATOM     41  C   UNL A   1      36.340  29.701  29.539  1.00  0.00     0.014 A 
ATOM     42  C   UNL A   1      37.234  31.953  29.453  1.00  0.00     0.014 A 
ATOM     43  C   UNL A   1      37.631  29.217  29.761  1.00  0.00     0.010 A 
ATOM     44  C   UNL A   1      38.511  31.467  29.509  1.00  0.00     0.010 A 
ATOM     45  C   UNL A   1      38.711  30.109  29.731  1.00  0.00    -0.014 A 
BRANCH  45  46
ATOM     46  C   UNL A   1      40.095  29.653  29.800  1.00  0.00     0.031 A 
ATOM     47  C   UNL A   1      40.595  29.459  31.189  1.00  0.00     0.074 A 
ATOM     48  C   UNL A   1      40.731  29.147  28.719  1.00  0.00     0.049 A 
ATOM     49  N   UNL A   1      41.461  30.170  31.833  1.00  0.00    -0.248 NA
ATOM     50  C   UNL A   1      39.904  28.469  32.034  1.00  0.00     0.031 C 
ATOM     51  C   UNL A   1      40.184  28.940  27.371  1.00  0.00     0.029 A 
ATOM     52  N   UNL A   1      41.961  28.578  28.621  1.00  0.00    -0.354 N 
ATOM     53  C   UNL A   1      41.624  29.532  33.062  1.00  0.00     0.074 A 
ATOM     54  C   UNL A   1      40.463  28.703  33.223  1.00  0.00     0.031 C 
ATOM     55  C   UNL A   1      40.976  28.088  26.685  1.00  0.00     0.029 A 
ATOM     56  C   UNL A   1      42.163  27.814  27.472  1.00  0.00     0.049 A 
ATOM     57  H   UNL A   1      42.656  28.697  29.308  1.00  0.00     0.167 HD
ATOM     58  C   UNL A   1      42.842  29.496  33.678  1.00  0.00     0.037 A 
ATOM     59  C   UNL A   1      43.212  26.989  27.216  1.00  0.00     0.037 A 
ATOM     60  C   UNL A   1      43.743  30.446  33.062  1.00  0.00     0.049 A 
ATOM     61  C   UNL A   1      44.299  27.372  28.157  1.00  0.00     0.074 A 
ATOM     62  C   UNL A   1      43.716  31.807  32.821  1.00  0.00     0.029 A 
ATOM     63  N   UNL A   1      44.713  29.940  32.229  1.00  0.00    -0.354 N 
ATOM     64  N   UNL A   1      44.929  28.515  28.114  1.00  0.00    -0.248 NA
ATOM     65  C   UNL A   1      44.357  26.680  29.435  1.00  0.00     0.031 C 
ATOM     66  C   UNL A   1      44.312  31.967  31.535  1.00  0.00     0.029 A 
ATOM     67  C   UNL A   1      44.750  30.715  31.101  1.00  0.00     0.049 A 
ATOM     68  H   UNL A   1      45.281  29.158  32.411  1.00  0.00     0.167 HD
ATOM     69  C   UNL A   1      45.072  28.891  29.441  1.00  0.00     0.074 A 
ATOM     70  C   UNL A   1      44.786  27.681  30.210  1.00  0.00     0.031 C 
ATOM     71  C   UNL A   1      45.111  30.211  29.795  1.00  0.00     0.037 A 
BRANCH  58  72
ATOM     72  C   UNL A   1      43.371  28.337  34.517  1.00  0.00     0.058 A 
ATOM     73  C   UNL A   1      43.920  28.627  35.787  1.00  0.00     0.135 A 
ATOM     74  C   UNL A   1      43.633  27.034  34.040  1.00  0.00     0.135 A 
ATOM     75  F   UNL A   1      43.709  29.818  36.371  1.00  0.00    -0.206 F 
ATOM     76  C   UNL A   1      44.773  27.750  36.458  1.00  0.00     0.059 A 
ATOM     77  C   UNL A   1      44.439  26.124  34.719  1.00  0.00     0.059 A 
ATOM     78  F   UNL A   1      43.200  26.584  32.860  1.00  0.00    -0.206 F 
ATOM     79  C   UNL A   1      45.047  26.508  35.899  1.00  0.00     0.060 A 
BRANCH  79  80
ATOM     80  S   UNL A   1      46.236  25.418  36.698  1.00  0.00     0.124 S 
ATOM     81  O   UNL A   1      46.075  25.795  38.098  1.00  0.00    -0.237 OA
ATOM     82  O   UNL A   1      45.732  24.101  36.325  1.00  0.00    -0.237 OA
ATOM     83  O   UNL A   1      47.503  25.799  36.081  1.00  0.00    -0.744 OA
ENDBRANCH  79  80
ENDBRANCH  58  72
BRANCH  59  84
ATOM     84  C   UNL A   1      43.251  25.714  26.445  1.00  0.00     0.058 A 
ATOM     85  C   UNL A   1      44.167  25.530  25.392  1.00  0.00     0.135 A 
ATOM     86  C   UNL A   1      42.603  24.551  26.907  1.00  0.00     0.135 A 
ATOM     87  F   UNL A   1      44.838  26.579  24.892  1.00  0.00    -0.206 F 
ATOM     88  C   UNL A   1      44.474  24.266  24.876  1.00  0.00     0.059 A 
ATOM     89  C   UNL A   1      42.885  23.281  26.401  1.00  0.00     0.059 A 
ATOM     90  F   UNL A   1      41.743  24.600  27.936  1.00  0.00    -0.206 F 
ATOM     91  C   UNL A   1      43.845  23.141  25.406  1.00  0.00     0.060 A 
BRANCH  91  92
ATOM     92  S   UNL A   1      44.379  21.492  24.884  1.00  0.00     0.124 S 
ATOM     93  O   UNL A   1      45.609  21.316  25.648  1.00  0.00    -0.237 OA
ATOM     94  O   UNL A   1      43.251  20.659  25.291  1.00  0.00    -0.237 OA
ATOM     95  O   UNL A   1      44.555  21.634  23.442  1.00  0.00    -0.744 OA
ENDBRANCH  91  92
ENDBRANCH  59  84
BRANCH  71  96
ATOM     96  C   UNL A   1      45.355  31.233  28.716  1.00  0.00     0.058 A 
ATOM     97  C   UNL A   1      44.369  31.765  27.864  1.00  0.00     0.135 A 
ATOM     98  C   UNL A   1      46.639  31.794  28.633  1.00  0.00     0.135 A 
ATOM     99  F   UNL A   1      43.092  31.369  27.952  1.00  0.00    -0.206 F 
ATOM    100  C   UNL A   1      44.664  32.764  26.933  1.00  0.00     0.059 A 
ATOM    101  C   UNL A   1      46.946  32.814  27.740  1.00  0.00     0.059 A 
ATOM    102  F   UNL A   1      47.609  31.376  29.463  1.00  0.00    -0.206 F 
ATOM    103  C   UNL A   1      45.959  33.280  26.877  1.00  0.00     0.060 A 
BRANCH 103 104
ATOM    104  S   UNL A   1      46.334  34.598  25.702  1.00  0.00     0.124 S 
ATOM    105  O   UNL A   1      46.079  35.796  26.494  1.00  0.00    -0.237 OA
ATOM    106  O   UNL A   1      47.732  34.340  25.371  1.00  0.00    -0.237 OA
ATOM    107  O   UNL A   1      45.393  34.360  24.610  1.00  0.00    -0.744 OA
ENDBRANCH 103 104
ENDBRANCH  71  96
ENDBRANCH  45  46
ENDBRANCH  37  40
ENDBRANCH  35  36
ENDBRANCH  34  35
ENDBRANCH   1  34
TORSDOF 19
ENDMDL
MODEL 2
REMARK VINA RESULT:     -12.1      9.004     16.316
REMARK SMILES Cc1c(-c2nn(-c3ccccc3)cc2/C=N/O)nnn1-c1ccc(C(=O)NCCCCNC(=O)c2ccc(-c3c4nc(c(-c5c(F)cc(S(=O)(=O)[O-])cc5F)c5ccc([nH]5)c(-c5c(F)cc(S(=O)(=O)[O-])cc5F)c5nc(c(-c6c(F)cc(S(=O)(=O)[O-])cc6F)c6ccc3[nH]6)C=C5)C=C4)cc2)cc1
REMARK SMILES IDX 29 1 28 2 27 3 25 4 26 5 24 7 21 8 22 9 102 10 23 11 101 12
REMARK SMILES IDX 20 13 1 14 2 15 3 16 18 17 19 18 4 19 5 20 14 21 6 22 13 23
REMARK SMILES IDX 15 24 16 25 17 26 7 28 8 29 12 30 9 31 11 32 10 33 30 34
REMARK SMILES IDX 31 35 32 36 33 37 34 39 35 40 36 41 100 42 37 43 99 44 38 45
REMARK SMILES IDX 39 46 40 47 93 48 41 49 98 50 92 51 94 52 42 53 97 54 91 55
REMARK SMILES IDX 90 56 43 58 77 59 56 60 76 61 57 62 60 63 75 64 95 65 58 66
REMARK SMILES IDX 59 67 74 69 96 70 61 71 44 72 45 73 54 74 46 75 47 76 53 77
REMARK SMILES IDX 55 78 48 79 49 80 50 81 51 82 52 83 78 84 79 85 88 86 80 87
REMARK SMILES IDX 81 88 87 89 89 90 82 91 83 92 84 93 85 94 86 95 62 96 63 97
REMARK SMILES IDX 72 98 64 99 65 100 71 101 73 102 66 103 67 104 68 105 69 106
REMARK SMILES IDX 70 107
REMARK H PARENT 27 6 17 27 32 38 94 57 60 68
REMARK Flexibility Score: inf
ROOT
ATOM      1  C   UNL A   1      42.476  41.129  30.439  1.00  0.00     0.023 C 
ENDROOT
BRANCH   1   2
ATOM      2  C   UNL A   1      41.306  40.843  29.488  1.00  0.00     0.116 C 
BRANCH   2   3
ATOM      3  N   UNL A   1      41.493  39.592  28.781  1.00  0.00    -0.352 N 
ATOM      4  C   UNL A   1      41.903  39.269  27.512  1.00  0.00     0.251 C 
ATOM      5  O   UNL A   1      41.936  38.070  27.230  1.00  0.00    -0.269 OA
ATOM      6  H   UNL A   1      41.280  38.802  29.329  1.00  0.00     0.163 HD
BRANCH   4   7
ATOM      7  C   UNL A   1      42.324  40.260  26.474  1.00  0.00     0.039 A 
ATOM      8  C   UNL A   1      43.317  42.135  24.615  1.00  0.00     0.067 A 
ATOM      9  C   UNL A   1      44.201  41.476  25.470  1.00  0.00     0.029 A 
ATOM     10  C   UNL A   1      41.954  41.823  24.646  1.00  0.00     0.029 A 
ATOM     11  C   UNL A   1      43.697  40.572  26.413  1.00  0.00     0.016 A 
ATOM     12  C   UNL A   1      41.475  40.859  25.541  1.00  0.00     0.016 A 
BRANCH   8  13
ATOM     13  N   UNL A   1      43.805  43.076  23.683  1.00  0.00    -0.217 N 
ATOM     14  C   UNL A   1      42.510  42.420  21.599  1.00  0.00     0.069 C 
ATOM     15  C   UNL A   1      43.589  43.137  22.318  1.00  0.00     0.071 A 
ATOM     16  C   UNL A   1      44.504  44.081  21.897  1.00  0.00     0.137 A 
ATOM     17  N   UNL A   1      45.143  44.632  22.970  1.00  0.00    -0.128 NA
ATOM     18  N   UNL A   1      44.654  44.062  24.065  1.00  0.00    -0.061 NA
BRANCH  16  19
ATOM     19  C   UNL A   1      44.723  44.577  20.545  1.00  0.00     0.124 A 
ATOM     20  N   UNL A   1      44.032  45.615  20.060  1.00  0.00    -0.165 NA
ATOM     21  C   UNL A   1      45.601  44.019  19.586  1.00  0.00     0.044 A 
ATOM     22  N   UNL A   1      44.343  45.646  18.749  1.00  0.00    -0.240 N 
ATOM     23  C   UNL A   1      45.290  44.702  18.423  1.00  0.00     0.125 A 
BRANCH  21  24
ATOM     24  C   UNL A   1      46.605  42.992  19.687  1.00  0.00     0.166 C 
ATOM     25  N   UNL A   1      47.632  43.153  20.452  1.00  0.00    -0.097 NA
BRANCH  25  26
ATOM     26  O   UNL A   1      48.473  42.038  20.340  1.00  0.00    -0.411 OA
ATOM     27  H   UNL A   1      48.469  41.379  21.006  1.00  0.00     0.330 HD
ENDBRANCH  25  26
ENDBRANCH  21  24
BRANCH  22  28
ATOM     28  C   UNL A   1      43.701  46.554  17.880  1.00  0.00     0.065 A 
ATOM     29  C   UNL A   1      44.178  47.867  17.792  1.00  0.00     0.028 A 
ATOM     30  C   UNL A   1      42.580  46.155  17.141  1.00  0.00     0.028 A 
ATOM     31  C   UNL A   1      43.548  48.776  16.942  1.00  0.00     0.002 A 
ATOM     32  C   UNL A   1      41.923  47.088  16.337  1.00  0.00     0.002 A 
ATOM     33  C   UNL A   1      42.414  48.390  16.227  1.00  0.00     0.000 A 
ENDBRANCH  22  28
ENDBRANCH  16  19
ENDBRANCH   8  13
ENDBRANCH   4   7
ENDBRANCH   2   3
ENDBRANCH   1   2
BRANCH   1  34
ATOM     34  C   UNL A   1      42.079  41.700  31.810  1.00  0.00     0.023 C 
BRANCH  34  35
ATOM     35  C   UNL A   1      42.663  40.970  33.019  1.00  0.00     0.116 C 
BRANCH  35  36
ATOM     36  N   UNL A   1      44.080  40.635  32.853  1.00  0.00    -0.352 N 
ATOM     37  C   UNL A   1      44.782  39.551  33.356  1.00  0.00     0.251 C 
ATOM     38  H   UNL A   1      44.605  41.266  32.309  1.00  0.00     0.163 HD
ATOM     39  O   UNL A   1      45.993  39.606  33.495  1.00  0.00    -0.269 OA
BRANCH  37  40
ATOM     40  C   UNL A   1      44.043  38.318  33.690  1.00  0.00     0.039 A 
ATOM     41  C   UNL A   1      43.607  38.041  34.990  1.00  0.00     0.014 A 
ATOM     42  C   UNL A   1      43.788  37.429  32.652  1.00  0.00     0.014 A 
ATOM     43  C   UNL A   1      42.841  36.896  35.213  1.00  0.00     0.010 A 
ATOM     44  C   UNL A   1      42.908  36.399  32.836  1.00  0.00     0.010 A 
ATOM     45  C   UNL A   1      42.486  36.087  34.124  1.00  0.00    -0.014 A 
BRANCH  45  46
ATOM     46  C   UNL A   1      41.563  34.966  34.259  1.00  0.00     0.031 A 
ATOM     47  C   UNL A   1      42.002  33.738  33.541  1.00  0.00     0.074 A 
ATOM     48  C   UNL A   1      40.596  34.952  35.203  1.00  0.00     0.049 A 
ATOM     49  N   UNL A   1      41.493  33.210  32.477  1.00  0.00    -0.248 NA
ATOM     50  C   UNL A   1      43.283  33.129  33.942  1.00  0.00     0.031 C 
ATOM     51  C   UNL A   1      40.325  35.972  36.226  1.00  0.00     0.029 A 
ATOM     52  N   UNL A   1      39.729  33.963  35.547  1.00  0.00    -0.354 N 
ATOM     53  C   UNL A   1      42.224  32.043  32.255  1.00  0.00     0.074 A 
ATOM     54  C   UNL A   1      43.447  32.211  32.988  1.00  0.00     0.031 C 
ATOM     55  C   UNL A   1      39.549  35.446  37.199  1.00  0.00     0.029 A 
ATOM     56  C   UNL A   1      39.133  34.115  36.798  1.00  0.00     0.049 A 
ATOM     57  H   UNL A   1      39.538  33.198  34.958  1.00  0.00     0.167 HD
ATOM     58  C   UNL A   1      41.625  30.922  31.759  1.00  0.00     0.037 A 
ATOM     59  C   UNL A   1      38.390  33.193  37.464  1.00  0.00     0.037 A 
ATOM     60  C   UNL A   1      40.319  31.246  31.227  1.00  0.00     0.049 A 
ATOM     61  C   UNL A   1      37.962  32.181  36.460  1.00  0.00     0.074 A 
ATOM     62  C   UNL A   1      39.839  32.128  30.277  1.00  0.00     0.029 A 
ATOM     63  N   UNL A   1      39.228  30.884  31.982  1.00  0.00    -0.354 N 
ATOM     64  N   UNL A   1      37.137  32.432  35.481  1.00  0.00    -0.248 NA
ATOM     65  C   UNL A   1      38.818  31.021  36.269  1.00  0.00     0.031 C 
ATOM     66  C   UNL A   1      38.609  32.614  30.811  1.00  0.00     0.029 A 
ATOM     67  C   UNL A   1      38.359  31.941  32.008  1.00  0.00     0.049 A 
ATOM     68  H   UNL A   1      39.095  30.015  32.426  1.00  0.00     0.167 HD
ATOM     69  C   UNL A   1      37.667  31.760  34.390  1.00  0.00     0.074 A 
ATOM     70  C   UNL A   1      38.647  30.834  34.956  1.00  0.00     0.031 C 
ATOM     71  C   UNL A   1      37.480  32.227  33.119  1.00  0.00     0.037 A 
BRANCH  58  72
ATOM     72  C   UNL A   1      41.992  29.489  32.130  1.00  0.00     0.058 A 
ATOM     73  C   UNL A   1      42.035  29.143  33.500  1.00  0.00     0.135 A 
ATOM     74  C   UNL A   1      42.574  28.541  31.260  1.00  0.00     0.135 A 
ATOM     75  F   UNL A   1      41.480  29.941  34.428  1.00  0.00    -0.206 F 
ATOM     76  C   UNL A   1      42.723  28.026  33.975  1.00  0.00     0.059 A 
ATOM     77  C   UNL A   1      43.219  27.392  31.710  1.00  0.00     0.059 A 
ATOM     78  F   UNL A   1      42.630  28.699  29.936  1.00  0.00    -0.206 F 
ATOM     79  C   UNL A   1      43.335  27.169  33.069  1.00  0.00     0.060 A 
BRANCH  79  80
ATOM     80  S   UNL A   1      44.321  25.792  33.677  1.00  0.00     0.124 S 
ATOM     81  O   UNL A   1      44.536  25.030  32.453  1.00  0.00    -0.237 OA
ATOM     82  O   UNL A   1      45.488  26.477  34.222  1.00  0.00    -0.237 OA
ATOM     83  O   UNL A   1      43.447  25.169  34.667  1.00  0.00    -0.744 OA
ENDBRANCH  79  80
ENDBRANCH  58  72
BRANCH  59  84
ATOM     84  C   UNL A   1      38.270  32.949  38.930  1.00  0.00     0.058 A 
ATOM     85  C   UNL A   1      37.034  32.605  39.510  1.00  0.00     0.135 A 
ATOM     86  C   UNL A   1      39.406  32.756  39.741  1.00  0.00     0.135 A 
ATOM     87  F   UNL A   1      35.898  32.746  38.809  1.00  0.00    -0.206 F 
ATOM     88  C   UNL A   1      36.935  32.043  40.788  1.00  0.00     0.059 A 
ATOM     89  C   UNL A   1      39.331  32.206  41.022  1.00  0.00     0.059 A 
ATOM     90  F   UNL A   1      40.639  33.007  39.277  1.00  0.00    -0.206 F 
ATOM     91  C   UNL A   1      38.094  31.822  41.529  1.00  0.00     0.060 A 
BRANCH  91  92
ATOM     92  S   UNL A   1      37.995  30.916  43.093  1.00  0.00     0.124 S 
ATOM     93  O   UNL A   1      38.978  31.616  43.911  1.00  0.00    -0.237 OA
ATOM     94  O   UNL A   1      36.598  31.107  43.471  1.00  0.00    -0.237 OA
ATOM     95  O   UNL A   1      38.353  29.552  42.716  1.00  0.00    -0.744 OA
ENDBRANCH  91  92
ENDBRANCH  59  84
BRANCH  71  96
ATOM     96  C   UNL A   1      36.409  33.262  32.889  1.00  0.00     0.058 A 
ATOM     97  C   UNL A   1      36.561  34.646  33.096  1.00  0.00     0.135 A 
ATOM     98  C   UNL A   1      35.209  32.833  32.304  1.00  0.00     0.135 A 
ATOM     99  F   UNL A   1      37.715  35.156  33.546  1.00  0.00    -0.206 F 
ATOM    100  C   UNL A   1      35.540  35.550  32.792  1.00  0.00     0.059 A 
ATOM    101  C   UNL A   1      34.194  33.718  31.959  1.00  0.00     0.059 A 
ATOM    102  F   UNL A   1      35.027  31.532  32.020  1.00  0.00    -0.206 F 
ATOM    103  C   UNL A   1      34.357  35.075  32.226  1.00  0.00     0.060 A 
BRANCH 103 104
ATOM    104  S   UNL A   1      33.051  36.244  31.796  1.00  0.00     0.124 S 
ATOM    105  O   UNL A   1      33.337  37.363  32.685  1.00  0.00    -0.237 OA
ATOM    106  O   UNL A   1      33.293  36.482  30.376  1.00  0.00    -0.237 OA
ATOM    107  O   UNL A   1      31.823  35.509  32.093  1.00  0.00    -0.744 OA
ENDBRANCH 103 104
ENDBRANCH  71  96
ENDBRANCH  45  46
ENDBRANCH  37  40
ENDBRANCH  35  36
ENDBRANCH  34  35
ENDBRANCH   1  34
TORSDOF 19
ENDMDL
MODEL 3
REMARK VINA RESULT:     -12.1      2.173      3.393
REMARK SMILES Cc1c(-c2nn(-c3ccccc3)cc2/C=N/O)nnn1-c1ccc(C(=O)NCCCCNC(=O)c2ccc(-c3c4nc(c(-c5c(F)cc(S(=O)(=O)[O-])cc5F)c5ccc([nH]5)c(-c5c(F)cc(S(=O)(=O)[O-])cc5F)c5nc(c(-c6c(F)cc(S(=O)(=O)[O-])cc6F)c6ccc3[nH]6)C=C5)C=C4)cc2)cc1
REMARK SMILES IDX 29 1 28 2 27 3 25 4 26 5 24 7 21 8 22 9 102 10 23 11 101 12
REMARK SMILES IDX 20 13 1 14 2 15 3 16 18 17 19 18 4 19 5 20 14 21 6 22 13 23
REMARK SMILES IDX 15 24 16 25 17 26 7 28 8 29 12 30 9 31 11 32 10 33 30 34
REMARK SMILES IDX 31 35 32 36 33 37 34 39 35 40 36 41 100 42 37 43 99 44 38 45
REMARK SMILES IDX 39 46 40 47 93 48 41 49 98 50 92 51 94 52 42 53 97 54 91 55
REMARK SMILES IDX 90 56 43 58 77 59 56 60 76 61 57 62 60 63 75 64 95 65 58 66
REMARK SMILES IDX 59 67 74 69 96 70 61 71 44 72 45 73 54 74 46 75 47 76 53 77
REMARK SMILES IDX 55 78 48 79 49 80 50 81 51 82 52 83 78 84 79 85 88 86 80 87
REMARK SMILES IDX 81 88 87 89 89 90 82 91 83 92 84 93 85 94 86 95 62 96 63 97
REMARK SMILES IDX 72 98 64 99 65 100 71 101 73 102 66 103 67 104 68 105 69 106
REMARK SMILES IDX 70 107
REMARK H PARENT 27 6 17 27 32 38 94 57 60 68
REMARK Flexibility Score: inf
ROOT
ATOM      1  C   UNL A   1      35.548  32.679  29.668  1.00  0.00     0.023 C 
ENDROOT
BRANCH   1   2
ATOM      2  C   UNL A   1      35.273  32.705  28.158  1.00  0.00     0.116 C 
BRANCH   2   3
ATOM      3  N   UNL A   1      33.933  33.180  27.873  1.00  0.00    -0.352 N 
ATOM      4  C   UNL A   1      32.791  32.579  27.407  1.00  0.00     0.251 C 
ATOM      5  O   UNL A   1      31.804  33.303  27.266  1.00  0.00    -0.269 OA
ATOM      6  H   UNL A   1      33.818  34.141  28.051  1.00  0.00     0.163 HD
BRANCH   4   7
ATOM      7  C   UNL A   1      32.662  31.124  27.088  1.00  0.00     0.039 A 
ATOM      8  C   UNL A   1      32.234  28.429  26.373  1.00  0.00     0.067 A 
ATOM      9  C   UNL A   1      31.511  29.436  25.734  1.00  0.00     0.029 A 
ATOM     10  C   UNL A   1      33.204  28.763  27.323  1.00  0.00     0.029 A 
ATOM     11  C   UNL A   1      31.703  30.768  26.118  1.00  0.00     0.016 A 
ATOM     12  C   UNL A   1      33.441  30.106  27.641  1.00  0.00     0.016 A 
BRANCH   8  13
ATOM     13  N   UNL A   1      32.026  27.077  26.023  1.00  0.00    -0.217 N 
ATOM     14  C   UNL A   1      34.032  26.642  24.528  1.00  0.00     0.069 C 
ATOM     15  C   UNL A   1      32.707  26.306  25.099  1.00  0.00     0.071 A 
ATOM     16  C   UNL A   1      31.919  25.177  24.991  1.00  0.00     0.137 A 
ATOM     17  N   UNL A   1      30.892  25.229  25.888  1.00  0.00    -0.128 NA
ATOM     18  N   UNL A   1      31.010  26.364  26.568  1.00  0.00    -0.061 NA
BRANCH  16  19
ATOM     19  C   UNL A   1      32.151  23.997  24.168  1.00  0.00     0.124 A 
ATOM     20  N   UNL A   1      32.197  22.771  24.700  1.00  0.00    -0.165 NA
ATOM     21  C   UNL A   1      32.412  23.992  22.777  1.00  0.00     0.044 A 
ATOM     22  N   UNL A   1      32.631  21.983  23.697  1.00  0.00    -0.240 N 
ATOM     23  C   UNL A   1      32.769  22.680  22.518  1.00  0.00     0.125 A 
BRANCH  21  24
ATOM     24  C   UNL A   1      32.354  25.033  21.785  1.00  0.00     0.166 C 
ATOM     25  N   UNL A   1      33.335  25.210  20.963  1.00  0.00    -0.097 NA
BRANCH  25  26
ATOM     26  O   UNL A   1      33.053  26.303  20.134  1.00  0.00    -0.411 OA
ATOM     27  H   UNL A   1      33.150  27.176  20.461  1.00  0.00     0.330 HD
ENDBRANCH  25  26
ENDBRANCH  21  24
BRANCH  22  28
ATOM     28  C   UNL A   1      32.916  20.619  23.927  1.00  0.00     0.065 A 
ATOM     29  C   UNL A   1      33.950  20.278  24.807  1.00  0.00     0.028 A 
ATOM     30  C   UNL A   1      32.196  19.622  23.257  1.00  0.00     0.028 A 
ATOM     31  C   UNL A   1      34.246  18.935  25.038  1.00  0.00     0.002 A 
ATOM     32  C   UNL A   1      32.539  18.283  23.452  1.00  0.00     0.002 A 
ATOM     33  C   UNL A   1      33.552  17.941  24.351  1.00  0.00     0.000 A 
ENDBRANCH  22  28
ENDBRANCH  16  19
ENDBRANCH   8  13
ENDBRANCH   4   7
ENDBRANCH   2   3
ENDBRANCH   1   2
BRANCH   1  34
ATOM     34  C   UNL A   1      34.806  33.750  30.485  1.00  0.00     0.023 C 
BRANCH  34  35
ATOM     35  C   UNL A   1      33.973  33.223  31.653  1.00  0.00     0.116 C 
BRANCH  35  36
ATOM     36  N   UNL A   1      34.380  33.787  32.943  1.00  0.00    -0.352 N 
ATOM     37  C   UNL A   1      35.478  33.467  33.724  1.00  0.00     0.251 C 
ATOM     38  H   UNL A   1      33.793  34.491  33.304  1.00  0.00     0.163 HD
ATOM     39  O   UNL A   1      35.476  33.697  34.923  1.00  0.00    -0.269 OA
BRANCH  37  40
ATOM     40  C   UNL A   1      36.663  32.872  33.077  1.00  0.00     0.039 A 
ATOM     41  C   UNL A   1      37.723  33.652  32.603  1.00  0.00     0.014 A 
ATOM     42  C   UNL A   1      36.692  31.487  32.956  1.00  0.00     0.014 A 
ATOM     43  C   UNL A   1      38.848  33.012  32.079  1.00  0.00     0.010 A 
ATOM     44  C   UNL A   1      37.851  30.858  32.594  1.00  0.00     0.010 A 
ATOM     45  C   UNL A   1      38.906  31.612  32.091  1.00  0.00    -0.014 A 
BRANCH  45  46
ATOM     46  C   UNL A   1      40.108  30.882  31.704  1.00  0.00     0.031 A 
ATOM     47  C   UNL A   1      41.014  30.573  32.844  1.00  0.00     0.074 A 
ATOM     48  C   UNL A   1      40.213  30.271  30.503  1.00  0.00     0.049 A 
ATOM     49  N   UNL A   1      42.172  31.084  33.106  1.00  0.00    -0.248 NA
ATOM     50  C   UNL A   1      40.484  29.733  33.934  1.00  0.00     0.031 C 
ATOM     51  C   UNL A   1      39.199  30.197  29.442  1.00  0.00     0.029 A 
ATOM     52  N   UNL A   1      41.194  29.464  30.020  1.00  0.00    -0.354 N 
ATOM     53  C   UNL A   1      42.628  30.409  34.238  1.00  0.00     0.074 A 
ATOM     54  C   UNL A   1      41.459  29.833  34.840  1.00  0.00     0.031 C 
ATOM     55  C   UNL A   1      39.517  29.210  28.576  1.00  0.00     0.029 A 
ATOM     56  C   UNL A   1      40.827  28.690  28.920  1.00  0.00     0.049 A 
ATOM     57  H   UNL A   1      42.095  29.429  30.416  1.00  0.00     0.167 HD
ATOM     58  C   UNL A   1      43.952  30.118  34.397  1.00  0.00     0.037 A 
ATOM     59  C   UNL A   1      41.537  27.671  28.367  1.00  0.00     0.037 A 
ATOM     60  C   UNL A   1      44.747  30.872  33.452  1.00  0.00     0.049 A 
ATOM     61  C   UNL A   1      42.937  27.813  28.850  1.00  0.00     0.074 A 
ATOM     62  C   UNL A   1      44.905  32.213  33.155  1.00  0.00     0.029 A 
ATOM     63  N   UNL A   1      45.245  30.190  32.367  1.00  0.00    -0.354 N 
ATOM     64  N   UNL A   1      43.722  28.803  28.523  1.00  0.00    -0.248 NA
ATOM     65  C   UNL A   1      43.303  27.107  30.068  1.00  0.00     0.031 C 
ATOM     66  C   UNL A   1      45.031  32.264  31.735  1.00  0.00     0.029 A 
ATOM     67  C   UNL A   1      45.035  30.955  31.252  1.00  0.00     0.049 A 
ATOM     68  H   UNL A   1      45.676  29.305  32.388  1.00  0.00     0.167 HD
ATOM     69  C   UNL A   1      44.392  29.125  29.695  1.00  0.00     0.074 A 
ATOM     70  C   UNL A   1      44.163  27.989  30.586  1.00  0.00     0.031 C 
ATOM     71  C   UNL A   1      44.810  30.405  29.934  1.00  0.00     0.037 A 
BRANCH  58  72
ATOM     72  C   UNL A   1      44.504  28.865  35.069  1.00  0.00     0.058 A 
ATOM     73  C   UNL A   1      44.041  27.606  34.621  1.00  0.00     0.135 A 
ATOM     74  C   UNL A   1      45.215  28.836  36.289  1.00  0.00     0.135 A 
ATOM     75  F   UNL A   1      43.386  27.491  33.454  1.00  0.00    -0.206 F 
ATOM     76  C   UNL A   1      44.151  26.446  35.387  1.00  0.00     0.059 A 
ATOM     77  C   UNL A   1      45.382  27.679  37.044  1.00  0.00     0.059 A 
ATOM     78  F   UNL A   1      45.722  29.927  36.868  1.00  0.00    -0.206 F 
ATOM     79  C   UNL A   1      44.802  26.500  36.613  1.00  0.00     0.060 A 
BRANCH  79  80
ATOM     80  S   UNL A   1      44.847  25.037  37.659  1.00  0.00     0.124 S 
ATOM     81  O   UNL A   1      45.991  24.322  37.106  1.00  0.00    -0.237 OA
ATOM     82  O   UNL A   1      45.033  25.621  38.983  1.00  0.00    -0.237 OA
ATOM     83  O   UNL A   1      43.543  24.422  37.428  1.00  0.00    -0.744 OA
ENDBRANCH  79  80
ENDBRANCH  58  72
BRANCH  59  84
ATOM     84  C   UNL A   1      41.053  26.425  27.707  1.00  0.00     0.058 A 
ATOM     85  C   UNL A   1      41.752  25.859  26.624  1.00  0.00     0.135 A 
ATOM     86  C   UNL A   1      40.074  25.606  28.304  1.00  0.00     0.135 A 
ATOM     87  F   UNL A   1      42.708  26.561  25.998  1.00  0.00    -0.206 F 
ATOM     88  C   UNL A   1      41.542  24.541  26.202  1.00  0.00     0.059 A 
ATOM     89  C   UNL A   1      39.840  24.292  27.895  1.00  0.00     0.059 A 
ATOM     90  F   UNL A   1      39.378  26.025  29.372  1.00  0.00    -0.206 F 
ATOM     91  C   UNL A   1      40.599  23.754  26.862  1.00  0.00     0.060 A 
BRANCH  91  92
ATOM     92  S   UNL A   1      40.464  21.996  26.455  1.00  0.00     0.124 S 
ATOM     93  O   UNL A   1      41.639  21.787  25.618  1.00  0.00    -0.237 OA
ATOM     94  O   UNL A   1      40.501  21.370  27.774  1.00  0.00    -0.237 OA
ATOM     95  O   UNL A   1      39.180  21.907  25.764  1.00  0.00    -0.744 OA
ENDBRANCH  91  92
ENDBRANCH  59  84
BRANCH  71  96
ATOM     96  C   UNL A   1      44.856  31.369  28.778  1.00  0.00     0.058 A 
ATOM     97  C   UNL A   1      43.859  32.314  28.470  1.00  0.00     0.135 A 
ATOM     98  C   UNL A   1      46.036  31.419  28.022  1.00  0.00     0.135 A 
ATOM     99  F   UNL A   1      42.747  32.413  29.210  1.00  0.00    -0.206 F 
ATOM    100  C   UNL A   1      44.008  33.223  27.419  1.00  0.00     0.059 A 
ATOM    101  C   UNL A   1      46.222  32.340  26.996  1.00  0.00     0.059 A 
ATOM    102  F   UNL A   1      47.053  30.588  28.307  1.00  0.00    -0.206 F 
ATOM    103  C   UNL A   1      45.194  33.225  26.685  1.00  0.00     0.060 A 
BRANCH 103 104
ATOM    104  S   UNL A   1      45.406  34.424  25.353  1.00  0.00     0.124 S 
ATOM    105  O   UNL A   1      44.654  35.570  25.849  1.00  0.00    -0.237 OA
ATOM    106  O   UNL A   1      46.856  34.589  25.301  1.00  0.00    -0.237 OA
ATOM    107  O   UNL A   1      44.825  33.751  24.193  1.00  0.00    -0.744 OA
ENDBRANCH 103 104
ENDBRANCH  71  96
ENDBRANCH  45  46
ENDBRANCH  37  40
ENDBRANCH  35  36
ENDBRANCH  34  35
ENDBRANCH   1  34
TORSDOF 19
ENDMDL
