MODEL 1
REMARK VINA RESULT:     -12.5      0.000      0.000
REMARK SMILES O=C(NCCCCNC(=O)c1ccc(-c2c3nc(c(-c4c(F)cc(S(=O)(=O)[O-])cc4F)c4ccc([nH]4)c(-c4c(F)cc(S(=O)(=O)[O-])cc4F)c4nc(c(-c5c(F)cc(S(=O)(=O)[O-])cc5F)c5ccc2[nH]5)C=C4)C=C3)cc1)C1=Cc2cc(S(F)(F)(F)(F)F)ccc2O[C@H]1C(F)(F)F
REMARK SMILES IDX 6 1 5 2 4 3 3 4 1 5 2 6 77 8 78 9 92 10 79 11 91 12 80 13
REMARK SMILES IDX 90 14 81 15 89 16 88 17 93 18 94 19 95 20 96 21 82 22 83 23
REMARK SMILES IDX 84 24 85 25 86 26 87 27 7 28 8 29 9 30 10 32 11 33 12 34
REMARK SMILES IDX 76 35 13 36 75 37 14 38 15 39 16 40 69 41 17 42 74 43 68 44
REMARK SMILES IDX 70 45 18 46 73 47 67 48 66 49 19 51 53 52 32 53 52 54 33 55
REMARK SMILES IDX 36 56 51 57 71 58 34 59 35 60 50 62 72 63 37 64 20 65 21 66
REMARK SMILES IDX 30 67 22 68 23 69 29 70 31 71 24 72 25 73 26 74 27 75 28 76
REMARK SMILES IDX 54 77 55 78 64 79 56 80 57 81 63 82 65 83 58 84 59 85 60 86
REMARK SMILES IDX 61 87 62 88 38 89 39 90 48 91 40 92 41 93 47 94 49 95 42 96
REMARK SMILES IDX 43 97 44 98 45 99 46 100
REMARK H PARENT 3 7 8 31 70 50 36 61
REMARK Flexibility Score: inf
ROOT
ATOM      1  C   UNL A   1      33.277  27.526  25.842  1.00  0.00     0.023 C 
ENDROOT
BRANCH   1   2
ATOM      2  C   UNL A   1      32.178  26.678  26.460  1.00  0.00     0.023 C 
BRANCH   2   3
ATOM      3  C   UNL A   1      32.232  25.275  25.876  1.00  0.00     0.116 C 
BRANCH   3   4
ATOM      4  N   UNL A   1      33.479  25.108  25.115  1.00  0.00    -0.352 N 
ATOM      5  O   UNL A   1      34.520  24.406  23.099  1.00  0.00    -0.270 OA
ATOM      6  C   UNL A   1      33.442  24.550  23.757  1.00  0.00     0.251 C 
ATOM      7  H   UNL A   1      34.339  25.371  25.516  1.00  0.00     0.163 HD
BRANCH   6   8
ATOM      8  C   UNL A   1      32.114  24.143  23.139  1.00  0.00     0.067 C 
ATOM      9  C   UNL A   1      31.295  25.089  22.605  1.00  0.00     0.025 C 
ATOM     10  C   UNL A   1      31.702  22.680  23.117  1.00  0.00     0.314 C 
ATOM     11  C   UNL A   1      31.707  26.552  22.627  1.00  0.00     0.019 A 
ATOM     12  O   UNL A   1      33.937  25.986  22.031  1.00  0.00    -0.475 OA
ATOM     13  C   UNL A   1      30.744  27.455  23.045  1.00  0.00     0.036 A 
ATOM     14  C   UNL A   1      32.930  26.950  22.299  1.00  0.00     0.128 A 
ATOM     15  C   UNL A   1      31.086  28.808  22.807  1.00  0.00     0.107 A 
ATOM     16  C   UNL A   1      33.231  28.288  22.218  1.00  0.00     0.048 A 
ATOM     17  C   UNL A   1      32.309  29.239  22.560  1.00  0.00     0.028 A 
BRANCH  10  18
ATOM     18  C   UNL A   1      32.785  21.838  23.771  1.00  0.00     0.429 C 
ATOM     19  F   UNL A   1      33.940  21.996  23.130  1.00  0.00    -0.167 F 
ATOM     20  F   UNL A   1      32.934  22.192  25.045  1.00  0.00    -0.167 F 
ATOM     21  F   UNL A   1      32.412  20.564  23.705  1.00  0.00    -0.167 F 
ENDBRANCH  10  18
BRANCH  15  22
ATOM     22  S   UNL A   1      29.752  30.032  22.846  1.00  0.00     0.310 S 
ATOM     23  F   UNL A   1      28.680  28.932  23.238  1.00  0.00    -0.094 F 
ATOM     24  F   UNL A   1      29.439  29.699  21.337  1.00  0.00    -0.094 F 
ATOM     25  F   UNL A   1      28.604  31.079  22.882  1.00  0.00    -0.094 F 
ATOM     26  F   UNL A   1      29.991  30.249  24.391  1.00  0.00    -0.094 F 
ATOM     27  F   UNL A   1      30.847  28.891  22.852  1.00  0.00    -0.094 F 
ENDBRANCH  15  22
ENDBRANCH   6   8
ENDBRANCH   3   4
ENDBRANCH   2   3
ENDBRANCH   1   2
BRANCH   1  28
ATOM     28  C   UNL A   1      34.161  28.091  26.943  1.00  0.00     0.116 C 
BRANCH  28  29
ATOM     29  N   UNL A   1      33.614  29.375  27.401  1.00  0.00    -0.352 N 
ATOM     30  C   UNL A   1      34.491  30.359  28.052  1.00  0.00     0.251 C 
ATOM     31  H   UNL A   1      32.659  29.577  27.273  1.00  0.00     0.163 HD
ATOM     32  O   UNL A   1      34.017  31.469  28.448  1.00  0.00    -0.269 OA
BRANCH  30  33
ATOM     33  C   UNL A   1      35.966  30.047  28.251  1.00  0.00     0.039 A 
ATOM     34  C   UNL A   1      36.906  30.253  27.255  1.00  0.00     0.014 A 
ATOM     35  C   UNL A   1      36.319  29.599  29.449  1.00  0.00     0.014 A 
ATOM     36  C   UNL A   1      38.169  29.678  27.532  1.00  0.00     0.010 A 
ATOM     37  C   UNL A   1      37.605  29.181  29.689  1.00  0.00     0.010 A 
ATOM     38  C   UNL A   1      38.573  29.300  28.730  1.00  0.00    -0.014 A 
BRANCH  38  39
ATOM     39  C   UNL A   1      40.035  29.012  29.029  1.00  0.00     0.031 A 
ATOM     40  C   UNL A   1      40.470  27.730  28.687  1.00  0.00     0.074 A 
ATOM     41  C   UNL A   1      40.835  29.963  29.639  1.00  0.00     0.049 A 
ATOM     42  N   UNL A   1      41.691  27.215  28.846  1.00  0.00    -0.248 NA
ATOM     43  C   UNL A   1      39.613  26.706  28.071  1.00  0.00     0.031 C 
ATOM     44  C   UNL A   1      40.406  31.262  29.979  1.00  0.00     0.029 A 
ATOM     45  N   UNL A   1      42.152  29.840  30.021  1.00  0.00    -0.354 N 
ATOM     46  C   UNL A   1      41.727  25.964  28.382  1.00  0.00     0.074 A 
ATOM     47  C   UNL A   1      40.391  25.617  27.883  1.00  0.00     0.031 C 
ATOM     48  C   UNL A   1      41.446  31.908  30.567  1.00  0.00     0.029 A 
ATOM     49  C   UNL A   1      42.542  31.025  30.605  1.00  0.00     0.049 A 
ATOM     50  H   UNL A   1      42.717  29.044  29.898  1.00  0.00     0.167 HD
ATOM     51  C   UNL A   1      42.824  25.102  28.354  1.00  0.00     0.037 A 
ATOM     52  C   UNL A   1      43.779  31.337  31.148  1.00  0.00     0.037 A 
ATOM     53  C   UNL A   1      44.074  25.429  28.857  1.00  0.00     0.049 A 
ATOM     54  C   UNL A   1      44.860  30.454  31.172  1.00  0.00     0.074 A 
ATOM     55  C   UNL A   1      45.192  24.574  28.830  1.00  0.00     0.029 A 
ATOM     56  N   UNL A   1      44.456  26.605  29.463  1.00  0.00    -0.354 N 
ATOM     57  N   UNL A   1      44.908  29.218  30.673  1.00  0.00    -0.248 NA
ATOM     58  C   UNL A   1      46.165  30.761  31.774  1.00  0.00     0.031 C 
ATOM     59  C   UNL A   1      46.232  25.221  29.419  1.00  0.00     0.029 A 
ATOM     60  C   UNL A   1      45.780  26.491  29.826  1.00  0.00     0.049 A 
ATOM     61  H   UNL A   1      43.883  27.392  29.612  1.00  0.00     0.167 HD
ATOM     62  C   UNL A   1      46.118  28.689  30.869  1.00  0.00     0.074 A 
ATOM     63  C   UNL A   1      46.941  29.671  31.586  1.00  0.00     0.031 C 
ATOM     64  C   UNL A   1      46.569  27.428  30.475  1.00  0.00     0.037 A 
BRANCH  51  65
ATOM     65  C   UNL A   1      42.638  23.726  27.736  1.00  0.00     0.058 A 
ATOM     66  C   UNL A   1      42.820  23.534  26.376  1.00  0.00     0.135 A 
ATOM     67  C   UNL A   1      42.392  22.705  28.548  1.00  0.00     0.135 A 
ATOM     68  F   UNL A   1      43.314  24.471  25.572  1.00  0.00    -0.206 F 
ATOM     69  C   UNL A   1      42.434  22.252  25.920  1.00  0.00     0.059 A 
ATOM     70  C   UNL A   1      42.158  21.449  28.042  1.00  0.00     0.059 A 
ATOM     71  F   UNL A   1      42.372  22.899  29.864  1.00  0.00    -0.206 F 
ATOM     72  C   UNL A   1      42.262  21.200  26.701  1.00  0.00     0.060 A 
BRANCH  72  73
ATOM     73  S   UNL A   1      42.169  19.521  26.033  1.00  0.00     0.124 S 
ATOM     74  O   UNL A   1      42.661  18.525  27.087  1.00  0.00    -0.237 OA
ATOM     75  O   UNL A   1      40.718  19.198  25.665  1.00  0.00    -0.237 OA
ATOM     76  O   UNL A   1      43.151  19.406  24.638  1.00  0.00    -0.744 OA
ENDBRANCH  72  73
ENDBRANCH  51  65
BRANCH  52  77
ATOM     77  C   UNL A   1      43.970  32.720  31.751  1.00  0.00     0.058 A 
ATOM     78  C   UNL A   1      43.662  32.935  33.084  1.00  0.00     0.135 A 
ATOM     79  C   UNL A   1      44.332  33.721  30.958  1.00  0.00     0.135 A 
ATOM     80  F   UNL A   1      43.543  31.948  33.968  1.00  0.00    -0.206 F 
ATOM     81  C   UNL A   1      43.488  34.298  33.420  1.00  0.00     0.059 A 
ATOM     82  C   UNL A   1      44.265  35.021  31.397  1.00  0.00     0.059 A 
ATOM     83  F   UNL A   1      44.764  33.464  29.726  1.00  0.00    -0.206 F 
ATOM     84  C   UNL A   1      43.912  35.310  32.687  1.00  0.00     0.060 A 
BRANCH  84  85
ATOM     85  S   UNL A   1      44.020  36.991  33.352  1.00  0.00     0.124 S 
ATOM     86  O   UNL A   1      42.763  37.298  34.169  1.00  0.00    -0.237 OA
ATOM     87  O   UNL A   1      45.254  37.104  34.250  1.00  0.00    -0.237 OA
ATOM     88  O   UNL A   1      44.149  38.106  32.063  1.00  0.00    -0.744 OA
ENDBRANCH  84  85
ENDBRANCH  52  77
BRANCH  64  89
ATOM     89  C   UNL A   1      48.012  27.059  30.777  1.00  0.00     0.058 A 
ATOM     90  C   UNL A   1      49.064  27.450  29.964  1.00  0.00     0.135 A 
ATOM     91  C   UNL A   1      48.223  26.375  31.896  1.00  0.00     0.135 A 
ATOM     92  F   UNL A   1      48.931  28.340  28.984  1.00  0.00    -0.206 F 
ATOM     93  C   UNL A   1      50.291  26.818  30.272  1.00  0.00     0.059 A 
ATOM     94  C   UNL A   1      49.477  25.904  32.200  1.00  0.00     0.059 A 
ATOM     95  F   UNL A   1      47.212  26.145  32.728  1.00  0.00    -0.206 F 
ATOM     96  C   UNL A   1      50.552  26.201  31.410  1.00  0.00     0.060 A 
BRANCH  96  97
ATOM     97  S   UNL A   1      52.243  25.775  31.899  1.00  0.00     0.124 S 
ATOM     98  O   UNL A   1      52.281  24.327  32.391  1.00  0.00    -0.237 OA
ATOM     99  O   UNL A   1      53.176  25.930  30.695  1.00  0.00    -0.237 OA
ATOM    100  O   UNL A   1      52.753  26.819  33.154  1.00  0.00    -0.744 OA
ENDBRANCH  96  97
ENDBRANCH  64  89
ENDBRANCH  38  39
ENDBRANCH  30  33
ENDBRANCH  28  29
ENDBRANCH   1  28
TORSDOF 16
ENDMDL
MODEL 2
REMARK VINA RESULT:     -12.2      4.676      9.774
REMARK SMILES O=C(NCCCCNC(=O)c1ccc(-c2c3nc(c(-c4c(F)cc(S(=O)(=O)[O-])cc4F)c4ccc([nH]4)c(-c4c(F)cc(S(=O)(=O)[O-])cc4F)c4nc(c(-c5c(F)cc(S(=O)(=O)[O-])cc5F)c5ccc2[nH]5)C=C4)C=C3)cc1)C1=Cc2cc(S(F)(F)(F)(F)F)ccc2O[C@H]1C(F)(F)F
REMARK SMILES IDX 6 1 5 2 4 3 3 4 1 5 2 6 77 8 78 9 92 10 79 11 91 12 80 13
REMARK SMILES IDX 90 14 81 15 89 16 88 17 93 18 94 19 95 20 96 21 82 22 83 23
REMARK SMILES IDX 84 24 85 25 86 26 87 27 7 28 8 29 9 30 10 32 11 33 12 34
REMARK SMILES IDX 76 35 13 36 75 37 14 38 15 39 16 40 69 41 17 42 74 43 68 44
REMARK SMILES IDX 70 45 18 46 73 47 67 48 66 49 19 51 53 52 32 53 52 54 33 55
REMARK SMILES IDX 36 56 51 57 71 58 34 59 35 60 50 62 72 63 37 64 20 65 21 66
REMARK SMILES IDX 30 67 22 68 23 69 29 70 31 71 24 72 25 73 26 74 27 75 28 76
REMARK SMILES IDX 54 77 55 78 64 79 56 80 57 81 63 82 65 83 58 84 59 85 60 86
REMARK SMILES IDX 61 87 62 88 38 89 39 90 48 91 40 92 41 93 47 94 49 95 42 96
REMARK SMILES IDX 43 97 44 98 45 99 46 100
REMARK H PARENT 3 7 8 31 70 50 36 61
REMARK Flexibility Score: inf
ROOT
ATOM      1  C   UNL A   1      37.365  23.779  25.552  1.00  0.00     0.023 C 
ENDROOT
BRANCH   1   2
ATOM      2  C   UNL A   1      36.035  23.544  26.248  1.00  0.00     0.023 C 
BRANCH   2   3
ATOM      3  C   UNL A   1      34.935  24.283  25.502  1.00  0.00     0.116 C 
BRANCH   3   4
ATOM      4  N   UNL A   1      35.070  24.036  24.060  1.00  0.00    -0.352 N 
ATOM      5  O   UNL A   1      33.992  23.576  21.994  1.00  0.00    -0.270 OA
ATOM      6  C   UNL A   1      33.875  23.789  23.241  1.00  0.00     0.251 C 
ATOM      7  H   UNL A   1      35.961  24.035  23.642  1.00  0.00     0.163 HD
BRANCH   6   8
ATOM      8  C   UNL A   1      32.499  23.789  23.887  1.00  0.00     0.067 C 
ATOM      9  C   UNL A   1      31.904  24.966  24.220  1.00  0.00     0.025 C 
ATOM     10  C   UNL A   1      31.787  22.474  24.159  1.00  0.00     0.314 C 
ATOM     11  C   UNL A   1      32.616  26.281  23.947  1.00  0.00     0.019 A 
ATOM     12  O   UNL A   1      33.333  25.511  21.817  1.00  0.00    -0.475 OA
ATOM     13  C   UNL A   1      32.628  27.200  24.984  1.00  0.00     0.036 A 
ATOM     14  C   UNL A   1      33.227  26.533  22.796  1.00  0.00     0.128 A 
ATOM     15  C   UNL A   1      33.071  28.489  24.602  1.00  0.00     0.107 A 
ATOM     16  C   UNL A   1      33.758  27.775  22.544  1.00  0.00     0.048 A 
ATOM     17  C   UNL A   1      33.752  28.751  23.501  1.00  0.00     0.028 A 
BRANCH  10  18
ATOM     18  C   UNL A   1      32.660  21.319  23.696  1.00  0.00     0.429 C 
ATOM     19  F   UNL A   1      32.684  21.264  22.368  1.00  0.00    -0.167 F 
ATOM     20  F   UNL A   1      33.900  21.470  24.155  1.00  0.00    -0.167 F 
ATOM     21  F   UNL A   1      32.143  20.193  24.178  1.00  0.00    -0.167 F 
ENDBRANCH  10  18
BRANCH  15  22
ATOM     22  S   UNL A   1      32.679  29.873  25.701  1.00  0.00     0.310 S 
ATOM     23  F   UNL A   1      31.873  28.932  26.690  1.00  0.00    -0.094 F 
ATOM     24  F   UNL A   1      31.331  30.083  24.912  1.00  0.00    -0.094 F 
ATOM     25  F   UNL A   1      32.341  31.058  26.649  1.00  0.00    -0.094 F 
ATOM     26  F   UNL A   1      33.964  29.559  26.563  1.00  0.00    -0.094 F 
ATOM     27  F   UNL A   1      32.979  28.599  24.815  1.00  0.00    -0.094 F 
ENDBRANCH  15  22
ENDBRANCH   6   8
ENDBRANCH   3   4
ENDBRANCH   2   3
ENDBRANCH   1   2
BRANCH   1  28
ATOM     28  C   UNL A   1      38.404  24.212  26.575  1.00  0.00     0.116 C 
BRANCH  28  29
ATOM     29  N   UNL A   1      39.750  23.947  26.049  1.00  0.00    -0.352 N 
ATOM     30  C   UNL A   1      40.916  24.620  26.640  1.00  0.00     0.251 C 
ATOM     31  H   UNL A   1      39.872  23.320  25.300  1.00  0.00     0.163 HD
ATOM     32  O   UNL A   1      42.080  24.391  26.186  1.00  0.00    -0.269 OA
BRANCH  30  33
ATOM     33  C   UNL A   1      40.728  25.590  27.796  1.00  0.00     0.039 A 
ATOM     34  C   UNL A   1      39.657  25.499  28.671  1.00  0.00     0.014 A 
ATOM     35  C   UNL A   1      41.668  26.514  27.952  1.00  0.00     0.014 A 
ATOM     36  C   UNL A   1      39.515  26.622  29.520  1.00  0.00     0.010 A 
ATOM     37  C   UNL A   1      41.527  27.503  28.893  1.00  0.00     0.010 A 
ATOM     38  C   UNL A   1      40.463  27.510  29.753  1.00  0.00    -0.014 A 
BRANCH  38  39
ATOM     39  C   UNL A   1      40.378  28.486  30.915  1.00  0.00     0.031 A 
ATOM     40  C   UNL A   1      39.442  29.512  30.761  1.00  0.00     0.074 A 
ATOM     41  C   UNL A   1      41.216  28.362  32.009  1.00  0.00     0.049 A 
ATOM     42  N   UNL A   1      39.170  30.500  31.616  1.00  0.00    -0.248 NA
ATOM     43  C   UNL A   1      38.575  29.666  29.584  1.00  0.00     0.031 C 
ATOM     44  C   UNL A   1      42.157  27.326  32.175  1.00  0.00     0.029 A 
ATOM     45  N   UNL A   1      41.301  29.188  33.108  1.00  0.00    -0.354 N 
ATOM     46  C   UNL A   1      38.201  31.277  31.128  1.00  0.00     0.074 A 
ATOM     47  C   UNL A   1      37.809  30.755  29.812  1.00  0.00     0.031 C 
ATOM     48  C   UNL A   1      42.805  27.530  33.351  1.00  0.00     0.029 A 
ATOM     49  C   UNL A   1      42.282  28.697  33.940  1.00  0.00     0.049 A 
ATOM     50  H   UNL A   1      40.754  29.990  33.270  1.00  0.00     0.167 HD
ATOM     51  C   UNL A   1      37.627  32.397  31.731  1.00  0.00     0.037 A 
ATOM     52  C   UNL A   1      42.712  29.224  35.148  1.00  0.00     0.037 A 
ATOM     53  C   UNL A   1      38.028  32.899  32.959  1.00  0.00     0.049 A 
ATOM     54  C   UNL A   1      42.178  30.378  35.724  1.00  0.00     0.074 A 
ATOM     55  C   UNL A   1      37.455  34.024  33.584  1.00  0.00     0.029 A 
ATOM     56  N   UNL A   1      39.026  32.422  33.780  1.00  0.00    -0.354 N 
ATOM     57  N   UNL A   1      41.183  31.132  35.255  1.00  0.00    -0.248 NA
ATOM     58  C   UNL A   1      42.648  30.965  36.986  1.00  0.00     0.031 C 
ATOM     59  C   UNL A   1      38.105  34.228  34.761  1.00  0.00     0.029 A 
ATOM     60  C   UNL A   1      39.095  33.235  34.890  1.00  0.00     0.049 A 
ATOM     61  H   UNL A   1      39.593  31.637  33.603  1.00  0.00     0.167 HD
ATOM     62  C   UNL A   1      40.939  32.144  36.091  1.00  0.00     0.074 A 
ATOM     63  C   UNL A   1      41.882  32.054  37.214  1.00  0.00     0.031 C 
ATOM     64  C   UNL A   1      39.963  33.135  35.965  1.00  0.00     0.037 A 
BRANCH  51  65
ATOM     65  C   UNL A   1      36.500  33.107  30.998  1.00  0.00     0.058 A 
ATOM     66  C   UNL A   1      35.186  32.948  31.406  1.00  0.00     0.135 A 
ATOM     67  C   UNL A   1      36.822  33.952  30.026  1.00  0.00     0.135 A 
ATOM     68  F   UNL A   1      34.846  32.318  32.527  1.00  0.00    -0.206 F 
ATOM     69  C   UNL A   1      34.239  33.517  30.523  1.00  0.00     0.059 A 
ATOM     70  C   UNL A   1      35.845  34.577  29.291  1.00  0.00     0.059 A 
ATOM     71  F   UNL A   1      38.103  34.193  29.760  1.00  0.00    -0.206 F 
ATOM     72  C   UNL A   1      34.522  34.419  29.601  1.00  0.00     0.060 A 
BRANCH  72  73
ATOM     73  S   UNL A   1      33.230  35.394  28.790  1.00  0.00     0.124 S 
ATOM     74  O   UNL A   1      33.876  36.503  27.956  1.00  0.00    -0.237 OA
ATOM     75  O   UNL A   1      32.403  34.485  27.877  1.00  0.00    -0.237 OA
ATOM     76  O   UNL A   1      32.212  36.091  29.974  1.00  0.00    -0.744 OA
ENDBRANCH  72  73
ENDBRANCH  51  65
BRANCH  52  77
ATOM     77  C   UNL A   1      43.828  28.503  35.888  1.00  0.00     0.058 A 
ATOM     78  C   UNL A   1      43.513  27.522  36.814  1.00  0.00     0.135 A 
ATOM     79  C   UNL A   1      45.081  28.901  35.704  1.00  0.00     0.135 A 
ATOM     80  F   UNL A   1      42.329  26.917  36.856  1.00  0.00    -0.206 F 
ATOM     81  C   UNL A   1      44.566  27.221  37.710  1.00  0.00     0.059 A 
ATOM     82  C   UNL A   1      46.083  28.461  36.534  1.00  0.00     0.059 A 
ATOM     83  F   UNL A   1      45.369  29.732  34.707  1.00  0.00    -0.206 F 
ATOM     84  C   UNL A   1      45.833  27.535  37.510  1.00  0.00     0.060 A 
BRANCH  84  85
ATOM     85  S   UNL A   1      47.166  26.782  38.475  1.00  0.00     0.124 S 
ATOM     86  O   UNL A   1      46.686  26.540  39.908  1.00  0.00    -0.237 OA
ATOM     87  O   UNL A   1      47.565  25.449  37.839  1.00  0.00    -0.237 OA
ATOM     88  O   UNL A   1      48.517  27.830  38.495  1.00  0.00    -0.744 OA
ENDBRANCH  84  85
ENDBRANCH  52  77
BRANCH  64  89
ATOM     89  C   UNL A   1      39.849  34.169  37.074  1.00  0.00     0.058 A 
ATOM     90  C   UNL A   1      40.536  35.371  37.042  1.00  0.00     0.135 A 
ATOM     91  C   UNL A   1      39.013  33.879  38.064  1.00  0.00     0.135 A 
ATOM     92  F   UNL A   1      41.179  35.810  35.963  1.00  0.00    -0.206 F 
ATOM     93  C   UNL A   1      40.491  36.089  38.259  1.00  0.00     0.059 A 
ATOM     94  C   UNL A   1      38.922  34.698  39.163  1.00  0.00     0.059 A 
ATOM     95  F   UNL A   1      38.258  32.787  37.992  1.00  0.00    -0.206 F 
ATOM     96  C   UNL A   1      39.618  35.873  39.225  1.00  0.00     0.060 A 
BRANCH  96  97
ATOM     97  S   UNL A   1      39.354  37.070  40.558  1.00  0.00     0.124 S 
ATOM     98  O   UNL A   1      38.296  38.087  40.128  1.00  0.00    -0.237 OA
ATOM     99  O   UNL A   1      38.876  36.337  41.815  1.00  0.00    -0.237 OA
ATOM    100  O   UNL A   1      40.822  37.880  40.895  1.00  0.00    -0.744 OA
ENDBRANCH  96  97
ENDBRANCH  64  89
ENDBRANCH  38  39
ENDBRANCH  30  33
ENDBRANCH  28  29
ENDBRANCH   1  28
TORSDOF 16
ENDMDL
MODEL 3
REMARK VINA RESULT:     -12.2      1.936      8.875
REMARK SMILES O=C(NCCCCNC(=O)c1ccc(-c2c3nc(c(-c4c(F)cc(S(=O)(=O)[O-])cc4F)c4ccc([nH]4)c(-c4c(F)cc(S(=O)(=O)[O-])cc4F)c4nc(c(-c5c(F)cc(S(=O)(=O)[O-])cc5F)c5ccc2[nH]5)C=C4)C=C3)cc1)C1=Cc2cc(S(F)(F)(F)(F)F)ccc2O[C@H]1C(F)(F)F
REMARK SMILES IDX 6 1 5 2 4 3 3 4 1 5 2 6 77 8 78 9 92 10 79 11 91 12 80 13
REMARK SMILES IDX 90 14 81 15 89 16 88 17 93 18 94 19 95 20 96 21 82 22 83 23
REMARK SMILES IDX 84 24 85 25 86 26 87 27 7 28 8 29 9 30 10 32 11 33 12 34
REMARK SMILES IDX 76 35 13 36 75 37 14 38 15 39 16 40 69 41 17 42 74 43 68 44
REMARK SMILES IDX 70 45 18 46 73 47 67 48 66 49 19 51 53 52 32 53 52 54 33 55
REMARK SMILES IDX 36 56 51 57 71 58 34 59 35 60 50 62 72 63 37 64 20 65 21 66
REMARK SMILES IDX 30 67 22 68 23 69 29 70 31 71 24 72 25 73 26 74 27 75 28 76
REMARK SMILES IDX 54 77 55 78 64 79 56 80 57 81 63 82 65 83 58 84 59 85 60 86
REMARK SMILES IDX 61 87 62 88 38 89 39 90 48 91 40 92 41 93 47 94 49 95 42 96
REMARK SMILES IDX 43 97 44 98 45 99 46 100
REMARK H PARENT 3 7 8 31 70 50 36 61
REMARK Flexibility Score: inf
ROOT
ATOM      1  C   UNL A   1      34.035  28.644  25.564  1.00  0.00     0.023 C 
ENDROOT
BRANCH   1   2
ATOM      2  C   UNL A   1      32.996  27.693  24.994  1.00  0.00     0.023 C 
BRANCH   2   3
ATOM      3  C   UNL A   1      33.202  26.306  25.584  1.00  0.00     0.116 C 
BRANCH   3   4
ATOM      4  N   UNL A   1      32.100  25.998  26.507  1.00  0.00    -0.352 N 
ATOM      5  O   UNL A   1      30.036  24.877  26.864  1.00  0.00    -0.270 OA
ATOM      6  C   UNL A   1      30.989  25.144  26.066  1.00  0.00     0.251 C 
ATOM      7  H   UNL A   1      32.107  26.364  27.421  1.00  0.00     0.163 HD
BRANCH   6   8
ATOM      8  C   UNL A   1      30.978  24.580  24.654  1.00  0.00     0.067 C 
ATOM      9  C   UNL A   1      31.784  23.531  24.335  1.00  0.00     0.025 C 
ATOM     10  C   UNL A   1      30.067  25.187  23.599  1.00  0.00     0.314 C 
ATOM     11  C   UNL A   1      32.694  22.924  25.390  1.00  0.00     0.019 A 
ATOM     12  O   UNL A   1      30.975  23.054  27.024  1.00  0.00    -0.475 OA
ATOM     13  C   UNL A   1      34.006  22.693  25.009  1.00  0.00     0.036 A 
ATOM     14  C   UNL A   1      32.277  22.658  26.621  1.00  0.00     0.128 A 
ATOM     15  C   UNL A   1      34.738  21.902  25.927  1.00  0.00     0.107 A 
ATOM     16  C   UNL A   1      33.094  22.002  27.510  1.00  0.00     0.048 A 
ATOM     17  C   UNL A   1      34.384  21.690  27.181  1.00  0.00     0.028 A 
BRANCH  10  18
ATOM     18  C   UNL A   1      29.279  26.335  24.210  1.00  0.00     0.429 C 
ATOM     19  F   UNL A   1      28.581  25.907  25.258  1.00  0.00    -0.167 F 
ATOM     20  F   UNL A   1      30.105  27.304  24.594  1.00  0.00    -0.167 F 
ATOM     21  F   UNL A   1      28.447  26.801  23.284  1.00  0.00    -0.167 F 
ENDBRANCH  10  18
BRANCH  15  22
ATOM     22  S   UNL A   1      36.266  21.129  25.340  1.00  0.00     0.310 S 
ATOM     23  F   UNL A   1      36.153  21.847  23.930  1.00  0.00    -0.094 F 
ATOM     24  F   UNL A   1      35.407  19.955  24.733  1.00  0.00    -0.094 F 
ATOM     25  F   UNL A   1      37.578  20.469  24.831  1.00  0.00    -0.094 F 
ATOM     26  F   UNL A   1      37.094  22.381  25.831  1.00  0.00    -0.094 F 
ATOM     27  F   UNL A   1      34.931  21.863  25.763  1.00  0.00    -0.094 F 
ENDBRANCH  15  22
ENDBRANCH   6   8
ENDBRANCH   3   4
ENDBRANCH   2   3
ENDBRANCH   1   2
BRANCH   1  28
ATOM     28  C   UNL A   1      34.006  28.575  27.083  1.00  0.00     0.116 C 
BRANCH  28  29
ATOM     29  N   UNL A   1      33.563  29.868  27.623  1.00  0.00    -0.352 N 
ATOM     30  C   UNL A   1      34.522  30.747  28.308  1.00  0.00     0.251 C 
ATOM     31  H   UNL A   1      32.623  30.145  27.529  1.00  0.00     0.163 HD
ATOM     32  O   UNL A   1      34.139  31.864  28.775  1.00  0.00    -0.269 OA
BRANCH  30  33
ATOM     33  C   UNL A   1      35.974  30.318  28.455  1.00  0.00     0.039 A 
ATOM     34  C   UNL A   1      36.892  30.449  27.426  1.00  0.00     0.014 A 
ATOM     35  C   UNL A   1      36.332  29.841  29.641  1.00  0.00     0.014 A 
ATOM     36  C   UNL A   1      38.114  29.775  27.660  1.00  0.00     0.010 A 
ATOM     37  C   UNL A   1      37.588  29.322  29.836  1.00  0.00     0.010 A 
ATOM     38  C   UNL A   1      38.528  29.364  28.844  1.00  0.00    -0.014 A 
BRANCH  38  39
ATOM     39  C   UNL A   1      39.972  28.960  29.091  1.00  0.00     0.031 A 
ATOM     40  C   UNL A   1      40.783  29.958  29.637  1.00  0.00     0.074 A 
ATOM     41  C   UNL A   1      40.425  27.699  28.744  1.00  0.00     0.049 A 
ATOM     42  N   UNL A   1      42.079  29.876  29.944  1.00  0.00    -0.248 NA
ATOM     43  C   UNL A   1      40.312  31.309  29.974  1.00  0.00     0.031 C 
ATOM     44  C   UNL A   1      39.612  26.684  28.201  1.00  0.00     0.029 A 
ATOM     45  N   UNL A   1      41.705  27.201  28.853  1.00  0.00    -0.354 N 
ATOM     46  C   UNL A   1      42.503  31.030  30.463  1.00  0.00     0.074 A 
ATOM     47  C   UNL A   1      41.375  31.970  30.484  1.00  0.00     0.031 C 
ATOM     48  C   UNL A   1      40.392  25.595  27.976  1.00  0.00     0.029 A 
ATOM     49  C   UNL A   1      41.706  25.910  28.374  1.00  0.00     0.049 A 
ATOM     50  H   UNL A   1      42.484  27.684  29.211  1.00  0.00     0.167 HD
ATOM     51  C   UNL A   1      43.786  31.333  30.922  1.00  0.00     0.037 A 
ATOM     52  C   UNL A   1      42.781  25.040  28.279  1.00  0.00     0.037 A 
ATOM     53  C   UNL A   1      44.851  30.449  30.868  1.00  0.00     0.049 A 
ATOM     54  C   UNL A   1      44.077  25.363  28.685  1.00  0.00     0.074 A 
ATOM     55  C   UNL A   1      46.149  30.736  31.333  1.00  0.00     0.029 A 
ATOM     56  N   UNL A   1      44.857  29.166  30.366  1.00  0.00    -0.354 N 
ATOM     57  N   UNL A   1      44.492  26.503  29.240  1.00  0.00    -0.248 NA
ATOM     58  C   UNL A   1      45.231  24.463  28.559  1.00  0.00     0.031 C 
ATOM     59  C   UNL A   1      46.929  29.646  31.107  1.00  0.00     0.029 A 
ATOM     60  C   UNL A   1      46.132  28.659  30.495  1.00  0.00     0.049 A 
ATOM     61  H   UNL A   1      44.084  28.693  29.981  1.00  0.00     0.167 HD
ATOM     62  C   UNL A   1      45.798  26.435  29.509  1.00  0.00     0.074 A 
ATOM     63  C   UNL A   1      46.293  25.124  29.069  1.00  0.00     0.031 C 
ATOM     64  C   UNL A   1      46.595  27.412  30.109  1.00  0.00     0.037 A 
BRANCH  51  65
ATOM     65  C   UNL A   1      44.027  32.712  31.515  1.00  0.00     0.058 A 
ATOM     66  C   UNL A   1      44.332  33.787  30.697  1.00  0.00     0.135 A 
ATOM     67  C   UNL A   1      43.842  32.871  32.821  1.00  0.00     0.135 A 
ATOM     68  F   UNL A   1      44.275  33.726  29.370  1.00  0.00    -0.206 F 
ATOM     69  C   UNL A   1      44.709  34.955  31.400  1.00  0.00     0.059 A 
ATOM     70  C   UNL A   1      44.101  34.079  33.421  1.00  0.00     0.059 A 
ATOM     71  F   UNL A   1      43.404  31.851  33.554  1.00  0.00    -0.206 F 
ATOM     72  C   UNL A   1      44.464  35.170  32.680  1.00  0.00     0.060 A 
BRANCH  72  73
ATOM     73  S   UNL A   1      44.603  36.818  33.415  1.00  0.00     0.124 S 
ATOM     74  O   UNL A   1      43.407  37.670  32.985  1.00  0.00    -0.237 OA
ATOM     75  O   UNL A   1      44.620  36.696  34.942  1.00  0.00    -0.237 OA
ATOM     76  O   UNL A   1      46.051  37.559  32.887  1.00  0.00    -0.744 OA
ENDBRANCH  72  73
ENDBRANCH  51  65
BRANCH  52  77
ATOM     77  C   UNL A   1      42.535  23.655  27.702  1.00  0.00     0.058 A 
ATOM     78  C   UNL A   1      42.402  22.571  28.554  1.00  0.00     0.135 A 
ATOM     79  C   UNL A   1      42.552  23.497  26.384  1.00  0.00     0.135 A 
ATOM     80  F   UNL A   1      42.127  22.697  29.849  1.00  0.00    -0.206 F 
ATOM     81  C   UNL A   1      42.584  21.319  27.921  1.00  0.00     0.059 A 
ATOM     82  C   UNL A   1      42.594  22.240  25.830  1.00  0.00     0.059 A 
ATOM     83  F   UNL A   1      42.530  24.565  25.591  1.00  0.00    -0.206 F 
ATOM     84  C   UNL A   1      42.526  21.123  26.617  1.00  0.00     0.060 A 
BRANCH  84  85
ATOM     85  S   UNL A   1      42.365  19.466  25.907  1.00  0.00     0.124 S 
ATOM     86  O   UNL A   1      40.895  19.190  25.580  1.00  0.00    -0.237 OA
ATOM     87  O   UNL A   1      43.198  19.377  24.627  1.00  0.00    -0.237 OA
ATOM     88  O   UNL A   1      42.925  18.307  27.033  1.00  0.00    -0.744 OA
ENDBRANCH  84  85
ENDBRANCH  52  77
BRANCH  64  89
ATOM     89  C   UNL A   1      48.060  27.088  30.350  1.00  0.00     0.058 A 
ATOM     90  C   UNL A   1      48.492  26.390  31.466  1.00  0.00     0.135 A 
ATOM     91  C   UNL A   1      48.911  27.473  29.406  1.00  0.00     0.135 A 
ATOM     92  F   UNL A   1      47.661  25.771  32.300  1.00  0.00    -0.206 F 
ATOM     93  C   UNL A   1      49.896  26.394  31.637  1.00  0.00     0.059 A 
ATOM     94  C   UNL A   1      50.266  27.322  29.583  1.00  0.00     0.059 A 
ATOM     95  F   UNL A   1      48.449  28.008  28.280  1.00  0.00    -0.206 F 
ATOM     96  C   UNL A   1      50.765  26.694  30.689  1.00  0.00     0.060 A 
BRANCH  96  97
ATOM     97  S   UNL A   1      52.524  26.294  30.847  1.00  0.00     0.124 S 
ATOM     98  O   UNL A   1      52.684  25.026  31.689  1.00  0.00    -0.237 OA
ATOM     99  O   UNL A   1      53.121  26.062  29.456  1.00  0.00    -0.237 OA
ATOM    100  O   UNL A   1      53.338  27.591  31.607  1.00  0.00    -0.744 OA
ENDBRANCH  96  97
ENDBRANCH  64  89
ENDBRANCH  38  39
ENDBRANCH  30  33
ENDBRANCH  28  29
ENDBRANCH   1  28
TORSDOF 16
ENDMDL
