MODEL 1
REMARK VINA RESULT:     -10.3      0.000      0.000
REMARK SMILES CCNC(=O)NC(=O)[C@@H](C)[NH2+][C@](C)(C(=O)NCCCCNC(=O)c1ccc(-c2c3nc(c(-c4c(F)cc(S(=O)(=O)[O-])cc4F)c4ccc([nH]4)c(-c4c(F)cc(S(=O)(=O)[O-])cc4F)c4nc(c(-c5c(F)cc(S(=O)(=O)[O-])cc5F)c5ccc2[nH]5)C=C4)C=C3)cc1)C(F)(F)F
REMARK SMILES IDX 18 1 17 2 16 3 14 4 15 5 12 7 13 8 11 9 9 12 10 13 7 14 3 15
REMARK SMILES IDX 4 16 5 18 6 19 8 21 2 22 1 23 90 24 91 25 92 26 93 27 19 28
REMARK SMILES IDX 20 29 21 30 22 31 23 33 24 34 25 35 89 36 26 37 88 38 27 39
REMARK SMILES IDX 28 40 29 41 82 42 30 43 87 44 81 45 83 46 31 47 86 48 80 49
REMARK SMILES IDX 79 50 32 52 66 53 45 54 65 55 46 56 49 57 64 58 84 59 47 60
REMARK SMILES IDX 48 61 63 63 85 64 50 65 33 66 34 67 43 68 35 69 36 70 42 71
REMARK SMILES IDX 44 72 37 73 38 74 39 75 40 76 41 77 67 78 68 79 77 80 69 81
REMARK SMILES IDX 70 82 76 83 78 84 71 85 72 86 73 87 74 88 75 89 51 90 52 91
REMARK SMILES IDX 61 92 53 93 54 94 60 95 62 96 55 97 56 98 57 99 58 100
REMARK SMILES IDX 59 101
REMARK H PARENT 16 6 11 10 11 11 3 17 6 20 21 32 83 51 49 62
REMARK Flexibility Score: inf
ROOT
ATOM      1  C   UNL A   1      34.797  23.519  26.204  1.00  0.00     0.023 C 
ENDROOT
BRANCH   1   2
ATOM      2  C   UNL A   1      33.477  22.783  26.089  1.00  0.00     0.116 C 
BRANCH   2   3
ATOM      3  N   UNL A   1      32.396  23.245  26.912  1.00  0.00    -0.350 N 
ATOM      4  C   UNL A   1      31.291  23.944  26.499  1.00  0.00     0.290 C 
ATOM      5  O   UNL A   1      30.289  23.814  27.207  1.00  0.00    -0.267 OA
ATOM      6  H   UNL A   1      32.454  23.042  27.872  1.00  0.00     0.163 HD
BRANCH   4   7
ATOM      7  C   UNL A   1      31.309  24.885  25.277  1.00  0.00     0.269 C 
ATOM      8  C   UNL A   1      30.099  25.852  25.315  1.00  0.00     0.101 C 
BRANCH   7   9
ATOM      9  N   UNL A   1      32.517  25.776  25.069  1.00  0.00    -0.316 N 
ATOM     10  H   UNL A   1      32.871  25.978  26.004  1.00  0.00     0.348 HD
ATOM     11  H   UNL A   1      33.049  25.213  24.405  1.00  0.00     0.348 HD
BRANCH   9  12
ATOM     12  C   UNL A   1      32.498  27.072  24.367  1.00  0.00     0.271 C 
ATOM     13  C   UNL A   1      33.384  27.262  23.112  1.00  0.00     0.086 C 
BRANCH  12  14
ATOM     14  C   UNL A   1      33.027  28.129  25.350  1.00  0.00     0.285 C 
ATOM     15  N   UNL A   1      30.531  30.192  24.213  1.00  0.00    -0.338 N 
ATOM     16  C   UNL A   1      31.424  30.262  25.200  1.00  0.00     0.321 C 
ATOM     17  H   UNL A   1      29.768  30.795  24.368  1.00  0.00     0.165 HD
ATOM     18  O   UNL A   1      31.296  31.220  25.973  1.00  0.00    -0.248 OA
ATOM     19  N   UNL A   1      32.452  29.400  25.478  1.00  0.00    -0.273 N 
ATOM     20  H   UNL A   1      33.084  29.917  26.027  1.00  0.00     0.175 HD
ATOM     21  O   UNL A   1      33.974  27.861  26.096  1.00  0.00    -0.268 OA
BRANCH  15  22
ATOM     22  C   UNL A   1      30.393  29.462  22.975  1.00  0.00     0.114 C 
ATOM     23  C   UNL A   1      29.273  28.440  23.004  1.00  0.00     0.027 C 
ENDBRANCH  15  22
ENDBRANCH  12  14
ENDBRANCH   9  12
ENDBRANCH   7   9
BRANCH   7  24
ATOM     24  C   UNL A   1      31.041  23.964  24.037  1.00  0.00     0.453 C 
ATOM     25  F   UNL A   1      32.129  23.789  23.256  1.00  0.00    -0.164 F 
ATOM     26  F   UNL A   1      30.686  22.720  24.481  1.00  0.00    -0.164 F 
ATOM     27  F   UNL A   1      30.011  24.381  23.273  1.00  0.00    -0.164 F 
ENDBRANCH   7  24
ENDBRANCH   4   7
ENDBRANCH   2   3
ENDBRANCH   1   2
BRANCH   1  28
ATOM     28  C   UNL A   1      36.046  22.666  26.021  1.00  0.00     0.023 C 
BRANCH  28  29
ATOM     29  C   UNL A   1      37.214  23.304  25.273  1.00  0.00     0.116 C 
BRANCH  29  30
ATOM     30  N   UNL A   1      38.497  22.626  25.438  1.00  0.00    -0.352 N 
ATOM     31  C   UNL A   1      39.606  23.050  26.140  1.00  0.00     0.251 C 
ATOM     32  H   UNL A   1      38.580  21.753  24.991  1.00  0.00     0.163 HD
ATOM     33  O   UNL A   1      40.627  22.366  26.167  1.00  0.00    -0.269 OA
BRANCH  31  34
ATOM     34  C   UNL A   1      39.570  24.371  26.801  1.00  0.00     0.039 A 
ATOM     35  C   UNL A   1      38.998  24.469  28.071  1.00  0.00     0.014 A 
ATOM     36  C   UNL A   1      40.240  25.458  26.235  1.00  0.00     0.014 A 
ATOM     37  C   UNL A   1      39.226  25.615  28.836  1.00  0.00     0.010 A 
ATOM     38  C   UNL A   1      40.534  26.562  27.030  1.00  0.00     0.010 A 
ATOM     39  C   UNL A   1      40.064  26.634  28.352  1.00  0.00    -0.014 A 
BRANCH  39  40
ATOM     40  C   UNL A   1      40.539  27.732  29.235  1.00  0.00     0.031 A 
ATOM     41  C   UNL A   1      39.690  28.952  29.456  1.00  0.00     0.074 A 
ATOM     42  C   UNL A   1      41.787  27.678  29.748  1.00  0.00     0.049 A 
ATOM     43  N   UNL A   1      39.984  30.055  30.094  1.00  0.00    -0.248 NA
ATOM     44  C   UNL A   1      38.347  28.944  28.854  1.00  0.00     0.031 C 
ATOM     45  C   UNL A   1      42.738  26.581  29.552  1.00  0.00     0.029 A 
ATOM     46  N   UNL A   1      42.478  28.575  30.525  1.00  0.00    -0.354 N 
ATOM     47  C   UNL A   1      38.874  30.879  29.956  1.00  0.00     0.074 A 
ATOM     48  C   UNL A   1      37.919  30.166  29.135  1.00  0.00     0.031 C 
ATOM     49  C   UNL A   1      43.877  26.859  30.206  1.00  0.00     0.029 A 
ATOM     50  C   UNL A   1      43.757  28.171  30.833  1.00  0.00     0.049 A 
ATOM     51  H   UNL A   1      42.095  29.428  30.832  1.00  0.00     0.167 HD
ATOM     52  C   UNL A   1      38.661  32.107  30.485  1.00  0.00     0.037 A 
ATOM     53  C   UNL A   1      44.731  28.791  31.528  1.00  0.00     0.037 A 
ATOM     54  C   UNL A   1      39.597  32.798  31.331  1.00  0.00     0.049 A 
ATOM     55  C   UNL A   1      44.471  30.154  32.104  1.00  0.00     0.074 A 
ATOM     56  C   UNL A   1      39.433  34.004  31.990  1.00  0.00     0.029 A 
ATOM     57  N   UNL A   1      40.875  32.350  31.630  1.00  0.00    -0.354 N 
ATOM     58  N   UNL A   1      43.384  30.883  32.031  1.00  0.00    -0.248 NA
ATOM     59  C   UNL A   1      45.568  30.783  32.852  1.00  0.00     0.031 C 
ATOM     60  C   UNL A   1      40.626  34.303  32.657  1.00  0.00     0.029 A 
ATOM     61  C   UNL A   1      41.520  33.268  32.442  1.00  0.00     0.049 A 
ATOM     62  H   UNL A   1      41.266  31.504  31.313  1.00  0.00     0.167 HD
ATOM     63  C   UNL A   1      43.662  32.053  32.729  1.00  0.00     0.074 A 
ATOM     64  C   UNL A   1      45.015  31.927  33.233  1.00  0.00     0.031 C 
ATOM     65  C   UNL A   1      42.870  33.134  32.929  1.00  0.00     0.037 A 
BRANCH  52  66
ATOM     66  C   UNL A   1      37.354  32.778  30.172  1.00  0.00     0.058 A 
ATOM     67  C   UNL A   1      36.216  32.572  30.967  1.00  0.00     0.135 A 
ATOM     68  C   UNL A   1      37.244  33.660  29.084  1.00  0.00     0.135 A 
ATOM     69  F   UNL A   1      36.264  31.728  32.010  1.00  0.00    -0.206 F 
ATOM     70  C   UNL A   1      35.005  33.193  30.678  1.00  0.00     0.059 A 
ATOM     71  C   UNL A   1      36.049  34.311  28.791  1.00  0.00     0.059 A 
ATOM     72  F   UNL A   1      38.303  33.890  28.292  1.00  0.00    -0.206 F 
ATOM     73  C   UNL A   1      34.931  34.058  29.586  1.00  0.00     0.060 A 
BRANCH  73  74
ATOM     74  S   UNL A   1      33.353  34.855  29.223  1.00  0.00     0.124 S 
ATOM     75  O   UNL A   1      32.733  34.884  30.544  1.00  0.00    -0.237 OA
ATOM     76  O   UNL A   1      33.770  36.148  28.690  1.00  0.00    -0.237 OA
ATOM     77  O   UNL A   1      32.733  33.954  28.258  1.00  0.00    -0.744 OA
ENDBRANCH  73  74
ENDBRANCH  52  66
BRANCH  53  78
ATOM     78  C   UNL A   1      46.045  28.121  31.723  1.00  0.00     0.058 A 
ATOM     79  C   UNL A   1      46.276  27.303  32.838  1.00  0.00     0.135 A 
ATOM     80  C   UNL A   1      47.086  28.271  30.794  1.00  0.00     0.135 A 
ATOM     81  F   UNL A   1      45.314  27.138  33.758  1.00  0.00    -0.206 F 
ATOM     82  C   UNL A   1      47.494  26.660  33.030  1.00  0.00     0.059 A 
ATOM     83  C   UNL A   1      48.306  27.621  30.953  1.00  0.00     0.059 A 
ATOM     84  F   UNL A   1      46.909  29.031  29.702  1.00  0.00    -0.206 F 
ATOM     85  C   UNL A   1      48.503  26.822  32.079  1.00  0.00     0.060 A 
BRANCH  85  86
ATOM     86  S   UNL A   1      50.059  25.932  32.302  1.00  0.00     0.124 S 
ATOM     87  O   UNL A   1      49.863  25.323  33.612  1.00  0.00    -0.237 OA
ATOM     88  O   UNL A   1      50.056  25.018  31.164  1.00  0.00    -0.237 OA
ATOM     89  O   UNL A   1      51.061  26.992  32.240  1.00  0.00    -0.744 OA
ENDBRANCH  85  86
ENDBRANCH  53  78
BRANCH  65  90
ATOM     90  C   UNL A   1      43.443  34.272  33.725  1.00  0.00     0.058 A 
ATOM     91  C   UNL A   1      44.196  35.283  33.112  1.00  0.00     0.135 A 
ATOM     92  C   UNL A   1      43.180  34.387  35.099  1.00  0.00     0.135 A 
ATOM     93  F   UNL A   1      44.482  35.212  31.802  1.00  0.00    -0.206 F 
ATOM     94  C   UNL A   1      44.678  36.369  33.835  1.00  0.00     0.059 A 
ATOM     95  C   UNL A   1      43.634  35.475  35.838  1.00  0.00     0.059 A 
ATOM     96  F   UNL A   1      42.458  33.447  35.731  1.00  0.00    -0.206 F 
ATOM     97  C   UNL A   1      44.388  36.458  35.198  1.00  0.00     0.060 A 
BRANCH  97  98
ATOM     98  S   UNL A   1      44.974  37.899  36.115  1.00  0.00     0.124 S 
ATOM     99  O   UNL A   1      44.001  38.912  35.722  1.00  0.00    -0.237 OA
ATOM    100  O   UNL A   1      44.892  37.444  37.499  1.00  0.00    -0.237 OA
ATOM    101  O   UNL A   1      46.328  38.097  35.605  1.00  0.00    -0.744 OA
ENDBRANCH  97  98
ENDBRANCH  65  90
ENDBRANCH  39  40
ENDBRANCH  31  34
ENDBRANCH  29  30
ENDBRANCH  28  29
ENDBRANCH   1  28
TORSDOF 19
ENDMDL
MODEL 2
REMARK VINA RESULT:     -10.2      2.357      8.218
REMARK SMILES CCNC(=O)NC(=O)[C@@H](C)[NH2+][C@](C)(C(=O)NCCCCNC(=O)c1ccc(-c2c3nc(c(-c4c(F)cc(S(=O)(=O)[O-])cc4F)c4ccc([nH]4)c(-c4c(F)cc(S(=O)(=O)[O-])cc4F)c4nc(c(-c5c(F)cc(S(=O)(=O)[O-])cc5F)c5ccc2[nH]5)C=C4)C=C3)cc1)C(F)(F)F
REMARK SMILES IDX 18 1 17 2 16 3 14 4 15 5 12 7 13 8 11 9 9 12 10 13 7 14 3 15
REMARK SMILES IDX 4 16 5 18 6 19 8 21 2 22 1 23 90 24 91 25 92 26 93 27 19 28
REMARK SMILES IDX 20 29 21 30 22 31 23 33 24 34 25 35 89 36 26 37 88 38 27 39
REMARK SMILES IDX 28 40 29 41 82 42 30 43 87 44 81 45 83 46 31 47 86 48 80 49
REMARK SMILES IDX 79 50 32 52 66 53 45 54 65 55 46 56 49 57 64 58 84 59 47 60
REMARK SMILES IDX 48 61 63 63 85 64 50 65 33 66 34 67 43 68 35 69 36 70 42 71
REMARK SMILES IDX 44 72 37 73 38 74 39 75 40 76 41 77 67 78 68 79 77 80 69 81
REMARK SMILES IDX 70 82 76 83 78 84 71 85 72 86 73 87 74 88 75 89 51 90 52 91
REMARK SMILES IDX 61 92 53 93 54 94 60 95 62 96 55 97 56 98 57 99 58 100
REMARK SMILES IDX 59 101
REMARK H PARENT 16 6 11 10 11 11 3 17 6 20 21 32 83 51 49 62
REMARK Flexibility Score: inf
ROOT
ATOM      1  C   UNL A   1      34.954  22.685  26.532  1.00  0.00     0.023 C 
ENDROOT
BRANCH   1   2
ATOM      2  C   UNL A   1      33.560  22.769  25.941  1.00  0.00     0.116 C 
BRANCH   2   3
ATOM      3  N   UNL A   1      32.487  23.086  26.840  1.00  0.00    -0.350 N 
ATOM      4  C   UNL A   1      31.364  23.818  26.552  1.00  0.00     0.290 C 
ATOM      5  O   UNL A   1      30.377  23.568  27.249  1.00  0.00    -0.267 OA
ATOM      6  H   UNL A   1      32.566  22.744  27.759  1.00  0.00     0.163 HD
BRANCH   4   7
ATOM      7  C   UNL A   1      31.346  24.929  25.483  1.00  0.00     0.269 C 
ATOM      8  C   UNL A   1      30.192  25.928  25.753  1.00  0.00     0.101 C 
BRANCH   7   9
ATOM      9  N   UNL A   1      32.580  25.792  25.316  1.00  0.00    -0.316 N 
ATOM     10  H   UNL A   1      32.851  26.066  26.260  1.00  0.00     0.348 HD
ATOM     11  H   UNL A   1      33.163  25.173  24.751  1.00  0.00     0.348 HD
BRANCH   9  12
ATOM     12  C   UNL A   1      32.644  27.027  24.514  1.00  0.00     0.271 C 
ATOM     13  C   UNL A   1      33.597  27.086  23.295  1.00  0.00     0.086 C 
BRANCH  12  14
ATOM     14  C   UNL A   1      33.164  28.141  25.436  1.00  0.00     0.285 C 
ATOM     15  N   UNL A   1      30.594  30.086  24.256  1.00  0.00    -0.338 N 
ATOM     16  C   UNL A   1      31.504  30.224  25.221  1.00  0.00     0.321 C 
ATOM     17  H   UNL A   1      29.818  30.676  24.399  1.00  0.00     0.165 HD
ATOM     18  O   UNL A   1      31.365  31.213  25.952  1.00  0.00    -0.248 OA
ATOM     19  N   UNL A   1      32.559  29.402  25.517  1.00  0.00    -0.273 N 
ATOM     20  H   UNL A   1      33.188  29.959  26.029  1.00  0.00     0.175 HD
ATOM     21  O   UNL A   1      34.132  27.932  26.175  1.00  0.00    -0.268 OA
BRANCH  15  22
ATOM     22  C   UNL A   1      30.451  29.296  23.056  1.00  0.00     0.114 C 
ATOM     23  C   UNL A   1      29.173  28.480  23.025  1.00  0.00     0.027 C 
ENDBRANCH  15  22
ENDBRANCH  12  14
ENDBRANCH   9  12
ENDBRANCH   7   9
BRANCH   7  24
ATOM     24  C   UNL A   1      30.946  24.215  24.146  1.00  0.00     0.453 C 
ATOM     25  F   UNL A   1      31.994  23.998  23.322  1.00  0.00    -0.164 F 
ATOM     26  F   UNL A   1      30.432  22.982  24.442  1.00  0.00    -0.164 F 
ATOM     27  F   UNL A   1      29.974  24.857  23.467  1.00  0.00    -0.164 F 
ENDBRANCH   7  24
ENDBRANCH   4   7
ENDBRANCH   2   3
ENDBRANCH   1   2
BRANCH   1  28
ATOM     28  C   UNL A   1      35.997  21.995  25.663  1.00  0.00     0.023 C 
BRANCH  28  29
ATOM     29  C   UNL A   1      37.348  22.692  25.520  1.00  0.00     0.116 C 
BRANCH  29  30
ATOM     30  N   UNL A   1      38.474  21.986  26.123  1.00  0.00    -0.352 N 
ATOM     31  C   UNL A   1      39.510  22.506  26.871  1.00  0.00     0.251 C 
ATOM     32  H   UNL A   1      38.497  21.013  25.978  1.00  0.00     0.163 HD
ATOM     33  O   UNL A   1      40.403  21.776  27.297  1.00  0.00    -0.269 OA
BRANCH  31  34
ATOM     34  C   UNL A   1      39.566  23.966  27.094  1.00  0.00     0.039 A 
ATOM     35  C   UNL A   1      39.349  24.456  28.383  1.00  0.00     0.014 A 
ATOM     36  C   UNL A   1      39.990  24.817  26.071  1.00  0.00     0.014 A 
ATOM     37  C   UNL A   1      39.697  25.776  28.681  1.00  0.00     0.010 A 
ATOM     38  C   UNL A   1      40.413  26.104  26.390  1.00  0.00     0.010 A 
ATOM     39  C   UNL A   1      40.309  26.582  27.707  1.00  0.00    -0.014 A 
BRANCH  39  40
ATOM     40  C   UNL A   1      40.930  27.887  28.059  1.00  0.00     0.031 A 
ATOM     41  C   UNL A   1      42.417  28.076  27.956  1.00  0.00     0.074 A 
ATOM     42  C   UNL A   1      40.161  28.867  28.581  1.00  0.00     0.049 A 
ATOM     43  N   UNL A   1      43.144  29.097  28.328  1.00  0.00    -0.248 NA
ATOM     44  C   UNL A   1      43.190  26.959  27.391  1.00  0.00     0.031 C 
ATOM     45  C   UNL A   1      38.714  28.785  28.799  1.00  0.00     0.029 A 
ATOM     46  N   UNL A   1      40.490  30.118  29.042  1.00  0.00    -0.354 N 
ATOM     47  C   UNL A   1      44.460  28.740  28.060  1.00  0.00     0.074 A 
ATOM     48  C   UNL A   1      44.434  27.391  27.537  1.00  0.00     0.031 C 
ATOM     49  C   UNL A   1      38.279  29.940  29.329  1.00  0.00     0.029 A 
ATOM     50  C   UNL A   1      39.418  30.829  29.531  1.00  0.00     0.049 A 
ATOM     51  H   UNL A   1      41.408  30.473  29.025  1.00  0.00     0.167 HD
ATOM     52  C   UNL A   1      45.585  29.478  28.214  1.00  0.00     0.037 A 
ATOM     53  C   UNL A   1      39.357  32.053  30.093  1.00  0.00     0.037 A 
ATOM     54  C   UNL A   1      45.605  30.833  28.700  1.00  0.00     0.049 A 
ATOM     55  C   UNL A   1      40.619  32.852  30.254  1.00  0.00     0.074 A 
ATOM     56  C   UNL A   1      46.683  31.694  28.802  1.00  0.00     0.029 A 
ATOM     57  N   UNL A   1      44.497  31.522  29.171  1.00  0.00    -0.354 N 
ATOM     58  N   UNL A   1      41.845  32.529  29.918  1.00  0.00    -0.248 NA
ATOM     59  C   UNL A   1      40.494  34.179  30.873  1.00  0.00     0.031 C 
ATOM     60  C   UNL A   1      46.234  32.891  29.371  1.00  0.00     0.029 A 
ATOM     61  C   UNL A   1      44.871  32.788  29.591  1.00  0.00     0.049 A 
ATOM     62  H   UNL A   1      43.580  31.164  29.202  1.00  0.00     0.167 HD
ATOM     63  C   UNL A   1      42.636  33.613  30.278  1.00  0.00     0.074 A 
ATOM     64  C   UNL A   1      41.748  34.611  30.840  1.00  0.00     0.031 C 
ATOM     65  C   UNL A   1      43.978  33.767  30.158  1.00  0.00     0.037 A 
BRANCH  52  66
ATOM     66  C   UNL A   1      46.890  28.838  27.838  1.00  0.00     0.058 A 
ATOM     67  C   UNL A   1      47.377  28.882  26.522  1.00  0.00     0.135 A 
ATOM     68  C   UNL A   1      47.679  28.197  28.808  1.00  0.00     0.135 A 
ATOM     69  F   UNL A   1      46.655  29.469  25.555  1.00  0.00    -0.206 F 
ATOM     70  C   UNL A   1      48.585  28.289  26.174  1.00  0.00     0.059 A 
ATOM     71  C   UNL A   1      48.903  27.618  28.486  1.00  0.00     0.059 A 
ATOM     72  F   UNL A   1      47.259  28.127  30.081  1.00  0.00    -0.206 F 
ATOM     73  C   UNL A   1      49.340  27.656  27.162  1.00  0.00     0.060 A 
BRANCH  73  74
ATOM     74  S   UNL A   1      50.905  26.890  26.693  1.00  0.00     0.124 S 
ATOM     75  O   UNL A   1      50.483  26.012  25.606  1.00  0.00    -0.237 OA
ATOM     76  O   UNL A   1      51.712  28.041  26.301  1.00  0.00    -0.237 OA
ATOM     77  O   UNL A   1      51.332  26.217  27.915  1.00  0.00    -0.744 OA
ENDBRANCH  73  74
ENDBRANCH  52  66
BRANCH  53  78
ATOM     78  C   UNL A   1      38.048  32.599  30.540  1.00  0.00     0.058 A 
ATOM     79  C   UNL A   1      37.629  32.459  31.870  1.00  0.00     0.135 A 
ATOM     80  C   UNL A   1      37.202  33.284  29.655  1.00  0.00     0.135 A 
ATOM     81  F   UNL A   1      38.400  31.803  32.751  1.00  0.00    -0.206 F 
ATOM     82  C   UNL A   1      36.413  32.973  32.309  1.00  0.00     0.059 A 
ATOM     83  C   UNL A   1      35.991  33.826  30.075  1.00  0.00     0.059 A 
ATOM     84  F   UNL A   1      37.565  33.458  28.375  1.00  0.00    -0.206 F 
ATOM     85  C   UNL A   1      35.602  33.659  31.404  1.00  0.00     0.060 A 
BRANCH  85  86
ATOM     86  S   UNL A   1      34.055  34.381  31.996  1.00  0.00     0.124 S 
ATOM     87  O   UNL A   1      34.530  35.588  32.661  1.00  0.00    -0.237 OA
ATOM     88  O   UNL A   1      33.315  34.583  30.755  1.00  0.00    -0.237 OA
ATOM     89  O   UNL A   1      33.519  33.344  32.873  1.00  0.00    -0.744 OA
ENDBRANCH  85  86
ENDBRANCH  53  78
BRANCH  65  90
ATOM     90  C   UNL A   1      44.572  35.057  30.644  1.00  0.00     0.058 A 
ATOM     91  C   UNL A   1      44.644  36.184  29.813  1.00  0.00     0.135 A 
ATOM     92  C   UNL A   1      45.010  35.188  31.971  1.00  0.00     0.135 A 
ATOM     93  F   UNL A   1      44.247  36.106  28.533  1.00  0.00    -0.206 F 
ATOM     94  C   UNL A   1      45.140  37.398  30.277  1.00  0.00     0.059 A 
ATOM     95  C   UNL A   1      45.490  36.398  32.463  1.00  0.00     0.059 A 
ATOM     96  F   UNL A   1      44.956  34.139  32.808  1.00  0.00    -0.206 F 
ATOM     97  C   UNL A   1      45.556  37.496  31.606  1.00  0.00     0.060 A 
BRANCH  97  98
ATOM     98  S   UNL A   1      46.148  39.090  32.212  1.00  0.00     0.124 S 
ATOM     99  O   UNL A   1      44.895  39.805  32.429  1.00  0.00    -0.237 OA
ATOM    100  O   UNL A   1      46.882  38.716  33.417  1.00  0.00    -0.237 OA
ATOM    101  O   UNL A   1      46.971  39.587  31.113  1.00  0.00    -0.744 OA
ENDBRANCH  97  98
ENDBRANCH  65  90
ENDBRANCH  39  40
ENDBRANCH  31  34
ENDBRANCH  29  30
ENDBRANCH  28  29
ENDBRANCH   1  28
TORSDOF 19
ENDMDL
MODEL 3
REMARK VINA RESULT:     -10.1      4.438      9.734
REMARK SMILES CCNC(=O)NC(=O)[C@@H](C)[NH2+][C@](C)(C(=O)NCCCCNC(=O)c1ccc(-c2c3nc(c(-c4c(F)cc(S(=O)(=O)[O-])cc4F)c4ccc([nH]4)c(-c4c(F)cc(S(=O)(=O)[O-])cc4F)c4nc(c(-c5c(F)cc(S(=O)(=O)[O-])cc5F)c5ccc2[nH]5)C=C4)C=C3)cc1)C(F)(F)F
REMARK SMILES IDX 18 1 17 2 16 3 14 4 15 5 12 7 13 8 11 9 9 12 10 13 7 14 3 15
REMARK SMILES IDX 4 16 5 18 6 19 8 21 2 22 1 23 90 24 91 25 92 26 93 27 19 28
REMARK SMILES IDX 20 29 21 30 22 31 23 33 24 34 25 35 89 36 26 37 88 38 27 39
REMARK SMILES IDX 28 40 29 41 82 42 30 43 87 44 81 45 83 46 31 47 86 48 80 49
REMARK SMILES IDX 79 50 32 52 66 53 45 54 65 55 46 56 49 57 64 58 84 59 47 60
REMARK SMILES IDX 48 61 63 63 85 64 50 65 33 66 34 67 43 68 35 69 36 70 42 71
REMARK SMILES IDX 44 72 37 73 38 74 39 75 40 76 41 77 67 78 68 79 77 80 69 81
REMARK SMILES IDX 70 82 76 83 78 84 71 85 72 86 73 87 74 88 75 89 51 90 52 91
REMARK SMILES IDX 61 92 53 93 54 94 60 95 62 96 55 97 56 98 57 99 58 100
REMARK SMILES IDX 59 101
REMARK H PARENT 16 6 11 10 11 11 3 17 6 20 21 32 83 51 49 62
REMARK Flexibility Score: inf
ROOT
ATOM      1  C   UNL A   1      38.945  23.461  26.501  1.00  0.00     0.023 C 
ENDROOT
BRANCH   1   2
ATOM      2  C   UNL A   1      37.609  23.673  25.817  1.00  0.00     0.116 C 
BRANCH   2   3
ATOM      3  N   UNL A   1      37.468  23.159  24.484  1.00  0.00    -0.350 N 
ATOM      4  C   UNL A   1      36.296  22.954  23.803  1.00  0.00     0.290 C 
ATOM      5  O   UNL A   1      36.386  22.993  22.573  1.00  0.00    -0.267 OA
ATOM      6  H   UNL A   1      38.299  22.928  24.010  1.00  0.00     0.163 HD
BRANCH   4   7
ATOM      7  C   UNL A   1      34.967  22.624  24.513  1.00  0.00     0.269 C 
ATOM      8  C   UNL A   1      34.713  23.611  25.681  1.00  0.00     0.101 C 
BRANCH   7   9
ATOM      9  N   UNL A   1      33.689  22.642  23.699  1.00  0.00    -0.316 N 
ATOM     10  H   UNL A   1      33.960  22.350  22.760  1.00  0.00     0.348 HD
ATOM     11  H   UNL A   1      33.088  22.065  24.287  1.00  0.00     0.348 HD
BRANCH   9  12
ATOM     12  C   UNL A   1      32.826  23.823  23.510  1.00  0.00     0.271 C 
ATOM     13  C   UNL A   1      31.292  23.630  23.431  1.00  0.00     0.086 C 
BRANCH  12  14
ATOM     14  C   UNL A   1      33.186  24.435  22.148  1.00  0.00     0.285 C 
ATOM     15  N   UNL A   1      33.126  27.497  23.696  1.00  0.00    -0.338 N 
ATOM     16  C   UNL A   1      33.486  27.069  22.486  1.00  0.00     0.321 C 
ATOM     17  H   UNL A   1      33.535  28.367  23.912  1.00  0.00     0.165 HD
ATOM     18  O   UNL A   1      34.024  27.912  21.757  1.00  0.00    -0.248 OA
ATOM     19  N   UNL A   1      33.354  25.813  21.955  1.00  0.00    -0.273 N 
ATOM     20  H   UNL A   1      33.396  25.936  20.980  1.00  0.00     0.175 HD
ATOM     21  O   UNL A   1      33.379  23.703  21.170  1.00  0.00    -0.268 OA
BRANCH  15  22
ATOM     22  C   UNL A   1      32.292  27.017  24.772  1.00  0.00     0.114 C 
ATOM     23  C   UNL A   1      30.827  27.368  24.598  1.00  0.00     0.027 C 
ENDBRANCH  15  22
ENDBRANCH  12  14
ENDBRANCH   9  12
ENDBRANCH   7   9
BRANCH   7  24
ATOM     24  C   UNL A   1      35.198  21.239  25.208  1.00  0.00     0.453 C 
ATOM     25  F   UNL A   1      34.083  20.479  25.269  1.00  0.00    -0.164 F 
ATOM     26  F   UNL A   1      36.107  20.524  24.477  1.00  0.00    -0.164 F 
ATOM     27  F   UNL A   1      35.731  21.342  26.443  1.00  0.00    -0.164 F 
ENDBRANCH   7  24
ENDBRANCH   4   7
ENDBRANCH   2   3
ENDBRANCH   1   2
BRANCH   1  28
ATOM     28  C   UNL A   1      39.760  22.274  26.001  1.00  0.00     0.023 C 
BRANCH  28  29
ATOM     29  C   UNL A   1      39.912  21.091  26.953  1.00  0.00     0.116 C 
BRANCH  29  30
ATOM     30  N   UNL A   1      40.572  19.920  26.382  1.00  0.00    -0.352 N 
ATOM     31  C   UNL A   1      41.899  19.770  26.035  1.00  0.00     0.251 C 
ATOM     32  H   UNL A   1      39.997  19.138  26.225  1.00  0.00     0.163 HD
ATOM     33  O   UNL A   1      42.301  18.718  25.542  1.00  0.00    -0.269 OA
BRANCH  31  34
ATOM     34  C   UNL A   1      42.814  20.918  26.202  1.00  0.00     0.039 A 
ATOM     35  C   UNL A   1      43.167  21.663  25.075  1.00  0.00     0.014 A 
ATOM     36  C   UNL A   1      43.183  21.343  27.480  1.00  0.00     0.014 A 
ATOM     37  C   UNL A   1      43.766  22.914  25.243  1.00  0.00     0.010 A 
ATOM     38  C   UNL A   1      43.702  22.623  27.647  1.00  0.00     0.010 A 
ATOM     39  C   UNL A   1      43.961  23.437  26.532  1.00  0.00    -0.014 A 
BRANCH  39  40
ATOM     40  C   UNL A   1      44.344  24.859  26.742  1.00  0.00     0.031 A 
ATOM     41  C   UNL A   1      45.778  25.289  26.606  1.00  0.00     0.074 A 
ATOM     42  C   UNL A   1      43.414  25.740  27.166  1.00  0.00     0.049 A 
ATOM     43  N   UNL A   1      46.316  26.452  26.864  1.00  0.00    -0.248 NA
ATOM     44  C   UNL A   1      46.737  24.269  26.153  1.00  0.00     0.031 C 
ATOM     45  C   UNL A   1      42.001  25.435  27.404  1.00  0.00     0.029 A 
ATOM     46  N   UNL A   1      43.519  27.071  27.491  1.00  0.00    -0.354 N 
ATOM     47  C   UNL A   1      47.676  26.302  26.623  1.00  0.00     0.074 A 
ATOM     48  C   UNL A   1      47.886  24.921  26.243  1.00  0.00     0.031 C 
ATOM     49  C   UNL A   1      41.369  26.546  27.815  1.00  0.00     0.029 A 
ATOM     50  C   UNL A   1      42.336  27.634  27.913  1.00  0.00     0.049 A 
ATOM     51  H   UNL A   1      44.362  27.574  27.429  1.00  0.00     0.167 HD
ATOM     52  C   UNL A   1      48.655  27.234  26.689  1.00  0.00     0.037 A 
ATOM     53  C   UNL A   1      42.061  28.881  28.345  1.00  0.00     0.037 A 
ATOM     54  C   UNL A   1      48.438  28.615  27.032  1.00  0.00     0.049 A 
ATOM     55  C   UNL A   1      43.165  29.898  28.411  1.00  0.00     0.074 A 
ATOM     56  C   UNL A   1      49.351  29.654  27.035  1.00  0.00     0.029 A 
ATOM     57  N   UNL A   1      47.224  29.148  27.439  1.00  0.00    -0.354 N 
ATOM     58  N   UNL A   1      44.431  29.756  28.100  1.00  0.00    -0.248 NA
ATOM     59  C   UNL A   1      42.808  31.240  28.890  1.00  0.00     0.031 C 
ATOM     60  C   UNL A   1      48.698  30.809  27.480  1.00  0.00     0.029 A 
ATOM     61  C   UNL A   1      47.371  30.496  27.722  1.00  0.00     0.049 A 
ATOM     62  H   UNL A   1      46.382  28.644  27.515  1.00  0.00     0.167 HD
ATOM     63  C   UNL A   1      45.021  30.992  28.339  1.00  0.00     0.074 A 
ATOM     64  C   UNL A   1      43.970  31.875  28.802  1.00  0.00     0.031 C 
ATOM     65  C   UNL A   1      46.317  31.360  28.191  1.00  0.00     0.037 A 
BRANCH  52  66
ATOM     66  C   UNL A   1      50.055  26.792  26.371  1.00  0.00     0.058 A 
ATOM     67  C   UNL A   1      50.560  26.845  25.062  1.00  0.00     0.135 A 
ATOM     68  C   UNL A   1      50.911  26.338  27.387  1.00  0.00     0.135 A 
ATOM     69  F   UNL A   1      49.778  27.257  24.052  1.00  0.00    -0.206 F 
ATOM     70  C   UNL A   1      51.856  26.435  24.767  1.00  0.00     0.059 A 
ATOM     71  C   UNL A   1      52.219  25.946  27.118  1.00  0.00     0.059 A 
ATOM     72  F   UNL A   1      50.476  26.267  28.655  1.00  0.00    -0.206 F 
ATOM     73  C   UNL A   1      52.677  25.984  25.801  1.00  0.00     0.060 A 
BRANCH  73  74
ATOM     74  S   UNL A   1      54.355  25.454  25.401  1.00  0.00     0.124 S 
ATOM     75  O   UNL A   1      54.489  25.932  24.028  1.00  0.00    -0.237 OA
ATOM     76  O   UNL A   1      55.153  26.161  26.398  1.00  0.00    -0.237 OA
ATOM     77  O   UNL A   1      54.300  24.006  25.560  1.00  0.00    -0.744 OA
ENDBRANCH  73  74
ENDBRANCH  52  66
BRANCH  53  78
ATOM     78  C   UNL A   1      40.673  29.237  28.745  1.00  0.00     0.058 A 
ATOM     79  C   UNL A   1      40.320  29.342  30.098  1.00  0.00     0.135 A 
ATOM     80  C   UNL A   1      39.681  29.497  27.787  1.00  0.00     0.135 A 
ATOM     81  F   UNL A   1      41.233  29.094  31.049  1.00  0.00    -0.206 F 
ATOM     82  C   UNL A   1      39.031  29.685  30.490  1.00  0.00     0.059 A 
ATOM     83  C   UNL A   1      38.390  29.862  28.155  1.00  0.00     0.059 A 
ATOM     84  F   UNL A   1      39.973  29.425  26.479  1.00  0.00    -0.206 F 
ATOM     85  C   UNL A   1      38.072  29.948  29.510  1.00  0.00     0.060 A 
BRANCH  85  86
ATOM     86  S   UNL A   1      36.418  30.456  30.026  1.00  0.00     0.124 S 
ATOM     87  O   UNL A   1      36.289  29.778  31.310  1.00  0.00    -0.237 OA
ATOM     88  O   UNL A   1      36.545  31.909  30.080  1.00  0.00    -0.237 OA
ATOM     89  O   UNL A   1      35.564  29.951  28.955  1.00  0.00    -0.744 OA
ENDBRANCH  85  86
ENDBRANCH  53  78
BRANCH  65  90
ATOM     90  C   UNL A   1      46.676  32.777  28.535  1.00  0.00     0.058 A 
ATOM     91  C   UNL A   1      47.124  33.124  29.818  1.00  0.00     0.135 A 
ATOM     92  C   UNL A   1      46.636  33.783  27.557  1.00  0.00     0.135 A 
ATOM     93  F   UNL A   1      47.170  32.199  30.790  1.00  0.00    -0.206 F 
ATOM     94  C   UNL A   1      47.514  34.423  30.125  1.00  0.00     0.059 A 
ATOM     95  C   UNL A   1      47.041  35.085  27.835  1.00  0.00     0.059 A 
ATOM     96  F   UNL A   1      46.220  33.501  26.312  1.00  0.00    -0.206 F 
ATOM     97  C   UNL A   1      47.472  35.396  29.125  1.00  0.00     0.060 A 
BRANCH  97  98
ATOM     98  S   UNL A   1      48.031  37.067  29.520  1.00  0.00     0.124 S 
ATOM     99  O   UNL A   1      47.300  37.861  28.538  1.00  0.00    -0.237 OA
ATOM    100  O   UNL A   1      47.603  37.222  30.907  1.00  0.00    -0.237 OA
ATOM    101  O   UNL A   1      49.476  36.998  29.320  1.00  0.00    -0.744 OA
ENDBRANCH  97  98
ENDBRANCH  65  90
ENDBRANCH  39  40
ENDBRANCH  31  34
ENDBRANCH  29  30
ENDBRANCH  28  29
ENDBRANCH   1  28
TORSDOF 19
ENDMDL
