MODEL 1
REMARK VINA RESULT:     -12.5      0.000      0.000
REMARK SMILES Cc1ccccc1CSCC(=O)Nc1ccc(C)c(C(=O)NCCCCNC(=O)c2ccc(-c3c4nc(c(-c5c(F)cc(S(=O)(=O)[O-])cc5F)c5ccc([nH]5)c(-c5c(F)cc(S(=O)(=O)[O-])cc5F)c5nc(c(-c6c(F)cc(S(=O)(=O)[O-])cc6F)c6ccc3[nH]6)C=C5)C=C4)cc2)c1
REMARK SMILES IDX 23 1 22 2 20 3 21 4 19 6 14 7 15 8 96 9 16 10 17 11 18 12
REMARK SMILES IDX 13 13 11 14 12 15 10 17 9 18 8 19 7 20 1 21 2 22 3 23 4 24
REMARK SMILES IDX 6 25 5 26 24 27 25 28 26 29 27 30 28 31 29 33 30 34 31 35
REMARK SMILES IDX 95 36 32 37 94 38 33 39 34 40 35 41 88 42 36 43 93 44 87 45
REMARK SMILES IDX 89 46 37 47 92 48 86 49 85 50 38 52 72 53 51 54 71 55 52 56
REMARK SMILES IDX 55 57 70 58 90 59 53 60 54 61 69 63 91 64 56 65 39 66 40 67
REMARK SMILES IDX 49 68 41 69 42 70 48 71 50 72 43 73 44 74 45 75 46 76 47 77
REMARK SMILES IDX 73 78 74 79 83 80 75 81 76 82 82 83 84 84 77 85 78 86 79 87
REMARK SMILES IDX 80 88 81 89 57 90 58 91 67 92 59 93 60 94 66 95 68 96 61 97
REMARK SMILES IDX 62 98 63 99 64 100 65 101
REMARK H PARENT 22 5 13 16 27 32 89 51 55 62
REMARK Flexibility Score: inf
ROOT
ATOM      1  C   UNL A   1      33.656  28.698  24.212  1.00  0.00     0.116 C 
ENDROOT
BRANCH   1   2
ATOM      2  N   UNL A   1      34.046  27.457  23.535  1.00  0.00    -0.352 N 
ATOM      3  C   UNL A   1      33.319  26.894  22.489  1.00  0.00     0.251 C 
ATOM      4  O   UNL A   1      33.805  26.817  21.360  1.00  0.00    -0.269 OA
ATOM      5  H   UNL A   1      34.864  26.999  23.833  1.00  0.00     0.163 HD
BRANCH   3   6
ATOM      6  C   UNL A   1      32.160  26.034  22.819  1.00  0.00     0.044 A 
ATOM      7  C   UNL A   1      31.472  23.765  23.243  1.00  0.00     0.042 A 
ATOM      8  C   UNL A   1      30.334  24.249  23.868  1.00  0.00     0.026 A 
ATOM      9  C   UNL A   1      32.447  24.658  22.839  1.00  0.00     0.040 A 
ATOM     10  C   UNL A   1      29.995  25.586  23.751  1.00  0.00     0.006 A 
ATOM     11  C   UNL A   1      30.856  26.462  23.093  1.00  0.00    -0.038 A 
ATOM     12  C   UNL A   1      30.263  27.743  22.612  1.00  0.00     0.045 C 
BRANCH   7  13
ATOM     13  N   UNL A   1      31.659  22.396  23.058  1.00  0.00    -0.325 N 
ATOM     14  C   UNL A   1      32.433  21.551  23.816  1.00  0.00     0.234 C 
ATOM     15  O   UNL A   1      32.657  20.422  23.365  1.00  0.00    -0.274 OA
ATOM     16  H   UNL A   1      31.183  21.988  22.299  1.00  0.00     0.169 HD
BRANCH  14  17
ATOM     17  C   UNL A   1      32.789  21.885  25.267  1.00  0.00     0.170 C 
BRANCH  17  18
ATOM     18  S   UNL A   1      34.358  21.307  25.957  1.00  0.00    -0.147 SA
BRANCH  18  19
ATOM     19  C   UNL A   1      35.549  21.833  24.684  1.00  0.00     0.105 C 
BRANCH  19  20
ATOM     20  C   UNL A   1      36.865  22.254  25.277  1.00  0.00    -0.035 A 
ATOM     21  C   UNL A   1      38.051  20.006  24.838  1.00  0.00     0.044 C 
ATOM     22  C   UNL A   1      37.983  21.406  25.385  1.00  0.00    -0.047 A 
ATOM     23  C   UNL A   1      39.121  21.877  26.062  1.00  0.00     0.004 A 
ATOM     24  C   UNL A   1      39.177  23.171  26.580  1.00  0.00     0.000 A 
ATOM     25  C   UNL A   1      36.959  23.577  25.762  1.00  0.00     0.005 A 
ATOM     26  C   UNL A   1      38.101  24.031  26.413  1.00  0.00     0.000 A 
ENDBRANCH  19  20
ENDBRANCH  18  19
ENDBRANCH  17  18
ENDBRANCH  14  17
ENDBRANCH   7  13
ENDBRANCH   3   6
ENDBRANCH   1   2
BRANCH   1  27
ATOM     27  C   UNL A   1      33.011  28.813  25.658  1.00  0.00     0.023 C 
BRANCH  27  28
ATOM     28  C   UNL A   1      33.916  28.712  27.099  1.00  0.00     0.023 C 
BRANCH  28  29
ATOM     29  C   UNL A   1      35.053  29.782  27.621  1.00  0.00     0.116 C 
BRANCH  29  30
ATOM     30  N   UNL A   1      36.228  29.508  28.738  1.00  0.00    -0.352 N 
ATOM     31  C   UNL A   1      37.653  29.286  29.004  1.00  0.00     0.251 C 
ATOM     32  H   UNL A   1      35.777  29.480  29.612  1.00  0.00     0.163 HD
ATOM     33  O   UNL A   1      38.011  29.787  30.090  1.00  0.00    -0.269 OA
BRANCH  31  34
ATOM     34  C   UNL A   1      38.872  28.624  28.230  1.00  0.00     0.039 A 
ATOM     35  C   UNL A   1      39.254  27.274  28.425  1.00  0.00     0.014 A 
ATOM     36  C   UNL A   1      39.684  29.262  27.299  1.00  0.00     0.014 A 
ATOM     37  C   UNL A   1      40.639  26.899  28.343  1.00  0.00     0.010 A 
ATOM     38  C   UNL A   1      41.058  28.898  27.191  1.00  0.00     0.010 A 
ATOM     39  C   UNL A   1      41.594  27.818  27.903  1.00  0.00    -0.014 A 
BRANCH  39  40
ATOM     40  C   UNL A   1      43.053  27.771  28.288  1.00  0.00     0.031 A 
ATOM     41  C   UNL A   1      43.863  28.975  28.455  1.00  0.00     0.074 A 
ATOM     42  C   UNL A   1      43.785  26.669  28.624  1.00  0.00     0.049 A 
ATOM     43  N   UNL A   1      44.973  29.186  27.823  1.00  0.00    -0.248 NA
ATOM     44  C   UNL A   1      43.548  29.952  29.485  1.00  0.00     0.031 C 
ATOM     45  C   UNL A   1      45.156  26.499  29.134  1.00  0.00     0.029 A 
ATOM     46  N   UNL A   1      43.364  25.356  28.629  1.00  0.00    -0.354 N 
ATOM     47  C   UNL A   1      45.646  30.127  28.570  1.00  0.00     0.074 A 
ATOM     48  C   UNL A   1      44.659  30.696  29.472  1.00  0.00     0.031 C 
ATOM     49  C   UNL A   1      45.527  25.204  29.020  1.00  0.00     0.029 A 
ATOM     50  C   UNL A   1      44.426  24.482  28.421  1.00  0.00     0.049 A 
ATOM     51  H   UNL A   1      42.431  25.073  28.764  1.00  0.00     0.167 HD
ATOM     52  C   UNL A   1      47.011  30.166  28.633  1.00  0.00     0.037 A 
ATOM     53  C   UNL A   1      44.394  23.662  27.327  1.00  0.00     0.037 A 
ATOM     54  C   UNL A   1      47.622  28.933  28.120  1.00  0.00     0.049 A 
ATOM     55  C   UNL A   1      45.392  24.114  26.311  1.00  0.00     0.074 A 
ATOM     56  C   UNL A   1      48.257  27.882  28.767  1.00  0.00     0.029 A 
ATOM     57  N   UNL A   1      47.371  28.483  26.826  1.00  0.00    -0.354 N 
ATOM     58  N   UNL A   1      46.102  25.189  26.471  1.00  0.00    -0.248 NA
ATOM     59  C   UNL A   1      45.686  23.443  25.056  1.00  0.00     0.031 C 
ATOM     60  C   UNL A   1      48.388  26.802  27.863  1.00  0.00     0.029 A 
ATOM     61  C   UNL A   1      47.832  27.187  26.657  1.00  0.00     0.049 A 
ATOM     62  H   UNL A   1      46.927  29.013  26.125  1.00  0.00     0.167 HD
ATOM     63  C   UNL A   1      46.916  25.393  25.400  1.00  0.00     0.074 A 
ATOM     64  C   UNL A   1      46.639  24.250  24.548  1.00  0.00     0.031 C 
ATOM     65  C   UNL A   1      47.725  26.495  25.372  1.00  0.00     0.037 A 
BRANCH  52  66
ATOM     66  C   UNL A   1      47.744  31.183  29.491  1.00  0.00     0.058 A 
ATOM     67  C   UNL A   1      48.044  30.966  30.851  1.00  0.00     0.135 A 
ATOM     68  C   UNL A   1      48.228  32.405  28.970  1.00  0.00     0.135 A 
ATOM     69  F   UNL A   1      47.767  29.809  31.465  1.00  0.00    -0.206 F 
ATOM     70  C   UNL A   1      48.670  31.922  31.655  1.00  0.00     0.059 A 
ATOM     71  C   UNL A   1      48.817  33.396  29.762  1.00  0.00     0.059 A 
ATOM     72  F   UNL A   1      48.166  32.667  27.655  1.00  0.00    -0.206 F 
ATOM     73  C   UNL A   1      49.033  33.145  31.109  1.00  0.00     0.060 A 
BRANCH  73  74
ATOM     74  S   UNL A   1      49.830  34.362  32.172  1.00  0.00     0.124 S 
ATOM     75  O   UNL A   1      48.854  34.524  33.244  1.00  0.00    -0.237 OA
ATOM     76  O   UNL A   1      51.067  33.681  32.538  1.00  0.00    -0.237 OA
ATOM     77  O   UNL A   1      49.991  35.523  31.300  1.00  0.00    -0.744 OA
ENDBRANCH  73  74
ENDBRANCH  52  66
BRANCH  53  78
ATOM     78  C   UNL A   1      43.033  23.037  27.053  1.00  0.00     0.058 A 
ATOM     79  C   UNL A   1      42.755  22.994  25.685  1.00  0.00     0.135 A 
ATOM     80  C   UNL A   1      42.741  21.845  27.707  1.00  0.00     0.135 A 
ATOM     81  F   UNL A   1      42.628  24.125  24.978  1.00  0.00    -0.206 F 
ATOM     82  C   UNL A   1      42.962  21.808  24.993  1.00  0.00     0.059 A 
ATOM     83  C   UNL A   1      42.777  20.640  26.995  1.00  0.00     0.059 A 
ATOM     84  F   UNL A   1      42.621  21.806  29.043  1.00  0.00    -0.206 F 
ATOM     85  C   UNL A   1      43.221  20.635  25.695  1.00  0.00     0.060 A 
BRANCH  85  86
ATOM     86  S   UNL A   1      44.377  19.415  24.840  1.00  0.00     0.124 S 
ATOM     87  O   UNL A   1      45.586  19.990  25.311  1.00  0.00    -0.237 OA
ATOM     88  O   UNL A   1      44.190  18.106  25.424  1.00  0.00    -0.237 OA
ATOM     89  O   UNL A   1      44.317  19.503  23.399  1.00  0.00    -0.744 OA
ENDBRANCH  85  86
ENDBRANCH  53  78
BRANCH  65  90
ATOM     90  C   UNL A   1      48.594  26.976  24.233  1.00  0.00     0.058 A 
ATOM     91  C   UNL A   1      49.974  26.753  24.119  1.00  0.00     0.135 A 
ATOM     92  C   UNL A   1      48.003  27.642  23.125  1.00  0.00     0.135 A 
ATOM     93  F   UNL A   1      50.652  26.037  25.024  1.00  0.00    -0.206 F 
ATOM     94  C   UNL A   1      50.721  27.217  23.035  1.00  0.00     0.059 A 
ATOM     95  C   UNL A   1      48.715  28.053  22.007  1.00  0.00     0.059 A 
ATOM     96  F   UNL A   1      46.692  27.921  23.075  1.00  0.00    -0.206 F 
ATOM     97  C   UNL A   1      50.083  27.866  21.984  1.00  0.00     0.060 A 
BRANCH  97  98
ATOM     98  S   UNL A   1      51.046  28.421  20.571  1.00  0.00     0.124 S 
ATOM     99  O   UNL A   1      50.807  29.860  20.604  1.00  0.00    -0.237 OA
ATOM    100  O   UNL A   1      52.397  27.997  20.927  1.00  0.00    -0.237 OA
ATOM    101  O   UNL A   1      50.450  27.707  19.447  1.00  0.00    -0.744 OA
ENDBRANCH  97  98
ENDBRANCH  65  90
ENDBRANCH  39  40
ENDBRANCH  31  34
ENDBRANCH  29  30
ENDBRANCH  28  29
ENDBRANCH  27  28
ENDBRANCH   1  27
TORSDOF 19
ENDMDL
MODEL 2
REMARK VINA RESULT:     -12.2      4.193      9.682
REMARK SMILES Cc1ccccc1CSCC(=O)Nc1ccc(C)c(C(=O)NCCCCNC(=O)c2ccc(-c3c4nc(c(-c5c(F)cc(S(=O)(=O)[O-])cc5F)c5ccc([nH]5)c(-c5c(F)cc(S(=O)(=O)[O-])cc5F)c5nc(c(-c6c(F)cc(S(=O)(=O)[O-])cc6F)c6ccc3[nH]6)C=C5)C=C4)cc2)c1
REMARK SMILES IDX 23 1 22 2 20 3 21 4 19 6 14 7 15 8 96 9 16 10 17 11 18 12
REMARK SMILES IDX 13 13 11 14 12 15 10 17 9 18 8 19 7 20 1 21 2 22 3 23 4 24
REMARK SMILES IDX 6 25 5 26 24 27 25 28 26 29 27 30 28 31 29 33 30 34 31 35
REMARK SMILES IDX 95 36 32 37 94 38 33 39 34 40 35 41 88 42 36 43 93 44 87 45
REMARK SMILES IDX 89 46 37 47 92 48 86 49 85 50 38 52 72 53 51 54 71 55 52 56
REMARK SMILES IDX 55 57 70 58 90 59 53 60 54 61 69 63 91 64 56 65 39 66 40 67
REMARK SMILES IDX 49 68 41 69 42 70 48 71 50 72 43 73 44 74 45 75 46 76 47 77
REMARK SMILES IDX 73 78 74 79 83 80 75 81 76 82 82 83 84 84 77 85 78 86 79 87
REMARK SMILES IDX 80 88 81 89 57 90 58 91 67 92 59 93 60 94 66 95 68 96 61 97
REMARK SMILES IDX 62 98 63 99 64 100 65 101
REMARK H PARENT 22 5 13 16 27 32 89 51 55 62
REMARK Flexibility Score: inf
ROOT
ATOM      1  C   UNL A   1      33.901  27.974  22.375  1.00  0.00     0.116 C 
ENDROOT
BRANCH   1   2
ATOM      2  N   UNL A   1      33.351  26.667  21.999  1.00  0.00    -0.352 N 
ATOM      3  C   UNL A   1      31.988  26.385  21.989  1.00  0.00     0.251 C 
ATOM      4  O   UNL A   1      31.409  26.130  20.932  1.00  0.00    -0.269 OA
ATOM      5  H   UNL A   1      33.976  25.954  21.740  1.00  0.00     0.163 HD
BRANCH   3   6
ATOM      6  C   UNL A   1      31.339  25.992  23.261  1.00  0.00     0.044 A 
ATOM      7  C   UNL A   1      30.959  24.154  24.771  1.00  0.00     0.042 A 
ATOM      8  C   UNL A   1      30.657  25.064  25.771  1.00  0.00     0.026 A 
ATOM      9  C   UNL A   1      31.429  24.621  23.557  1.00  0.00     0.040 A 
ATOM     10  C   UNL A   1      30.458  26.398  25.456  1.00  0.00     0.006 A 
ATOM     11  C   UNL A   1      30.666  26.838  24.150  1.00  0.00    -0.038 A 
ATOM     12  C   UNL A   1      30.027  28.131  23.774  1.00  0.00     0.045 C 
BRANCH   7  13
ATOM     13  N   UNL A   1      30.834  22.783  24.990  1.00  0.00    -0.325 N 
ATOM     14  C   UNL A   1      31.846  21.872  25.166  1.00  0.00     0.234 C 
ATOM     15  O   UNL A   1      31.550  20.672  25.119  1.00  0.00    -0.274 OA
ATOM     16  H   UNL A   1      29.916  22.428  25.023  1.00  0.00     0.169 HD
BRANCH  14  17
ATOM     17  C   UNL A   1      33.229  22.304  25.658  1.00  0.00     0.170 C 
BRANCH  17  18
ATOM     18  S   UNL A   1      34.542  21.072  25.831  1.00  0.00    -0.147 SA
BRANCH  18  19
ATOM     19  C   UNL A   1      35.804  21.699  24.676  1.00  0.00     0.105 C 
BRANCH  19  20
ATOM     20  C   UNL A   1      36.976  22.307  25.394  1.00  0.00    -0.035 A 
ATOM     21  C   UNL A   1      35.885  24.623  25.708  1.00  0.00     0.044 C 
ATOM     22  C   UNL A   1      37.025  23.648  25.820  1.00  0.00    -0.047 A 
ATOM     23  C   UNL A   1      38.220  24.133  26.379  1.00  0.00     0.004 A 
ATOM     24  C   UNL A   1      39.328  23.305  26.559  1.00  0.00     0.000 A 
ATOM     25  C   UNL A   1      38.090  21.472  25.632  1.00  0.00     0.005 A 
ATOM     26  C   UNL A   1      39.257  21.966  26.203  1.00  0.00     0.000 A 
ENDBRANCH  19  20
ENDBRANCH  18  19
ENDBRANCH  17  18
ENDBRANCH  14  17
ENDBRANCH   7  13
ENDBRANCH   3   6
ENDBRANCH   1   2
BRANCH   1  27
ATOM     27  C   UNL A   1      33.800  28.656  23.805  1.00  0.00     0.023 C 
BRANCH  27  28
ATOM     28  C   UNL A   1      33.971  27.798  25.268  1.00  0.00     0.023 C 
BRANCH  28  29
ATOM     29  C   UNL A   1      33.620  28.352  26.778  1.00  0.00     0.116 C 
BRANCH  29  30
ATOM     30  N   UNL A   1      33.892  29.865  27.362  1.00  0.00    -0.352 N 
ATOM     31  C   UNL A   1      34.833  30.795  27.995  1.00  0.00     0.251 C 
ATOM     32  H   UNL A   1      33.056  30.367  27.228  1.00  0.00     0.163 HD
ATOM     33  O   UNL A   1      34.676  31.967  27.595  1.00  0.00    -0.269 OA
BRANCH  31  34
ATOM     34  C   UNL A   1      36.045  30.679  29.016  1.00  0.00     0.039 A 
ATOM     35  C   UNL A   1      36.968  31.733  29.224  1.00  0.00     0.014 A 
ATOM     36  C   UNL A   1      36.337  29.572  29.804  1.00  0.00     0.014 A 
ATOM     37  C   UNL A   1      38.343  31.438  29.517  1.00  0.00     0.010 A 
ATOM     38  C   UNL A   1      37.694  29.266  30.119  1.00  0.00     0.010 A 
ATOM     39  C   UNL A   1      38.744  30.123  29.770  1.00  0.00    -0.014 A 
BRANCH  39  40
ATOM     40  C   UNL A   1      40.142  29.606  29.533  1.00  0.00     0.031 A 
ATOM     41  C   UNL A   1      40.412  28.243  29.082  1.00  0.00     0.074 A 
ATOM     42  C   UNL A   1      41.308  30.313  29.597  1.00  0.00     0.049 A 
ATOM     43  N   UNL A   1      41.191  27.421  29.709  1.00  0.00    -0.248 NA
ATOM     44  C   UNL A   1      39.942  27.776  27.787  1.00  0.00     0.031 C 
ATOM     45  C   UNL A   1      42.703  29.969  29.270  1.00  0.00     0.029 A 
ATOM     46  N   UNL A   1      41.465  31.637  29.947  1.00  0.00    -0.354 N 
ATOM     47  C   UNL A   1      41.560  26.481  28.772  1.00  0.00     0.074 A 
ATOM     48  C   UNL A   1      40.629  26.636  27.668  1.00  0.00     0.031 C 
ATOM     49  C   UNL A   1      43.535  30.899  29.791  1.00  0.00     0.029 A 
ATOM     50  C   UNL A   1      42.724  31.874  30.487  1.00  0.00     0.049 A 
ATOM     51  H   UNL A   1      40.773  32.328  29.829  1.00  0.00     0.167 HD
ATOM     52  C   UNL A   1      42.775  25.856  28.809  1.00  0.00     0.037 A 
ATOM     53  C   UNL A   1      42.808  32.344  31.769  1.00  0.00     0.037 A 
ATOM     54  C   UNL A   1      43.716  26.532  29.711  1.00  0.00     0.049 A 
ATOM     55  C   UNL A   1      43.313  31.274  32.681  1.00  0.00     0.074 A 
ATOM     56  C   UNL A   1      44.837  27.311  29.456  1.00  0.00     0.029 A 
ATOM     57  N   UNL A   1      43.416  26.733  31.056  1.00  0.00    -0.354 N 
ATOM     58  N   UNL A   1      43.545  30.065  32.268  1.00  0.00    -0.248 NA
ATOM     59  C   UNL A   1      43.596  31.433  34.099  1.00  0.00     0.031 C 
ATOM     60  C   UNL A   1      45.211  27.977  30.646  1.00  0.00     0.029 A 
ATOM     61  C   UNL A   1      44.318  27.612  31.637  1.00  0.00     0.049 A 
ATOM     62  H   UNL A   1      42.665  26.310  31.531  1.00  0.00     0.167 HD
ATOM     63  C   UNL A   1      43.974  29.279  33.291  1.00  0.00     0.074 A 
ATOM     64  C   UNL A   1      44.019  30.194  34.418  1.00  0.00     0.031 C 
ATOM     65  C   UNL A   1      44.245  27.959  33.056  1.00  0.00     0.037 A 
BRANCH  52  66
ATOM     66  C   UNL A   1      43.190  24.849  27.750  1.00  0.00     0.058 A 
ATOM     67  C   UNL A   1      42.846  23.483  27.813  1.00  0.00     0.135 A 
ATOM     68  C   UNL A   1      43.909  25.221  26.591  1.00  0.00     0.135 A 
ATOM     69  F   UNL A   1      42.061  22.991  28.780  1.00  0.00    -0.206 F 
ATOM     70  C   UNL A   1      43.272  22.546  26.869  1.00  0.00     0.059 A 
ATOM     71  C   UNL A   1      44.385  24.297  25.655  1.00  0.00     0.059 A 
ATOM     72  F   UNL A   1      44.154  26.512  26.316  1.00  0.00    -0.206 F 
ATOM     73  C   UNL A   1      44.061  22.957  25.804  1.00  0.00     0.060 A 
BRANCH  73  74
ATOM     74  S   UNL A   1      44.604  21.724  24.606  1.00  0.00     0.124 S 
ATOM     75  O   UNL A   1      43.801  20.562  24.972  1.00  0.00    -0.237 OA
ATOM     76  O   UNL A   1      44.258  22.360  23.340  1.00  0.00    -0.237 OA
ATOM     77  O   UNL A   1      46.034  21.597  24.872  1.00  0.00    -0.744 OA
ENDBRANCH  73  74
ENDBRANCH  52  66
BRANCH  53  78
ATOM     78  C   UNL A   1      41.792  33.425  32.107  1.00  0.00     0.058 A 
ATOM     79  C   UNL A   1      41.027  33.080  33.224  1.00  0.00     0.135 A 
ATOM     80  C   UNL A   1      42.253  34.737  32.146  1.00  0.00     0.135 A 
ATOM     81  F   UNL A   1      40.217  32.013  33.193  1.00  0.00    -0.206 F 
ATOM     82  C   UNL A   1      41.366  33.611  34.461  1.00  0.00     0.059 A 
ATOM     83  C   UNL A   1      42.447  35.364  33.383  1.00  0.00     0.059 A 
ATOM     84  F   UNL A   1      42.701  35.342  31.036  1.00  0.00    -0.206 F 
ATOM     85  C   UNL A   1      42.300  34.639  34.540  1.00  0.00     0.060 A 
BRANCH  85  86
ATOM     86  S   UNL A   1      43.381  34.638  36.086  1.00  0.00     0.124 S 
ATOM     87  O   UNL A   1      43.385  36.045  36.274  1.00  0.00    -0.237 OA
ATOM     88  O   UNL A   1      42.657  33.997  37.162  1.00  0.00    -0.237 OA
ATOM     89  O   UNL A   1      44.723  34.170  35.830  1.00  0.00    -0.744 OA
ENDBRANCH  85  86
ENDBRANCH  53  78
BRANCH  65  90
ATOM     90  C   UNL A   1      44.599  26.893  34.067  1.00  0.00     0.058 A 
ATOM     91  C   UNL A   1      43.694  26.287  34.951  1.00  0.00     0.135 A 
ATOM     92  C   UNL A   1      45.920  26.370  34.111  1.00  0.00     0.135 A 
ATOM     93  F   UNL A   1      42.390  26.587  34.946  1.00  0.00    -0.206 F 
ATOM     94  C   UNL A   1      44.083  25.298  35.857  1.00  0.00     0.059 A 
ATOM     95  C   UNL A   1      46.311  25.341  34.957  1.00  0.00     0.059 A 
ATOM     96  F   UNL A   1      46.899  26.834  33.321  1.00  0.00    -0.206 F 
ATOM     97  C   UNL A   1      45.392  24.832  35.853  1.00  0.00     0.060 A 
BRANCH  97  98
ATOM     98  S   UNL A   1      45.871  23.528  36.993  1.00  0.00     0.124 S 
ATOM     99  O   UNL A   1      47.285  23.826  37.197  1.00  0.00    -0.237 OA
ATOM    100  O   UNL A   1      45.001  23.778  38.138  1.00  0.00    -0.237 OA
ATOM    101  O   UNL A   1      45.584  22.303  36.254  1.00  0.00    -0.744 OA
ENDBRANCH  97  98
ENDBRANCH  65  90
ENDBRANCH  39  40
ENDBRANCH  31  34
ENDBRANCH  29  30
ENDBRANCH  28  29
ENDBRANCH  27  28
ENDBRANCH   1  27
TORSDOF 19
ENDMDL
MODEL 3
REMARK VINA RESULT:     -11.7      5.466     11.218
REMARK SMILES Cc1ccccc1CSCC(=O)Nc1ccc(C)c(C(=O)NCCCCNC(=O)c2ccc(-c3c4nc(c(-c5c(F)cc(S(=O)(=O)[O-])cc5F)c5ccc([nH]5)c(-c5c(F)cc(S(=O)(=O)[O-])cc5F)c5nc(c(-c6c(F)cc(S(=O)(=O)[O-])cc6F)c6ccc3[nH]6)C=C5)C=C4)cc2)c1
REMARK SMILES IDX 23 1 22 2 20 3 21 4 19 6 14 7 15 8 96 9 16 10 17 11 18 12
REMARK SMILES IDX 13 13 11 14 12 15 10 17 9 18 8 19 7 20 1 21 2 22 3 23 4 24
REMARK SMILES IDX 6 25 5 26 24 27 25 28 26 29 27 30 28 31 29 33 30 34 31 35
REMARK SMILES IDX 95 36 32 37 94 38 33 39 34 40 35 41 88 42 36 43 93 44 87 45
REMARK SMILES IDX 89 46 37 47 92 48 86 49 85 50 38 52 72 53 51 54 71 55 52 56
REMARK SMILES IDX 55 57 70 58 90 59 53 60 54 61 69 63 91 64 56 65 39 66 40 67
REMARK SMILES IDX 49 68 41 69 42 70 48 71 50 72 43 73 44 74 45 75 46 76 47 77
REMARK SMILES IDX 73 78 74 79 83 80 75 81 76 82 82 83 84 84 77 85 78 86 79 87
REMARK SMILES IDX 80 88 81 89 57 90 58 91 67 92 59 93 60 94 66 95 68 96 61 97
REMARK SMILES IDX 62 98 63 99 64 100 65 101
REMARK H PARENT 22 5 13 16 27 32 89 51 55 62
REMARK Flexibility Score: inf
ROOT
ATOM      1  C   UNL A   1      41.822  24.401  28.753  1.00  0.00     0.116 C 
ENDROOT
BRANCH   1   2
ATOM      2  N   UNL A   1      40.446  24.735  28.370  1.00  0.00    -0.352 N 
ATOM      3  C   UNL A   1      40.124  25.766  27.491  1.00  0.00     0.251 C 
ATOM      4  O   UNL A   1      39.606  25.521  26.401  1.00  0.00    -0.269 OA
ATOM      5  H   UNL A   1      39.712  24.203  28.752  1.00  0.00     0.163 HD
BRANCH   3   6
ATOM      6  C   UNL A   1      40.024  27.143  28.026  1.00  0.00     0.044 A 
ATOM      7  C   UNL A   1      39.133  28.479  29.821  1.00  0.00     0.042 A 
ATOM      8  C   UNL A   1      40.046  29.473  29.507  1.00  0.00     0.026 A 
ATOM      9  C   UNL A   1      39.213  27.264  29.167  1.00  0.00     0.040 A 
ATOM     10  C   UNL A   1      40.763  29.407  28.325  1.00  0.00     0.006 A 
ATOM     11  C   UNL A   1      40.640  28.287  27.504  1.00  0.00    -0.038 A 
ATOM     12  C   UNL A   1      41.059  28.453  26.084  1.00  0.00     0.045 C 
BRANCH   7  13
ATOM     13  N   UNL A   1      38.170  28.678  30.810  1.00  0.00    -0.325 N 
ATOM     14  C   UNL A   1      36.989  29.370  30.695  1.00  0.00     0.234 C 
ATOM     15  O   UNL A   1      36.378  29.633  31.737  1.00  0.00    -0.274 OA
ATOM     16  H   UNL A   1      38.359  28.278  31.690  1.00  0.00     0.169 HD
BRANCH  14  17
ATOM     17  C   UNL A   1      36.320  29.581  29.336  1.00  0.00     0.170 C 
BRANCH  17  18
ATOM     18  S   UNL A   1      36.849  30.953  28.282  1.00  0.00    -0.147 SA
BRANCH  18  19
ATOM     19  C   UNL A   1      36.223  32.397  29.199  1.00  0.00     0.105 C 
BRANCH  19  20
ATOM     20  C   UNL A   1      37.247  32.950  30.151  1.00  0.00    -0.035 A 
ATOM     21  C   UNL A   1      35.547  33.570  31.990  1.00  0.00     0.044 C 
ATOM     22  C   UNL A   1      36.929  33.522  31.398  1.00  0.00    -0.047 A 
ATOM     23  C   UNL A   1      37.961  34.110  32.151  1.00  0.00     0.004 A 
ATOM     24  C   UNL A   1      39.284  34.092  31.710  1.00  0.00     0.000 A 
ATOM     25  C   UNL A   1      38.598  32.897  29.747  1.00  0.00     0.005 A 
ATOM     26  C   UNL A   1      39.608  33.468  30.514  1.00  0.00     0.000 A 
ENDBRANCH  19  20
ENDBRANCH  18  19
ENDBRANCH  17  18
ENDBRANCH  14  17
ENDBRANCH   7  13
ENDBRANCH   3   6
ENDBRANCH   1   2
BRANCH   1  27
ATOM     27  C   UNL A   1      42.566  23.029  28.464  1.00  0.00     0.023 C 
BRANCH  27  28
ATOM     28  C   UNL A   1      41.940  21.819  27.440  1.00  0.00     0.023 C 
BRANCH  28  29
ATOM     29  C   UNL A   1      42.606  21.282  26.033  1.00  0.00     0.116 C 
BRANCH  29  30
ATOM     30  N   UNL A   1      43.316  22.196  24.865  1.00  0.00    -0.352 N 
ATOM     31  C   UNL A   1      44.132  23.370  24.539  1.00  0.00     0.251 C 
ATOM     32  H   UNL A   1      43.096  21.767  24.007  1.00  0.00     0.163 HD
ATOM     33  O   UNL A   1      44.866  23.171  23.548  1.00  0.00    -0.269 OA
BRANCH  31  34
ATOM     34  C   UNL A   1      44.368  24.810  25.167  1.00  0.00     0.039 A 
ATOM     35  C   UNL A   1      45.642  25.427  25.201  1.00  0.00     0.014 A 
ATOM     36  C   UNL A   1      43.388  25.616  25.736  1.00  0.00     0.014 A 
ATOM     37  C   UNL A   1      46.001  26.277  26.301  1.00  0.00     0.010 A 
ATOM     38  C   UNL A   1      43.723  26.477  26.821  1.00  0.00     0.010 A 
ATOM     39  C   UNL A   1      45.045  26.641  27.253  1.00  0.00    -0.014 A 
BRANCH  39  40
ATOM     40  C   UNL A   1      45.371  27.017  28.678  1.00  0.00     0.031 A 
ATOM     41  C   UNL A   1      45.041  26.161  29.814  1.00  0.00     0.074 A 
ATOM     42  C   UNL A   1      46.076  28.105  29.106  1.00  0.00     0.049 A 
ATOM     43  N   UNL A   1      44.340  26.554  30.829  1.00  0.00    -0.248 NA
ATOM     44  C   UNL A   1      45.632  24.839  29.952  1.00  0.00     0.031 C 
ATOM     45  C   UNL A   1      46.567  28.517  30.432  1.00  0.00     0.029 A 
ATOM     46  N   UNL A   1      46.594  29.123  28.333  1.00  0.00    -0.354 N 
ATOM     47  C   UNL A   1      44.652  25.681  31.848  1.00  0.00     0.074 A 
ATOM     48  C   UNL A   1      45.301  24.547  31.213  1.00  0.00     0.031 C 
ATOM     49  C   UNL A   1      46.942  29.816  30.396  1.00  0.00     0.029 A 
ATOM     50  C   UNL A   1      46.699  30.306  29.056  1.00  0.00     0.049 A 
ATOM     51  H   UNL A   1      46.856  29.024  27.389  1.00  0.00     0.167 HD
ATOM     52  C   UNL A   1      44.650  26.064  33.160  1.00  0.00     0.037 A 
ATOM     53  C   UNL A   1      46.000  31.400  28.626  1.00  0.00     0.037 A 
ATOM     54  C   UNL A   1      44.624  27.525  33.308  1.00  0.00     0.049 A 
ATOM     55  C   UNL A   1      44.857  31.680  29.546  1.00  0.00     0.074 A 
ATOM     56  C   UNL A   1      45.601  28.427  33.706  1.00  0.00     0.029 A 
ATOM     57  N   UNL A   1      43.607  28.293  32.747  1.00  0.00    -0.354 N 
ATOM     58  N   UNL A   1      44.573  30.907  30.550  1.00  0.00    -0.248 NA
ATOM     59  C   UNL A   1      43.942  32.804  29.442  1.00  0.00     0.031 C 
ATOM     60  C   UNL A   1      45.171  29.736  33.385  1.00  0.00     0.029 A 
ATOM     61  C   UNL A   1      43.928  29.641  32.786  1.00  0.00     0.049 A 
ATOM     62  H   UNL A   1      42.773  27.930  32.372  1.00  0.00     0.167 HD
ATOM     63  C   UNL A   1      43.479  31.364  31.216  1.00  0.00     0.074 A 
ATOM     64  C   UNL A   1      43.135  32.579  30.498  1.00  0.00     0.031 C 
ATOM     65  C   UNL A   1      43.007  30.665  32.293  1.00  0.00     0.037 A 
BRANCH  52  66
ATOM     66  C   UNL A   1      45.032  25.105  34.275  1.00  0.00     0.058 A 
ATOM     67  C   UNL A   1      44.083  24.481  35.109  1.00  0.00     0.135 A 
ATOM     68  C   UNL A   1      46.371  24.726  34.522  1.00  0.00     0.135 A 
ATOM     69  F   UNL A   1      42.766  24.635  34.927  1.00  0.00    -0.206 F 
ATOM     70  C   UNL A   1      44.436  23.642  36.169  1.00  0.00     0.059 A 
ATOM     71  C   UNL A   1      46.754  23.923  35.602  1.00  0.00     0.059 A 
ATOM     72  F   UNL A   1      47.360  25.107  33.697  1.00  0.00    -0.206 F 
ATOM     73  C   UNL A   1      45.775  23.385  36.424  1.00  0.00     0.060 A 
BRANCH  73  74
ATOM     74  S   UNL A   1      46.200  22.306  37.803  1.00  0.00     0.124 S 
ATOM     75  O   UNL A   1      45.400  22.863  38.890  1.00  0.00    -0.237 OA
ATOM     76  O   UNL A   1      45.777  21.001  37.309  1.00  0.00    -0.237 OA
ATOM     77  O   UNL A   1      47.643  22.484  37.943  1.00  0.00    -0.744 OA
ENDBRANCH  73  74
ENDBRANCH  52  66
BRANCH  53  78
ATOM     78  C   UNL A   1      46.029  31.608  27.118  1.00  0.00     0.058 A 
ATOM     79  C   UNL A   1      44.741  31.624  26.578  1.00  0.00     0.135 A 
ATOM     80  C   UNL A   1      46.836  32.633  26.636  1.00  0.00     0.135 A 
ATOM     81  F   UNL A   1      43.962  30.535  26.639  1.00  0.00    -0.206 F 
ATOM     82  C   UNL A   1      44.141  32.846  26.304  1.00  0.00     0.059 A 
ATOM     83  C   UNL A   1      46.248  33.824  26.193  1.00  0.00     0.059 A 
ATOM     84  F   UNL A   1      48.169  32.580  26.772  1.00  0.00    -0.206 F 
ATOM     85  C   UNL A   1      44.896  34.013  26.355  1.00  0.00     0.060 A 
BRANCH  85  86
ATOM     86  S   UNL A   1      43.974  35.554  26.932  1.00  0.00     0.124 S 
ATOM     87  O   UNL A   1      45.046  36.462  26.731  1.00  0.00    -0.237 OA
ATOM     88  O   UNL A   1      42.905  35.835  26.000  1.00  0.00    -0.237 OA
ATOM     89  O   UNL A   1      43.626  35.505  28.333  1.00  0.00    -0.744 OA
ENDBRANCH  85  86
ENDBRANCH  53  78
BRANCH  65  90
ATOM     90  C   UNL A   1      41.743  30.921  33.081  1.00  0.00     0.058 A 
ATOM     91  C   UNL A   1      40.664  30.030  33.187  1.00  0.00     0.135 A 
ATOM     92  C   UNL A   1      41.621  32.104  33.858  1.00  0.00     0.135 A 
ATOM     93  F   UNL A   1      40.683  28.823  32.610  1.00  0.00    -0.206 F 
ATOM     94  C   UNL A   1      39.525  30.322  33.940  1.00  0.00     0.059 A 
ATOM     95  C   UNL A   1      40.527  32.383  34.665  1.00  0.00     0.059 A 
ATOM     96  F   UNL A   1      42.571  33.051  33.874  1.00  0.00    -0.206 F 
ATOM     97  C   UNL A   1      39.465  31.500  34.675  1.00  0.00     0.060 A 
BRANCH  97  98
ATOM     98  S   UNL A   1      38.013  31.846  35.676  1.00  0.00     0.124 S 
ATOM     99  O   UNL A   1      36.967  31.904  34.661  1.00  0.00    -0.237 OA
ATOM    100  O   UNL A   1      37.965  30.692  36.568  1.00  0.00    -0.237 OA
ATOM    101  O   UNL A   1      38.336  33.114  36.323  1.00  0.00    -0.744 OA
ENDBRANCH  97  98
ENDBRANCH  65  90
ENDBRANCH  39  40
ENDBRANCH  31  34
ENDBRANCH  29  30
ENDBRANCH  28  29
ENDBRANCH  27  28
ENDBRANCH   1  27
TORSDOF 19
ENDMDL
