MODEL 1
REMARK VINA RESULT:     -13.2      0.000      0.000
REMARK SMILES O=C(NCCCCNC(=O)c1sccc1S(=O)(=O)Nc1ccc(-c2nc3ccccc3n2C(F)F)cc1)c1ccc(-c2c3nc(c(-c4c(F)cc(S(=O)(=O)[O-])cc4F)c4ccc([nH]4)c(-c4c(F)cc(S(=O)(=O)[O-])cc4F)c4nc(c(-c5c(F)cc(S(=O)(=O)[O-])cc5F)c5ccc2[nH]5)C=C4)C=C3)cc1
REMARK SMILES IDX 6 1 5 2 4 3 3 4 1 5 2 6 38 8 39 9 103 10 40 11 102 12 41 13
REMARK SMILES IDX 42 14 43 15 96 16 44 17 101 18 95 19 97 20 45 21 100 22
REMARK SMILES IDX 94 23 93 24 46 26 80 27 59 28 79 29 60 30 63 31 78 32 98 33
REMARK SMILES IDX 61 34 62 35 77 37 99 38 64 39 47 40 48 41 57 42 49 43 50 44
REMARK SMILES IDX 56 45 58 46 51 47 52 48 53 49 54 50 55 51 81 52 82 53 91 54
REMARK SMILES IDX 83 55 84 56 90 57 92 58 85 59 86 60 87 61 88 62 89 63 65 64
REMARK SMILES IDX 66 65 75 66 67 67 68 68 74 69 76 70 69 71 70 72 71 73 72 74
REMARK SMILES IDX 73 75 7 76 8 77 9 78 10 80 11 81 12 82 15 83 13 84 14 85
REMARK SMILES IDX 16 86 17 87 18 88 19 89 20 91 21 92 37 93 22 94 36 95 23 96
REMARK SMILES IDX 24 97 25 98 32 99 26 100 31 101 27 102 30 103 28 104 29 105
REMARK SMILES IDX 33 106 34 107 35 108
REMARK H PARENT 3 7 97 25 63 36 8 79 19 90
REMARK Flexibility Score: inf
ROOT
ATOM      1  C   UNL A   1      31.631  28.678  27.314  1.00  0.00     0.023 C 
ENDROOT
BRANCH   1   2
ATOM      2  C   UNL A   1      31.948  29.996  26.596  1.00  0.00     0.023 C 
BRANCH   2   3
ATOM      3  C   UNL A   1      33.359  30.543  26.808  1.00  0.00     0.116 C 
BRANCH   3   4
ATOM      4  N   UNL A   1      33.525  31.462  27.911  1.00  0.00    -0.352 N 
ATOM      5  O   UNL A   1      34.400  32.881  29.352  1.00  0.00    -0.269 OA
ATOM      6  C   UNL A   1      34.592  31.878  28.659  1.00  0.00     0.251 C 
ATOM      7  H   UNL A   1      32.679  31.883  28.187  1.00  0.00     0.163 HD
BRANCH   6   8
ATOM      8  C   UNL A   1      35.899  31.174  28.757  1.00  0.00     0.039 A 
ATOM      9  C   UNL A   1      36.110  29.807  28.590  1.00  0.00     0.014 A 
ATOM     10  C   UNL A   1      37.002  31.989  29.084  1.00  0.00     0.014 A 
ATOM     11  C   UNL A   1      37.368  29.257  28.840  1.00  0.00     0.010 A 
ATOM     12  C   UNL A   1      38.263  31.447  29.317  1.00  0.00     0.010 A 
ATOM     13  C   UNL A   1      38.439  30.072  29.228  1.00  0.00    -0.014 A 
BRANCH  13  14
ATOM     14  C   UNL A   1      39.767  29.468  29.336  1.00  0.00     0.031 A 
ATOM     15  C   UNL A   1      40.185  29.188  30.738  1.00  0.00     0.074 A 
ATOM     16  C   UNL A   1      40.537  29.056  28.306  1.00  0.00     0.049 A 
ATOM     17  N   UNL A   1      41.101  29.788  31.425  1.00  0.00    -0.248 NA
ATOM     18  C   UNL A   1      39.396  28.221  31.515  1.00  0.00     0.031 C 
ATOM     19  C   UNL A   1      40.180  28.959  26.890  1.00  0.00     0.029 A 
ATOM     20  N   UNL A   1      41.805  28.548  28.335  1.00  0.00    -0.354 N 
ATOM     21  C   UNL A   1      41.160  29.126  32.648  1.00  0.00     0.074 A 
ATOM     22  C   UNL A   1      39.984  28.297  32.711  1.00  0.00     0.031 C 
ATOM     23  C   UNL A   1      41.121  28.234  26.239  1.00  0.00     0.029 A 
ATOM     24  C   UNL A   1      42.213  27.934  27.154  1.00  0.00     0.049 A 
ATOM     25  H   UNL A   1      42.384  28.610  29.129  1.00  0.00     0.167 HD
ATOM     26  C   UNL A   1      42.283  29.152  33.418  1.00  0.00     0.037 A 
ATOM     27  C   UNL A   1      43.343  27.201  26.958  1.00  0.00     0.037 A 
ATOM     28  C   UNL A   1      43.181  30.198  32.998  1.00  0.00     0.049 A 
ATOM     29  C   UNL A   1      44.307  27.576  28.024  1.00  0.00     0.074 A 
ATOM     30  C   UNL A   1      43.086  31.572  32.871  1.00  0.00     0.029 A 
ATOM     31  N   UNL A   1      44.293  29.835  32.279  1.00  0.00    -0.354 N 
ATOM     32  N   UNL A   1      44.886  28.741  28.107  1.00  0.00    -0.248 NA
ATOM     33  C   UNL A   1      44.303  26.793  29.249  1.00  0.00     0.031 C 
ATOM     34  C   UNL A   1      43.827  31.882  31.692  1.00  0.00     0.029 A 
ATOM     35  C   UNL A   1      44.385  30.696  31.216  1.00  0.00     0.049 A 
ATOM     36  H   UNL A   1      44.908  29.094  32.486  1.00  0.00     0.167 HD
ATOM     37  C   UNL A   1      44.910  29.024  29.464  1.00  0.00     0.074 A 
ATOM     38  C   UNL A   1      44.624  27.751  30.122  1.00  0.00     0.031 C 
ATOM     39  C   UNL A   1      44.883  30.312  29.916  1.00  0.00     0.037 A 
BRANCH  26  40
ATOM     40  C   UNL A   1      42.746  28.018  34.307  1.00  0.00     0.058 A 
ATOM     41  C   UNL A   1      42.898  28.245  35.691  1.00  0.00     0.135 A 
ATOM     42  C   UNL A   1      43.322  26.824  33.820  1.00  0.00     0.135 A 
ATOM     43  F   UNL A   1      42.396  29.352  36.263  1.00  0.00    -0.206 F 
ATOM     44  C   UNL A   1      43.636  27.393  36.514  1.00  0.00     0.059 A 
ATOM     45  C   UNL A   1      44.014  25.933  34.633  1.00  0.00     0.059 A 
ATOM     46  F   UNL A   1      43.328  26.511  32.520  1.00  0.00    -0.206 F 
ATOM     47  C   UNL A   1      44.203  26.245  35.970  1.00  0.00     0.060 A 
BRANCH  47  48
ATOM     48  S   UNL A   1      45.235  25.195  37.005  1.00  0.00     0.124 S 
ATOM     49  O   UNL A   1      46.485  25.944  37.025  1.00  0.00    -0.237 OA
ATOM     50  O   UNL A   1      44.482  25.171  38.255  1.00  0.00    -0.237 OA
ATOM     51  O   UNL A   1      45.265  23.931  36.274  1.00  0.00    -0.744 OA
ENDBRANCH  47  48
ENDBRANCH  26  40
BRANCH  27  52
ATOM     52  C   UNL A   1      43.552  25.989  26.116  1.00  0.00     0.058 A 
ATOM     53  C   UNL A   1      44.712  25.831  25.333  1.00  0.00     0.135 A 
ATOM     54  C   UNL A   1      42.772  24.831  26.304  1.00  0.00     0.135 A 
ATOM     55  F   UNL A   1      45.526  26.874  25.113  1.00  0.00    -0.206 F 
ATOM     56  C   UNL A   1      45.109  24.588  24.822  1.00  0.00     0.059 A 
ATOM     57  C   UNL A   1      43.143  23.585  25.798  1.00  0.00     0.059 A 
ATOM     58  F   UNL A   1      41.673  24.856  27.073  1.00  0.00    -0.206 F 
ATOM     59  C   UNL A   1      44.329  23.464  25.082  1.00  0.00     0.060 A 
BRANCH  59  60
ATOM     60  S   UNL A   1      44.932  21.827  24.598  1.00  0.00     0.124 S 
ATOM     61  O   UNL A   1      44.126  20.947  25.437  1.00  0.00    -0.237 OA
ATOM     62  O   UNL A   1      44.634  21.795  23.170  1.00  0.00    -0.237 OA
ATOM     63  O   UNL A   1      46.353  21.878  24.933  1.00  0.00    -0.744 OA
ENDBRANCH  59  60
ENDBRANCH  27  52
BRANCH  39  64
ATOM     64  C   UNL A   1      45.192  31.422  28.948  1.00  0.00     0.058 A 
ATOM     65  C   UNL A   1      46.475  31.930  28.676  1.00  0.00     0.135 A 
ATOM     66  C   UNL A   1      44.133  31.911  28.165  1.00  0.00     0.135 A 
ATOM     67  F   UNL A   1      47.560  31.440  29.296  1.00  0.00    -0.206 F 
ATOM     68  C   UNL A   1      46.683  32.918  27.711  1.00  0.00     0.059 A 
ATOM     69  C   UNL A   1      44.323  32.866  27.174  1.00  0.00     0.059 A 
ATOM     70  F   UNL A   1      42.892  31.423  28.332  1.00  0.00    -0.206 F 
ATOM     71  C   UNL A   1      45.599  33.380  26.965  1.00  0.00     0.060 A 
BRANCH  71  72
ATOM     72  S   UNL A   1      45.875  34.615  25.677  1.00  0.00     0.124 S 
ATOM     73  O   UNL A   1      45.527  35.856  26.362  1.00  0.00    -0.237 OA
ATOM     74  O   UNL A   1      47.291  34.436  25.365  1.00  0.00    -0.237 OA
ATOM     75  O   UNL A   1      44.958  34.211  24.614  1.00  0.00    -0.744 OA
ENDBRANCH  71  72
ENDBRANCH  39  64
ENDBRANCH  13  14
ENDBRANCH   6   8
ENDBRANCH   3   4
ENDBRANCH   2   3
ENDBRANCH   1   2
BRANCH   1  76
ATOM     76  C   UNL A   1      32.423  27.467  26.828  1.00  0.00     0.116 C 
BRANCH  76  77
ATOM     77  N   UNL A   1      31.589  26.290  26.724  1.00  0.00    -0.351 N 
ATOM     78  C   UNL A   1      30.827  25.843  25.678  1.00  0.00     0.262 C 
ATOM     79  H   UNL A   1      31.563  25.724  27.529  1.00  0.00     0.163 HD
ATOM     80  O   UNL A   1      30.050  24.919  25.923  1.00  0.00    -0.268 OA
BRANCH  78  81
ATOM     81  C   UNL A   1      30.898  26.490  24.387  1.00  0.00     0.112 A 
ATOM     82  S   UNL A   1      29.508  27.450  23.995  1.00  0.00    -0.137 S 
ATOM     83  C   UNL A   1      31.800  26.480  23.334  1.00  0.00     0.111 A 
ATOM     84  C   UNL A   1      30.163  27.951  22.511  1.00  0.00     0.067 A 
ATOM     85  C   UNL A   1      31.387  27.376  22.281  1.00  0.00     0.035 A 
BRANCH  83  86
ATOM     86  S   UNL A   1      33.271  25.582  23.113  1.00  0.00     0.263 S 
ATOM     87  O   UNL A   1      33.559  25.781  21.702  1.00  0.00    -0.201 OA
ATOM     88  O   UNL A   1      34.140  26.146  24.119  1.00  0.00    -0.201 OA
BRANCH  86  89
ATOM     89  N   UNL A   1      33.269  23.950  23.401  1.00  0.00    -0.280 N 
ATOM     90  H   UNL A   1      32.413  23.478  23.285  1.00  0.00     0.180 HD
BRANCH  89  91
ATOM     91  C   UNL A   1      34.377  23.175  23.799  1.00  0.00     0.049 A 
ATOM     92  C   UNL A   1      35.481  23.177  22.943  1.00  0.00     0.027 A 
ATOM     93  C   UNL A   1      34.460  22.526  25.018  1.00  0.00     0.027 A 
ATOM     94  C   UNL A   1      36.731  22.733  23.386  1.00  0.00     0.014 A 
ATOM     95  C   UNL A   1      35.708  22.072  25.451  1.00  0.00     0.014 A 
ATOM     96  C   UNL A   1      36.879  22.243  24.680  1.00  0.00     0.018 A 
BRANCH  96  97
ATOM     97  C   UNL A   1      38.162  21.931  25.335  1.00  0.00     0.145 A 
ATOM     98  N   UNL A   1      38.732  20.745  25.186  1.00  0.00    -0.228 NA
ATOM     99  N   UNL A   1      38.883  22.674  26.260  1.00  0.00    -0.266 N 
ATOM    100  C   UNL A   1      39.735  20.667  26.103  1.00  0.00     0.089 A 
ATOM    101  C   UNL A   1      39.856  21.854  26.811  1.00  0.00     0.074 A 
ATOM    102  C   UNL A   1      40.577  19.586  26.388  1.00  0.00     0.030 A 
ATOM    103  C   UNL A   1      40.807  22.016  27.830  1.00  0.00     0.029 A 
ATOM    104  C   UNL A   1      41.534  19.728  27.395  1.00  0.00     0.002 A 
ATOM    105  C   UNL A   1      41.642  20.924  28.104  1.00  0.00     0.002 A 
BRANCH  99 106
ATOM    106  C   UNL A   1      38.706  24.066  26.613  1.00  0.00     0.451 C 
ATOM    107  F   UNL A   1      37.485  24.515  26.207  1.00  0.00    -0.185 F 
ATOM    108  F   UNL A   1      38.776  24.276  27.954  1.00  0.00    -0.185 F 
ENDBRANCH  99 106
ENDBRANCH  96  97
ENDBRANCH  89  91
ENDBRANCH  86  89
ENDBRANCH  83  86
ENDBRANCH  78  81
ENDBRANCH  76  77
ENDBRANCH   1  76
TORSDOF 19
ENDMDL
MODEL 2
REMARK VINA RESULT:     -12.5      1.879      5.242
REMARK SMILES O=C(NCCCCNC(=O)c1sccc1S(=O)(=O)Nc1ccc(-c2nc3ccccc3n2C(F)F)cc1)c1ccc(-c2c3nc(c(-c4c(F)cc(S(=O)(=O)[O-])cc4F)c4ccc([nH]4)c(-c4c(F)cc(S(=O)(=O)[O-])cc4F)c4nc(c(-c5c(F)cc(S(=O)(=O)[O-])cc5F)c5ccc2[nH]5)C=C4)C=C3)cc1
REMARK SMILES IDX 6 1 5 2 4 3 3 4 1 5 2 6 38 8 39 9 103 10 40 11 102 12 41 13
REMARK SMILES IDX 42 14 43 15 96 16 44 17 101 18 95 19 97 20 45 21 100 22
REMARK SMILES IDX 94 23 93 24 46 26 80 27 59 28 79 29 60 30 63 31 78 32 98 33
REMARK SMILES IDX 61 34 62 35 77 37 99 38 64 39 47 40 48 41 57 42 49 43 50 44
REMARK SMILES IDX 56 45 58 46 51 47 52 48 53 49 54 50 55 51 81 52 82 53 91 54
REMARK SMILES IDX 83 55 84 56 90 57 92 58 85 59 86 60 87 61 88 62 89 63 65 64
REMARK SMILES IDX 66 65 75 66 67 67 68 68 74 69 76 70 69 71 70 72 71 73 72 74
REMARK SMILES IDX 73 75 7 76 8 77 9 78 10 80 11 81 12 82 15 83 13 84 14 85
REMARK SMILES IDX 16 86 17 87 18 88 19 89 20 91 21 92 37 93 22 94 36 95 23 96
REMARK SMILES IDX 24 97 25 98 32 99 26 100 31 101 27 102 30 103 28 104 29 105
REMARK SMILES IDX 33 106 34 107 35 108
REMARK H PARENT 3 7 97 25 63 36 8 79 19 90
REMARK Flexibility Score: inf
ROOT
ATOM      1  C   UNL A   1      33.010  27.202  26.135  1.00  0.00     0.023 C 
ENDROOT
BRANCH   1   2
ATOM      2  C   UNL A   1      33.499  28.274  27.118  1.00  0.00     0.023 C 
BRANCH   2   3
ATOM      3  C   UNL A   1      33.595  29.693  26.558  1.00  0.00     0.116 C 
BRANCH   3   4
ATOM      4  N   UNL A   1      33.569  30.762  27.530  1.00  0.00    -0.352 N 
ATOM      5  O   UNL A   1      34.156  32.469  28.793  1.00  0.00    -0.269 OA
ATOM      6  C   UNL A   1      34.525  31.424  28.251  1.00  0.00     0.251 C 
ATOM      7  H   UNL A   1      32.659  31.086  27.717  1.00  0.00     0.163 HD
BRANCH   6   8
ATOM      8  C   UNL A   1      35.911  30.939  28.489  1.00  0.00     0.039 A 
ATOM      9  C   UNL A   1      36.945  31.666  29.077  1.00  0.00     0.014 A 
ATOM     10  C   UNL A   1      36.182  29.632  28.037  1.00  0.00     0.014 A 
ATOM     11  C   UNL A   1      38.236  31.137  29.121  1.00  0.00     0.010 A 
ATOM     12  C   UNL A   1      37.464  29.093  28.095  1.00  0.00     0.010 A 
ATOM     13  C   UNL A   1      38.501  29.861  28.607  1.00  0.00    -0.014 A 
BRANCH  13  14
ATOM     14  C   UNL A   1      39.836  29.296  28.808  1.00  0.00     0.031 A 
ATOM     15  C   UNL A   1      40.162  29.025  30.237  1.00  0.00     0.074 A 
ATOM     16  C   UNL A   1      40.688  28.909  27.835  1.00  0.00     0.049 A 
ATOM     17  N   UNL A   1      41.009  29.650  30.987  1.00  0.00    -0.248 NA
ATOM     18  C   UNL A   1      39.349  28.034  30.956  1.00  0.00     0.031 C 
ATOM     19  C   UNL A   1      40.436  28.805  26.398  1.00  0.00     0.029 A 
ATOM     20  N   UNL A   1      41.966  28.439  27.954  1.00  0.00    -0.354 N 
ATOM     21  C   UNL A   1      41.000  28.987  32.211  1.00  0.00     0.074 A 
ATOM     22  C   UNL A   1      39.848  28.123  32.190  1.00  0.00     0.031 C 
ATOM     23  C   UNL A   1      41.442  28.110  25.815  1.00  0.00     0.029 A 
ATOM     24  C   UNL A   1      42.475  27.840  26.805  1.00  0.00     0.049 A 
ATOM     25  H   UNL A   1      42.485  28.516  28.787  1.00  0.00     0.167 HD
ATOM     26  C   UNL A   1      42.065  29.044  33.058  1.00  0.00     0.037 A 
ATOM     27  C   UNL A   1      43.636  27.141  26.689  1.00  0.00     0.037 A 
ATOM     28  C   UNL A   1      42.959  30.117  32.703  1.00  0.00     0.049 A 
ATOM     29  C   UNL A   1      44.512  27.542  27.820  1.00  0.00     0.074 A 
ATOM     30  C   UNL A   1      42.833  31.488  32.570  1.00  0.00     0.029 A 
ATOM     31  N   UNL A   1      44.129  29.789  32.064  1.00  0.00    -0.354 N 
ATOM     32  N   UNL A   1      45.049  28.723  27.945  1.00  0.00    -0.248 NA
ATOM     33  C   UNL A   1      44.444  26.756  29.041  1.00  0.00     0.031 C 
ATOM     34  C   UNL A   1      43.646  31.822  31.447  1.00  0.00     0.029 A 
ATOM     35  C   UNL A   1      44.270  30.655  31.011  1.00  0.00     0.049 A 
ATOM     36  H   UNL A   1      44.750  29.066  32.315  1.00  0.00     0.167 HD
ATOM     37  C   UNL A   1      44.967  29.003  29.300  1.00  0.00     0.074 A 
ATOM     38  C   UNL A   1      44.674  27.721  29.936  1.00  0.00     0.031 C 
ATOM     39  C   UNL A   1      44.871  30.289  29.750  1.00  0.00     0.037 A 
BRANCH  26  40
ATOM     40  C   UNL A   1      42.498  27.922  33.977  1.00  0.00     0.058 A 
ATOM     41  C   UNL A   1      42.438  28.113  35.374  1.00  0.00     0.135 A 
ATOM     42  C   UNL A   1      43.235  26.796  33.549  1.00  0.00     0.135 A 
ATOM     43  F   UNL A   1      41.769  29.155  35.896  1.00  0.00    -0.206 F 
ATOM     44  C   UNL A   1      43.127  27.296  36.272  1.00  0.00     0.059 A 
ATOM     45  C   UNL A   1      43.883  25.938  34.430  1.00  0.00     0.059 A 
ATOM     46  F   UNL A   1      43.446  26.530  32.255  1.00  0.00    -0.206 F 
ATOM     47  C   UNL A   1      43.859  26.219  35.787  1.00  0.00     0.060 A 
BRANCH  47  48
ATOM     48  S   UNL A   1      44.826  25.221  36.932  1.00  0.00     0.124 S 
ATOM     49  O   UNL A   1      46.182  25.665  36.630  1.00  0.00    -0.237 OA
ATOM     50  O   UNL A   1      44.287  25.637  38.223  1.00  0.00    -0.237 OA
ATOM     51  O   UNL A   1      44.504  23.852  36.537  1.00  0.00    -0.744 OA
ENDBRANCH  47  48
ENDBRANCH  26  40
BRANCH  27  52
ATOM     52  C   UNL A   1      43.940  25.939  25.863  1.00  0.00     0.058 A 
ATOM     53  C   UNL A   1      45.251  25.658  25.429  1.00  0.00     0.135 A 
ATOM     54  C   UNL A   1      43.014  24.883  25.749  1.00  0.00     0.135 A 
ATOM     55  F   UNL A   1      46.206  26.596  25.514  1.00  0.00    -0.206 F 
ATOM     56  C   UNL A   1      45.635  24.391  24.971  1.00  0.00     0.059 A 
ATOM     57  C   UNL A   1      43.371  23.615  25.289  1.00  0.00     0.059 A 
ATOM     58  F   UNL A   1      41.751  25.024  26.179  1.00  0.00    -0.206 F 
ATOM     59  C   UNL A   1      44.691  23.367  24.929  1.00  0.00     0.060 A 
BRANCH  59  60
ATOM     60  S   UNL A   1      45.219  21.682  24.530  1.00  0.00     0.124 S 
ATOM     61  O   UNL A   1      46.670  21.829  24.458  1.00  0.00    -0.237 OA
ATOM     62  O   UNL A   1      44.712  20.920  25.666  1.00  0.00    -0.237 OA
ATOM     63  O   UNL A   1      44.556  21.412  23.256  1.00  0.00    -0.744 OA
ENDBRANCH  59  60
ENDBRANCH  27  52
BRANCH  39  64
ATOM     64  C   UNL A   1      45.215  31.410  28.806  1.00  0.00     0.058 A 
ATOM     65  C   UNL A   1      46.496  31.966  28.637  1.00  0.00     0.135 A 
ATOM     66  C   UNL A   1      44.204  31.859  27.940  1.00  0.00     0.135 A 
ATOM     67  F   UNL A   1      47.545  31.517  29.343  1.00  0.00    -0.206 F 
ATOM     68  C   UNL A   1      46.743  32.961  27.689  1.00  0.00     0.059 A 
ATOM     69  C   UNL A   1      44.437  32.821  26.965  1.00  0.00     0.059 A 
ATOM     70  F   UNL A   1      42.972  31.325  28.008  1.00  0.00    -0.206 F 
ATOM     71  C   UNL A   1      45.706  33.382  26.857  1.00  0.00     0.060 A 
BRANCH  71  72
ATOM     72  S   UNL A   1      46.037  34.628  25.591  1.00  0.00     0.124 S 
ATOM     73  O   UNL A   1      47.453  34.411  25.311  1.00  0.00    -0.237 OA
ATOM     74  O   UNL A   1      45.111  34.250  24.526  1.00  0.00    -0.237 OA
ATOM     75  O   UNL A   1      45.719  35.887  26.260  1.00  0.00    -0.744 OA
ENDBRANCH  71  72
ENDBRANCH  39  64
ENDBRANCH  13  14
ENDBRANCH   6   8
ENDBRANCH   3   4
ENDBRANCH   2   3
ENDBRANCH   1   2
BRANCH   1  76
ATOM     76  C   UNL A   1      34.045  26.145  25.760  1.00  0.00     0.116 C 
BRANCH  76  77
ATOM     77  N   UNL A   1      33.826  25.632  24.425  1.00  0.00    -0.351 N 
ATOM     78  C   UNL A   1      34.326  24.509  23.823  1.00  0.00     0.262 C 
ATOM     79  H   UNL A   1      33.227  26.174  23.863  1.00  0.00     0.163 HD
ATOM     80  O   UNL A   1      34.144  24.413  22.608  1.00  0.00    -0.268 OA
BRANCH  78  81
ATOM     81  C   UNL A   1      35.088  23.544  24.583  1.00  0.00     0.112 A 
ATOM     82  S   UNL A   1      36.762  23.452  24.141  1.00  0.00    -0.137 S 
ATOM     83  C   UNL A   1      34.786  22.607  25.560  1.00  0.00     0.111 A 
ATOM     84  C   UNL A   1      37.102  22.284  25.326  1.00  0.00     0.067 A 
ATOM     85  C   UNL A   1      35.973  21.928  26.019  1.00  0.00     0.035 A 
BRANCH  83  86
ATOM     86  S   UNL A   1      33.262  22.155  26.261  1.00  0.00     0.263 S 
ATOM     87  O   UNL A   1      33.531  20.825  26.782  1.00  0.00    -0.201 OA
ATOM     88  O   UNL A   1      32.994  23.249  27.165  1.00  0.00    -0.201 OA
BRANCH  86  89
ATOM     89  N   UNL A   1      31.926  22.054  25.287  1.00  0.00    -0.280 N 
ATOM     90  H   UNL A   1      31.660  21.155  24.987  1.00  0.00     0.180 HD
BRANCH  89  91
ATOM     91  C   UNL A   1      31.136  23.134  24.845  1.00  0.00     0.049 A 
ATOM     92  C   UNL A   1      30.641  23.991  25.831  1.00  0.00     0.027 A 
ATOM     93  C   UNL A   1      30.932  23.440  23.511  1.00  0.00     0.027 A 
ATOM     94  C   UNL A   1      30.145  25.255  25.498  1.00  0.00     0.014 A 
ATOM     95  C   UNL A   1      30.423  24.698  23.183  1.00  0.00     0.014 A 
ATOM     96  C   UNL A   1      30.100  25.659  24.167  1.00  0.00     0.018 A 
BRANCH  96  97
ATOM     97  C   UNL A   1      29.791  27.020  23.696  1.00  0.00     0.145 A 
ATOM     98  N   UNL A   1      28.562  27.509  23.782  1.00  0.00    -0.228 NA
ATOM     99  N   UNL A   1      30.593  27.918  23.003  1.00  0.00    -0.266 N 
ATOM    100  C   UNL A   1      28.534  28.648  23.039  1.00  0.00     0.089 A 
ATOM    101  C   UNL A   1      29.788  28.935  22.518  1.00  0.00     0.074 A 
ATOM    102  C   UNL A   1      27.444  29.482  22.759  1.00  0.00     0.030 A 
ATOM    103  C   UNL A   1      30.011  30.051  21.697  1.00  0.00     0.029 A 
ATOM    104  C   UNL A   1      27.647  30.600  21.948  1.00  0.00     0.002 A 
ATOM    105  C   UNL A   1      28.911  30.875  21.425  1.00  0.00     0.002 A 
BRANCH  99 106
ATOM    106  C   UNL A   1      32.026  27.859  22.807  1.00  0.00     0.451 C 
ATOM    107  F   UNL A   1      32.335  27.070  21.741  1.00  0.00    -0.185 F 
ATOM    108  F   UNL A   1      32.568  29.081  22.564  1.00  0.00    -0.185 F 
ENDBRANCH  99 106
ENDBRANCH  96  97
ENDBRANCH  89  91
ENDBRANCH  86  89
ENDBRANCH  83  86
ENDBRANCH  78  81
ENDBRANCH  76  77
ENDBRANCH   1  76
TORSDOF 19
ENDMDL
MODEL 3
REMARK VINA RESULT:     -12.5      2.004      3.076
REMARK SMILES O=C(NCCCCNC(=O)c1sccc1S(=O)(=O)Nc1ccc(-c2nc3ccccc3n2C(F)F)cc1)c1ccc(-c2c3nc(c(-c4c(F)cc(S(=O)(=O)[O-])cc4F)c4ccc([nH]4)c(-c4c(F)cc(S(=O)(=O)[O-])cc4F)c4nc(c(-c5c(F)cc(S(=O)(=O)[O-])cc5F)c5ccc2[nH]5)C=C4)C=C3)cc1
REMARK SMILES IDX 6 1 5 2 4 3 3 4 1 5 2 6 38 8 39 9 103 10 40 11 102 12 41 13
REMARK SMILES IDX 42 14 43 15 96 16 44 17 101 18 95 19 97 20 45 21 100 22
REMARK SMILES IDX 94 23 93 24 46 26 80 27 59 28 79 29 60 30 63 31 78 32 98 33
REMARK SMILES IDX 61 34 62 35 77 37 99 38 64 39 47 40 48 41 57 42 49 43 50 44
REMARK SMILES IDX 56 45 58 46 51 47 52 48 53 49 54 50 55 51 81 52 82 53 91 54
REMARK SMILES IDX 83 55 84 56 90 57 92 58 85 59 86 60 87 61 88 62 89 63 65 64
REMARK SMILES IDX 66 65 75 66 67 67 68 68 74 69 76 70 69 71 70 72 71 73 72 74
REMARK SMILES IDX 73 75 7 76 8 77 9 78 10 80 11 81 12 82 15 83 13 84 14 85
REMARK SMILES IDX 16 86 17 87 18 88 19 89 20 91 21 92 37 93 22 94 36 95 23 96
REMARK SMILES IDX 24 97 25 98 32 99 26 100 31 101 27 102 30 103 28 104 29 105
REMARK SMILES IDX 33 106 34 107 35 108
REMARK H PARENT 3 7 97 25 63 36 8 79 19 90
REMARK Flexibility Score: inf
ROOT
ATOM      1  C   UNL A   1      32.303  29.997  26.913  1.00  0.00     0.023 C 
ENDROOT
BRANCH   1   2
ATOM      2  C   UNL A   1      33.775  30.327  27.194  1.00  0.00     0.023 C 
BRANCH   2   3
ATOM      3  C   UNL A   1      34.064  31.769  27.611  1.00  0.00     0.116 C 
BRANCH   3   4
ATOM      4  N   UNL A   1      34.036  32.037  29.030  1.00  0.00    -0.352 N 
ATOM      5  O   UNL A   1      34.646  32.541  31.087  1.00  0.00    -0.269 OA
ATOM      6  C   UNL A   1      34.965  31.982  30.034  1.00  0.00     0.251 C 
ATOM      7  H   UNL A   1      33.149  32.323  29.348  1.00  0.00     0.163 HD
BRANCH   6   8
ATOM      8  C   UNL A   1      36.255  31.243  29.972  1.00  0.00     0.039 A 
ATOM      9  C   UNL A   1      36.407  29.858  29.963  1.00  0.00     0.014 A 
ATOM     10  C   UNL A   1      37.412  32.047  29.956  1.00  0.00     0.014 A 
ATOM     11  C   UNL A   1      37.682  29.294  30.036  1.00  0.00     0.010 A 
ATOM     12  C   UNL A   1      38.686  31.488  30.011  1.00  0.00     0.010 A 
ATOM     13  C   UNL A   1      38.820  30.108  30.086  1.00  0.00    -0.014 A 
BRANCH  13  14
ATOM     14  C   UNL A   1      40.134  29.468  30.015  1.00  0.00     0.031 A 
ATOM     15  C   UNL A   1      40.767  29.253  31.346  1.00  0.00     0.074 A 
ATOM     16  C   UNL A   1      40.717  28.975  28.901  1.00  0.00     0.049 A 
ATOM     17  N   UNL A   1      41.796  29.859  31.840  1.00  0.00    -0.248 NA
ATOM     18  C   UNL A   1      40.092  28.356  32.296  1.00  0.00     0.031 C 
ATOM     19  C   UNL A   1      40.134  28.812  27.570  1.00  0.00     0.029 A 
ATOM     20  N   UNL A   1      41.961  28.428  28.757  1.00  0.00    -0.354 N 
ATOM     21  C   UNL A   1      42.037  29.264  33.076  1.00  0.00     0.074 A 
ATOM     22  C   UNL A   1      40.868  28.477  33.375  1.00  0.00     0.031 C 
ATOM     23  C   UNL A   1      40.940  28.022  26.821  1.00  0.00     0.029 A 
ATOM     24  C   UNL A   1      42.159  27.738  27.564  1.00  0.00     0.049 A 
ATOM     25  H   UNL A   1      42.662  28.515  29.442  1.00  0.00     0.167 HD
ATOM     26  C   UNL A   1      43.270  29.295  33.652  1.00  0.00     0.037 A 
ATOM     27  C   UNL A   1      43.224  26.959  27.234  1.00  0.00     0.037 A 
ATOM     28  C   UNL A   1      44.112  30.287  33.032  1.00  0.00     0.049 A 
ATOM     29  C   UNL A   1      44.357  27.360  28.107  1.00  0.00     0.074 A 
ATOM     30  C   UNL A   1      44.030  31.654  32.840  1.00  0.00     0.029 A 
ATOM     31  N   UNL A   1      45.084  29.849  32.167  1.00  0.00    -0.354 N 
ATOM     32  N   UNL A   1      44.969  28.509  28.027  1.00  0.00    -0.248 NA
ATOM     33  C   UNL A   1      44.533  26.647  29.361  1.00  0.00     0.031 C 
ATOM     34  C   UNL A   1      44.577  31.875  31.542  1.00  0.00     0.029 A 
ATOM     35  C   UNL A   1      45.022  30.647  31.054  1.00  0.00     0.049 A 
ATOM     36  H   UNL A   1      45.707  29.102  32.317  1.00  0.00     0.167 HD
ATOM     37  C   UNL A   1      45.218  28.865  29.343  1.00  0.00     0.074 A 
ATOM     38  C   UNL A   1      45.014  27.640  30.113  1.00  0.00     0.031 C 
ATOM     39  C   UNL A   1      45.295  30.176  29.716  1.00  0.00     0.037 A 
BRANCH  26  40
ATOM     40  C   UNL A   1      43.845  28.198  34.521  1.00  0.00     0.058 A 
ATOM     41  C   UNL A   1      44.448  28.537  35.751  1.00  0.00     0.135 A 
ATOM     42  C   UNL A   1      44.089  26.883  34.067  1.00  0.00     0.135 A 
ATOM     43  F   UNL A   1      44.289  29.762  36.278  1.00  0.00    -0.206 F 
ATOM     44  C   UNL A   1      45.295  27.664  36.436  1.00  0.00     0.059 A 
ATOM     45  C   UNL A   1      44.885  25.979  34.761  1.00  0.00     0.059 A 
ATOM     46  F   UNL A   1      43.650  26.444  32.882  1.00  0.00    -0.206 F 
ATOM     47  C   UNL A   1      45.518  26.391  35.923  1.00  0.00     0.060 A 
BRANCH  47  48
ATOM     48  S   UNL A   1      46.685  25.298  36.751  1.00  0.00     0.124 S 
ATOM     49  O   UNL A   1      46.872  25.983  38.025  1.00  0.00    -0.237 OA
ATOM     50  O   UNL A   1      45.940  24.044  36.801  1.00  0.00    -0.237 OA
ATOM     51  O   UNL A   1      47.838  25.300  35.855  1.00  0.00    -0.744 OA
ENDBRANCH  47  48
ENDBRANCH  26  40
BRANCH  27  52
ATOM     52  C   UNL A   1      43.266  25.697  26.443  1.00  0.00     0.058 A 
ATOM     53  C   UNL A   1      44.183  25.522  25.387  1.00  0.00     0.135 A 
ATOM     54  C   UNL A   1      42.627  24.529  26.904  1.00  0.00     0.135 A 
ATOM     55  F   UNL A   1      44.852  26.574  24.892  1.00  0.00    -0.206 F 
ATOM     56  C   UNL A   1      44.495  24.260  24.865  1.00  0.00     0.059 A 
ATOM     57  C   UNL A   1      42.916  23.262  26.395  1.00  0.00     0.059 A 
ATOM     58  F   UNL A   1      41.773  24.572  27.938  1.00  0.00    -0.206 F 
ATOM     59  C   UNL A   1      43.873  23.130  25.395  1.00  0.00     0.060 A 
BRANCH  59  60
ATOM     60  S   UNL A   1      44.413  21.485  24.868  1.00  0.00     0.124 S 
ATOM     61  O   UNL A   1      43.270  20.658  25.241  1.00  0.00    -0.237 OA
ATOM     62  O   UNL A   1      44.625  21.671  23.436  1.00  0.00    -0.237 OA
ATOM     63  O   UNL A   1      45.626  21.261  25.650  1.00  0.00    -0.744 OA
ENDBRANCH  59  60
ENDBRANCH  27  52
BRANCH  39  64
ATOM     64  C   UNL A   1      45.468  31.221  28.646  1.00  0.00     0.058 A 
ATOM     65  C   UNL A   1      44.430  31.776  27.877  1.00  0.00     0.135 A 
ATOM     66  C   UNL A   1      46.750  31.771  28.481  1.00  0.00     0.135 A 
ATOM     67  F   UNL A   1      43.156  31.390  28.050  1.00  0.00    -0.206 F 
ATOM     68  C   UNL A   1      44.668  32.792  26.949  1.00  0.00     0.059 A 
ATOM     69  C   UNL A   1      47.003  32.807  27.590  1.00  0.00     0.059 A 
ATOM     70  F   UNL A   1      47.775  31.327  29.229  1.00  0.00    -0.206 F 
ATOM     71  C   UNL A   1      45.960  33.301  26.813  1.00  0.00     0.060 A 
BRANCH  71  72
ATOM     72  S   UNL A   1      46.260  34.654  25.655  1.00  0.00     0.124 S 
ATOM     73  O   UNL A   1      47.674  34.480  25.340  1.00  0.00    -0.237 OA
ATOM     74  O   UNL A   1      45.326  34.356  24.572  1.00  0.00    -0.237 OA
ATOM     75  O   UNL A   1      45.935  35.847  26.432  1.00  0.00    -0.744 OA
ENDBRANCH  71  72
ENDBRANCH  39  64
ENDBRANCH  13  14
ENDBRANCH   6   8
ENDBRANCH   3   4
ENDBRANCH   2   3
ENDBRANCH   1   2
BRANCH   1  76
ATOM     76  C   UNL A   1      31.876  28.578  27.274  1.00  0.00     0.116 C 
BRANCH  76  77
ATOM     77  N   UNL A   1      32.873  27.604  26.885  1.00  0.00    -0.351 N 
ATOM     78  C   UNL A   1      33.137  27.060  25.657  1.00  0.00     0.262 C 
ATOM     79  H   UNL A   1      33.450  27.283  27.615  1.00  0.00     0.163 HD
ATOM     80  O   UNL A   1      33.906  26.098  25.638  1.00  0.00    -0.268 OA
BRANCH  78  81
ATOM     81  C   UNL A   1      32.473  27.559  24.473  1.00  0.00     0.112 A 
ATOM     82  S   UNL A   1      33.356  28.790  23.629  1.00  0.00    -0.137 S 
ATOM     83  C   UNL A   1      31.246  27.334  23.869  1.00  0.00     0.111 A 
ATOM     84  C   UNL A   1      32.185  28.916  22.406  1.00  0.00     0.067 A 
ATOM     85  C   UNL A   1      31.120  28.084  22.642  1.00  0.00     0.035 A 
BRANCH  83  86
ATOM     86  S   UNL A   1      29.910  26.338  24.359  1.00  0.00     0.263 S 
ATOM     87  O   UNL A   1      30.023  26.338  25.808  1.00  0.00    -0.201 OA
ATOM     88  O   UNL A   1      28.786  26.978  23.716  1.00  0.00    -0.201 OA
BRANCH  86  89
ATOM     89  N   UNL A   1      29.858  24.759  23.859  1.00  0.00    -0.280 N 
ATOM     90  H   UNL A   1      29.019  24.448  23.449  1.00  0.00     0.180 HD
BRANCH  89  91
ATOM     91  C   UNL A   1      30.902  23.818  23.967  1.00  0.00     0.049 A 
ATOM     92  C   UNL A   1      31.068  23.210  25.214  1.00  0.00     0.027 A 
ATOM     93  C   UNL A   1      31.669  23.397  22.897  1.00  0.00     0.027 A 
ATOM     94  C   UNL A   1      31.828  22.044  25.347  1.00  0.00     0.014 A 
ATOM     95  C   UNL A   1      32.437  22.239  23.037  1.00  0.00     0.014 A 
ATOM     96  C   UNL A   1      32.464  21.496  24.237  1.00  0.00     0.018 A 
BRANCH  96  97
ATOM     97  C   UNL A   1      33.125  20.179  24.193  1.00  0.00     0.145 A 
ATOM     98  N   UNL A   1      32.460  19.095  23.822  1.00  0.00    -0.228 NA
ATOM     99  N   UNL A   1      34.392  19.813  24.628  1.00  0.00    -0.266 N 
ATOM    100  C   UNL A   1      33.238  18.023  24.136  1.00  0.00     0.089 A 
ATOM    101  C   UNL A   1      34.457  18.429  24.660  1.00  0.00     0.074 A 
ATOM    102  C   UNL A   1      32.943  16.661  24.007  1.00  0.00     0.030 A 
ATOM    103  C   UNL A   1      35.426  17.506  25.081  1.00  0.00     0.029 A 
ATOM    104  C   UNL A   1      33.896  15.727  24.416  1.00  0.00     0.002 A 
ATOM    105  C   UNL A   1      35.116  16.146  24.947  1.00  0.00     0.002 A 
BRANCH  99 106
ATOM    106  C   UNL A   1      35.494  20.682  24.981  1.00  0.00     0.451 C 
ATOM    107  F   UNL A   1      35.582  21.727  24.112  1.00  0.00    -0.185 F 
ATOM    108  F   UNL A   1      35.359  21.214  26.224  1.00  0.00    -0.185 F 
ENDBRANCH  99 106
ENDBRANCH  96  97
ENDBRANCH  89  91
ENDBRANCH  86  89
ENDBRANCH  83  86
ENDBRANCH  78  81
ENDBRANCH  76  77
ENDBRANCH   1  76
TORSDOF 19
ENDMDL
