MODEL 1
REMARK VINA RESULT:     -12.2      0.000      0.000
REMARK SMILES COc1c[nH]c(C[N@H+]2CCC[C@@H](c3ccc(C(=O)NCCCCNC(=O)c4ccc(-c5c6nc(c(-c7c(F)cc(S(=O)(=O)[O-])cc7F)c7ccc([nH]7)c(-c7c(F)cc(S(=O)(=O)[O-])cc7F)c7nc(c(-c8c(F)cc(S(=O)(=O)[O-])cc8F)c8ccc5[nH]8)C=C7)C=C6)cc4)cc3)C2)cc1=O
REMARK SMILES IDX 21 1 20 2 19 3 17 4 18 5 16 7 13 8 14 9 94 10 15 11 93 12
REMARK SMILES IDX 12 13 8 14 9 15 95 16 10 18 11 19 7 20 6 21 3 22 4 23 97 24
REMARK SMILES IDX 5 25 96 26 98 27 2 29 1 30 22 31 23 32 24 33 25 34 26 36
REMARK SMILES IDX 27 37 28 38 92 39 29 40 91 41 30 42 31 43 32 44 85 45 33 46
REMARK SMILES IDX 90 47 84 48 86 49 34 50 89 51 83 52 82 53 35 55 69 56 48 57
REMARK SMILES IDX 68 58 49 59 52 60 67 61 87 62 50 63 51 64 66 66 88 67 53 68
REMARK SMILES IDX 36 69 37 70 46 71 38 72 39 73 45 74 47 75 40 76 41 77 42 78
REMARK SMILES IDX 43 79 44 80 70 81 71 82 80 83 72 84 73 85 79 86 81 87 74 88
REMARK SMILES IDX 75 89 76 90 77 91 78 92 54 93 55 94 64 95 56 96 57 97 63 98
REMARK SMILES IDX 65 99 58 100 59 101 60 102 61 103 62 104
REMARK H PARENT 19 6 8 17 5 28 24 35 86 54 52 65
REMARK Flexibility Score: inf
ROOT
ATOM      1  C   UNL A   1      33.164  29.405  24.609  1.00  0.00     0.023 C 
ENDROOT
BRANCH   1   2
ATOM      2  C   UNL A   1      33.179  29.234  23.089  1.00  0.00     0.116 C 
BRANCH   2   3
ATOM      3  N   UNL A   1      31.830  29.181  22.568  1.00  0.00    -0.352 N 
ATOM      4  C   UNL A   1      30.869  28.206  22.631  1.00  0.00     0.251 C 
ATOM      5  O   UNL A   1      29.773  28.448  22.123  1.00  0.00    -0.269 OA
ATOM      6  H   UNL A   1      31.554  29.990  22.079  1.00  0.00     0.163 HD
BRANCH   4   7
ATOM      7  C   UNL A   1      31.066  26.906  23.334  1.00  0.00     0.039 A 
ATOM      8  C   UNL A   1      31.425  24.553  24.869  1.00  0.00    -0.039 A 
ATOM      9  C   UNL A   1      30.720  25.651  25.385  1.00  0.00     0.005 A 
ATOM     10  C   UNL A   1      31.874  24.619  23.548  1.00  0.00     0.005 A 
ATOM     11  C   UNL A   1      30.558  26.817  24.635  1.00  0.00     0.014 A 
ATOM     12  C   UNL A   1      31.675  25.775  22.785  1.00  0.00     0.014 A 
BRANCH   8  13
ATOM     13  C   UNL A   1      31.714  23.315  25.704  1.00  0.00     0.074 C 
ATOM     14  N   UNL A   1      33.123  21.205  25.747  1.00  0.00    -0.329 N 
ATOM     15  C   UNL A   1      33.671  21.606  27.050  1.00  0.00     0.262 C 
ATOM     16  C   UNL A   1      32.688  22.372  24.968  1.00  0.00     0.270 C 
ATOM     17  H   UNL A   1      32.295  20.637  25.926  1.00  0.00     0.348 HD
ATOM     18  C   UNL A   1      32.672  22.443  27.852  1.00  0.00     0.062 C 
ATOM     19  C   UNL A   1      32.261  23.696  27.084  1.00  0.00     0.020 C 
BRANCH  14  20
ATOM     20  C   UNL A   1      34.066  20.348  24.989  1.00  0.00     0.317 C 
BRANCH  20  21
ATOM     21  C   UNL A   1      33.788  18.845  25.016  1.00  0.00     0.074 A 
ATOM     22  C   UNL A   1      32.831  16.154  25.094  1.00  0.00     0.182 A 
ATOM     23  C   UNL A   1      32.554  17.051  26.049  1.00  0.00     0.133 A 
ATOM     24  C   UNL A   1      33.779  16.607  24.013  1.00  0.00     0.223 A 
ATOM     25  N   UNL A   1      33.065  18.321  26.073  1.00  0.00    -0.357 N 
ATOM     26  C   UNL A   1      34.199  18.039  24.019  1.00  0.00     0.083 A 
ATOM     27  O   UNL A   1      34.186  15.865  23.123  1.00  0.00    -0.286 OA
ATOM     28  H   UNL A   1      32.913  18.880  26.869  1.00  0.00     0.166 HD
BRANCH  22  29
ATOM     29  O   UNL A   1      32.192  14.931  25.073  1.00  0.00    -0.491 OA
ATOM     30  C   UNL A   1      32.882  13.927  25.805  1.00  0.00     0.278 C 
ENDBRANCH  22  29
ENDBRANCH  20  21
ENDBRANCH  14  20
ENDBRANCH   8  13
ENDBRANCH   4   7
ENDBRANCH   2   3
ENDBRANCH   1   2
BRANCH   1  31
ATOM     31  C   UNL A   1      33.728  28.214  25.386  1.00  0.00     0.023 C 
BRANCH  31  32
ATOM     32  C   UNL A   1      33.712  28.372  26.900  1.00  0.00     0.116 C 
BRANCH  32  33
ATOM     33  N   UNL A   1      33.555  29.752  27.332  1.00  0.00    -0.352 N 
ATOM     34  C   UNL A   1      34.471  30.552  27.979  1.00  0.00     0.251 C 
ATOM     35  H   UNL A   1      32.684  30.166  27.138  1.00  0.00     0.163 HD
ATOM     36  O   UNL A   1      34.155  31.662  28.370  1.00  0.00    -0.269 OA
BRANCH  34  37
ATOM     37  C   UNL A   1      35.826  30.017  28.228  1.00  0.00     0.039 A 
ATOM     38  C   UNL A   1      36.777  30.102  27.210  1.00  0.00     0.014 A 
ATOM     39  C   UNL A   1      36.164  29.489  29.477  1.00  0.00     0.014 A 
ATOM     40  C   UNL A   1      38.093  29.715  27.468  1.00  0.00     0.010 A 
ATOM     41  C   UNL A   1      37.488  29.165  29.751  1.00  0.00     0.010 A 
ATOM     42  C   UNL A   1      38.464  29.279  28.750  1.00  0.00    -0.014 A 
BRANCH  42  43
ATOM     43  C   UNL A   1      39.873  28.941  29.067  1.00  0.00     0.031 A 
ATOM     44  C   UNL A   1      40.770  29.973  29.690  1.00  0.00     0.074 A 
ATOM     45  C   UNL A   1      40.358  27.732  28.727  1.00  0.00     0.049 A 
ATOM     46  N   UNL A   1      42.044  29.892  29.978  1.00  0.00    -0.248 NA
ATOM     47  C   UNL A   1      40.163  31.275  30.008  1.00  0.00     0.031 C 
ATOM     48  C   UNL A   1      39.598  26.669  28.064  1.00  0.00     0.029 A 
ATOM     49  N   UNL A   1      41.612  27.195  28.879  1.00  0.00    -0.354 N 
ATOM     50  C   UNL A   1      42.394  31.134  30.493  1.00  0.00     0.074 A 
ATOM     51  C   UNL A   1      41.211  31.965  30.436  1.00  0.00     0.031 C 
ATOM     52  C   UNL A   1      40.394  25.603  27.886  1.00  0.00     0.029 A 
ATOM     53  C   UNL A   1      41.728  25.915  28.391  1.00  0.00     0.049 A 
ATOM     54  H   UNL A   1      42.358  27.680  29.299  1.00  0.00     0.167 HD
ATOM     55  C   UNL A   1      43.586  31.537  30.991  1.00  0.00     0.037 A 
ATOM     56  C   UNL A   1      42.790  25.089  28.350  1.00  0.00     0.037 A 
ATOM     57  C   UNL A   1      44.749  30.694  31.076  1.00  0.00     0.049 A 
ATOM     58  C   UNL A   1      44.100  25.553  28.926  1.00  0.00     0.074 A 
ATOM     59  C   UNL A   1      45.985  30.985  31.627  1.00  0.00     0.029 A 
ATOM     60  N   UNL A   1      44.820  29.395  30.597  1.00  0.00    -0.354 N 
ATOM     61  N   UNL A   1      44.396  26.708  29.472  1.00  0.00    -0.248 NA
ATOM     62  C   UNL A   1      45.220  24.602  28.883  1.00  0.00     0.031 C 
ATOM     63  C   UNL A   1      46.813  29.872  31.452  1.00  0.00     0.029 A 
ATOM     64  C   UNL A   1      46.083  28.875  30.824  1.00  0.00     0.049 A 
ATOM     65  H   UNL A   1      44.081  28.913  30.159  1.00  0.00     0.167 HD
ATOM     66  C   UNL A   1      45.728  26.616  29.856  1.00  0.00     0.074 A 
ATOM     67  C   UNL A   1      46.178  25.289  29.491  1.00  0.00     0.031 C 
ATOM     68  C   UNL A   1      46.510  27.548  30.456  1.00  0.00     0.037 A 
BRANCH  55  69
ATOM     69  C   UNL A   1      43.685  32.951  31.493  1.00  0.00     0.058 A 
ATOM     70  C   UNL A   1      43.245  33.305  32.778  1.00  0.00     0.135 A 
ATOM     71  C   UNL A   1      44.245  33.958  30.690  1.00  0.00     0.135 A 
ATOM     72  F   UNL A   1      42.686  32.383  33.579  1.00  0.00    -0.206 F 
ATOM     73  C   UNL A   1      43.326  34.614  33.239  1.00  0.00     0.059 A 
ATOM     74  C   UNL A   1      44.360  35.269  31.141  1.00  0.00     0.059 A 
ATOM     75  F   UNL A   1      44.679  33.672  29.453  1.00  0.00    -0.206 F 
ATOM     76  C   UNL A   1      43.882  35.590  32.411  1.00  0.00     0.060 A 
BRANCH  76  77
ATOM     77  S   UNL A   1      43.979  37.287  33.021  1.00  0.00     0.124 S 
ATOM     78  O   UNL A   1      43.732  38.048  31.801  1.00  0.00    -0.237 OA
ATOM     79  O   UNL A   1      42.912  37.324  34.018  1.00  0.00    -0.237 OA
ATOM     80  O   UNL A   1      45.334  37.378  33.556  1.00  0.00    -0.744 OA
ENDBRANCH  76  77
ENDBRANCH  55  69
BRANCH  56  81
ATOM     81  C   UNL A   1      42.651  23.729  27.768  1.00  0.00     0.058 A 
ATOM     82  C   UNL A   1      42.482  22.608  28.594  1.00  0.00     0.135 A 
ATOM     83  C   UNL A   1      42.668  23.524  26.380  1.00  0.00     0.135 A 
ATOM     84  F   UNL A   1      42.464  22.755  29.928  1.00  0.00    -0.206 F 
ATOM     85  C   UNL A   1      42.347  21.328  28.067  1.00  0.00     0.059 A 
ATOM     86  C   UNL A   1      42.513  22.256  25.828  1.00  0.00     0.059 A 
ATOM     87  F   UNL A   1      42.809  24.567  25.548  1.00  0.00    -0.206 F 
ATOM     88  C   UNL A   1      42.363  21.163  26.680  1.00  0.00     0.060 A 
BRANCH  88  89
ATOM     89  S   UNL A   1      42.134  19.504  26.002  1.00  0.00     0.124 S 
ATOM     90  O   UNL A   1      42.606  18.671  27.103  1.00  0.00    -0.237 OA
ATOM     91  O   UNL A   1      40.697  19.471  25.746  1.00  0.00    -0.237 OA
ATOM     92  O   UNL A   1      42.975  19.513  24.808  1.00  0.00    -0.744 OA
ENDBRANCH  88  89
ENDBRANCH  56  81
BRANCH  68  93
ATOM     93  C   UNL A   1      47.925  27.159  30.774  1.00  0.00     0.058 A 
ATOM     94  C   UNL A   1      48.251  26.489  31.963  1.00  0.00     0.135 A 
ATOM     95  C   UNL A   1      48.955  27.406  29.853  1.00  0.00     0.135 A 
ATOM     96  F   UNL A   1      47.301  26.236  32.878  1.00  0.00    -0.206 F 
ATOM     97  C   UNL A   1      49.555  26.091  32.237  1.00  0.00     0.059 A 
ATOM     98  C   UNL A   1      50.263  26.998  30.096  1.00  0.00     0.059 A 
ATOM     99  F   UNL A   1      48.693  28.036  28.698  1.00  0.00    -0.206 F 
ATOM    100  C   UNL A   1      50.554  26.349  31.296  1.00  0.00     0.060 A 
BRANCH 100 101
ATOM    101  S   UNL A   1      52.236  25.791  31.643  1.00  0.00     0.124 S 
ATOM    102  O   UNL A   1      52.869  25.939  30.336  1.00  0.00    -0.237 OA
ATOM    103  O   UNL A   1      52.673  26.730  32.670  1.00  0.00    -0.237 OA
ATOM    104  O   UNL A   1      52.049  24.417  32.098  1.00  0.00    -0.744 OA
ENDBRANCH 100 101
ENDBRANCH  68  93
ENDBRANCH  42  43
ENDBRANCH  34  37
ENDBRANCH  32  33
ENDBRANCH  31  32
ENDBRANCH   1  31
TORSDOF 18
ENDMDL
MODEL 2
REMARK VINA RESULT:     -12.2      4.837     10.589
REMARK SMILES COc1c[nH]c(C[N@H+]2CCC[C@@H](c3ccc(C(=O)NCCCCNC(=O)c4ccc(-c5c6nc(c(-c7c(F)cc(S(=O)(=O)[O-])cc7F)c7ccc([nH]7)c(-c7c(F)cc(S(=O)(=O)[O-])cc7F)c7nc(c(-c8c(F)cc(S(=O)(=O)[O-])cc8F)c8ccc5[nH]8)C=C7)C=C6)cc4)cc3)C2)cc1=O
REMARK SMILES IDX 21 1 20 2 19 3 17 4 18 5 16 7 13 8 14 9 94 10 15 11 93 12
REMARK SMILES IDX 12 13 8 14 9 15 95 16 10 18 11 19 7 20 6 21 3 22 4 23 97 24
REMARK SMILES IDX 5 25 96 26 98 27 2 29 1 30 22 31 23 32 24 33 25 34 26 36
REMARK SMILES IDX 27 37 28 38 92 39 29 40 91 41 30 42 31 43 32 44 85 45 33 46
REMARK SMILES IDX 90 47 84 48 86 49 34 50 89 51 83 52 82 53 35 55 69 56 48 57
REMARK SMILES IDX 68 58 49 59 52 60 67 61 87 62 50 63 51 64 66 66 88 67 53 68
REMARK SMILES IDX 36 69 37 70 46 71 38 72 39 73 45 74 47 75 40 76 41 77 42 78
REMARK SMILES IDX 43 79 44 80 70 81 71 82 80 83 72 84 73 85 79 86 81 87 74 88
REMARK SMILES IDX 75 89 76 90 77 91 78 92 54 93 55 94 64 95 56 96 57 97 63 98
REMARK SMILES IDX 65 99 58 100 59 101 60 102 61 103 62 104
REMARK H PARENT 19 6 8 17 5 28 24 35 86 54 52 65
REMARK Flexibility Score: inf
ROOT
ATOM      1  C   UNL A   1      44.136  22.075  25.364  1.00  0.00     0.023 C 
ENDROOT
BRANCH   1   2
ATOM      2  C   UNL A   1      43.393  20.769  25.079  1.00  0.00     0.116 C 
BRANCH   2   3
ATOM      3  N   UNL A   1      43.051  20.096  26.315  1.00  0.00    -0.352 N 
ATOM      4  C   UNL A   1      41.853  19.931  26.958  1.00  0.00     0.251 C 
ATOM      5  O   UNL A   1      41.846  19.267  27.996  1.00  0.00    -0.269 OA
ATOM      6  H   UNL A   1      43.818  19.684  26.776  1.00  0.00     0.163 HD
BRANCH   4   7
ATOM      7  C   UNL A   1      40.562  20.458  26.432  1.00  0.00     0.039 A 
ATOM      8  C   UNL A   1      38.116  21.295  25.272  1.00  0.00    -0.039 A 
ATOM      9  C   UNL A   1      38.546  19.963  25.169  1.00  0.00     0.005 A 
ATOM     10  C   UNL A   1      38.884  22.179  26.032  1.00  0.00     0.005 A 
ATOM     11  C   UNL A   1      39.759  19.556  25.726  1.00  0.00     0.014 A 
ATOM     12  C   UNL A   1      40.081  21.757  26.623  1.00  0.00     0.014 A 
BRANCH   8  13
ATOM     13  C   UNL A   1      36.856  21.792  24.579  1.00  0.00     0.074 C 
ATOM     14  N   UNL A   1      34.338  21.486  24.530  1.00  0.00    -0.329 N 
ATOM     15  C   UNL A   1      34.166  22.922  24.790  1.00  0.00     0.262 C 
ATOM     16  C   UNL A   1      35.621  20.998  25.053  1.00  0.00     0.270 C 
ATOM     17  H   UNL A   1      34.357  21.360  23.518  1.00  0.00     0.348 HD
ATOM     18  C   UNL A   1      35.324  23.744  24.221  1.00  0.00     0.062 C 
ATOM     19  C   UNL A   1      36.659  23.294  24.805  1.00  0.00     0.020 C 
BRANCH  14  20
ATOM     20  C   UNL A   1      33.192  20.690  25.031  1.00  0.00     0.317 C 
BRANCH  20  21
ATOM     21  C   UNL A   1      33.348  19.170  24.982  1.00  0.00     0.074 A 
ATOM     22  C   UNL A   1      33.208  16.317  25.026  1.00  0.00     0.182 A 
ATOM     23  C   UNL A   1      32.939  17.074  26.097  1.00  0.00     0.133 A 
ATOM     24  C   UNL A   1      33.704  17.049  23.805  1.00  0.00     0.223 A 
ATOM     25  N   UNL A   1      33.075  18.436  26.122  1.00  0.00    -0.357 N 
ATOM     26  C   UNL A   1      33.708  18.540  23.848  1.00  0.00     0.083 A 
ATOM     27  O   UNL A   1      34.069  16.476  22.781  1.00  0.00    -0.286 OA
ATOM     28  H   UNL A   1      32.974  18.909  26.980  1.00  0.00     0.166 HD
BRANCH  22  29
ATOM     29  O   UNL A   1      32.940  14.963  25.037  1.00  0.00    -0.491 OA
ATOM     30  C   UNL A   1      31.849  14.616  25.881  1.00  0.00     0.278 C 
ENDBRANCH  22  29
ENDBRANCH  20  21
ENDBRANCH  14  20
ENDBRANCH   8  13
ENDBRANCH   4   7
ENDBRANCH   2   3
ENDBRANCH   1   2
BRANCH   1  31
ATOM     31  C   UNL A   1      44.214  22.449  26.845  1.00  0.00     0.023 C 
BRANCH  31  32
ATOM     32  C   UNL A   1      43.451  23.710  27.228  1.00  0.00     0.116 C 
BRANCH  32  33
ATOM     33  N   UNL A   1      42.730  24.305  26.114  1.00  0.00    -0.352 N 
ATOM     34  C   UNL A   1      41.935  25.429  26.116  1.00  0.00     0.251 C 
ATOM     35  H   UNL A   1      42.821  23.845  25.248  1.00  0.00     0.163 HD
ATOM     36  O   UNL A   1      41.310  25.747  25.118  1.00  0.00    -0.269 OA
BRANCH  34  37
ATOM     37  C   UNL A   1      41.820  26.212  27.364  1.00  0.00     0.039 A 
ATOM     38  C   UNL A   1      42.679  27.295  27.556  1.00  0.00     0.014 A 
ATOM     39  C   UNL A   1      40.834  25.908  28.306  1.00  0.00     0.014 A 
ATOM     40  C   UNL A   1      42.504  28.119  28.669  1.00  0.00     0.010 A 
ATOM     41  C   UNL A   1      40.620  26.766  29.380  1.00  0.00     0.010 A 
ATOM     42  C   UNL A   1      41.452  27.881  29.568  1.00  0.00    -0.014 A 
BRANCH  42  43
ATOM     43  C   UNL A   1      41.199  28.791  30.711  1.00  0.00     0.031 A 
ATOM     44  C   UNL A   1      42.011  28.661  31.968  1.00  0.00     0.074 A 
ATOM     45  C   UNL A   1      40.191  29.682  30.639  1.00  0.00     0.049 A 
ATOM     46  N   UNL A   1      41.895  29.314  33.096  1.00  0.00    -0.248 NA
ATOM     47  C   UNL A   1      43.076  27.646  31.968  1.00  0.00     0.031 C 
ATOM     48  C   UNL A   1      39.297  29.860  29.492  1.00  0.00     0.029 A 
ATOM     49  N   UNL A   1      39.740  30.599  31.555  1.00  0.00    -0.354 N 
ATOM     50  C   UNL A   1      42.858  28.779  33.942  1.00  0.00     0.074 A 
ATOM     51  C   UNL A   1      43.518  27.716  33.215  1.00  0.00     0.031 C 
ATOM     52  C   UNL A   1      38.419  30.838  29.766  1.00  0.00     0.029 A 
ATOM     53  C   UNL A   1      38.665  31.336  31.116  1.00  0.00     0.049 A 
ATOM     54  H   UNL A   1      40.147  30.718  32.443  1.00  0.00     0.167 HD
ATOM     55  C   UNL A   1      43.179  29.156  35.203  1.00  0.00     0.037 A 
ATOM     56  C   UNL A   1      37.957  32.299  31.734  1.00  0.00     0.037 A 
ATOM     57  C   UNL A   1      42.541  30.236  35.907  1.00  0.00     0.049 A 
ATOM     58  C   UNL A   1      38.343  32.713  33.127  1.00  0.00     0.074 A 
ATOM     59  C   UNL A   1      42.839  30.741  37.160  1.00  0.00     0.029 A 
ATOM     60  N   UNL A   1      41.476  30.977  35.418  1.00  0.00    -0.354 N 
ATOM     61  N   UNL A   1      39.302  32.242  33.889  1.00  0.00    -0.248 NA
ATOM     62  C   UNL A   1      37.556  33.789  33.744  1.00  0.00     0.031 C 
ATOM     63  C   UNL A   1      41.933  31.769  37.443  1.00  0.00     0.029 A 
ATOM     64  C   UNL A   1      41.092  31.926  36.351  1.00  0.00     0.049 A 
ATOM     65  H   UNL A   1      41.053  30.848  34.538  1.00  0.00     0.167 HD
ATOM     66  C   UNL A   1      39.247  32.978  35.067  1.00  0.00     0.074 A 
ATOM     67  C   UNL A   1      38.168  33.933  34.913  1.00  0.00     0.031 C 
ATOM     68  C   UNL A   1      40.018  32.871  36.177  1.00  0.00     0.037 A 
BRANCH  55  69
ATOM     69  C   UNL A   1      44.278  28.398  35.893  1.00  0.00     0.058 A 
ATOM     70  C   UNL A   1      45.625  28.773  35.757  1.00  0.00     0.135 A 
ATOM     71  C   UNL A   1      43.983  27.299  36.715  1.00  0.00     0.135 A 
ATOM     72  F   UNL A   1      45.962  29.806  34.968  1.00  0.00    -0.206 F 
ATOM     73  C   UNL A   1      46.643  28.066  36.387  1.00  0.00     0.059 A 
ATOM     74  C   UNL A   1      44.984  26.593  37.375  1.00  0.00     0.059 A 
ATOM     75  F   UNL A   1      42.713  26.898  36.877  1.00  0.00    -0.206 F 
ATOM     76  C   UNL A   1      46.313  26.975  37.192  1.00  0.00     0.060 A 
BRANCH  76  77
ATOM     77  S   UNL A   1      47.646  26.065  38.000  1.00  0.00     0.124 S 
ATOM     78  O   UNL A   1      48.497  25.727  36.864  1.00  0.00    -0.237 OA
ATOM     79  O   UNL A   1      48.188  27.055  38.925  1.00  0.00    -0.237 OA
ATOM     80  O   UNL A   1      46.957  24.940  38.626  1.00  0.00    -0.744 OA
ENDBRANCH  76  77
ENDBRANCH  55  69
BRANCH  56  81
ATOM     81  C   UNL A   1      36.827  32.958  31.028  1.00  0.00     0.058 A 
ATOM     82  C   UNL A   1      37.063  33.924  30.039  1.00  0.00     0.135 A 
ATOM     83  C   UNL A   1      35.495  32.626  31.314  1.00  0.00     0.135 A 
ATOM     84  F   UNL A   1      38.322  34.278  29.736  1.00  0.00    -0.206 F 
ATOM     85  C   UNL A   1      36.019  34.549  29.366  1.00  0.00     0.059 A 
ATOM     86  C   UNL A   1      34.433  33.220  30.639  1.00  0.00     0.059 A 
ATOM     87  F   UNL A   1      35.217  31.694  32.239  1.00  0.00    -0.206 F 
ATOM     88  C   UNL A   1      34.705  34.189  29.673  1.00  0.00     0.060 A 
BRANCH  88  89
ATOM     89  S   UNL A   1      33.356  34.966  28.757  1.00  0.00     0.124 S 
ATOM     90  O   UNL A   1      32.998  33.913  27.814  1.00  0.00    -0.237 OA
ATOM     91  O   UNL A   1      32.383  35.238  29.812  1.00  0.00    -0.237 OA
ATOM     92  O   UNL A   1      33.986  36.149  28.178  1.00  0.00    -0.744 OA
ENDBRANCH  88  89
ENDBRANCH  56  81
BRANCH  68  93
ATOM     93  C   UNL A   1      39.738  33.823  37.304  1.00  0.00     0.058 A 
ATOM     94  C   UNL A   1      38.942  33.449  38.398  1.00  0.00     0.135 A 
ATOM     95  C   UNL A   1      40.318  35.101  37.318  1.00  0.00     0.135 A 
ATOM     96  F   UNL A   1      38.359  32.240  38.427  1.00  0.00    -0.206 F 
ATOM     97  C   UNL A   1      38.718  34.316  39.462  1.00  0.00     0.059 A 
ATOM     98  C   UNL A   1      40.126  35.977  38.382  1.00  0.00     0.059 A 
ATOM     99  F   UNL A   1      41.094  35.503  36.299  1.00  0.00    -0.206 F 
ATOM    100  C   UNL A   1      39.316  35.578  39.445  1.00  0.00     0.060 A 
BRANCH 100 101
ATOM    101  S   UNL A   1      39.053  36.680  40.850  1.00  0.00     0.124 S 
ATOM    102  O   UNL A   1      38.547  37.880  40.192  1.00  0.00    -0.237 OA
ATOM    103  O   UNL A   1      38.084  35.941  41.653  1.00  0.00    -0.237 OA
ATOM    104  O   UNL A   1      40.383  36.801  41.439  1.00  0.00    -0.744 OA
ENDBRANCH 100 101
ENDBRANCH  68  93
ENDBRANCH  42  43
ENDBRANCH  34  37
ENDBRANCH  32  33
ENDBRANCH  31  32
ENDBRANCH   1  31
TORSDOF 18
ENDMDL
MODEL 3
REMARK VINA RESULT:     -11.9      2.665      3.302
REMARK SMILES COc1c[nH]c(C[N@H+]2CCC[C@@H](c3ccc(C(=O)NCCCCNC(=O)c4ccc(-c5c6nc(c(-c7c(F)cc(S(=O)(=O)[O-])cc7F)c7ccc([nH]7)c(-c7c(F)cc(S(=O)(=O)[O-])cc7F)c7nc(c(-c8c(F)cc(S(=O)(=O)[O-])cc8F)c8ccc5[nH]8)C=C7)C=C6)cc4)cc3)C2)cc1=O
REMARK SMILES IDX 21 1 20 2 19 3 17 4 18 5 16 7 13 8 14 9 94 10 15 11 93 12
REMARK SMILES IDX 12 13 8 14 9 15 95 16 10 18 11 19 7 20 6 21 3 22 4 23 97 24
REMARK SMILES IDX 5 25 96 26 98 27 2 29 1 30 22 31 23 32 24 33 25 34 26 36
REMARK SMILES IDX 27 37 28 38 92 39 29 40 91 41 30 42 31 43 32 44 85 45 33 46
REMARK SMILES IDX 90 47 84 48 86 49 34 50 89 51 83 52 82 53 35 55 69 56 48 57
REMARK SMILES IDX 68 58 49 59 52 60 67 61 87 62 50 63 51 64 66 66 88 67 53 68
REMARK SMILES IDX 36 69 37 70 46 71 38 72 39 73 45 74 47 75 40 76 41 77 42 78
REMARK SMILES IDX 43 79 44 80 70 81 71 82 80 83 72 84 73 85 79 86 81 87 74 88
REMARK SMILES IDX 75 89 76 90 77 91 78 92 54 93 55 94 64 95 56 96 57 97 63 98
REMARK SMILES IDX 65 99 58 100 59 101 60 102 61 103 62 104
REMARK H PARENT 19 6 8 17 5 28 24 35 86 54 52 65
REMARK Flexibility Score: inf
ROOT
ATOM      1  C   UNL A   1      33.263  30.579  27.303  1.00  0.00     0.023 C 
ENDROOT
BRANCH   1   2
ATOM      2  C   UNL A   1      33.521  30.074  25.882  1.00  0.00     0.116 C 
BRANCH   2   3
ATOM      3  N   UNL A   1      32.292  30.050  25.117  1.00  0.00    -0.352 N 
ATOM      4  C   UNL A   1      31.490  29.013  24.719  1.00  0.00     0.251 C 
ATOM      5  O   UNL A   1      30.462  29.289  24.099  1.00  0.00    -0.269 OA
ATOM      6  H   UNL A   1      31.977  30.938  24.831  1.00  0.00     0.163 HD
BRANCH   4   7
ATOM      7  C   UNL A   1      31.768  27.587  25.054  1.00  0.00     0.039 A 
ATOM      8  C   UNL A   1      32.220  24.923  25.904  1.00  0.00    -0.039 A 
ATOM      9  C   UNL A   1      31.238  25.719  26.514  1.00  0.00     0.005 A 
ATOM     10  C   UNL A   1      32.912  25.451  24.812  1.00  0.00     0.005 A 
ATOM     11  C   UNL A   1      31.028  27.037  26.106  1.00  0.00     0.014 A 
ATOM     12  C   UNL A   1      32.671  26.760  24.380  1.00  0.00     0.014 A 
BRANCH   8  13
ATOM     13  C   UNL A   1      32.549  23.523  26.402  1.00  0.00     0.074 C 
ATOM     14  N   UNL A   1      32.551  21.088  25.690  1.00  0.00    -0.329 N 
ATOM     15  C   UNL A   1      33.982  21.002  26.013  1.00  0.00     0.262 C 
ATOM     16  C   UNL A   1      32.160  22.463  25.351  1.00  0.00     0.270 C 
ATOM     17  H   UNL A   1      32.033  20.826  26.529  1.00  0.00     0.348 HD
ATOM     18  C   UNL A   1      34.366  21.962  27.141  1.00  0.00     0.062 C 
ATOM     19  C   UNL A   1      34.030  23.405  26.776  1.00  0.00     0.020 C 
BRANCH  14  20
ATOM     20  C   UNL A   1      32.161  20.121  24.636  1.00  0.00     0.317 C 
BRANCH  20  21
ATOM     21  C   UNL A   1      32.768  18.722  24.740  1.00  0.00     0.074 A 
ATOM     22  C   UNL A   1      33.486  15.976  25.062  1.00  0.00     0.182 A 
ATOM     23  C   UNL A   1      32.947  16.706  26.047  1.00  0.00     0.133 A 
ATOM     24  C   UNL A   1      33.803  16.714  23.787  1.00  0.00     0.223 A 
ATOM     25  N   UNL A   1      32.668  18.041  25.941  1.00  0.00    -0.357 N 
ATOM     26  C   UNL A   1      33.357  18.134  23.682  1.00  0.00     0.083 A 
ATOM     27  O   UNL A   1      34.375  16.192  22.833  1.00  0.00    -0.286 OA
ATOM     28  H   UNL A   1      32.386  18.534  26.745  1.00  0.00     0.166 HD
BRANCH  22  29
ATOM     29  O   UNL A   1      33.636  14.610  25.201  1.00  0.00    -0.491 OA
ATOM     30  C   UNL A   1      32.534  13.990  25.850  1.00  0.00     0.278 C 
ENDBRANCH  22  29
ENDBRANCH  20  21
ENDBRANCH  14  20
ENDBRANCH   8  13
ENDBRANCH   4   7
ENDBRANCH   2   3
ENDBRANCH   1   2
BRANCH   1  31
ATOM     31  C   UNL A   1      34.294  31.587  27.814  1.00  0.00     0.023 C 
BRANCH  31  32
ATOM     32  C   UNL A   1      35.496  30.972  28.519  1.00  0.00     0.116 C 
BRANCH  32  33
ATOM     33  N   UNL A   1      35.451  31.123  29.965  1.00  0.00    -0.352 N 
ATOM     34  C   UNL A   1      36.397  30.744  30.891  1.00  0.00     0.251 C 
ATOM     35  H   UNL A   1      34.642  31.551  30.327  1.00  0.00     0.163 HD
ATOM     36  O   UNL A   1      36.170  30.845  32.084  1.00  0.00    -0.269 OA
BRANCH  34  37
ATOM     37  C   UNL A   1      37.671  30.169  30.407  1.00  0.00     0.039 A 
ATOM     38  C   UNL A   1      37.997  30.306  29.057  1.00  0.00     0.014 A 
ATOM     39  C   UNL A   1      38.554  29.551  31.296  1.00  0.00     0.014 A 
ATOM     40  C   UNL A   1      39.247  29.879  28.608  1.00  0.00     0.010 A 
ATOM     41  C   UNL A   1      39.823  29.185  30.860  1.00  0.00     0.010 A 
ATOM     42  C   UNL A   1      40.182  29.350  29.513  1.00  0.00    -0.014 A 
BRANCH  42  43
ATOM     43  C   UNL A   1      41.544  28.966  29.072  1.00  0.00     0.031 A 
ATOM     44  C   UNL A   1      42.634  29.999  29.016  1.00  0.00     0.074 A 
ATOM     45  C   UNL A   1      41.777  27.706  28.656  1.00  0.00     0.049 A 
ATOM     46  N   UNL A   1      43.866  29.876  28.594  1.00  0.00    -0.248 NA
ATOM     47  C   UNL A   1      42.286  31.356  29.468  1.00  0.00     0.031 C 
ATOM     48  C   UNL A   1      40.782  26.632  28.610  1.00  0.00     0.029 A 
ATOM     49  N   UNL A   1      42.921  27.118  28.178  1.00  0.00    -0.354 N 
ATOM     50  C   UNL A   1      44.434  31.138  28.713  1.00  0.00     0.074 A 
ATOM     51  C   UNL A   1      43.399  32.023  29.203  1.00  0.00     0.031 C 
ATOM     52  C   UNL A   1      41.364  25.512  28.150  1.00  0.00     0.029 A 
ATOM     53  C   UNL A   1      42.762  25.795  27.839  1.00  0.00     0.049 A 
ATOM     54  H   UNL A   1      43.776  27.598  28.087  1.00  0.00     0.167 HD
ATOM     55  C   UNL A   1      45.709  31.519  28.462  1.00  0.00     0.037 A 
ATOM     56  C   UNL A   1      43.643  24.913  27.331  1.00  0.00     0.037 A 
ATOM     57  C   UNL A   1      46.741  30.625  28.007  1.00  0.00     0.049 A 
ATOM     58  C   UNL A   1      45.057  25.354  27.075  1.00  0.00     0.074 A 
ATOM     59  C   UNL A   1      48.079  30.897  27.789  1.00  0.00     0.029 A 
ATOM     60  N   UNL A   1      46.548  29.286  27.702  1.00  0.00    -0.354 N 
ATOM     61  N   UNL A   1      45.596  26.536  27.259  1.00  0.00    -0.248 NA
ATOM     62  C   UNL A   1      45.985  24.344  26.548  1.00  0.00     0.031 C 
ATOM     63  C   UNL A   1      48.691  29.729  27.320  1.00  0.00     0.029 A 
ATOM     64  C   UNL A   1      47.740  28.720  27.281  1.00  0.00     0.049 A 
ATOM     65  H   UNL A   1      45.691  28.808  27.773  1.00  0.00     0.167 HD
ATOM     66  C   UNL A   1      46.929  26.407  26.889  1.00  0.00     0.074 A 
ATOM     67  C   UNL A   1      47.119  25.030  26.482  1.00  0.00     0.031 C 
ATOM     68  C   UNL A   1      47.909  27.345  26.884  1.00  0.00     0.037 A 
BRANCH  55  69
ATOM     69  C   UNL A   1      46.057  32.964  28.685  1.00  0.00     0.058 A 
ATOM     70  C   UNL A   1      46.598  33.409  29.901  1.00  0.00     0.135 A 
ATOM     71  C   UNL A   1      45.866  33.911  27.666  1.00  0.00     0.135 A 
ATOM     72  F   UNL A   1      46.784  32.546  30.914  1.00  0.00    -0.206 F 
ATOM     73  C   UNL A   1      46.911  34.747  30.112  1.00  0.00     0.059 A 
ATOM     74  C   UNL A   1      46.195  35.251  27.846  1.00  0.00     0.059 A 
ATOM     75  F   UNL A   1      45.349  33.539  26.485  1.00  0.00    -0.206 F 
ATOM     76  C   UNL A   1      46.702  35.662  29.078  1.00  0.00     0.060 A 
BRANCH  76  77
ATOM     77  S   UNL A   1      47.109  37.397  29.367  1.00  0.00     0.124 S 
ATOM     78  O   UNL A   1      45.898  38.061  28.895  1.00  0.00    -0.237 OA
ATOM     79  O   UNL A   1      47.330  37.433  30.810  1.00  0.00    -0.237 OA
ATOM     80  O   UNL A   1      48.300  37.607  28.549  1.00  0.00    -0.744 OA
ENDBRANCH  76  77
ENDBRANCH  55  69
BRANCH  56  81
ATOM     81  C   UNL A   1      43.218  23.516  27.056  1.00  0.00     0.058 A 
ATOM     82  C   UNL A   1      42.927  23.097  25.749  1.00  0.00     0.135 A 
ATOM     83  C   UNL A   1      43.111  22.569  28.086  1.00  0.00     0.135 A 
ATOM     84  F   UNL A   1      43.011  23.969  24.732  1.00  0.00    -0.206 F 
ATOM     85  C   UNL A   1      42.532  21.793  25.473  1.00  0.00     0.059 A 
ATOM     86  C   UNL A   1      42.738  21.253  27.832  1.00  0.00     0.059 A 
ATOM     87  F   UNL A   1      43.396  22.916  29.350  1.00  0.00    -0.206 F 
ATOM     88  C   UNL A   1      42.441  20.876  26.523  1.00  0.00     0.060 A 
BRANCH  88  89
ATOM     89  S   UNL A   1      41.977  19.171  26.148  1.00  0.00     0.124 S 
ATOM     90  O   UNL A   1      42.268  18.505  27.412  1.00  0.00    -0.237 OA
ATOM     91  O   UNL A   1      40.564  19.304  25.806  1.00  0.00    -0.237 OA
ATOM     92  O   UNL A   1      42.854  18.825  25.033  1.00  0.00    -0.744 OA
ENDBRANCH  88  89
ENDBRANCH  56  81
BRANCH  68  93
ATOM     93  C   UNL A   1      49.277  26.910  26.446  1.00  0.00     0.058 A 
ATOM     94  C   UNL A   1      50.145  26.234  27.317  1.00  0.00     0.135 A 
ATOM     95  C   UNL A   1      49.701  27.119  25.124  1.00  0.00     0.135 A 
ATOM     96  F   UNL A   1      49.788  26.018  28.593  1.00  0.00    -0.206 F 
ATOM     97  C   UNL A   1      51.396  25.794  26.898  1.00  0.00     0.059 A 
ATOM     98  C   UNL A   1      50.939  26.667  24.676  1.00  0.00     0.059 A 
ATOM     99  F   UNL A   1      48.904  27.752  24.250  1.00  0.00    -0.206 F 
ATOM    100  C   UNL A   1      51.783  26.014  25.574  1.00  0.00     0.060 A 
BRANCH 100 101
ATOM    101  S   UNL A   1      53.391  25.401  25.028  1.00  0.00     0.124 S 
ATOM    102  O   UNL A   1      53.298  25.579  23.583  1.00  0.00    -0.237 OA
ATOM    103  O   UNL A   1      54.318  26.291  25.719  1.00  0.00    -0.237 OA
ATOM    104  O   UNL A   1      53.400  24.017  25.490  1.00  0.00    -0.744 OA
ENDBRANCH 100 101
ENDBRANCH  68  93
ENDBRANCH  42  43
ENDBRANCH  34  37
ENDBRANCH  32  33
ENDBRANCH  31  32
ENDBRANCH   1  31
TORSDOF 18
ENDMDL
