MODEL 1
REMARK VINA RESULT:     -13.6      0.000      0.000
REMARK SMILES C[NH2+][C@@]1(C(=O)NCCCCNC(=O)c2ccc(-c3c4nc(c(-c5c(F)cc(S(=O)(=O)[O-])cc5F)c5ccc([nH]5)c(-c5c(F)cc(S(=O)(=O)[O-])cc5F)c5nc(c(-c6c(F)cc(S(=O)(=O)[O-])cc6F)c6ccc3[nH]6)C=C5)C=C4)cc2)CC[C@H]([NH+]2CC[NH+](C)CC2)C1
REMARK SMILES IDX 9 1 8 2 7 3 6 4 4 5 5 6 3 8 80 9 90 10 81 11 82 12 2 13 1 14
REMARK SMILES IDX 83 17 84 18 89 19 85 21 88 22 86 23 87 24 10 26 11 27 12 28
REMARK SMILES IDX 13 30 14 31 15 32 79 33 16 34 78 35 17 36 18 37 19 38 72 39
REMARK SMILES IDX 20 40 77 41 71 42 73 43 21 44 76 45 70 46 69 47 22 49 56 50
REMARK SMILES IDX 35 51 55 52 36 53 39 54 54 55 74 56 37 57 38 58 53 60 75 61
REMARK SMILES IDX 40 62 23 63 24 64 33 65 25 66 26 67 32 68 34 69 27 70 28 71
REMARK SMILES IDX 29 72 30 73 31 74 57 75 58 76 67 77 59 78 60 79 66 80 68 81
REMARK SMILES IDX 61 82 62 83 63 84 64 85 65 86 41 87 42 88 51 89 43 90 44 91
REMARK SMILES IDX 50 92 52 93 45 94 46 95 47 96 48 97 49 98
REMARK H PARENT 6 7 2 15 2 16 83 20 86 25 11 29 73 48 39 59
REMARK Flexibility Score: inf
ROOT
ATOM      1  C   UNL A   1      40.037  21.909  26.910  1.00  0.00     0.023 C 
ENDROOT
BRANCH   1   2
ATOM      2  C   UNL A   1      38.859  21.464  25.768  1.00  0.00     0.023 C 
BRANCH   2   3
ATOM      3  C   UNL A   1      36.756  21.348  25.584  1.00  0.00     0.116 C 
BRANCH   3   4
ATOM      4  N   UNL A   1      35.538  21.717  26.575  1.00  0.00    -0.351 N 
ATOM      5  C   UNL A   1      34.183  21.672  26.631  1.00  0.00     0.281 C 
ATOM      6  O   UNL A   1      33.701  22.118  27.686  1.00  0.00    -0.268 OA
ATOM      7  H   UNL A   1      35.893  22.098  27.410  1.00  0.00     0.163 HD
BRANCH   5   8
ATOM      8  C   UNL A   1      33.234  21.074  25.546  1.00  0.00     0.181 C 
ATOM      9  C   UNL A   1      33.813  21.436  24.173  1.00  0.00     0.085 C 
ATOM     10  C   UNL A   1      31.804  21.628  25.534  1.00  0.00     0.144 C 
ATOM     11  C   UNL A   1      32.849  22.461  23.588  1.00  0.00     0.072 C 
ATOM     12  C   UNL A   1      31.889  22.906  24.723  1.00  0.00     0.191 C 
BRANCH   8  13
ATOM     13  N   UNL A   1      33.305  19.579  25.666  1.00  0.00    -0.336 N 
ATOM     14  C   UNL A   1      34.029  18.907  24.595  1.00  0.00     0.331 C 
ATOM     15  H   UNL A   1      33.764  19.354  26.548  1.00  0.00     0.346 HD
ATOM     16  H   UNL A   1      32.342  19.244  25.613  1.00  0.00     0.346 HD
ENDBRANCH   8  13
BRANCH  12  17
ATOM     17  N   UNL A   1      32.223  24.100  25.489  1.00  0.00    -0.323 N 
ATOM     18  C   UNL A   1      30.757  25.024  26.103  1.00  0.00     0.324 C 
ATOM     19  C   UNL A   1      33.837  25.017  25.241  1.00  0.00     0.324 C 
ATOM     20  H   UNL A   1      32.642  23.661  26.310  1.00  0.00     0.348 HD
ATOM     21  C   UNL A   1      30.729  26.969  25.993  1.00  0.00     0.324 C 
ATOM     22  C   UNL A   1      33.802  27.003  25.176  1.00  0.00     0.324 C 
ATOM     23  N   UNL A   1      32.294  27.895  25.765  1.00  0.00    -0.328 N 
ATOM     24  C   UNL A   1      32.058  29.160  25.076  1.00  0.00     0.333 C 
ATOM     25  H   UNL A   1      32.583  28.069  26.727  1.00  0.00     0.348 HD
ENDBRANCH  12  17
ENDBRANCH   5   8
ENDBRANCH   3   4
ENDBRANCH   2   3
ENDBRANCH   1   2
BRANCH   1  26
ATOM     26  C   UNL A   1      40.245  23.393  27.248  1.00  0.00     0.116 C 
BRANCH  26  27
ATOM     27  N   UNL A   1      40.722  24.191  26.123  1.00  0.00    -0.352 N 
ATOM     28  C   UNL A   1      41.169  25.484  26.128  1.00  0.00     0.251 C 
ATOM     29  H   UNL A   1      40.724  23.740  25.247  1.00  0.00     0.163 HD
ATOM     30  O   UNL A   1      41.564  26.031  25.105  1.00  0.00    -0.269 OA
BRANCH  28  31
ATOM     31  C   UNL A   1      41.088  26.222  27.394  1.00  0.00     0.039 A 
ATOM     32  C   UNL A   1      42.089  27.149  27.682  1.00  0.00     0.014 A 
ATOM     33  C   UNL A   1      39.968  26.078  28.215  1.00  0.00     0.014 A 
ATOM     34  C   UNL A   1      41.936  27.986  28.781  1.00  0.00     0.010 A 
ATOM     35  C   UNL A   1      39.783  26.962  29.267  1.00  0.00     0.010 A 
ATOM     36  C   UNL A   1      40.769  27.918  29.559  1.00  0.00    -0.014 A 
BRANCH  36  37
ATOM     37  C   UNL A   1      40.575  28.841  30.698  1.00  0.00     0.031 A 
ATOM     38  C   UNL A   1      41.430  28.688  31.921  1.00  0.00     0.074 A 
ATOM     39  C   UNL A   1      39.605  29.773  30.631  1.00  0.00     0.049 A 
ATOM     40  N   UNL A   1      41.416  29.382  33.026  1.00  0.00    -0.248 NA
ATOM     41  C   UNL A   1      42.410  27.588  31.913  1.00  0.00     0.031 C 
ATOM     42  C   UNL A   1      38.678  29.950  29.510  1.00  0.00     0.029 A 
ATOM     43  N   UNL A   1      39.237  30.746  31.522  1.00  0.00    -0.354 N 
ATOM     44  C   UNL A   1      42.371  28.796  33.848  1.00  0.00     0.074 A 
ATOM     45  C   UNL A   1      42.903  27.654  33.141  1.00  0.00     0.031 C 
ATOM     46  C   UNL A   1      37.866  30.988  29.770  1.00  0.00     0.029 A 
ATOM     47  C   UNL A   1      38.201  31.534  31.081  1.00  0.00     0.049 A 
ATOM     48  H   UNL A   1      39.673  30.869  32.396  1.00  0.00     0.167 HD
ATOM     49  C   UNL A   1      42.787  29.198  35.072  1.00  0.00     0.037 A 
ATOM     50  C   UNL A   1      37.598  32.585  31.670  1.00  0.00     0.037 A 
ATOM     51  C   UNL A   1      42.267  30.361  35.739  1.00  0.00     0.049 A 
ATOM     52  C   UNL A   1      38.108  33.041  33.010  1.00  0.00     0.074 A 
ATOM     53  C   UNL A   1      42.655  30.905  36.950  1.00  0.00     0.029 A 
ATOM     54  N   UNL A   1      41.245  31.162  35.245  1.00  0.00    -0.354 N 
ATOM     55  N   UNL A   1      39.068  32.524  33.743  1.00  0.00    -0.248 NA
ATOM     56  C   UNL A   1      37.472  34.226  33.596  1.00  0.00     0.031 C 
ATOM     57  C   UNL A   1      41.842  32.016  37.204  1.00  0.00     0.029 A 
ATOM     58  C   UNL A   1      40.979  32.188  36.132  1.00  0.00     0.049 A 
ATOM     59  H   UNL A   1      40.781  31.020  34.390  1.00  0.00     0.167 HD
ATOM     60  C   UNL A   1      39.163  33.334  34.869  1.00  0.00     0.074 A 
ATOM     61  C   UNL A   1      38.175  34.382  34.711  1.00  0.00     0.031 C 
ATOM     62  C   UNL A   1      39.990  33.221  35.939  1.00  0.00     0.037 A 
BRANCH  49  63
ATOM     63  C   UNL A   1      43.851  28.381  35.748  1.00  0.00     0.058 A 
ATOM     64  C   UNL A   1      45.218  28.625  35.529  1.00  0.00     0.135 A 
ATOM     65  C   UNL A   1      43.505  27.348  36.634  1.00  0.00     0.135 A 
ATOM     66  F   UNL A   1      45.606  29.585  34.675  1.00  0.00    -0.206 F 
ATOM     67  C   UNL A   1      46.202  27.853  36.139  1.00  0.00     0.059 A 
ATOM     68  C   UNL A   1      44.474  26.583  37.278  1.00  0.00     0.059 A 
ATOM     69  F   UNL A   1      42.215  27.068  36.875  1.00  0.00    -0.206 F 
ATOM     70  C   UNL A   1      45.820  26.834  37.011  1.00  0.00     0.060 A 
BRANCH  70  71
ATOM     71  S   UNL A   1      47.109  25.846  37.800  1.00  0.00     0.124 S 
ATOM     72  O   UNL A   1      47.387  26.635  38.997  1.00  0.00    -0.237 OA
ATOM     73  O   UNL A   1      46.432  24.572  38.026  1.00  0.00    -0.237 OA
ATOM     74  O   UNL A   1      48.174  25.818  36.804  1.00  0.00    -0.744 OA
ENDBRANCH  70  71
ENDBRANCH  49  63
BRANCH  50  75
ATOM     75  C   UNL A   1      36.487  33.290  30.978  1.00  0.00     0.058 A 
ATOM     76  C   UNL A   1      35.169  33.204  31.450  1.00  0.00     0.135 A 
ATOM     77  C   UNL A   1      36.723  34.091  29.849  1.00  0.00     0.135 A 
ATOM     78  F   UNL A   1      34.891  32.451  32.526  1.00  0.00    -0.206 F 
ATOM     79  C   UNL A   1      34.122  33.872  30.822  1.00  0.00     0.059 A 
ATOM     80  C   UNL A   1      35.697  34.788  29.218  1.00  0.00     0.059 A 
ATOM     81  F   UNL A   1      37.969  34.225  29.369  1.00  0.00    -0.206 F 
ATOM     82  C   UNL A   1      34.398  34.665  29.707  1.00  0.00     0.060 A 
BRANCH  82  83
ATOM     83  S   UNL A   1      33.041  35.571  28.931  1.00  0.00     0.124 S 
ATOM     84  O   UNL A   1      33.755  36.650  28.260  1.00  0.00    -0.237 OA
ATOM     85  O   UNL A   1      32.451  34.557  28.062  1.00  0.00    -0.237 OA
ATOM     86  O   UNL A   1      32.214  35.971  30.065  1.00  0.00    -0.744 OA
ENDBRANCH  82  83
ENDBRANCH  50  75
BRANCH  62  87
ATOM     87  C   UNL A   1      39.875  34.270  37.006  1.00  0.00     0.058 A 
ATOM     88  C   UNL A   1      40.546  35.498  36.901  1.00  0.00     0.135 A 
ATOM     89  C   UNL A   1      39.032  34.069  38.109  1.00  0.00     0.135 A 
ATOM     90  F   UNL A   1      41.366  35.735  35.865  1.00  0.00    -0.206 F 
ATOM     91  C   UNL A   1      40.400  36.485  37.868  1.00  0.00     0.059 A 
ATOM     92  C   UNL A   1      38.851  35.053  39.075  1.00  0.00     0.059 A 
ATOM     93  F   UNL A   1      38.360  32.915  38.246  1.00  0.00    -0.206 F 
ATOM     94  C   UNL A   1      39.548  36.254  38.950  1.00  0.00     0.060 A 
BRANCH  94  95
ATOM     95  S   UNL A   1      39.336  37.560  40.177  1.00  0.00     0.124 S 
ATOM     96  O   UNL A   1      40.660  38.173  40.184  1.00  0.00    -0.237 OA
ATOM     97  O   UNL A   1      38.267  38.365  39.597  1.00  0.00    -0.237 OA
ATOM     98  O   UNL A   1      38.975  36.831  41.390  1.00  0.00    -0.744 OA
ENDBRANCH  94  95
ENDBRANCH  62  87
ENDBRANCH  36  37
ENDBRANCH  28  31
ENDBRANCH  26  27
ENDBRANCH   1  26
TORSDOF 16
ENDMDL
MODEL 2
REMARK VINA RESULT:     -13.4      2.436      9.223
REMARK SMILES C[NH2+][C@@]1(C(=O)NCCCCNC(=O)c2ccc(-c3c4nc(c(-c5c(F)cc(S(=O)(=O)[O-])cc5F)c5ccc([nH]5)c(-c5c(F)cc(S(=O)(=O)[O-])cc5F)c5nc(c(-c6c(F)cc(S(=O)(=O)[O-])cc6F)c6ccc3[nH]6)C=C5)C=C4)cc2)CC[C@H]([NH+]2CC[NH+](C)CC2)C1
REMARK SMILES IDX 9 1 8 2 7 3 6 4 4 5 5 6 3 8 80 9 90 10 81 11 82 12 2 13 1 14
REMARK SMILES IDX 83 17 84 18 89 19 85 21 88 22 86 23 87 24 10 26 11 27 12 28
REMARK SMILES IDX 13 30 14 31 15 32 79 33 16 34 78 35 17 36 18 37 19 38 72 39
REMARK SMILES IDX 20 40 77 41 71 42 73 43 21 44 76 45 70 46 69 47 22 49 56 50
REMARK SMILES IDX 35 51 55 52 36 53 39 54 54 55 74 56 37 57 38 58 53 60 75 61
REMARK SMILES IDX 40 62 23 63 24 64 33 65 25 66 26 67 32 68 34 69 27 70 28 71
REMARK SMILES IDX 29 72 30 73 31 74 57 75 58 76 67 77 59 78 60 79 66 80 68 81
REMARK SMILES IDX 61 82 62 83 63 84 64 85 65 86 41 87 42 88 51 89 43 90 44 91
REMARK SMILES IDX 50 92 52 93 45 94 46 95 47 96 48 97 49 98
REMARK H PARENT 6 7 2 15 2 16 83 20 86 25 11 29 73 48 39 59
REMARK Flexibility Score: inf
ROOT
ATOM      1  C   UNL A   1      31.744  32.708  26.905  1.00  0.00     0.023 C 
ENDROOT
BRANCH   1   2
ATOM      2  C   UNL A   1      31.765  31.086  26.396  1.00  0.00     0.023 C 
BRANCH   2   3
ATOM      3  C   UNL A   1      33.139  29.622  25.735  1.00  0.00     0.116 C 
BRANCH   3   4
ATOM      4  N   UNL A   1      33.661  29.176  24.275  1.00  0.00    -0.351 N 
ATOM      5  C   UNL A   1      33.191  28.693  23.097  1.00  0.00     0.281 C 
ATOM      6  O   UNL A   1      34.068  28.498  22.239  1.00  0.00    -0.268 OA
ATOM      7  H   UNL A   1      34.637  29.291  24.222  1.00  0.00     0.163 HD
BRANCH   5   8
ATOM      8  C   UNL A   1      31.695  28.437  22.737  1.00  0.00     0.181 C 
ATOM      9  C   UNL A   1      30.907  28.362  24.050  1.00  0.00     0.085 C 
ATOM     10  C   UNL A   1      31.399  27.114  22.020  1.00  0.00     0.144 C 
ATOM     11  C   UNL A   1      30.498  26.902  24.191  1.00  0.00     0.072 C 
ATOM     12  C   UNL A   1      31.284  26.087  23.130  1.00  0.00     0.191 C 
BRANCH   8  13
ATOM     13  N   UNL A   1      31.198  29.648  22.002  1.00  0.00    -0.336 N 
ATOM     14  C   UNL A   1      29.770  29.910  22.134  1.00  0.00     0.331 C 
ATOM     15  H   UNL A   1      31.702  30.461  22.355  1.00  0.00     0.346 HD
ATOM     16  H   UNL A   1      31.363  29.467  21.011  1.00  0.00     0.346 HD
ENDBRANCH   8  13
BRANCH  12  17
ATOM     17  N   UNL A   1      32.542  25.463  23.524  1.00  0.00    -0.323 N 
ATOM     18  C   UNL A   1      32.944  23.940  22.577  1.00  0.00     0.324 C 
ATOM     19  C   UNL A   1      33.265  25.685  25.237  1.00  0.00     0.324 C 
ATOM     20  H   UNL A   1      33.193  26.177  23.196  1.00  0.00     0.348 HD
ATOM     21  C   UNL A   1      33.652  22.382  23.510  1.00  0.00     0.324 C 
ATOM     22  C   UNL A   1      34.026  24.099  26.162  1.00  0.00     0.324 C 
ATOM     23  N   UNL A   1      34.379  22.572  25.182  1.00  0.00    -0.328 N 
ATOM     24  C   UNL A   1      34.244  21.340  25.953  1.00  0.00     0.333 C 
ATOM     25  H   UNL A   1      35.361  22.747  24.970  1.00  0.00     0.348 HD
ENDBRANCH  12  17
ENDBRANCH   5   8
ENDBRANCH   3   4
ENDBRANCH   2   3
ENDBRANCH   1   2
BRANCH   1  26
ATOM     26  C   UNL A   1      33.030  33.351  27.445  1.00  0.00     0.116 C 
BRANCH  26  27
ATOM     27  N   UNL A   1      32.803  34.589  28.183  1.00  0.00    -0.352 N 
ATOM     28  C   UNL A   1      33.528  35.100  29.225  1.00  0.00     0.251 C 
ATOM     29  H   UNL A   1      32.030  35.126  27.894  1.00  0.00     0.163 HD
ATOM     30  O   UNL A   1      33.237  36.172  29.744  1.00  0.00    -0.269 OA
BRANCH  28  31
ATOM     31  C   UNL A   1      34.627  34.282  29.750  1.00  0.00     0.039 A 
ATOM     32  C   UNL A   1      35.916  34.528  29.278  1.00  0.00     0.014 A 
ATOM     33  C   UNL A   1      34.390  33.374  30.784  1.00  0.00     0.014 A 
ATOM     34  C   UNL A   1      36.991  33.895  29.891  1.00  0.00     0.010 A 
ATOM     35  C   UNL A   1      35.467  32.801  31.441  1.00  0.00     0.010 A 
ATOM     36  C   UNL A   1      36.774  33.054  30.995  1.00  0.00    -0.014 A 
BRANCH  36  37
ATOM     37  C   UNL A   1      37.916  32.419  31.687  1.00  0.00     0.031 A 
ATOM     38  C   UNL A   1      38.348  32.943  33.024  1.00  0.00     0.074 A 
ATOM     39  C   UNL A   1      38.572  31.411  31.082  1.00  0.00     0.049 A 
ATOM     40  N   UNL A   1      39.325  32.537  33.790  1.00  0.00    -0.248 NA
ATOM     41  C   UNL A   1      37.605  34.097  33.559  1.00  0.00     0.031 C 
ATOM     42  C   UNL A   1      38.266  30.881  29.750  1.00  0.00     0.029 A 
ATOM     43  N   UNL A   1      39.630  30.650  31.506  1.00  0.00    -0.354 N 
ATOM     44  C   UNL A   1      39.321  33.392  34.886  1.00  0.00     0.074 A 
ATOM     45  C   UNL A   1      38.288  34.375  34.658  1.00  0.00     0.031 C 
ATOM     46  C   UNL A   1      39.099  29.864  29.478  1.00  0.00     0.029 A 
ATOM     47  C   UNL A   1      40.009  29.684  30.605  1.00  0.00     0.049 A 
ATOM     48  H   UNL A   1      40.075  30.783  32.373  1.00  0.00     0.167 HD
ATOM     49  C   UNL A   1      40.094  33.338  35.995  1.00  0.00     0.037 A 
ATOM     50  C   UNL A   1      40.980  28.753  30.688  1.00  0.00     0.037 A 
ATOM     51  C   UNL A   1      41.092  32.325  36.213  1.00  0.00     0.049 A 
ATOM     52  C   UNL A   1      41.795  28.684  31.951  1.00  0.00     0.074 A 
ATOM     53  C   UNL A   1      41.890  32.129  37.325  1.00  0.00     0.029 A 
ATOM     54  N   UNL A   1      41.424  31.336  35.297  1.00  0.00    -0.354 N 
ATOM     55  N   UNL A   1      41.729  29.451  33.015  1.00  0.00    -0.248 NA
ATOM     56  C   UNL A   1      42.802  27.620  32.035  1.00  0.00     0.031 C 
ATOM     57  C   UNL A   1      42.730  31.040  37.065  1.00  0.00     0.029 A 
ATOM     58  C   UNL A   1      42.425  30.533  35.811  1.00  0.00     0.049 A 
ATOM     59  H   UNL A   1      41.007  31.223  34.413  1.00  0.00     0.167 HD
ATOM     60  C   UNL A   1      42.672  28.949  33.904  1.00  0.00     0.074 A 
ATOM     61  C   UNL A   1      43.283  27.805  33.258  1.00  0.00     0.031 C 
ATOM     62  C   UNL A   1      43.006  29.395  35.142  1.00  0.00     0.037 A 
BRANCH  49  63
ATOM     63  C   UNL A   1      39.878  34.391  37.044  1.00  0.00     0.058 A 
ATOM     64  C   UNL A   1      40.464  35.665  36.942  1.00  0.00     0.135 A 
ATOM     65  C   UNL A   1      39.070  34.133  38.162  1.00  0.00     0.135 A 
ATOM     66  F   UNL A   1      41.265  35.960  35.905  1.00  0.00    -0.206 F 
ATOM     67  C   UNL A   1      40.281  36.632  37.924  1.00  0.00     0.059 A 
ATOM     68  C   UNL A   1      38.849  35.097  39.143  1.00  0.00     0.059 A 
ATOM     69  F   UNL A   1      38.490  32.932  38.314  1.00  0.00    -0.206 F 
ATOM     70  C   UNL A   1      39.472  36.338  39.023  1.00  0.00     0.060 A 
BRANCH  70  71
ATOM     71  S   UNL A   1      39.240  37.606  40.286  1.00  0.00     0.124 S 
ATOM     72  O   UNL A   1      40.594  38.136  40.418  1.00  0.00    -0.237 OA
ATOM     73  O   UNL A   1      38.269  38.498  39.659  1.00  0.00    -0.237 OA
ATOM     74  O   UNL A   1      38.745  36.855  41.435  1.00  0.00    -0.744 OA
ENDBRANCH  70  71
ENDBRANCH  49  63
BRANCH  50  75
ATOM     75  C   UNL A   1      41.196  27.799  29.568  1.00  0.00     0.058 A 
ATOM     76  C   UNL A   1      42.324  27.897  28.741  1.00  0.00     0.135 A 
ATOM     77  C   UNL A   1      40.295  26.752  29.320  1.00  0.00     0.135 A 
ATOM     78  F   UNL A   1      43.215  28.882  28.937  1.00  0.00    -0.206 F 
ATOM     79  C   UNL A   1      42.547  27.001  27.700  1.00  0.00     0.059 A 
ATOM     80  C   UNL A   1      40.508  25.828  28.300  1.00  0.00     0.059 A 
ATOM     81  F   UNL A   1      39.210  26.599  30.095  1.00  0.00    -0.206 F 
ATOM     82  C   UNL A   1      41.634  25.968  27.489  1.00  0.00     0.060 A 
BRANCH  82  83
ATOM     83  S   UNL A   1      41.960  24.778  26.169  1.00  0.00     0.124 S 
ATOM     84  O   UNL A   1      40.842  23.854  26.324  1.00  0.00    -0.237 OA
ATOM     85  O   UNL A   1      41.930  25.624  24.979  1.00  0.00    -0.237 OA
ATOM     86  O   UNL A   1      43.273  24.245  26.516  1.00  0.00    -0.744 OA
ENDBRANCH  82  83
ENDBRANCH  50  75
BRANCH  62  87
ATOM     87  C   UNL A   1      44.062  28.627  35.883  1.00  0.00     0.058 A 
ATOM     88  C   UNL A   1      43.732  27.553  36.723  1.00  0.00     0.135 A 
ATOM     89  C   UNL A   1      45.419  28.929  35.696  1.00  0.00     0.135 A 
ATOM     90  F   UNL A   1      42.447  27.230  36.936  1.00  0.00    -0.206 F 
ATOM     91  C   UNL A   1      44.716  26.816  37.371  1.00  0.00     0.059 A 
ATOM     92  C   UNL A   1      46.420  28.187  36.314  1.00  0.00     0.059 A 
ATOM     93  F   UNL A   1      45.784  29.940  34.892  1.00  0.00    -0.206 F 
ATOM     94  C   UNL A   1      46.057  27.139  37.158  1.00  0.00     0.060 A 
BRANCH  94  95
ATOM     95  S   UNL A   1      47.325  26.147  37.973  1.00  0.00     0.124 S 
ATOM     96  O   UNL A   1      47.067  26.440  39.379  1.00  0.00    -0.237 OA
ATOM     97  O   UNL A   1      46.996  24.795  37.536  1.00  0.00    -0.237 OA
ATOM     98  O   UNL A   1      48.573  26.685  37.439  1.00  0.00    -0.744 OA
ENDBRANCH  94  95
ENDBRANCH  62  87
ENDBRANCH  36  37
ENDBRANCH  28  31
ENDBRANCH  26  27
ENDBRANCH   1  26
TORSDOF 16
ENDMDL
MODEL 3
REMARK VINA RESULT:     -13.3      6.629     12.299
REMARK SMILES C[NH2+][C@@]1(C(=O)NCCCCNC(=O)c2ccc(-c3c4nc(c(-c5c(F)cc(S(=O)(=O)[O-])cc5F)c5ccc([nH]5)c(-c5c(F)cc(S(=O)(=O)[O-])cc5F)c5nc(c(-c6c(F)cc(S(=O)(=O)[O-])cc6F)c6ccc3[nH]6)C=C5)C=C4)cc2)CC[C@H]([NH+]2CC[NH+](C)CC2)C1
REMARK SMILES IDX 9 1 8 2 7 3 6 4 4 5 5 6 3 8 80 9 90 10 81 11 82 12 2 13 1 14
REMARK SMILES IDX 83 17 84 18 89 19 85 21 88 22 86 23 87 24 10 26 11 27 12 28
REMARK SMILES IDX 13 30 14 31 15 32 79 33 16 34 78 35 17 36 18 37 19 38 72 39
REMARK SMILES IDX 20 40 77 41 71 42 73 43 21 44 76 45 70 46 69 47 22 49 56 50
REMARK SMILES IDX 35 51 55 52 36 53 39 54 54 55 74 56 37 57 38 58 53 60 75 61
REMARK SMILES IDX 40 62 23 63 24 64 33 65 25 66 26 67 32 68 34 69 27 70 28 71
REMARK SMILES IDX 29 72 30 73 31 74 57 75 58 76 67 77 59 78 60 79 66 80 68 81
REMARK SMILES IDX 61 82 62 83 63 84 64 85 65 86 41 87 42 88 51 89 43 90 44 91
REMARK SMILES IDX 50 92 52 93 45 94 46 95 47 96 48 97 49 98
REMARK H PARENT 6 7 2 15 2 16 83 20 86 25 11 29 73 48 39 59
REMARK Flexibility Score: inf
ROOT
ATOM      1  C   UNL A   1      34.279  30.036  27.361  1.00  0.00     0.023 C 
ENDROOT
BRANCH   1   2
ATOM      2  C   UNL A   1      34.045  28.573  26.527  1.00  0.00     0.023 C 
BRANCH   2   3
ATOM      3  C   UNL A   1      32.884  27.787  24.945  1.00  0.00     0.116 C 
BRANCH   3   4
ATOM      4  N   UNL A   1      33.069  26.522  23.962  1.00  0.00    -0.351 N 
ATOM      5  C   UNL A   1      32.730  25.212  23.866  1.00  0.00     0.281 C 
ATOM      6  O   UNL A   1      33.160  24.646  22.846  1.00  0.00    -0.268 OA
ATOM      7  H   UNL A   1      33.601  26.786  23.176  1.00  0.00     0.163 HD
BRANCH   5   8
ATOM      8  C   UNL A   1      31.831  24.416  24.863  1.00  0.00     0.181 C 
ATOM      9  C   UNL A   1      32.193  24.874  26.281  1.00  0.00     0.085 C 
ATOM     10  C   UNL A   1      32.031  22.896  24.873  1.00  0.00     0.144 C 
ATOM     11  C   UNL A   1      32.907  23.688  26.917  1.00  0.00     0.072 C 
ATOM     12  C   UNL A   1      33.215  22.666  25.792  1.00  0.00     0.191 C 
BRANCH   8  13
ATOM     13  N   UNL A   1      30.411  24.839  24.620  1.00  0.00    -0.336 N 
ATOM     14  C   UNL A   1      29.793  25.584  25.709  1.00  0.00     0.331 C 
ATOM     15  H   UNL A   1      30.395  25.426  23.786  1.00  0.00     0.346 HD
ATOM     16  H   UNL A   1      29.871  23.979  24.521  1.00  0.00     0.346 HD
ENDBRANCH   8  13
BRANCH  12  17
ATOM     17  N   UNL A   1      34.519  22.719  25.141  1.00  0.00    -0.323 N 
ATOM     18  C   UNL A   1      35.214  21.067  24.733  1.00  0.00     0.324 C 
ATOM     19  C   UNL A   1      35.687  24.163  25.381  1.00  0.00     0.324 C 
ATOM     20  H   UNL A   1      34.245  23.136  24.251  1.00  0.00     0.348 HD
ATOM     21  C   UNL A   1      37.101  20.708  25.058  1.00  0.00     0.324 C 
ATOM     22  C   UNL A   1      37.618  23.787  25.666  1.00  0.00     0.324 C 
ATOM     23  N   UNL A   1      38.271  22.101  25.281  1.00  0.00    -0.328 N 
ATOM     24  C   UNL A   1      39.399  21.707  26.120  1.00  0.00     0.333 C 
ATOM     25  H   UNL A   1      38.587  22.271  24.327  1.00  0.00     0.348 HD
ENDBRANCH  12  17
ENDBRANCH   5   8
ENDBRANCH   3   4
ENDBRANCH   2   3
ENDBRANCH   1   2
BRANCH   1  26
ATOM     26  C   UNL A   1      35.612  30.296  28.078  1.00  0.00     0.116 C 
BRANCH  26  27
ATOM     27  N   UNL A   1      35.499  30.341  29.532  1.00  0.00    -0.352 N 
ATOM     28  C   UNL A   1      36.443  30.015  30.467  1.00  0.00     0.251 C 
ATOM     29  H   UNL A   1      34.632  30.646  29.887  1.00  0.00     0.163 HD
ATOM     30  O   UNL A   1      36.220  30.120  31.668  1.00  0.00    -0.269 OA
BRANCH  28  31
ATOM     31  C   UNL A   1      37.712  29.461  29.981  1.00  0.00     0.039 A 
ATOM     32  C   UNL A   1      38.035  29.636  28.635  1.00  0.00     0.014 A 
ATOM     33  C   UNL A   1      38.615  28.892  30.880  1.00  0.00     0.014 A 
ATOM     34  C   UNL A   1      39.306  29.283  28.197  1.00  0.00     0.010 A 
ATOM     35  C   UNL A   1      39.905  28.610  30.457  1.00  0.00     0.010 A 
ATOM     36  C   UNL A   1      40.256  28.800  29.111  1.00  0.00    -0.014 A 
BRANCH  36  37
ATOM     37  C   UNL A   1      41.626  28.474  28.662  1.00  0.00     0.031 A 
ATOM     38  C   UNL A   1      42.663  29.557  28.620  1.00  0.00     0.074 A 
ATOM     39  C   UNL A   1      41.905  27.219  28.260  1.00  0.00     0.049 A 
ATOM     40  N   UNL A   1      43.913  29.485  28.252  1.00  0.00    -0.248 NA
ATOM     41  C   UNL A   1      42.229  30.909  29.013  1.00  0.00     0.031 C 
ATOM     42  C   UNL A   1      40.941  26.116  28.200  1.00  0.00     0.029 A 
ATOM     43  N   UNL A   1      43.077  26.658  27.826  1.00  0.00    -0.354 N 
ATOM     44  C   UNL A   1      44.409  30.779  28.355  1.00  0.00     0.074 A 
ATOM     45  C   UNL A   1      43.312  31.627  28.761  1.00  0.00     0.031 C 
ATOM     46  C   UNL A   1      41.569  25.005  27.782  1.00  0.00     0.029 A 
ATOM     47  C   UNL A   1      42.970  25.321  27.524  1.00  0.00     0.049 A 
ATOM     48  H   UNL A   1      43.916  27.165  27.738  1.00  0.00     0.167 HD
ATOM     49  C   UNL A   1      45.676  31.211  28.158  1.00  0.00     0.037 A 
ATOM     50  C   UNL A   1      43.905  24.451  27.096  1.00  0.00     0.037 A 
ATOM     51  C   UNL A   1      46.759  30.339  27.790  1.00  0.00     0.049 A 
ATOM     52  C   UNL A   1      45.315  24.945  26.928  1.00  0.00     0.074 A 
ATOM     53  C   UNL A   1      48.097  30.649  27.626  1.00  0.00     0.029 A 
ATOM     54  N   UNL A   1      46.624  28.981  27.532  1.00  0.00    -0.354 N 
ATOM     55  N   UNL A   1      45.789  26.157  27.106  1.00  0.00    -0.248 NA
ATOM     56  C   UNL A   1      46.322  23.958  26.520  1.00  0.00     0.031 C 
ATOM     57  C   UNL A   1      48.764  29.483  27.234  1.00  0.00     0.029 A 
ATOM     58  C   UNL A   1      47.851  28.440  27.197  1.00  0.00     0.049 A 
ATOM     59  H   UNL A   1      45.780  28.479  27.581  1.00  0.00     0.167 HD
ATOM     60  C   UNL A   1      47.152  26.075  26.850  1.00  0.00     0.074 A 
ATOM     61  C   UNL A   1      47.429  24.690  26.521  1.00  0.00     0.031 C 
ATOM     62  C   UNL A   1      48.092  27.053  26.881  1.00  0.00     0.037 A 
BRANCH  49  63
ATOM     63  C   UNL A   1      45.948  32.677  28.347  1.00  0.00     0.058 A 
ATOM     64  C   UNL A   1      46.309  33.205  29.598  1.00  0.00     0.135 A 
ATOM     65  C   UNL A   1      45.859  33.566  27.264  1.00  0.00     0.135 A 
ATOM     66  F   UNL A   1      46.388  32.404  30.673  1.00  0.00    -0.206 F 
ATOM     67  C   UNL A   1      46.539  34.565  29.776  1.00  0.00     0.059 A 
ATOM     68  C   UNL A   1      46.115  34.927  27.413  1.00  0.00     0.059 A 
ATOM     69  F   UNL A   1      45.513  33.117  26.047  1.00  0.00    -0.206 F 
ATOM     70  C   UNL A   1      46.439  35.418  28.677  1.00  0.00     0.060 A 
BRANCH  70  71
ATOM     71  S   UNL A   1      46.748  37.180  28.922  1.00  0.00     0.124 S 
ATOM     72  O   UNL A   1      45.456  37.755  28.556  1.00  0.00    -0.237 OA
ATOM     73  O   UNL A   1      47.089  37.243  30.340  1.00  0.00    -0.237 OA
ATOM     74  O   UNL A   1      47.845  37.464  28.004  1.00  0.00    -0.744 OA
ENDBRANCH  70  71
ENDBRANCH  49  63
BRANCH  50  75
ATOM     75  C   UNL A   1      43.540  23.032  26.842  1.00  0.00     0.058 A 
ATOM     76  C   UNL A   1      43.539  22.506  25.541  1.00  0.00     0.135 A 
ATOM     77  C   UNL A   1      43.217  22.164  27.896  1.00  0.00     0.135 A 
ATOM     78  F   UNL A   1      43.841  23.297  24.499  1.00  0.00    -0.206 F 
ATOM     79  C   UNL A   1      43.217  21.176  25.291  1.00  0.00     0.059 A 
ATOM     80  C   UNL A   1      42.914  20.823  27.674  1.00  0.00     0.059 A 
ATOM     81  F   UNL A   1      43.224  22.610  29.161  1.00  0.00    -0.206 F 
ATOM     82  C   UNL A   1      42.908  20.341  26.366  1.00  0.00     0.060 A 
BRANCH  82  83
ATOM     83  S   UNL A   1      42.543  18.602  26.036  1.00  0.00     0.124 S 
ATOM     84  O   UNL A   1      42.912  17.980  27.302  1.00  0.00    -0.237 OA
ATOM     85  O   UNL A   1      41.115  18.640  25.735  1.00  0.00    -0.237 OA
ATOM     86  O   UNL A   1      43.406  18.288  24.902  1.00  0.00    -0.744 OA
ENDBRANCH  82  83
ENDBRANCH  50  75
BRANCH  62  87
ATOM     87  C   UNL A   1      49.506  26.654  26.574  1.00  0.00     0.058 A 
ATOM     88  C   UNL A   1      50.388  26.246  27.587  1.00  0.00     0.135 A 
ATOM     89  C   UNL A   1      49.959  26.616  25.247  1.00  0.00     0.135 A 
ATOM     90  F   UNL A   1      50.000  26.269  28.871  1.00  0.00    -0.206 F 
ATOM     91  C   UNL A   1      51.682  25.833  27.293  1.00  0.00     0.059 A 
ATOM     92  C   UNL A   1      51.241  26.180  24.929  1.00  0.00     0.059 A 
ATOM     93  F   UNL A   1      49.148  26.985  24.244  1.00  0.00    -0.206 F 
ATOM     94  C   UNL A   1      52.098  25.801  25.961  1.00  0.00     0.060 A 
BRANCH  94  95
ATOM     95  S   UNL A   1      53.767  25.223  25.590  1.00  0.00     0.124 S 
ATOM     96  O   UNL A   1      54.270  24.909  26.923  1.00  0.00    -0.237 OA
ATOM     97  O   UNL A   1      53.517  24.078  24.721  1.00  0.00    -0.237 OA
ATOM     98  O   UNL A   1      54.387  26.373  24.939  1.00  0.00    -0.744 OA
ENDBRANCH  94  95
ENDBRANCH  62  87
ENDBRANCH  36  37
ENDBRANCH  28  31
ENDBRANCH  26  27
ENDBRANCH   1  26
TORSDOF 16
ENDMDL
