MODEL 1
REMARK VINA RESULT:     -11.6      0.000      0.000
REMARK SMILES O=C(NCCCCNC(=O)c1cc(S[C@H]2CCO[C@@]3(CCOC3)C2)cs1)c1ccc(-c2c3nc(c(-c4c(F)cc(S(=O)(=O)[O-])cc4F)c4ccc([nH]4)c(-c4c(F)cc(S(=O)(=O)[O-])cc4F)c4nc(c(-c5c(F)cc(S(=O)(=O)[O-])cc5F)c5ccc2[nH]5)C=C4)C=C3)cc1
REMARK SMILES IDX 5 1 4 2 3 3 1 4 2 5 27 7 28 8 92 9 29 10 91 11 30 12 31 13
REMARK SMILES IDX 32 14 85 15 33 16 90 17 84 18 86 19 34 20 89 21 83 22 82 23
REMARK SMILES IDX 35 25 69 26 48 27 68 28 49 29 52 30 67 31 87 32 50 33 51 34
REMARK SMILES IDX 66 36 88 37 53 38 36 39 37 40 46 41 38 42 39 43 45 44 47 45
REMARK SMILES IDX 40 46 41 47 42 48 43 49 44 50 70 51 71 52 80 53 72 54 73 55
REMARK SMILES IDX 79 56 81 57 74 58 75 59 76 60 77 61 78 62 54 63 55 64 64 65
REMARK SMILES IDX 56 66 57 67 63 68 65 69 58 70 59 71 60 72 61 73 62 74 6 75
REMARK SMILES IDX 7 76 8 77 9 78 10 80 11 81 12 82 26 83 13 84 25 85 14 86
REMARK SMILES IDX 15 87 16 88 24 89 17 90 19 91 18 92 20 93 23 94 21 95 22 96
REMARK H PARENT 3 6 86 24 52 35 8 79
REMARK Flexibility Score: inf
ROOT
ATOM      1  C   UNL A   1      33.625  28.160  25.387  1.00  0.00     0.023 C 
ENDROOT
BRANCH   1   2
ATOM      2  C   UNL A   1      33.891  28.297  26.883  1.00  0.00     0.116 C 
BRANCH   2   3
ATOM      3  N   UNL A   1      33.700  29.656  27.364  1.00  0.00    -0.352 N 
ATOM      4  O   UNL A   1      34.149  31.514  28.549  1.00  0.00    -0.269 OA
ATOM      5  C   UNL A   1      34.560  30.459  28.073  1.00  0.00     0.251 C 
ATOM      6  H   UNL A   1      32.827  30.059  27.151  1.00  0.00     0.163 HD
BRANCH   5   7
ATOM      7  C   UNL A   1      35.968  30.051  28.278  1.00  0.00     0.039 A 
ATOM      8  C   UNL A   1      36.910  30.183  27.254  1.00  0.00     0.014 A 
ATOM      9  C   UNL A   1      36.358  29.570  29.532  1.00  0.00     0.014 A 
ATOM     10  C   UNL A   1      38.211  29.731  27.447  1.00  0.00     0.010 A 
ATOM     11  C   UNL A   1      37.684  29.178  29.745  1.00  0.00     0.010 A 
ATOM     12  C   UNL A   1      38.616  29.242  28.699  1.00  0.00    -0.014 A 
BRANCH  12  13
ATOM     13  C   UNL A   1      40.043  28.907  28.927  1.00  0.00     0.031 A 
ATOM     14  C   UNL A   1      40.604  27.570  28.533  1.00  0.00     0.074 A 
ATOM     15  C   UNL A   1      40.830  29.833  29.511  1.00  0.00     0.049 A 
ATOM     16  N   UNL A   1      41.823  27.118  28.682  1.00  0.00    -0.248 NA
ATOM     17  C   UNL A   1      39.685  26.613  27.898  1.00  0.00     0.031 C 
ATOM     18  C   UNL A   1      40.381  31.153  29.965  1.00  0.00     0.029 A 
ATOM     19  N   UNL A   1      42.164  29.810  29.830  1.00  0.00    -0.354 N 
ATOM     20  C   UNL A   1      41.815  25.821  28.183  1.00  0.00     0.074 A 
ATOM     21  C   UNL A   1      40.466  25.553  27.732  1.00  0.00     0.031 C 
ATOM     22  C   UNL A   1      41.421  31.816  30.490  1.00  0.00     0.029 A 
ATOM     23  C   UNL A   1      42.597  30.954  30.456  1.00  0.00     0.049 A 
ATOM     24  H   UNL A   1      42.753  29.047  29.629  1.00  0.00     0.167 HD
ATOM     25  C   UNL A   1      42.843  24.944  28.106  1.00  0.00     0.037 A 
ATOM     26  C   UNL A   1      43.797  31.266  30.978  1.00  0.00     0.037 A 
ATOM     27  C   UNL A   1      44.191  25.237  28.525  1.00  0.00     0.049 A 
ATOM     28  C   UNL A   1      44.912  30.265  30.891  1.00  0.00     0.074 A 
ATOM     29  C   UNL A   1      45.323  24.451  28.389  1.00  0.00     0.029 A 
ATOM     30  N   UNL A   1      44.585  26.396  29.177  1.00  0.00    -0.354 N 
ATOM     31  N   UNL A   1      44.904  29.075  30.341  1.00  0.00    -0.248 NA
ATOM     32  C   UNL A   1      46.193  30.642  31.504  1.00  0.00     0.031 C 
ATOM     33  C   UNL A   1      46.393  25.117  28.998  1.00  0.00     0.029 A 
ATOM     34  C   UNL A   1      45.934  26.329  29.485  1.00  0.00     0.049 A 
ATOM     35  H   UNL A   1      43.994  27.154  29.389  1.00  0.00     0.167 HD
ATOM     36  C   UNL A   1      46.175  28.556  30.548  1.00  0.00     0.074 A 
ATOM     37  C   UNL A   1      46.935  29.573  31.246  1.00  0.00     0.031 C 
ATOM     38  C   UNL A   1      46.668  27.343  30.197  1.00  0.00     0.037 A 
BRANCH  25  39
ATOM     39  C   UNL A   1      42.573  23.574  27.553  1.00  0.00     0.058 A 
ATOM     40  C   UNL A   1      42.674  23.302  26.181  1.00  0.00     0.135 A 
ATOM     41  C   UNL A   1      42.316  22.499  28.419  1.00  0.00     0.135 A 
ATOM     42  F   UNL A   1      42.906  24.296  25.309  1.00  0.00    -0.206 F 
ATOM     43  C   UNL A   1      42.529  22.009  25.686  1.00  0.00     0.059 A 
ATOM     44  C   UNL A   1      42.183  21.197  27.949  1.00  0.00     0.059 A 
ATOM     45  F   UNL A   1      42.209  22.709  29.741  1.00  0.00    -0.206 F 
ATOM     46  C   UNL A   1      42.289  20.962  26.578  1.00  0.00     0.060 A 
BRANCH  46  47
ATOM     47  S   UNL A   1      42.152  19.283  25.925  1.00  0.00     0.124 S 
ATOM     48  O   UNL A   1      40.718  19.184  25.676  1.00  0.00    -0.237 OA
ATOM     49  O   UNL A   1      42.998  19.340  24.737  1.00  0.00    -0.237 OA
ATOM     50  O   UNL A   1      42.659  18.453  27.013  1.00  0.00    -0.744 OA
ENDBRANCH  46  47
ENDBRANCH  25  39
BRANCH  26  51
ATOM     51  C   UNL A   1      43.987  32.566  31.668  1.00  0.00     0.058 A 
ATOM     52  C   UNL A   1      43.718  32.708  33.036  1.00  0.00     0.135 A 
ATOM     53  C   UNL A   1      44.456  33.689  30.969  1.00  0.00     0.135 A 
ATOM     54  F   UNL A   1      43.264  31.662  33.743  1.00  0.00    -0.206 F 
ATOM     55  C   UNL A   1      43.895  33.924  33.688  1.00  0.00     0.059 A 
ATOM     56  C   UNL A   1      44.663  34.909  31.603  1.00  0.00     0.059 A 
ATOM     57  F   UNL A   1      44.744  33.596  29.662  1.00  0.00    -0.206 F 
ATOM     58  C   UNL A   1      44.367  35.020  32.961  1.00  0.00     0.060 A 
BRANCH  58  59
ATOM     59  S   UNL A   1      44.637  36.587  33.816  1.00  0.00     0.124 S 
ATOM     60  O   UNL A   1      45.668  36.219  34.779  1.00  0.00    -0.237 OA
ATOM     61  O   UNL A   1      45.059  37.467  32.730  1.00  0.00    -0.237 OA
ATOM     62  O   UNL A   1      43.323  36.888  34.378  1.00  0.00    -0.744 OA
ENDBRANCH  58  59
ENDBRANCH  26  51
BRANCH  38  63
ATOM     63  C   UNL A   1      48.086  27.046  30.579  1.00  0.00     0.058 A 
ATOM     64  C   UNL A   1      48.388  26.380  31.777  1.00  0.00     0.135 A 
ATOM     65  C   UNL A   1      49.148  27.390  29.729  1.00  0.00     0.135 A 
ATOM     66  F   UNL A   1      47.406  26.042  32.628  1.00  0.00    -0.206 F 
ATOM     67  C   UNL A   1      49.699  26.075  32.125  1.00  0.00     0.059 A 
ATOM     68  C   UNL A   1      50.465  27.078  30.048  1.00  0.00     0.059 A 
ATOM     69  F   UNL A   1      48.908  28.025  28.571  1.00  0.00    -0.206 F 
ATOM     70  C   UNL A   1      50.731  26.427  31.253  1.00  0.00     0.060 A 
BRANCH  70  71
ATOM     71  S   UNL A   1      52.427  25.994  31.696  1.00  0.00     0.124 S 
ATOM     72  O   UNL A   1      53.110  26.137  30.415  1.00  0.00    -0.237 OA
ATOM     73  O   UNL A   1      52.755  26.996  32.706  1.00  0.00    -0.237 OA
ATOM     74  O   UNL A   1      52.306  24.627  32.196  1.00  0.00    -0.744 OA
ENDBRANCH  70  71
ENDBRANCH  38  63
ENDBRANCH  12  13
ENDBRANCH   5   7
ENDBRANCH   2   3
ENDBRANCH   1   2
BRANCH   1  75
ATOM     75  C   UNL A   1      32.917  29.350  24.739  1.00  0.00     0.023 C 
BRANCH  75  76
ATOM     76  C   UNL A   1      31.417  29.437  25.003  1.00  0.00     0.116 C 
BRANCH  76  77
ATOM     77  N   UNL A   1      30.655  29.708  23.792  1.00  0.00    -0.351 N 
ATOM     78  C   UNL A   1      30.425  28.894  22.703  1.00  0.00     0.261 C 
ATOM     79  H   UNL A   1      30.244  30.602  23.744  1.00  0.00     0.163 HD
ATOM     80  O   UNL A   1      29.925  29.413  21.699  1.00  0.00    -0.268 OA
BRANCH  78  81
ATOM     81  C   UNL A   1      30.735  27.483  22.808  1.00  0.00     0.093 A 
ATOM     82  C   UNL A   1      31.752  26.796  22.180  1.00  0.00     0.040 A 
ATOM     83  S   UNL A   1      29.858  26.450  23.848  1.00  0.00    -0.137 S 
ATOM     84  C   UNL A   1      31.752  25.400  22.450  1.00  0.00     0.019 A 
ATOM     85  C   UNL A   1      30.767  25.076  23.356  1.00  0.00     0.080 A 
BRANCH  84  86
ATOM     86  S   UNL A   1      32.863  24.220  21.726  1.00  0.00    -0.122 SA
BRANCH  86  87
ATOM     87  C   UNL A   1      33.267  23.161  23.157  1.00  0.00     0.057 C 
ATOM     88  C   UNL A   1      32.485  21.848  23.083  1.00  0.00     0.043 C 
ATOM     89  C   UNL A   1      34.757  22.848  23.351  1.00  0.00     0.053 C 
ATOM     90  C   UNL A   1      32.699  21.094  24.381  1.00  0.00     0.162 C 
ATOM     91  C   UNL A   1      34.925  21.984  24.630  1.00  0.00     0.095 C 
ATOM     92  O   UNL A   1      34.084  20.825  24.563  1.00  0.00    -0.372 OA
ATOM     93  C   UNL A   1      36.351  21.489  24.809  1.00  0.00     0.066 C 
ATOM     94  C   UNL A   1      34.742  22.784  25.929  1.00  0.00     0.195 C 
ATOM     95  C   UNL A   1      37.034  22.599  25.573  1.00  0.00     0.163 C 
ATOM     96  O   UNL A   1      36.025  23.296  26.310  1.00  0.00    -0.378 OA
ENDBRANCH  86  87
ENDBRANCH  84  86
ENDBRANCH  78  81
ENDBRANCH  76  77
ENDBRANCH  75  76
ENDBRANCH   1  75
TORSDOF 16
ENDMDL
MODEL 2
REMARK VINA RESULT:     -11.3      3.518      9.308
REMARK SMILES O=C(NCCCCNC(=O)c1cc(S[C@H]2CCO[C@@]3(CCOC3)C2)cs1)c1ccc(-c2c3nc(c(-c4c(F)cc(S(=O)(=O)[O-])cc4F)c4ccc([nH]4)c(-c4c(F)cc(S(=O)(=O)[O-])cc4F)c4nc(c(-c5c(F)cc(S(=O)(=O)[O-])cc5F)c5ccc2[nH]5)C=C4)C=C3)cc1
REMARK SMILES IDX 5 1 4 2 3 3 1 4 2 5 27 7 28 8 92 9 29 10 91 11 30 12 31 13
REMARK SMILES IDX 32 14 85 15 33 16 90 17 84 18 86 19 34 20 89 21 83 22 82 23
REMARK SMILES IDX 35 25 69 26 48 27 68 28 49 29 52 30 67 31 87 32 50 33 51 34
REMARK SMILES IDX 66 36 88 37 53 38 36 39 37 40 46 41 38 42 39 43 45 44 47 45
REMARK SMILES IDX 40 46 41 47 42 48 43 49 44 50 70 51 71 52 80 53 72 54 73 55
REMARK SMILES IDX 79 56 81 57 74 58 75 59 76 60 77 61 78 62 54 63 55 64 64 65
REMARK SMILES IDX 56 66 57 67 63 68 65 69 58 70 59 71 60 72 61 73 62 74 6 75
REMARK SMILES IDX 7 76 8 77 9 78 10 80 11 81 12 82 26 83 13 84 25 85 14 86
REMARK SMILES IDX 15 87 16 88 24 89 17 90 19 91 18 92 20 93 23 94 21 95 22 96
REMARK H PARENT 3 6 86 24 52 35 8 79
REMARK Flexibility Score: inf
ROOT
ATOM      1  C   UNL A   1      38.162  19.987  24.939  1.00  0.00     0.023 C 
ENDROOT
BRANCH   1   2
ATOM      2  C   UNL A   1      39.191  20.215  26.042  1.00  0.00     0.116 C 
BRANCH   2   3
ATOM      3  N   UNL A   1      40.253  19.221  26.032  1.00  0.00    -0.352 N 
ATOM      4  O   UNL A   1      42.356  18.442  25.868  1.00  0.00    -0.269 OA
ATOM      5  C   UNL A   1      41.615  19.399  26.071  1.00  0.00     0.251 C 
ATOM      6  H   UNL A   1      39.952  18.285  25.989  1.00  0.00     0.163 HD
BRANCH   5   7
ATOM      7  C   UNL A   1      42.187  20.737  26.341  1.00  0.00     0.039 A 
ATOM      8  C   UNL A   1      42.502  21.608  25.295  1.00  0.00     0.014 A 
ATOM      9  C   UNL A   1      42.370  21.142  27.668  1.00  0.00     0.014 A 
ATOM     10  C   UNL A   1      43.101  22.834  25.568  1.00  0.00     0.010 A 
ATOM     11  C   UNL A   1      42.910  22.401  27.943  1.00  0.00     0.010 A 
ATOM     12  C   UNL A   1      43.294  23.250  26.894  1.00  0.00    -0.014 A 
BRANCH  12  13
ATOM     13  C   UNL A   1      43.794  24.621  27.165  1.00  0.00     0.031 A 
ATOM     14  C   UNL A   1      42.867  25.715  27.614  1.00  0.00     0.074 A 
ATOM     15  C   UNL A   1      45.107  24.868  26.986  1.00  0.00     0.049 A 
ATOM     16  N   UNL A   1      43.146  26.968  27.873  1.00  0.00    -0.248 NA
ATOM     17  C   UNL A   1      41.448  25.370  27.789  1.00  0.00     0.031 C 
ATOM     18  C   UNL A   1      46.091  23.885  26.520  1.00  0.00     0.029 A 
ATOM     19  N   UNL A   1      45.841  26.011  27.167  1.00  0.00    -0.354 N 
ATOM     20  C   UNL A   1      41.940  27.565  28.219  1.00  0.00     0.074 A 
ATOM     21  C   UNL A   1      40.922  26.540  28.130  1.00  0.00     0.031 C 
ATOM     22  C   UNL A   1      47.299  24.464  26.465  1.00  0.00     0.029 A 
ATOM     23  C   UNL A   1      47.169  25.867  26.842  1.00  0.00     0.049 A 
ATOM     24  H   UNL A   1      45.454  26.854  27.497  1.00  0.00     0.167 HD
ATOM     25  C   UNL A   1      41.711  28.849  28.581  1.00  0.00     0.037 A 
ATOM     26  C   UNL A   1      48.167  26.768  26.815  1.00  0.00     0.037 A 
ATOM     27  C   UNL A   1      42.740  29.852  28.701  1.00  0.00     0.049 A 
ATOM     28  C   UNL A   1      47.878  28.188  27.208  1.00  0.00     0.074 A 
ATOM     29  C   UNL A   1      42.623  31.152  29.164  1.00  0.00     0.029 A 
ATOM     30  N   UNL A   1      44.067  29.675  28.340  1.00  0.00    -0.354 N 
ATOM     31  N   UNL A   1      46.746  28.712  27.610  1.00  0.00    -0.248 NA
ATOM     32  C   UNL A   1      48.994  29.139  27.132  1.00  0.00     0.031 C 
ATOM     33  C   UNL A   1      43.871  31.774  29.043  1.00  0.00     0.029 A 
ATOM     34  C   UNL A   1      44.771  30.852  28.532  1.00  0.00     0.049 A 
ATOM     35  H   UNL A   1      44.452  28.836  27.998  1.00  0.00     0.167 HD
ATOM     36  C   UNL A   1      47.011  30.058  27.829  1.00  0.00     0.074 A 
ATOM     37  C   UNL A   1      48.417  30.261  27.542  1.00  0.00     0.031 C 
ATOM     38  C   UNL A   1      46.164  31.039  28.224  1.00  0.00     0.037 A 
BRANCH  25  39
ATOM     39  C   UNL A   1      40.300  29.267  28.877  1.00  0.00     0.058 A 
ATOM     40  C   UNL A   1      39.858  29.489  30.189  1.00  0.00     0.135 A 
ATOM     41  C   UNL A   1      39.412  29.552  27.827  1.00  0.00     0.135 A 
ATOM     42  F   UNL A   1      40.664  29.222  31.229  1.00  0.00    -0.206 F 
ATOM     43  C   UNL A   1      38.582  29.981  30.451  1.00  0.00     0.059 A 
ATOM     44  C   UNL A   1      38.138  30.059  28.064  1.00  0.00     0.059 A 
ATOM     45  F   UNL A   1      39.787  29.354  26.554  1.00  0.00    -0.206 F 
ATOM     46  C   UNL A   1      37.731  30.268  29.382  1.00  0.00     0.060 A 
BRANCH  46  47
ATOM     47  S   UNL A   1      36.097  30.951  29.736  1.00  0.00     0.124 S 
ATOM     48  O   UNL A   1      35.261  30.207  28.799  1.00  0.00    -0.237 OA
ATOM     49  O   UNL A   1      35.917  30.617  31.146  1.00  0.00    -0.237 OA
ATOM     50  O   UNL A   1      36.252  32.373  29.447  1.00  0.00    -0.744 OA
ENDBRANCH  46  47
ENDBRANCH  25  39
BRANCH  26  51
ATOM     51  C   UNL A   1      49.518  26.360  26.357  1.00  0.00     0.058 A 
ATOM     52  C   UNL A   1      49.979  26.685  25.074  1.00  0.00     0.135 A 
ATOM     53  C   UNL A   1      50.380  25.648  27.206  1.00  0.00     0.135 A 
ATOM     54  F   UNL A   1      49.188  27.361  24.228  1.00  0.00    -0.206 F 
ATOM     55  C   UNL A   1      51.245  26.305  24.641  1.00  0.00     0.059 A 
ATOM     56  C   UNL A   1      51.658  25.277  26.804  1.00  0.00     0.059 A 
ATOM     57  F   UNL A   1      49.989  25.331  28.449  1.00  0.00    -0.206 F 
ATOM     58  C   UNL A   1      52.077  25.600  25.514  1.00  0.00     0.060 A 
BRANCH  58  59
ATOM     59  S   UNL A   1      53.736  25.144  24.965  1.00  0.00     0.124 S 
ATOM     60  O   UNL A   1      53.631  23.692  24.896  1.00  0.00    -0.237 OA
ATOM     61  O   UNL A   1      53.845  25.840  23.686  1.00  0.00    -0.237 OA
ATOM     62  O   UNL A   1      54.591  25.669  26.026  1.00  0.00    -0.744 OA
ENDBRANCH  58  59
ENDBRANCH  26  51
BRANCH  38  63
ATOM     63  C   UNL A   1      46.733  32.420  28.352  1.00  0.00     0.058 A 
ATOM     64  C   UNL A   1      46.610  33.353  27.310  1.00  0.00     0.135 A 
ATOM     65  C   UNL A   1      47.369  32.830  29.534  1.00  0.00     0.135 A 
ATOM     66  F   UNL A   1      46.020  33.002  26.156  1.00  0.00    -0.206 F 
ATOM     67  C   UNL A   1      47.109  34.644  27.432  1.00  0.00     0.059 A 
ATOM     68  C   UNL A   1      47.858  34.123  29.684  1.00  0.00     0.059 A 
ATOM     69  F   UNL A   1      47.507  31.975  30.559  1.00  0.00    -0.206 F 
ATOM     70  C   UNL A   1      47.731  35.020  28.624  1.00  0.00     0.060 A 
BRANCH  70  71
ATOM     71  S   UNL A   1      48.343  36.712  28.786  1.00  0.00     0.124 S 
ATOM     72  O   UNL A   1      48.314  37.169  27.401  1.00  0.00    -0.237 OA
ATOM     73  O   UNL A   1      47.359  37.319  29.676  1.00  0.00    -0.237 OA
ATOM     74  O   UNL A   1      49.673  36.534  29.362  1.00  0.00    -0.744 OA
ENDBRANCH  70  71
ENDBRANCH  38  63
ENDBRANCH  12  13
ENDBRANCH   5   7
ENDBRANCH   2   3
ENDBRANCH   1   2
BRANCH   1  75
ATOM     75  C   UNL A   1      37.159  21.121  24.739  1.00  0.00     0.023 C 
BRANCH  75  76
ATOM     76  C   UNL A   1      35.725  20.803  25.153  1.00  0.00     0.116 C 
BRANCH  76  77
ATOM     77  N   UNL A   1      35.367  21.412  26.427  1.00  0.00    -0.351 N 
ATOM     78  C   UNL A   1      34.418  22.373  26.700  1.00  0.00     0.261 C 
ATOM     79  H   UNL A   1      35.876  21.089  27.206  1.00  0.00     0.163 HD
ATOM     80  O   UNL A   1      34.435  22.890  27.823  1.00  0.00    -0.268 OA
BRANCH  78  81
ATOM     81  C   UNL A   1      33.433  22.691  25.685  1.00  0.00     0.093 A 
ATOM     82  C   UNL A   1      33.473  23.719  24.767  1.00  0.00     0.040 A 
ATOM     83  S   UNL A   1      32.048  21.721  25.449  1.00  0.00    -0.137 S 
ATOM     84  C   UNL A   1      32.318  23.793  23.941  1.00  0.00     0.019 A 
ATOM     85  C   UNL A   1      31.457  22.752  24.206  1.00  0.00     0.080 A 
BRANCH  84  86
ATOM     86  S   UNL A   1      32.011  25.051  22.726  1.00  0.00    -0.122 SA
BRANCH  86  87
ATOM     87  C   UNL A   1      32.751  26.521  23.517  1.00  0.00     0.057 C 
ATOM     88  C   UNL A   1      33.286  27.482  22.454  1.00  0.00     0.043 C 
ATOM     89  C   UNL A   1      31.833  27.292  24.475  1.00  0.00     0.053 C 
ATOM     90  C   UNL A   1      34.060  28.582  23.155  1.00  0.00     0.162 C 
ATOM     91  C   UNL A   1      32.628  28.473  25.091  1.00  0.00     0.095 C 
ATOM     92  O   UNL A   1      33.207  29.278  24.055  1.00  0.00    -0.372 OA
ATOM     93  C   UNL A   1      31.749  29.389  25.927  1.00  0.00     0.066 C 
ATOM     94  C   UNL A   1      33.652  28.029  26.147  1.00  0.00     0.195 C 
ATOM     95  C   UNL A   1      31.775  28.768  27.304  1.00  0.00     0.163 C 
ATOM     96  O   UNL A   1      32.994  28.030  27.420  1.00  0.00    -0.378 OA
ENDBRANCH  86  87
ENDBRANCH  84  86
ENDBRANCH  78  81
ENDBRANCH  76  77
ENDBRANCH  75  76
ENDBRANCH   1  75
TORSDOF 16
ENDMDL
MODEL 3
REMARK VINA RESULT:     -11.2      0.681      8.276
REMARK SMILES O=C(NCCCCNC(=O)c1cc(S[C@H]2CCO[C@@]3(CCOC3)C2)cs1)c1ccc(-c2c3nc(c(-c4c(F)cc(S(=O)(=O)[O-])cc4F)c4ccc([nH]4)c(-c4c(F)cc(S(=O)(=O)[O-])cc4F)c4nc(c(-c5c(F)cc(S(=O)(=O)[O-])cc5F)c5ccc2[nH]5)C=C4)C=C3)cc1
REMARK SMILES IDX 5 1 4 2 3 3 1 4 2 5 27 7 28 8 92 9 29 10 91 11 30 12 31 13
REMARK SMILES IDX 32 14 85 15 33 16 90 17 84 18 86 19 34 20 89 21 83 22 82 23
REMARK SMILES IDX 35 25 69 26 48 27 68 28 49 29 52 30 67 31 87 32 50 33 51 34
REMARK SMILES IDX 66 36 88 37 53 38 36 39 37 40 46 41 38 42 39 43 45 44 47 45
REMARK SMILES IDX 40 46 41 47 42 48 43 49 44 50 70 51 71 52 80 53 72 54 73 55
REMARK SMILES IDX 79 56 81 57 74 58 75 59 76 60 77 61 78 62 54 63 55 64 64 65
REMARK SMILES IDX 56 66 57 67 63 68 65 69 58 70 59 71 60 72 61 73 62 74 6 75
REMARK SMILES IDX 7 76 8 77 9 78 10 80 11 81 12 82 26 83 13 84 25 85 14 86
REMARK SMILES IDX 15 87 16 88 24 89 17 90 19 91 18 92 20 93 23 94 21 95 22 96
REMARK H PARENT 3 6 86 24 52 35 8 79
REMARK Flexibility Score: inf
ROOT
ATOM      1  C   UNL A   1      32.607  27.806  26.658  1.00  0.00     0.023 C 
ENDROOT
BRANCH   1   2
ATOM      2  C   UNL A   1      33.898  28.484  27.111  1.00  0.00     0.116 C 
BRANCH   2   3
ATOM      3  N   UNL A   1      33.688  29.856  27.543  1.00  0.00    -0.352 N 
ATOM      4  O   UNL A   1      34.096  31.753  28.679  1.00  0.00    -0.269 OA
ATOM      5  C   UNL A   1      34.525  30.686  28.248  1.00  0.00     0.251 C 
ATOM      6  H   UNL A   1      32.818  30.246  27.295  1.00  0.00     0.163 HD
BRANCH   5   7
ATOM      7  C   UNL A   1      35.929  30.293  28.501  1.00  0.00     0.039 A 
ATOM      8  C   UNL A   1      36.901  30.420  27.505  1.00  0.00     0.014 A 
ATOM      9  C   UNL A   1      36.285  29.832  29.773  1.00  0.00     0.014 A 
ATOM     10  C   UNL A   1      38.200  29.982  27.743  1.00  0.00     0.010 A 
ATOM     11  C   UNL A   1      37.607  29.455  30.032  1.00  0.00     0.010 A 
ATOM     12  C   UNL A   1      38.570  29.513  29.013  1.00  0.00    -0.014 A 
BRANCH  12  13
ATOM     13  C   UNL A   1      39.992  29.194  29.289  1.00  0.00     0.031 A 
ATOM     14  C   UNL A   1      40.922  30.217  29.879  1.00  0.00     0.074 A 
ATOM     15  C   UNL A   1      40.440  27.959  28.985  1.00  0.00     0.049 A 
ATOM     16  N   UNL A   1      42.194  30.100  30.162  1.00  0.00    -0.248 NA
ATOM     17  C   UNL A   1      40.361  31.541  30.187  1.00  0.00     0.031 C 
ATOM     18  C   UNL A   1      39.630  26.898  28.377  1.00  0.00     0.029 A 
ATOM     19  N   UNL A   1      41.676  27.387  29.137  1.00  0.00    -0.354 N 
ATOM     20  C   UNL A   1      42.593  31.335  30.657  1.00  0.00     0.074 A 
ATOM     21  C   UNL A   1      41.428  32.194  30.631  1.00  0.00     0.031 C 
ATOM     22  C   UNL A   1      40.387  25.802  28.220  1.00  0.00     0.029 A 
ATOM     23  C   UNL A   1      41.743  26.096  28.669  1.00  0.00     0.049 A 
ATOM     24  H   UNL A   1      42.441  27.855  29.542  1.00  0.00     0.167 HD
ATOM     25  C   UNL A   1      43.817  31.709  31.097  1.00  0.00     0.037 A 
ATOM     26  C   UNL A   1      42.786  25.251  28.577  1.00  0.00     0.037 A 
ATOM     27  C   UNL A   1      44.960  30.833  31.152  1.00  0.00     0.049 A 
ATOM     28  C   UNL A   1      44.134  25.701  29.059  1.00  0.00     0.074 A 
ATOM     29  C   UNL A   1      46.215  31.089  31.680  1.00  0.00     0.029 A 
ATOM     30  N   UNL A   1      44.996  29.542  30.646  1.00  0.00    -0.354 N 
ATOM     31  N   UNL A   1      44.470  26.847  29.600  1.00  0.00    -0.248 NA
ATOM     32  C   UNL A   1      45.245  24.752  28.907  1.00  0.00     0.031 C 
ATOM     33  C   UNL A   1      47.021  29.968  31.456  1.00  0.00     0.029 A 
ATOM     34  C   UNL A   1      46.261  29.003  30.815  1.00  0.00     0.049 A 
ATOM     35  H   UNL A   1      44.235  29.077  30.230  1.00  0.00     0.167 HD
ATOM     36  C   UNL A   1      45.834  26.761  29.847  1.00  0.00     0.074 A 
ATOM     37  C   UNL A   1      46.255  25.441  29.424  1.00  0.00     0.031 C 
ATOM     38  C   UNL A   1      46.665  27.695  30.370  1.00  0.00     0.037 A 
BRANCH  25  39
ATOM     39  C   UNL A   1      44.009  33.126  31.556  1.00  0.00     0.058 A 
ATOM     40  C   UNL A   1      44.319  34.155  30.656  1.00  0.00     0.135 A 
ATOM     41  C   UNL A   1      43.773  33.473  32.896  1.00  0.00     0.135 A 
ATOM     42  F   UNL A   1      44.565  33.875  29.366  1.00  0.00    -0.206 F 
ATOM     43  C   UNL A   1      44.389  35.483  31.068  1.00  0.00     0.059 A 
ATOM     44  C   UNL A   1      43.822  34.795  33.328  1.00  0.00     0.059 A 
ATOM     45  F   UNL A   1      43.474  32.523  33.796  1.00  0.00    -0.206 F 
ATOM     46  C   UNL A   1      44.133  35.794  32.406  1.00  0.00     0.060 A 
BRANCH  46  47
ATOM     47  S   UNL A   1      44.180  37.526  32.916  1.00  0.00     0.124 S 
ATOM     48  O   UNL A   1      43.041  37.592  33.827  1.00  0.00    -0.237 OA
ATOM     49  O   UNL A   1      45.495  37.632  33.540  1.00  0.00    -0.237 OA
ATOM     50  O   UNL A   1      44.024  38.255  31.662  1.00  0.00    -0.744 OA
ENDBRANCH  46  47
ENDBRANCH  25  39
BRANCH  26  51
ATOM     51  C   UNL A   1      42.600  23.913  27.963  1.00  0.00     0.058 A 
ATOM     52  C   UNL A   1      42.550  23.752  26.572  1.00  0.00     0.135 A 
ATOM     53  C   UNL A   1      42.482  22.765  28.762  1.00  0.00     0.135 A 
ATOM     54  F   UNL A   1      42.655  24.822  25.769  1.00  0.00    -0.206 F 
ATOM     55  C   UNL A   1      42.377  22.500  25.991  1.00  0.00     0.059 A 
ATOM     56  C   UNL A   1      42.331  21.500  28.206  1.00  0.00     0.059 A 
ATOM     57  F   UNL A   1      42.541  22.867  30.099  1.00  0.00    -0.206 F 
ATOM     58  C   UNL A   1      42.266  21.380  26.818  1.00  0.00     0.060 A 
BRANCH  58  59
ATOM     59  S   UNL A   1      42.083  19.750  26.064  1.00  0.00     0.124 S 
ATOM     60  O   UNL A   1      42.436  18.873  27.174  1.00  0.00    -0.237 OA
ATOM     61  O   UNL A   1      40.678  19.745  25.666  1.00  0.00    -0.237 OA
ATOM     62  O   UNL A   1      43.036  19.788  24.958  1.00  0.00    -0.744 OA
ENDBRANCH  58  59
ENDBRANCH  26  51
BRANCH  38  63
ATOM     63  C   UNL A   1      48.112  27.325  30.497  1.00  0.00     0.058 A 
ATOM     64  C   UNL A   1      49.021  27.595  29.463  1.00  0.00     0.135 A 
ATOM     65  C   UNL A   1      48.604  26.736  31.672  1.00  0.00     0.135 A 
ATOM     66  F   UNL A   1      48.594  28.147  28.316  1.00  0.00    -0.206 F 
ATOM     67  C   UNL A   1      50.370  27.282  29.584  1.00  0.00     0.059 A 
ATOM     68  C   UNL A   1      49.953  26.432  31.823  1.00  0.00     0.059 A 
ATOM     69  F   UNL A   1      47.773  26.462  32.690  1.00  0.00    -0.206 F 
ATOM     70  C   UNL A   1      50.827  26.702  30.769  1.00  0.00     0.060 A 
BRANCH  70  71
ATOM     71  S   UNL A   1      52.587  26.333  30.932  1.00  0.00     0.124 S 
ATOM     72  O   UNL A   1      53.072  27.518  31.631  1.00  0.00    -0.237 OA
ATOM     73  O   UNL A   1      52.579  25.096  31.709  1.00  0.00    -0.237 OA
ATOM     74  O   UNL A   1      53.031  26.193  29.548  1.00  0.00    -0.744 OA
ENDBRANCH  70  71
ENDBRANCH  38  63
ENDBRANCH  12  13
ENDBRANCH   5   7
ENDBRANCH   2   3
ENDBRANCH   1   2
BRANCH   1  75
ATOM     75  C   UNL A   1      31.673  28.678  25.821  1.00  0.00     0.023 C 
BRANCH  75  76
ATOM     76  C   UNL A   1      32.221  29.098  24.460  1.00  0.00     0.116 C 
BRANCH  76  77
ATOM     77  N   UNL A   1      31.168  29.285  23.471  1.00  0.00    -0.351 N 
ATOM     78  C   UNL A   1      30.618  28.372  22.597  1.00  0.00     0.261 C 
ATOM     79  H   UNL A   1      30.795  30.195  23.419  1.00  0.00     0.163 HD
ATOM     80  O   UNL A   1      29.883  28.808  21.704  1.00  0.00    -0.268 OA
BRANCH  78  81
ATOM     81  C   UNL A   1      30.888  26.962  22.797  1.00  0.00     0.093 A 
ATOM     82  C   UNL A   1      31.952  26.232  22.310  1.00  0.00     0.040 A 
ATOM     83  S   UNL A   1      29.889  25.991  23.784  1.00  0.00    -0.137 S 
ATOM     84  C   UNL A   1      31.897  24.851  22.640  1.00  0.00     0.019 A 
ATOM     85  C   UNL A   1      30.817  24.583  23.451  1.00  0.00     0.080 A 
BRANCH  84  86
ATOM     86  S   UNL A   1      33.056  23.623  22.090  1.00  0.00    -0.122 SA
BRANCH  86  87
ATOM     87  C   UNL A   1      33.636  22.923  23.673  1.00  0.00     0.057 C 
ATOM     88  C   UNL A   1      32.817  21.684  24.038  1.00  0.00     0.043 C 
ATOM     89  C   UNL A   1      35.130  22.574  23.735  1.00  0.00     0.053 C 
ATOM     90  C   UNL A   1      33.200  21.258  25.442  1.00  0.00     0.162 C 
ATOM     91  C   UNL A   1      35.461  22.040  25.155  1.00  0.00     0.095 C 
ATOM     92  O   UNL A   1      34.589  20.956  25.496  1.00  0.00    -0.372 OA
ATOM     93  C   UNL A   1      36.884  21.516  25.257  1.00  0.00     0.066 C 
ATOM     94  C   UNL A   1      35.493  23.144  26.224  1.00  0.00     0.195 C 
ATOM     95  C   UNL A   1      37.701  22.735  25.619  1.00  0.00     0.163 C 
ATOM     96  O   UNL A   1      36.831  23.653  26.287  1.00  0.00    -0.378 OA
ENDBRANCH  86  87
ENDBRANCH  84  86
ENDBRANCH  78  81
ENDBRANCH  76  77
ENDBRANCH  75  76
ENDBRANCH   1  75
TORSDOF 16
ENDMDL
