MODEL 1
REMARK VINA RESULT:     -10.8      0.000      0.000
REMARK SMILES C[C@@H](C(=O)NCCCCNC(=O)c1ccc(-c2c3nc(c(-c4c(F)cc(S(=O)(=O)[O-])cc4F)c4ccc([nH]4)c(-c4c(F)cc(S(=O)(=O)[O-])cc4F)c4nc(c(-c5c(F)cc(S(=O)(=O)[O-])cc5F)c5ccc2[nH]5)C=C4)C=C3)cc1)[C@@H](C)C(=O)c1cccc(Cl)c1
REMARK SMILES IDX 7 1 6 2 5 3 3 4 4 5 2 7 1 8 79 9 80 10 81 11 82 12 83 13
REMARK SMILES IDX 84 14 89 15 85 16 87 17 86 18 88 19 8 20 9 21 10 22 11 23
REMARK SMILES IDX 12 25 13 26 14 27 78 28 15 29 77 30 16 31 17 32 18 33 71 34
REMARK SMILES IDX 19 35 76 36 70 37 72 38 20 39 75 40 69 41 68 42 21 44 55 45
REMARK SMILES IDX 34 46 54 47 35 48 38 49 53 50 73 51 36 52 37 53 52 55 74 56
REMARK SMILES IDX 39 57 22 58 23 59 32 60 24 61 25 62 31 63 33 64 26 65 27 66
REMARK SMILES IDX 28 67 29 68 30 69 56 70 57 71 66 72 58 73 59 74 65 75 67 76
REMARK SMILES IDX 60 77 61 78 62 79 63 80 64 81 40 82 41 83 50 84 42 85 43 86
REMARK SMILES IDX 49 87 51 88 44 89 45 90 46 91 47 92 48 93
REMARK H PARENT 5 6 10 24 72 43 38 54
REMARK Flexibility Score: inf
ROOT
ATOM      1  C   UNL A   1      31.527  27.757  25.991  1.00  0.00     0.023 C 
ENDROOT
BRANCH   1   2
ATOM      2  C   UNL A   1      30.975  26.483  25.350  1.00  0.00     0.116 C 
BRANCH   2   3
ATOM      3  N   UNL A   1      30.574  25.516  26.354  1.00  0.00    -0.356 N 
ATOM      4  C   UNL A   1      30.947  24.218  26.523  1.00  0.00     0.223 C 
ATOM      5  O   UNL A   1      30.370  23.565  27.390  1.00  0.00    -0.275 OA
ATOM      6  H   UNL A   1      29.931  25.852  27.019  1.00  0.00     0.163 HD
BRANCH   4   7
ATOM      7  C   UNL A   1      32.062  23.625  25.662  1.00  0.00     0.086 C 
ATOM      8  C   UNL A   1      31.829  22.118  25.508  1.00  0.00     0.019 C 
BRANCH   7   9
ATOM      9  C   UNL A   1      33.452  23.923  26.270  1.00  0.00     0.070 C 
ATOM     10  C   UNL A   1      33.892  22.864  27.288  1.00  0.00     0.017 C 
BRANCH   9  11
ATOM     11  C   UNL A   1      34.619  24.160  25.296  1.00  0.00     0.166 C 
ATOM     12  O   UNL A   1      34.660  25.182  24.606  1.00  0.00    -0.294 OA
BRANCH  11  13
ATOM     13  C   UNL A   1      35.850  23.319  25.328  1.00  0.00     0.019 A 
ATOM     14  C   UNL A   1      35.802  22.094  24.644  1.00  0.00     0.012 A 
ATOM     15  C   UNL A   1      37.013  23.671  26.012  1.00  0.00     0.032 A 
ATOM     16  C   UNL A   1      36.916  21.252  24.609  1.00  0.00     0.002 A 
ATOM     17  C   UNL A   1      38.128  22.830  25.963  1.00  0.00     0.041 A 
ATOM     18  C   UNL A   1      38.086  21.628  25.262  1.00  0.00     0.020 A 
ATOM     19  Cl  UNL A   1      39.570  23.291  26.781  1.00  0.00    -0.084 Cl
ENDBRANCH  11  13
ENDBRANCH   9  11
ENDBRANCH   7   9
ENDBRANCH   4   7
ENDBRANCH   2   3
ENDBRANCH   1   2
BRANCH   1  20
ATOM     20  C   UNL A   1      32.912  27.610  26.624  1.00  0.00     0.023 C 
BRANCH  20  21
ATOM     21  C   UNL A   1      33.976  28.562  26.091  1.00  0.00     0.116 C 
BRANCH  21  22
ATOM     22  N   UNL A   1      33.755  29.940  26.502  1.00  0.00    -0.352 N 
ATOM     23  C   UNL A   1      34.450  30.701  27.409  1.00  0.00     0.251 C 
ATOM     24  H   UNL A   1      32.996  30.392  26.067  1.00  0.00     0.163 HD
ATOM     25  O   UNL A   1      34.016  31.802  27.736  1.00  0.00    -0.269 OA
BRANCH  23  26
ATOM     26  C   UNL A   1      35.696  30.180  28.014  1.00  0.00     0.039 A 
ATOM     27  C   UNL A   1      36.884  30.269  27.285  1.00  0.00     0.014 A 
ATOM     28  C   UNL A   1      35.699  29.616  29.294  1.00  0.00     0.014 A 
ATOM     29  C   UNL A   1      38.085  29.858  27.868  1.00  0.00     0.010 A 
ATOM     30  C   UNL A   1      36.906  29.279  29.901  1.00  0.00     0.010 A 
ATOM     31  C   UNL A   1      38.113  29.399  29.197  1.00  0.00    -0.014 A 
BRANCH  31  32
ATOM     32  C   UNL A   1      39.400  29.069  29.863  1.00  0.00     0.031 A 
ATOM     33  C   UNL A   1      39.871  29.862  31.053  1.00  0.00     0.074 A 
ATOM     34  C   UNL A   1      40.171  28.083  29.361  1.00  0.00     0.049 A 
ATOM     35  N   UNL A   1      40.979  29.741  31.738  1.00  0.00    -0.248 NA
ATOM     36  C   UNL A   1      38.994  30.948  31.522  1.00  0.00     0.031 C 
ATOM     37  C   UNL A   1      39.851  27.278  28.178  1.00  0.00     0.029 A 
ATOM     38  N   UNL A   1      41.383  27.589  29.775  1.00  0.00    -0.354 N 
ATOM     39  C   UNL A   1      40.936  30.731  32.713  1.00  0.00     0.074 A 
ATOM     40  C   UNL A   1      39.719  31.483  32.495  1.00  0.00     0.031 C 
ATOM     41  C   UNL A   1      40.827  26.377  27.980  1.00  0.00     0.029 A 
ATOM     42  C   UNL A   1      41.860  26.563  28.992  1.00  0.00     0.049 A 
ATOM     43  H   UNL A   1      41.866  27.937  30.560  1.00  0.00     0.167 HD
ATOM     44  C   UNL A   1      41.816  30.975  33.713  1.00  0.00     0.037 A 
ATOM     45  C   UNL A   1      43.004  25.857  29.074  1.00  0.00     0.037 A 
ATOM     46  C   UNL A   1      43.018  30.213  33.935  1.00  0.00     0.049 A 
ATOM     47  C   UNL A   1      43.970  26.156  30.190  1.00  0.00     0.074 A 
ATOM     48  C   UNL A   1      43.947  30.350  34.951  1.00  0.00     0.029 A 
ATOM     49  N   UNL A   1      43.460  29.174  33.129  1.00  0.00    -0.354 N 
ATOM     50  N   UNL A   1      43.876  27.051  31.145  1.00  0.00    -0.248 NA
ATOM     51  C   UNL A   1      45.193  25.345  30.246  1.00  0.00     0.031 C 
ATOM     52  C   UNL A   1      44.975  29.428  34.734  1.00  0.00     0.029 A 
ATOM     53  C   UNL A   1      44.660  28.677  33.613  1.00  0.00     0.049 A 
ATOM     54  H   UNL A   1      42.990  28.839  32.331  1.00  0.00     0.167 HD
ATOM     55  C   UNL A   1      45.013  26.891  31.929  1.00  0.00     0.074 A 
ATOM     56  C   UNL A   1      45.769  25.801  31.349  1.00  0.00     0.031 C 
ATOM     57  C   UNL A   1      45.400  27.586  33.027  1.00  0.00     0.037 A 
BRANCH  44  58
ATOM     58  C   UNL A   1      41.509  32.106  34.658  1.00  0.00     0.058 A 
ATOM     59  C   UNL A   1      40.692  31.921  35.786  1.00  0.00     0.135 A 
ATOM     60  C   UNL A   1      42.089  33.372  34.474  1.00  0.00     0.135 A 
ATOM     61  F   UNL A   1      40.097  30.737  36.004  1.00  0.00    -0.206 F 
ATOM     62  C   UNL A   1      40.446  32.954  36.685  1.00  0.00     0.059 A 
ATOM     63  C   UNL A   1      41.881  34.411  35.377  1.00  0.00     0.059 A 
ATOM     64  F   UNL A   1      42.878  33.605  33.414  1.00  0.00    -0.206 F 
ATOM     65  C   UNL A   1      41.050  34.195  36.474  1.00  0.00     0.060 A 
BRANCH  65  66
ATOM     66  S   UNL A   1      40.742  35.513  37.669  1.00  0.00     0.124 S 
ATOM     67  O   UNL A   1      39.805  36.358  36.936  1.00  0.00    -0.237 OA
ATOM     68  O   UNL A   1      40.184  34.781  38.802  1.00  0.00    -0.237 OA
ATOM     69  O   UNL A   1      42.066  36.089  37.888  1.00  0.00    -0.744 OA
ENDBRANCH  65  66
ENDBRANCH  44  58
BRANCH  45  70
ATOM     70  C   UNL A   1      43.301  24.790  28.079  1.00  0.00     0.058 A 
ATOM     71  C   UNL A   1      42.888  23.465  28.292  1.00  0.00     0.135 A 
ATOM     72  C   UNL A   1      44.015  25.069  26.903  1.00  0.00     0.135 A 
ATOM     73  F   UNL A   1      42.207  23.146  29.403  1.00  0.00    -0.206 F 
ATOM     74  C   UNL A   1      43.198  22.451  27.392  1.00  0.00     0.059 A 
ATOM     75  C   UNL A   1      44.310  24.078  25.973  1.00  0.00     0.059 A 
ATOM     76  F   UNL A   1      44.416  26.323  26.641  1.00  0.00    -0.206 F 
ATOM     77  C   UNL A   1      43.911  22.767  26.235  1.00  0.00     0.060 A 
BRANCH  77  78
ATOM     78  S   UNL A   1      44.289  21.448  25.061  1.00  0.00     0.124 S 
ATOM     79  O   UNL A   1      43.250  20.474  25.371  1.00  0.00    -0.237 OA
ATOM     80  O   UNL A   1      44.161  22.133  23.779  1.00  0.00    -0.237 OA
ATOM     81  O   UNL A   1      45.649  21.057  25.422  1.00  0.00    -0.744 OA
ENDBRANCH  77  78
ENDBRANCH  45  70
BRANCH  57  82
ATOM     82  C   UNL A   1      46.682  27.166  33.693  1.00  0.00     0.058 A 
ATOM     83  C   UNL A   1      46.709  26.180  34.692  1.00  0.00     0.135 A 
ATOM     84  C   UNL A   1      47.905  27.737  33.306  1.00  0.00     0.135 A 
ATOM     85  F   UNL A   1      45.567  25.605  35.105  1.00  0.00    -0.206 F 
ATOM     86  C   UNL A   1      47.897  25.800  35.308  1.00  0.00     0.059 A 
ATOM     87  C   UNL A   1      49.110  27.350  33.885  1.00  0.00     0.059 A 
ATOM     88  F   UNL A   1      47.940  28.677  32.347  1.00  0.00    -0.206 F 
ATOM     89  C   UNL A   1      49.093  26.392  34.897  1.00  0.00     0.060 A 
BRANCH  89  90
ATOM     90  S   UNL A   1      50.630  25.880  35.694  1.00  0.00     0.124 S 
ATOM     91  O   UNL A   1      51.206  25.001  34.682  1.00  0.00    -0.237 OA
ATOM     92  O   UNL A   1      51.316  27.152  35.895  1.00  0.00    -0.237 OA
ATOM     93  O   UNL A   1      50.176  25.219  36.915  1.00  0.00    -0.744 OA
ENDBRANCH  89  90
ENDBRANCH  57  82
ENDBRANCH  31  32
ENDBRANCH  23  26
ENDBRANCH  21  22
ENDBRANCH  20  21
ENDBRANCH   1  20
TORSDOF 17
ENDMDL
MODEL 2
REMARK VINA RESULT:     -10.7      2.732      3.647
REMARK SMILES C[C@@H](C(=O)NCCCCNC(=O)c1ccc(-c2c3nc(c(-c4c(F)cc(S(=O)(=O)[O-])cc4F)c4ccc([nH]4)c(-c4c(F)cc(S(=O)(=O)[O-])cc4F)c4nc(c(-c5c(F)cc(S(=O)(=O)[O-])cc5F)c5ccc2[nH]5)C=C4)C=C3)cc1)[C@@H](C)C(=O)c1cccc(Cl)c1
REMARK SMILES IDX 7 1 6 2 5 3 3 4 4 5 2 7 1 8 79 9 80 10 81 11 82 12 83 13
REMARK SMILES IDX 84 14 89 15 85 16 87 17 86 18 88 19 8 20 9 21 10 22 11 23
REMARK SMILES IDX 12 25 13 26 14 27 78 28 15 29 77 30 16 31 17 32 18 33 71 34
REMARK SMILES IDX 19 35 76 36 70 37 72 38 20 39 75 40 69 41 68 42 21 44 55 45
REMARK SMILES IDX 34 46 54 47 35 48 38 49 53 50 73 51 36 52 37 53 52 55 74 56
REMARK SMILES IDX 39 57 22 58 23 59 32 60 24 61 25 62 31 63 33 64 26 65 27 66
REMARK SMILES IDX 28 67 29 68 30 69 56 70 57 71 66 72 58 73 59 74 65 75 67 76
REMARK SMILES IDX 60 77 61 78 62 79 63 80 64 81 40 82 41 83 50 84 42 85 43 86
REMARK SMILES IDX 49 87 51 88 44 89 45 90 46 91 47 92 48 93
REMARK H PARENT 5 6 10 24 72 43 38 54
REMARK Flexibility Score: inf
ROOT
ATOM      1  C   UNL A   1      31.626  27.589  26.752  1.00  0.00     0.023 C 
ENDROOT
BRANCH   1   2
ATOM      2  C   UNL A   1      31.061  26.607  25.725  1.00  0.00     0.116 C 
BRANCH   2   3
ATOM      3  N   UNL A   1      30.656  27.287  24.509  1.00  0.00    -0.356 N 
ATOM      4  C   UNL A   1      31.308  27.434  23.323  1.00  0.00     0.223 C 
ATOM      5  O   UNL A   1      30.799  28.165  22.477  1.00  0.00    -0.275 OA
ATOM      6  H   UNL A   1      29.767  27.710  24.548  1.00  0.00     0.163 HD
BRANCH   4   7
ATOM      7  C   UNL A   1      32.619  26.688  23.077  1.00  0.00     0.086 C 
ATOM      8  C   UNL A   1      33.629  27.647  22.435  1.00  0.00     0.019 C 
BRANCH   7   9
ATOM      9  C   UNL A   1      32.390  25.437  22.196  1.00  0.00     0.070 C 
ATOM     10  C   UNL A   1      32.609  25.716  20.705  1.00  0.00     0.017 C 
BRANCH   9  11
ATOM     11  C   UNL A   1      33.164  24.159  22.560  1.00  0.00     0.166 C 
ATOM     12  O   UNL A   1      33.562  23.395  21.677  1.00  0.00    -0.294 OA
BRANCH  11  13
ATOM     13  C   UNL A   1      33.681  23.922  23.939  1.00  0.00     0.019 A 
ATOM     14  C   UNL A   1      35.047  24.163  24.157  1.00  0.00     0.012 A 
ATOM     15  C   UNL A   1      32.894  23.459  24.994  1.00  0.00     0.032 A 
ATOM     16  C   UNL A   1      35.610  23.983  25.423  1.00  0.00     0.002 A 
ATOM     17  C   UNL A   1      33.460  23.293  26.260  1.00  0.00     0.041 A 
ATOM     18  C   UNL A   1      34.810  23.558  26.480  1.00  0.00     0.020 A 
ATOM     19  Cl  UNL A   1      32.473  22.754  27.563  1.00  0.00    -0.084 Cl
ENDBRANCH  11  13
ENDBRANCH   9  11
ENDBRANCH   7   9
ENDBRANCH   4   7
ENDBRANCH   2   3
ENDBRANCH   1   2
BRANCH   1  20
ATOM     20  C   UNL A   1      33.152  27.596  26.864  1.00  0.00     0.023 C 
BRANCH  20  21
ATOM     21  C   UNL A   1      33.849  28.778  26.201  1.00  0.00     0.116 C 
BRANCH  21  22
ATOM     22  N   UNL A   1      33.649  30.025  26.923  1.00  0.00    -0.352 N 
ATOM     23  C   UNL A   1      34.461  30.636  27.847  1.00  0.00     0.251 C 
ATOM     24  H   UNL A   1      32.810  30.499  26.720  1.00  0.00     0.163 HD
ATOM     25  O   UNL A   1      34.048  31.615  28.464  1.00  0.00    -0.269 OA
BRANCH  23  26
ATOM     26  C   UNL A   1      35.811  30.097  28.121  1.00  0.00     0.039 A 
ATOM     27  C   UNL A   1      36.766  30.128  27.103  1.00  0.00     0.014 A 
ATOM     28  C   UNL A   1      36.140  29.572  29.375  1.00  0.00     0.014 A 
ATOM     29  C   UNL A   1      38.069  29.699  27.363  1.00  0.00     0.010 A 
ATOM     30  C   UNL A   1      37.457  29.217  29.655  1.00  0.00     0.010 A 
ATOM     31  C   UNL A   1      38.437  29.279  28.654  1.00  0.00    -0.014 A 
BRANCH  31  32
ATOM     32  C   UNL A   1      39.848  28.931  28.969  1.00  0.00     0.031 A 
ATOM     33  C   UNL A   1      40.765  29.947  29.595  1.00  0.00     0.074 A 
ATOM     34  C   UNL A   1      40.316  27.709  28.644  1.00  0.00     0.049 A 
ATOM     35  N   UNL A   1      42.030  29.834  29.907  1.00  0.00    -0.248 NA
ATOM     36  C   UNL A   1      40.194  31.272  29.888  1.00  0.00     0.031 C 
ATOM     37  C   UNL A   1      39.540  26.655  27.982  1.00  0.00     0.029 A 
ATOM     38  N   UNL A   1      41.555  27.144  28.817  1.00  0.00    -0.354 N 
ATOM     39  C   UNL A   1      42.407  31.066  30.429  1.00  0.00     0.074 A 
ATOM     40  C   UNL A   1      41.252  31.932  30.338  1.00  0.00     0.031 C 
ATOM     41  C   UNL A   1      40.313  25.567  27.831  1.00  0.00     0.029 A 
ATOM     42  C   UNL A   1      41.647  25.855  28.346  1.00  0.00     0.049 A 
ATOM     43  H   UNL A   1      42.307  27.618  29.240  1.00  0.00     0.167 HD
ATOM     44  C   UNL A   1      43.598  31.434  30.959  1.00  0.00     0.037 A 
ATOM     45  C   UNL A   1      42.690  25.003  28.323  1.00  0.00     0.037 A 
ATOM     46  C   UNL A   1      44.740  30.562  31.062  1.00  0.00     0.049 A 
ATOM     47  C   UNL A   1      44.006  25.441  28.910  1.00  0.00     0.074 A 
ATOM     48  C   UNL A   1      45.974  30.825  31.629  1.00  0.00     0.029 A 
ATOM     49  N   UNL A   1      44.791  29.260  30.586  1.00  0.00    -0.354 N 
ATOM     50  N   UNL A   1      44.321  26.588  29.463  1.00  0.00    -0.248 NA
ATOM     51  C   UNL A   1      45.106  24.468  28.876  1.00  0.00     0.031 C 
ATOM     52  C   UNL A   1      46.788  29.701  31.453  1.00  0.00     0.029 A 
ATOM     53  C   UNL A   1      46.043  28.715  30.826  1.00  0.00     0.049 A 
ATOM     54  H   UNL A   1      44.047  28.791  30.143  1.00  0.00     0.167 HD
ATOM     55  C   UNL A   1      45.646  26.464  29.867  1.00  0.00     0.074 A 
ATOM     56  C   UNL A   1      46.065  25.123  29.514  1.00  0.00     0.031 C 
ATOM     57  C   UNL A   1      46.445  27.377  30.473  1.00  0.00     0.037 A 
BRANCH  44  58
ATOM     58  C   UNL A   1      43.730  32.838  31.484  1.00  0.00     0.058 A 
ATOM     59  C   UNL A   1      44.261  33.871  30.695  1.00  0.00     0.135 A 
ATOM     60  C   UNL A   1      43.261  33.172  32.765  1.00  0.00     0.135 A 
ATOM     61  F   UNL A   1      44.740  33.608  29.468  1.00  0.00    -0.206 F 
ATOM     62  C   UNL A   1      44.341  35.179  31.163  1.00  0.00     0.059 A 
ATOM     63  C   UNL A   1      43.303  34.479  33.243  1.00  0.00     0.059 A 
ATOM     64  F   UNL A   1      42.744  32.224  33.563  1.00  0.00    -0.206 F 
ATOM     65  C   UNL A   1      43.854  35.474  32.438  1.00  0.00     0.060 A 
BRANCH  65  66
ATOM     66  S   UNL A   1      43.938  37.183  33.015  1.00  0.00     0.124 S 
ATOM     67  O   UNL A   1      42.835  37.222  33.969  1.00  0.00    -0.237 OA
ATOM     68  O   UNL A   1      45.278  37.251  33.590  1.00  0.00    -0.237 OA
ATOM     69  O   UNL A   1      43.742  37.963  31.797  1.00  0.00    -0.744 OA
ENDBRANCH  65  66
ENDBRANCH  44  58
BRANCH  45  70
ATOM     70  C   UNL A   1      42.537  23.644  27.734  1.00  0.00     0.058 A 
ATOM     71  C   UNL A   1      42.356  22.516  28.550  1.00  0.00     0.135 A 
ATOM     72  C   UNL A   1      42.581  23.443  26.345  1.00  0.00     0.135 A 
ATOM     73  F   UNL A   1      42.311  22.655  29.884  1.00  0.00    -0.206 F 
ATOM     74  C   UNL A   1      42.256  21.236  28.014  1.00  0.00     0.059 A 
ATOM     75  C   UNL A   1      42.454  22.176  25.784  1.00  0.00     0.059 A 
ATOM     76  F   UNL A   1      42.733  24.490  25.519  1.00  0.00    -0.206 F 
ATOM     77  C   UNL A   1      42.308  21.077  26.629  1.00  0.00     0.060 A 
BRANCH  77  78
ATOM     78  S   UNL A   1      42.154  19.414  25.942  1.00  0.00     0.124 S 
ATOM     79  O   UNL A   1      40.723  19.338  25.676  1.00  0.00    -0.237 OA
ATOM     80  O   UNL A   1      43.019  19.486  24.769  1.00  0.00    -0.237 OA
ATOM     81  O   UNL A   1      42.643  18.559  27.020  1.00  0.00    -0.744 OA
ENDBRANCH  77  78
ENDBRANCH  45  70
BRANCH  57  82
ATOM     82  C   UNL A   1      47.843  26.946  30.822  1.00  0.00     0.058 A 
ATOM     83  C   UNL A   1      48.923  27.157  29.950  1.00  0.00     0.135 A 
ATOM     84  C   UNL A   1      48.113  26.340  32.061  1.00  0.00     0.135 A 
ATOM     85  F   UNL A   1      48.721  27.727  28.751  1.00  0.00    -0.206 F 
ATOM     86  C   UNL A   1      50.213  26.751  30.277  1.00  0.00     0.059 A 
ATOM     87  C   UNL A   1      49.400  25.956  32.423  1.00  0.00     0.059 A 
ATOM     88  F   UNL A   1      47.120  26.124  32.939  1.00  0.00    -0.206 F 
ATOM     89  C   UNL A   1      50.441  26.151  31.517  1.00  0.00     0.060 A 
BRANCH  89  90
ATOM     90  S   UNL A   1      52.122  25.643  31.935  1.00  0.00     0.124 S 
ATOM     91  O   UNL A   1      52.421  26.518  33.064  1.00  0.00    -0.237 OA
ATOM     92  O   UNL A   1      51.950  24.229  32.256  1.00  0.00    -0.237 OA
ATOM     93  O   UNL A   1      52.874  25.915  30.713  1.00  0.00    -0.744 OA
ENDBRANCH  89  90
ENDBRANCH  57  82
ENDBRANCH  31  32
ENDBRANCH  23  26
ENDBRANCH  21  22
ENDBRANCH  20  21
ENDBRANCH   1  20
TORSDOF 17
ENDMDL
MODEL 3
REMARK VINA RESULT:     -10.5      3.659      9.607
REMARK SMILES C[C@@H](C(=O)NCCCCNC(=O)c1ccc(-c2c3nc(c(-c4c(F)cc(S(=O)(=O)[O-])cc4F)c4ccc([nH]4)c(-c4c(F)cc(S(=O)(=O)[O-])cc4F)c4nc(c(-c5c(F)cc(S(=O)(=O)[O-])cc5F)c5ccc2[nH]5)C=C4)C=C3)cc1)[C@@H](C)C(=O)c1cccc(Cl)c1
REMARK SMILES IDX 7 1 6 2 5 3 3 4 4 5 2 7 1 8 79 9 80 10 81 11 82 12 83 13
REMARK SMILES IDX 84 14 89 15 85 16 87 17 86 18 88 19 8 20 9 21 10 22 11 23
REMARK SMILES IDX 12 25 13 26 14 27 78 28 15 29 77 30 16 31 17 32 18 33 71 34
REMARK SMILES IDX 19 35 76 36 70 37 72 38 20 39 75 40 69 41 68 42 21 44 55 45
REMARK SMILES IDX 34 46 54 47 35 48 38 49 53 50 73 51 36 52 37 53 52 55 74 56
REMARK SMILES IDX 39 57 22 58 23 59 32 60 24 61 25 62 31 63 33 64 26 65 27 66
REMARK SMILES IDX 28 67 29 68 30 69 56 70 57 71 66 72 58 73 59 74 65 75 67 76
REMARK SMILES IDX 60 77 61 78 62 79 63 80 64 81 40 82 41 83 50 84 42 85 43 86
REMARK SMILES IDX 49 87 51 88 44 89 45 90 46 91 47 92 48 93
REMARK H PARENT 5 6 10 24 72 43 38 54
REMARK Flexibility Score: inf
ROOT
ATOM      1  C   UNL A   1      39.478  21.686  26.005  1.00  0.00     0.023 C 
ENDROOT
BRANCH   1   2
ATOM      2  C   UNL A   1      38.109  21.959  25.381  1.00  0.00     0.116 C 
BRANCH   2   3
ATOM      3  N   UNL A   1      37.438  20.725  25.019  1.00  0.00    -0.356 N 
ATOM      4  C   UNL A   1      36.116  20.399  25.055  1.00  0.00     0.223 C 
ATOM      5  O   UNL A   1      35.807  19.236  24.807  1.00  0.00    -0.275 OA
ATOM      6  H   UNL A   1      38.032  20.010  24.696  1.00  0.00     0.163 HD
BRANCH   4   7
ATOM      7  C   UNL A   1      35.075  21.470  25.378  1.00  0.00     0.086 C 
ATOM      8  C   UNL A   1      34.024  20.879  26.324  1.00  0.00     0.019 C 
BRANCH   7   9
ATOM      9  C   UNL A   1      34.426  22.022  24.087  1.00  0.00     0.070 C 
ATOM     10  C   UNL A   1      32.897  22.082  24.173  1.00  0.00     0.017 C 
BRANCH   9  11
ATOM     11  C   UNL A   1      34.927  23.379  23.562  1.00  0.00     0.166 C 
ATOM     12  O   UNL A   1      35.755  23.429  22.649  1.00  0.00    -0.294 OA
BRANCH  11  13
ATOM     13  C   UNL A   1      34.264  24.659  23.942  1.00  0.00     0.019 A 
ATOM     14  C   UNL A   1      34.503  25.140  25.239  1.00  0.00     0.012 A 
ATOM     15  C   UNL A   1      33.414  25.373  23.097  1.00  0.00     0.032 A 
ATOM     16  C   UNL A   1      33.934  26.340  25.672  1.00  0.00     0.002 A 
ATOM     17  C   UNL A   1      32.858  26.579  23.532  1.00  0.00     0.041 A 
ATOM     18  C   UNL A   1      33.118  27.067  24.810  1.00  0.00     0.020 A 
ATOM     19  Cl  UNL A   1      31.838  27.471  22.469  1.00  0.00    -0.084 Cl
ENDBRANCH  11  13
ENDBRANCH   9  11
ENDBRANCH   7   9
ENDBRANCH   4   7
ENDBRANCH   2   3
ENDBRANCH   1   2
BRANCH   1  20
ATOM     20  C   UNL A   1      39.835  22.583  27.192  1.00  0.00     0.023 C 
BRANCH  20  21
ATOM     21  C   UNL A   1      41.262  23.117  27.200  1.00  0.00     0.116 C 
BRANCH  21  22
ATOM     22  N   UNL A   1      41.544  23.984  26.066  1.00  0.00    -0.352 N 
ATOM     23  C   UNL A   1      41.594  25.355  26.010  1.00  0.00     0.251 C 
ATOM     24  H   UNL A   1      41.724  23.520  25.216  1.00  0.00     0.163 HD
ATOM     25  O   UNL A   1      41.698  25.914  24.921  1.00  0.00    -0.269 OA
BRANCH  23  26
ATOM     26  C   UNL A   1      41.488  26.153  27.251  1.00  0.00     0.039 A 
ATOM     27  C   UNL A   1      42.465  27.116  27.516  1.00  0.00     0.014 A 
ATOM     28  C   UNL A   1      40.429  25.965  28.145  1.00  0.00     0.014 A 
ATOM     29  C   UNL A   1      42.341  27.936  28.640  1.00  0.00     0.010 A 
ATOM     30  C   UNL A   1      40.267  26.833  29.221  1.00  0.00     0.010 A 
ATOM     31  C   UNL A   1      41.218  27.830  29.479  1.00  0.00    -0.014 A 
BRANCH  31  32
ATOM     32  C   UNL A   1      41.020  28.775  30.610  1.00  0.00     0.031 A 
ATOM     33  C   UNL A   1      41.868  28.674  31.849  1.00  0.00     0.074 A 
ATOM     34  C   UNL A   1      40.036  29.694  30.538  1.00  0.00     0.049 A 
ATOM     35  N   UNL A   1      41.815  29.386  32.945  1.00  0.00    -0.248 NA
ATOM     36  C   UNL A   1      42.898  27.621  31.870  1.00  0.00     0.031 C 
ATOM     37  C   UNL A   1      39.109  29.856  29.414  1.00  0.00     0.029 A 
ATOM     38  N   UNL A   1      39.644  30.665  31.427  1.00  0.00    -0.354 N 
ATOM     39  C   UNL A   1      42.795  28.870  33.784  1.00  0.00     0.074 A 
ATOM     40  C   UNL A   1      43.391  27.747  33.094  1.00  0.00     0.031 C 
ATOM     41  C   UNL A   1      38.277  30.879  29.670  1.00  0.00     0.029 A 
ATOM     42  C   UNL A   1      38.581  31.421  30.989  1.00  0.00     0.049 A 
ATOM     43  H   UNL A   1      40.084  30.806  32.297  1.00  0.00     0.167 HD
ATOM     44  C   UNL A   1      43.182  29.309  35.006  1.00  0.00     0.037 A 
ATOM     45  C   UNL A   1      37.920  32.431  31.586  1.00  0.00     0.037 A 
ATOM     46  C   UNL A   1      42.596  30.439  35.681  1.00  0.00     0.049 A 
ATOM     47  C   UNL A   1      38.364  32.892  32.949  1.00  0.00     0.074 A 
ATOM     48  C   UNL A   1      42.952  30.992  36.898  1.00  0.00     0.029 A 
ATOM     49  N   UNL A   1      41.531  31.187  35.201  1.00  0.00    -0.354 N 
ATOM     50  N   UNL A   1      39.341  32.436  33.697  1.00  0.00    -0.248 NA
ATOM     51  C   UNL A   1      37.622  34.009  33.548  1.00  0.00     0.031 C 
ATOM     52  C   UNL A   1      42.073  32.043  37.178  1.00  0.00     0.029 A 
ATOM     53  C   UNL A   1      41.203  32.182  36.108  1.00  0.00     0.049 A 
ATOM     54  H   UNL A   1      41.075  31.034  34.342  1.00  0.00     0.167 HD
ATOM     55  C   UNL A   1      39.347  33.227  34.840  1.00  0.00     0.074 A 
ATOM     56  C   UNL A   1      38.290  34.204  34.675  1.00  0.00     0.031 C 
ATOM     57  C   UNL A   1      40.151  33.151  35.929  1.00  0.00     0.037 A 
BRANCH  44  58
ATOM     58  C   UNL A   1      44.302  28.575  35.694  1.00  0.00     0.058 A 
ATOM     59  C   UNL A   1      44.051  27.513  36.579  1.00  0.00     0.135 A 
ATOM     60  C   UNL A   1      45.642  28.891  35.419  1.00  0.00     0.135 A 
ATOM     61  F   UNL A   1      42.790  27.177  36.892  1.00  0.00    -0.206 F 
ATOM     62  C   UNL A   1      45.088  26.805  37.179  1.00  0.00     0.059 A 
ATOM     63  C   UNL A   1      46.695  28.177  35.984  1.00  0.00     0.059 A 
ATOM     64  F   UNL A   1      45.940  29.898  34.581  1.00  0.00    -0.206 F 
ATOM     65  C   UNL A   1      46.406  27.142  36.871  1.00  0.00     0.060 A 
BRANCH  65  66
ATOM     66  S   UNL A   1      47.736  26.190  37.637  1.00  0.00     0.124 S 
ATOM     67  O   UNL A   1      47.960  25.148  36.640  1.00  0.00    -0.237 OA
ATOM     68  O   UNL A   1      48.797  27.185  37.765  1.00  0.00    -0.237 OA
ATOM     69  O   UNL A   1      47.150  25.738  38.895  1.00  0.00    -0.744 OA
ENDBRANCH  65  66
ENDBRANCH  44  58
BRANCH  45  70
ATOM     70  C   UNL A   1      36.774  33.088  30.899  1.00  0.00     0.058 A 
ATOM     71  C   UNL A   1      36.982  34.014  29.866  1.00  0.00     0.135 A 
ATOM     72  C   UNL A   1      35.448  32.813  31.271  1.00  0.00     0.135 A 
ATOM     73  F   UNL A   1      38.230  34.314  29.476  1.00  0.00    -0.206 F 
ATOM     74  C   UNL A   1      35.921  34.668  29.247  1.00  0.00     0.059 A 
ATOM     75  C   UNL A   1      34.369  33.431  30.647  1.00  0.00     0.059 A 
ATOM     76  F   UNL A   1      35.193  31.921  32.241  1.00  0.00    -0.206 F 
ATOM     77  C   UNL A   1      34.618  34.370  29.646  1.00  0.00     0.060 A 
BRANCH  77  78
ATOM     78  S   UNL A   1      33.246  35.206  28.821  1.00  0.00     0.124 S 
ATOM     79  O   UNL A   1      32.432  35.623  29.957  1.00  0.00    -0.237 OA
ATOM     80  O   UNL A   1      33.929  36.274  28.097  1.00  0.00    -0.237 OA
ATOM     81  O   UNL A   1      32.670  34.159  27.982  1.00  0.00    -0.744 OA
ENDBRANCH  77  78
ENDBRANCH  45  70
BRANCH  57  82
ATOM     82  C   UNL A   1      39.942  34.173  37.014  1.00  0.00     0.058 A 
ATOM     83  C   UNL A   1      40.475  35.469  36.924  1.00  0.00     0.135 A 
ATOM     84  C   UNL A   1      39.171  33.861  38.146  1.00  0.00     0.135 A 
ATOM     85  F   UNL A   1      41.225  35.818  35.866  1.00  0.00    -0.206 F 
ATOM     86  C   UNL A   1      40.282  36.406  37.933  1.00  0.00     0.059 A 
ATOM     87  C   UNL A   1      38.937  34.793  39.152  1.00  0.00     0.059 A 
ATOM     88  F   UNL A   1      38.626  32.641  38.278  1.00  0.00    -0.206 F 
ATOM     89  C   UNL A   1      39.512  36.058  39.044  1.00  0.00     0.060 A 
BRANCH  89  90
ATOM     90  S   UNL A   1      39.256  37.290  40.339  1.00  0.00     0.124 S 
ATOM     91  O   UNL A   1      38.520  38.324  39.620  1.00  0.00    -0.237 OA
ATOM     92  O   UNL A   1      38.492  36.542  41.334  1.00  0.00    -0.237 OA
ATOM     93  O   UNL A   1      40.614  37.648  40.740  1.00  0.00    -0.744 OA
ENDBRANCH  89  90
ENDBRANCH  57  82
ENDBRANCH  31  32
ENDBRANCH  23  26
ENDBRANCH  21  22
ENDBRANCH  20  21
ENDBRANCH   1  20
TORSDOF 17
ENDMDL
