MODEL 1
REMARK VINA RESULT:     -10.0      0.000      0.000
REMARK SMILES C[C@@H](CCC(=O)Nc1ccccn1)C(=O)NCCCCNC(=O)c1ccc(-c2c3nc(c(-c4c(F)cc(S(=O)(=O)[O-])cc4F)c4ccc([nH]4)c(-c4c(F)cc(S(=O)(=O)[O-])cc4F)c4nc(c(-c5c(F)cc(S(=O)(=O)[O-])cc5F)c5ccc2[nH]5)C=C4)C=C3)cc1
REMARK SMILES IDX 18 1 17 2 16 3 14 4 15 5 2 7 1 8 3 9 4 10 5 11 6 12 7 13
REMARK SMILES IDX 8 15 9 16 13 17 10 18 12 19 11 20 19 21 20 22 21 23 22 24
REMARK SMILES IDX 23 26 24 27 25 28 89 29 26 30 88 31 27 32 28 33 29 34 82 35
REMARK SMILES IDX 30 36 87 37 81 38 83 39 31 40 86 41 80 42 79 43 32 45 66 46
REMARK SMILES IDX 45 47 65 48 46 49 49 50 64 51 84 52 47 53 48 54 63 56 85 57
REMARK SMILES IDX 50 58 33 59 34 60 43 61 35 62 36 63 42 64 44 65 37 66 38 67
REMARK SMILES IDX 39 68 40 69 41 70 67 71 68 72 77 73 69 74 70 75 76 76 78 77
REMARK SMILES IDX 71 78 72 79 73 80 74 81 75 82 51 83 52 84 61 85 53 86 54 87
REMARK SMILES IDX 60 88 62 89 55 90 56 91 57 92 58 93 59 94
REMARK H PARENT 16 6 7 14 21 25 83 44 49 55
REMARK Flexibility Score: inf
ROOT
ATOM      1  C   UNL A   1      34.416  34.576  28.394  1.00  0.00     0.023 C 
ENDROOT
BRANCH   1   2
ATOM      2  C   UNL A   1      32.965  35.014  28.739  1.00  0.00     0.116 C 
BRANCH   2   3
ATOM      3  N   UNL A   1      32.936  36.264  29.532  1.00  0.00    -0.356 N 
ATOM      4  C   UNL A   1      33.019  36.744  30.794  1.00  0.00     0.222 C 
ATOM      5  O   UNL A   1      33.051  37.988  30.837  1.00  0.00    -0.275 OA
ATOM      6  H   UNL A   1      32.811  37.022  28.917  1.00  0.00     0.163 HD
BRANCH   4   7
ATOM      7  C   UNL A   1      33.030  36.022  32.166  1.00  0.00     0.076 C 
ATOM      8  C   UNL A   1      31.645  35.745  32.815  1.00  0.00     0.018 C 
BRANCH   7   9
ATOM      9  C   UNL A   1      33.972  34.864  32.404  1.00  0.00     0.023 C 
BRANCH   9  10
ATOM     10  C   UNL A   1      34.741  34.897  33.718  1.00  0.00     0.101 C 
BRANCH  10  11
ATOM     11  C   UNL A   1      35.846  33.896  33.925  1.00  0.00     0.225 C 
ATOM     12  O   UNL A   1      35.939  33.416  35.070  1.00  0.00    -0.275 OA
ATOM     13  N   UNL A   1      36.711  33.371  33.042  1.00  0.00    -0.311 N 
ATOM     14  H   UNL A   1      37.022  32.530  33.448  1.00  0.00     0.171 HD
BRANCH  13  15
ATOM     15  C   UNL A   1      37.376  33.460  31.820  1.00  0.00     0.132 A 
ATOM     16  C   UNL A   1      37.152  32.820  30.619  1.00  0.00     0.047 A 
ATOM     17  N   UNL A   1      38.263  34.476  31.870  1.00  0.00    -0.239 NA
ATOM     18  C   UNL A   1      37.857  33.185  29.463  1.00  0.00     0.005 A 
ATOM     19  C   UNL A   1      38.924  34.837  30.745  1.00  0.00     0.113 A 
ATOM     20  C   UNL A   1      38.768  34.218  29.525  1.00  0.00     0.020 A 
ENDBRANCH  13  15
ENDBRANCH  10  11
ENDBRANCH   9  10
ENDBRANCH   7   9
ENDBRANCH   4   7
ENDBRANCH   2   3
ENDBRANCH   1   2
BRANCH   1  21
ATOM     21  C   UNL A   1      34.672  33.155  27.872  1.00  0.00     0.023 C 
BRANCH  21  22
ATOM     22  C   UNL A   1      34.224  31.983  28.727  1.00  0.00     0.116 C 
BRANCH  22  23
ATOM     23  N   UNL A   1      33.876  30.758  28.020  1.00  0.00    -0.352 N 
ATOM     24  C   UNL A   1      34.716  29.679  27.799  1.00  0.00     0.251 C 
ATOM     25  H   UNL A   1      32.959  30.691  27.667  1.00  0.00     0.163 HD
ATOM     26  O   UNL A   1      34.347  28.692  27.166  1.00  0.00    -0.269 OA
BRANCH  24  27
ATOM     27  C   UNL A   1      36.108  29.769  28.297  1.00  0.00     0.039 A 
ATOM     28  C   UNL A   1      36.398  29.355  29.599  1.00  0.00     0.014 A 
ATOM     29  C   UNL A   1      37.138  30.080  27.407  1.00  0.00     0.014 A 
ATOM     30  C   UNL A   1      37.729  29.133  29.967  1.00  0.00     0.010 A 
ATOM     31  C   UNL A   1      38.448  29.760  27.743  1.00  0.00     0.010 A 
ATOM     32  C   UNL A   1      38.759  29.266  29.020  1.00  0.00    -0.014 A 
BRANCH  32  33
ATOM     33  C   UNL A   1      40.163  28.878  29.332  1.00  0.00     0.031 A 
ATOM     34  C   UNL A   1      41.079  29.864  30.008  1.00  0.00     0.074 A 
ATOM     35  C   UNL A   1      40.642  27.682  28.929  1.00  0.00     0.049 A 
ATOM     36  N   UNL A   1      42.355  29.760  30.275  1.00  0.00    -0.248 NA
ATOM     37  C   UNL A   1      40.490  31.157  30.395  1.00  0.00     0.031 C 
ATOM     38  C   UNL A   1      39.883  26.665  28.197  1.00  0.00     0.029 A 
ATOM     39  N   UNL A   1      41.889  27.119  29.068  1.00  0.00    -0.354 N 
ATOM     40  C   UNL A   1      42.722  30.975  30.842  1.00  0.00     0.074 A 
ATOM     41  C   UNL A   1      41.554  31.827  30.811  1.00  0.00     0.031 C 
ATOM     42  C   UNL A   1      40.668  25.596  27.979  1.00  0.00     0.029 A 
ATOM     43  C   UNL A   1      41.996  25.861  28.521  1.00  0.00     0.049 A 
ATOM     44  H   UNL A   1      42.637  27.576  29.517  1.00  0.00     0.167 HD
ATOM     45  C   UNL A   1      43.911  31.338  31.377  1.00  0.00     0.037 A 
ATOM     46  C   UNL A   1      43.046  25.016  28.461  1.00  0.00     0.037 A 
ATOM     47  C   UNL A   1      45.058  30.473  31.445  1.00  0.00     0.049 A 
ATOM     48  C   UNL A   1      44.352  25.430  29.086  1.00  0.00     0.074 A 
ATOM     49  C   UNL A   1      46.291  30.721  32.022  1.00  0.00     0.029 A 
ATOM     50  N   UNL A   1      45.111  29.189  30.923  1.00  0.00    -0.354 N 
ATOM     51  N   UNL A   1      44.659  26.558  29.682  1.00  0.00    -0.248 NA
ATOM     52  C   UNL A   1      45.452  24.456  29.042  1.00  0.00     0.031 C 
ATOM     53  C   UNL A   1      47.102  29.600  31.817  1.00  0.00     0.029 A 
ATOM     54  C   UNL A   1      46.360  28.636  31.154  1.00  0.00     0.049 A 
ATOM     55  H   UNL A   1      44.371  28.738  30.458  1.00  0.00     0.167 HD
ATOM     56  C   UNL A   1      45.976  26.419  30.106  1.00  0.00     0.074 A 
ATOM     57  C   UNL A   1      46.404  25.093  29.710  1.00  0.00     0.031 C 
ATOM     58  C   UNL A   1      46.762  27.308  30.763  1.00  0.00     0.037 A 
BRANCH  45  59
ATOM     59  C   UNL A   1      44.017  32.724  31.953  1.00  0.00     0.058 A 
ATOM     60  C   UNL A   1      43.689  32.989  33.293  1.00  0.00     0.135 A 
ATOM     61  C   UNL A   1      44.463  33.797  31.165  1.00  0.00     0.135 A 
ATOM     62  F   UNL A   1      43.241  32.004  34.087  1.00  0.00    -0.206 F 
ATOM     63  C   UNL A   1      43.762  34.274  33.820  1.00  0.00     0.059 A 
ATOM     64  C   UNL A   1      44.574  35.085  31.680  1.00  0.00     0.059 A 
ATOM     65  F   UNL A   1      44.789  33.601  29.877  1.00  0.00    -0.206 F 
ATOM     66  C   UNL A   1      44.205  35.316  33.005  1.00  0.00     0.060 A 
BRANCH  66  67
ATOM     67  S   UNL A   1      44.295  36.976  33.706  1.00  0.00     0.124 S 
ATOM     68  O   UNL A   1      43.214  37.652  32.994  1.00  0.00    -0.237 OA
ATOM     69  O   UNL A   1      44.060  36.729  35.125  1.00  0.00    -0.237 OA
ATOM     70  O   UNL A   1      45.644  37.418  33.363  1.00  0.00    -0.744 OA
ENDBRANCH  66  67
ENDBRANCH  45  59
BRANCH  46  71
ATOM     71  C   UNL A   1      42.900  23.683  27.814  1.00  0.00     0.058 A 
ATOM     72  C   UNL A   1      43.130  23.516  26.439  1.00  0.00     0.135 A 
ATOM     73  C   UNL A   1      42.533  22.547  28.553  1.00  0.00     0.135 A 
ATOM     74  F   UNL A   1      43.476  24.572  25.686  1.00  0.00    -0.206 F 
ATOM     75  C   UNL A   1      42.984  22.280  25.816  1.00  0.00     0.059 A 
ATOM     76  C   UNL A   1      42.406  21.295  27.957  1.00  0.00     0.059 A 
ATOM     77  F   UNL A   1      42.317  22.645  29.873  1.00  0.00    -0.206 F 
ATOM     78  C   UNL A   1      42.623  21.174  26.585  1.00  0.00     0.060 A 
BRANCH  78  79
ATOM     79  S   UNL A   1      42.483  19.564  25.777  1.00  0.00     0.124 S 
ATOM     80  O   UNL A   1      42.894  18.661  26.846  1.00  0.00    -0.237 OA
ATOM     81  O   UNL A   1      41.069  19.524  25.416  1.00  0.00    -0.237 OA
ATOM     82  O   UNL A   1      43.405  19.672  24.651  1.00  0.00    -0.744 OA
ENDBRANCH  78  79
ENDBRANCH  46  71
BRANCH  58  83
ATOM     83  C   UNL A   1      48.152  26.868  31.129  1.00  0.00     0.058 A 
ATOM     84  C   UNL A   1      48.436  26.278  32.370  1.00  0.00     0.135 A 
ATOM     85  C   UNL A   1      49.199  26.979  30.200  1.00  0.00     0.135 A 
ATOM     86  F   UNL A   1      47.472  26.152  33.295  1.00  0.00    -0.206 F 
ATOM     87  C   UNL A   1      49.715  25.830  32.685  1.00  0.00     0.059 A 
ATOM     88  C   UNL A   1      50.479  26.514  30.483  1.00  0.00     0.059 A 
ATOM     89  F   UNL A   1      48.978  27.526  28.994  1.00  0.00    -0.206 F 
ATOM     90  C   UNL A   1      50.730  25.951  31.733  1.00  0.00     0.060 A 
BRANCH  90  91
ATOM     91  S   UNL A   1      52.375  25.330  32.139  1.00  0.00     0.124 S 
ATOM     92  O   UNL A   1      53.159  25.814  31.007  1.00  0.00    -0.237 OA
ATOM     93  O   UNL A   1      52.646  25.977  33.420  1.00  0.00    -0.237 OA
ATOM     94  O   UNL A   1      52.188  23.884  32.201  1.00  0.00    -0.744 OA
ENDBRANCH  90  91
ENDBRANCH  58  83
ENDBRANCH  32  33
ENDBRANCH  24  27
ENDBRANCH  22  23
ENDBRANCH  21  22
ENDBRANCH   1  21
TORSDOF 18
ENDMDL
MODEL 2
REMARK VINA RESULT:      -9.9      3.956      6.439
REMARK SMILES C[C@@H](CCC(=O)Nc1ccccn1)C(=O)NCCCCNC(=O)c1ccc(-c2c3nc(c(-c4c(F)cc(S(=O)(=O)[O-])cc4F)c4ccc([nH]4)c(-c4c(F)cc(S(=O)(=O)[O-])cc4F)c4nc(c(-c5c(F)cc(S(=O)(=O)[O-])cc5F)c5ccc2[nH]5)C=C4)C=C3)cc1
REMARK SMILES IDX 18 1 17 2 16 3 14 4 15 5 2 7 1 8 3 9 4 10 5 11 6 12 7 13
REMARK SMILES IDX 8 15 9 16 13 17 10 18 12 19 11 20 19 21 20 22 21 23 22 24
REMARK SMILES IDX 23 26 24 27 25 28 89 29 26 30 88 31 27 32 28 33 29 34 82 35
REMARK SMILES IDX 30 36 87 37 81 38 83 39 31 40 86 41 80 42 79 43 32 45 66 46
REMARK SMILES IDX 45 47 65 48 46 49 49 50 64 51 84 52 47 53 48 54 63 56 85 57
REMARK SMILES IDX 50 58 33 59 34 60 43 61 35 62 36 63 42 64 44 65 37 66 38 67
REMARK SMILES IDX 39 68 40 69 41 70 67 71 68 72 77 73 69 74 70 75 76 76 78 77
REMARK SMILES IDX 71 78 72 79 73 80 74 81 75 82 51 83 52 84 61 85 53 86 54 87
REMARK SMILES IDX 60 88 62 89 55 90 56 91 57 92 58 93 59 94
REMARK H PARENT 16 6 7 14 21 25 83 44 49 55
REMARK Flexibility Score: inf
ROOT
ATOM      1  C   UNL A   1      34.127  31.188  27.745  1.00  0.00     0.023 C 
ENDROOT
BRANCH   1   2
ATOM      2  C   UNL A   1      34.315  29.667  27.484  1.00  0.00     0.116 C 
BRANCH   2   3
ATOM      3  N   UNL A   1      33.040  28.922  27.602  1.00  0.00    -0.356 N 
ATOM      4  C   UNL A   1      32.350  27.876  27.091  1.00  0.00     0.222 C 
ATOM      5  O   UNL A   1      31.302  27.636  27.719  1.00  0.00    -0.275 OA
ATOM      6  H   UNL A   1      32.499  29.339  28.310  1.00  0.00     0.163 HD
BRANCH   4   7
ATOM      7  C   UNL A   1      32.615  26.980  25.854  1.00  0.00     0.076 C 
ATOM      8  C   UNL A   1      33.224  25.576  26.132  1.00  0.00     0.018 C 
BRANCH   7   9
ATOM      9  C   UNL A   1      31.598  26.908  24.740  1.00  0.00     0.023 C 
BRANCH   9  10
ATOM     10  C   UNL A   1      32.152  27.060  23.329  1.00  0.00     0.101 C 
BRANCH  10  11
ATOM     11  C   UNL A   1      32.309  28.449  22.769  1.00  0.00     0.225 C 
ATOM     12  O   UNL A   1      33.466  28.780  22.449  1.00  0.00    -0.275 OA
ATOM     13  N   UNL A   1      31.380  29.374  22.481  1.00  0.00    -0.311 N 
ATOM     14  H   UNL A   1      31.803  29.977  21.829  1.00  0.00     0.171 HD
BRANCH  13  15
ATOM     15  C   UNL A   1      30.095  29.881  22.675  1.00  0.00     0.132 A 
ATOM     16  C   UNL A   1      29.584  30.695  23.663  1.00  0.00     0.047 A 
ATOM     17  N   UNL A   1      29.343  29.610  21.588  1.00  0.00    -0.239 NA
ATOM     18  C   UNL A   1      28.283  31.214  23.571  1.00  0.00     0.005 A 
ATOM     19  C   UNL A   1      28.097  30.132  21.496  1.00  0.00     0.113 A 
ATOM     20  C   UNL A   1      27.518  30.925  22.461  1.00  0.00     0.020 A 
ENDBRANCH  13  15
ENDBRANCH  10  11
ENDBRANCH   9  10
ENDBRANCH   7   9
ENDBRANCH   4   7
ENDBRANCH   2   3
ENDBRANCH   1   2
BRANCH   1  21
ATOM     21  C   UNL A   1      35.363  32.084  27.908  1.00  0.00     0.023 C 
BRANCH  21  22
ATOM     22  C   UNL A   1      35.886  32.338  29.311  1.00  0.00     0.116 C 
BRANCH  22  23
ATOM     23  N   UNL A   1      35.631  31.299  30.299  1.00  0.00    -0.352 N 
ATOM     24  C   UNL A   1      36.547  30.364  30.753  1.00  0.00     0.251 C 
ATOM     25  H   UNL A   1      34.723  31.256  30.679  1.00  0.00     0.163 HD
ATOM     26  O   UNL A   1      36.238  29.501  31.573  1.00  0.00    -0.269 OA
BRANCH  24  27
ATOM     27  C   UNL A   1      37.911  30.392  30.176  1.00  0.00     0.039 A 
ATOM     28  C   UNL A   1      38.998  30.689  31.001  1.00  0.00     0.014 A 
ATOM     29  C   UNL A   1      38.115  29.935  28.873  1.00  0.00     0.014 A 
ATOM     30  C   UNL A   1      40.293  30.408  30.556  1.00  0.00     0.010 A 
ATOM     31  C   UNL A   1      39.394  29.560  28.475  1.00  0.00     0.010 A 
ATOM     32  C   UNL A   1      40.497  29.775  29.317  1.00  0.00    -0.014 A 
BRANCH  32  33
ATOM     33  C   UNL A   1      41.845  29.312  28.887  1.00  0.00     0.031 A 
ATOM     34  C   UNL A   1      42.979  30.297  28.790  1.00  0.00     0.074 A 
ATOM     35  C   UNL A   1      42.031  28.032  28.497  1.00  0.00     0.049 A 
ATOM     36  N   UNL A   1      44.196  30.118  28.345  1.00  0.00    -0.248 NA
ATOM     37  C   UNL A   1      42.694  31.680  29.210  1.00  0.00     0.031 C 
ATOM     38  C   UNL A   1      40.997  26.994  28.468  1.00  0.00     0.029 A 
ATOM     39  N   UNL A   1      43.153  27.386  28.037  1.00  0.00    -0.354 N 
ATOM     40  C   UNL A   1      44.810  31.363  28.413  1.00  0.00     0.074 A 
ATOM     41  C   UNL A   1      43.811  32.303  28.872  1.00  0.00     0.031 C 
ATOM     42  C   UNL A   1      41.539  25.839  28.046  1.00  0.00     0.029 A 
ATOM     43  C   UNL A   1      42.949  26.058  27.738  1.00  0.00     0.049 A 
ATOM     44  H   UNL A   1      44.024  27.833  27.932  1.00  0.00     0.167 HD
ATOM     45  C   UNL A   1      46.098  31.691  28.158  1.00  0.00     0.037 A 
ATOM     46  C   UNL A   1      43.799  25.123  27.267  1.00  0.00     0.037 A 
ATOM     47  C   UNL A   1      47.100  30.745  27.743  1.00  0.00     0.049 A 
ATOM     48  C   UNL A   1      45.234  25.503  27.014  1.00  0.00     0.074 A 
ATOM     49  C   UNL A   1      48.448  30.961  27.518  1.00  0.00     0.029 A 
ATOM     50  N   UNL A   1      46.863  29.401  27.498  1.00  0.00    -0.354 N 
ATOM     51  N   UNL A   1      45.813  26.671  27.153  1.00  0.00    -0.248 NA
ATOM     52  C   UNL A   1      46.134  24.438  26.550  1.00  0.00     0.031 C 
ATOM     53  C   UNL A   1      49.019  29.754  27.101  1.00  0.00     0.029 A 
ATOM     54  C   UNL A   1      48.037  28.776  27.112  1.00  0.00     0.049 A 
ATOM     55  H   UNL A   1      45.989  28.956  27.585  1.00  0.00     0.167 HD
ATOM     56  C   UNL A   1      47.150  26.476  26.821  1.00  0.00     0.074 A 
ATOM     57  C   UNL A   1      47.295  25.075  26.486  1.00  0.00     0.031 C 
ATOM     58  C   UNL A   1      48.165  27.376  26.795  1.00  0.00     0.037 A 
BRANCH  45  59
ATOM     59  C   UNL A   1      46.497  33.129  28.345  1.00  0.00     0.058 A 
ATOM     60  C   UNL A   1      46.445  34.050  27.284  1.00  0.00     0.135 A 
ATOM     61  C   UNL A   1      46.923  33.599  29.597  1.00  0.00     0.135 A 
ATOM     62  F   UNL A   1      46.061  33.651  26.062  1.00  0.00    -0.206 F 
ATOM     63  C   UNL A   1      46.837  35.373  27.450  1.00  0.00     0.059 A 
ATOM     64  C   UNL A   1      47.291  34.927  29.793  1.00  0.00     0.059 A 
ATOM     65  F   UNL A   1      46.995  32.763  30.646  1.00  0.00    -0.206 F 
ATOM     66  C   UNL A   1      47.259  35.803  28.707  1.00  0.00     0.060 A 
BRANCH  66  67
ATOM     67  S   UNL A   1      47.763  37.525  28.904  1.00  0.00     0.124 S 
ATOM     68  O   UNL A   1      49.195  37.383  29.150  1.00  0.00    -0.237 OA
ATOM     69  O   UNL A   1      47.397  38.106  27.616  1.00  0.00    -0.237 OA
ATOM     70  O   UNL A   1      46.973  37.983  30.043  1.00  0.00    -0.744 OA
ENDBRANCH  66  67
ENDBRANCH  45  59
BRANCH  46  71
ATOM     71  C   UNL A   1      43.327  23.730  27.032  1.00  0.00     0.058 A 
ATOM     72  C   UNL A   1      43.090  22.855  28.104  1.00  0.00     0.135 A 
ATOM     73  C   UNL A   1      43.097  23.244  25.735  1.00  0.00     0.135 A 
ATOM     74  F   UNL A   1      43.301  23.268  29.363  1.00  0.00    -0.206 F 
ATOM     75  C   UNL A   1      42.663  21.546  27.901  1.00  0.00     0.059 A 
ATOM     76  C   UNL A   1      42.646  21.947  25.507  1.00  0.00     0.059 A 
ATOM     77  F   UNL A   1      43.292  24.043  24.674  1.00  0.00    -0.206 F 
ATOM     78  C   UNL A   1      42.441  21.102  26.597  1.00  0.00     0.060 A 
BRANCH  78  79
ATOM     79  S   UNL A   1      41.841  19.416  26.345  1.00  0.00     0.124 S 
ATOM     80  O   UNL A   1      42.534  19.037  25.119  1.00  0.00    -0.237 OA
ATOM     81  O   UNL A   1      42.287  18.746  27.563  1.00  0.00    -0.237 OA
ATOM     82  O   UNL A   1      40.397  19.589  26.227  1.00  0.00    -0.744 OA
ENDBRANCH  78  79
ENDBRANCH  46  71
BRANCH  58  83
ATOM     83  C   UNL A   1      49.531  26.870  26.426  1.00  0.00     0.058 A 
ATOM     84  C   UNL A   1      50.384  26.290  27.377  1.00  0.00     0.135 A 
ATOM     85  C   UNL A   1      49.965  26.906  25.091  1.00  0.00     0.135 A 
ATOM     86  F   UNL A   1      50.020  26.234  28.668  1.00  0.00    -0.206 F 
ATOM     87  C   UNL A   1      51.629  25.781  27.021  1.00  0.00     0.059 A 
ATOM     88  C   UNL A   1      51.193  26.379  24.706  1.00  0.00     0.059 A 
ATOM     89  F   UNL A   1      49.181  27.441  24.140  1.00  0.00    -0.206 F 
ATOM     90  C   UNL A   1      52.024  25.828  25.681  1.00  0.00     0.060 A 
BRANCH  90  91
ATOM     91  S   UNL A   1      53.624  25.129  25.226  1.00  0.00     0.124 S 
ATOM     92  O   UNL A   1      54.470  25.596  26.319  1.00  0.00    -0.237 OA
ATOM     93  O   UNL A   1      53.345  23.696  25.207  1.00  0.00    -0.237 OA
ATOM     94  O   UNL A   1      53.897  25.725  23.921  1.00  0.00    -0.744 OA
ENDBRANCH  90  91
ENDBRANCH  58  83
ENDBRANCH  32  33
ENDBRANCH  24  27
ENDBRANCH  22  23
ENDBRANCH  21  22
ENDBRANCH   1  21
TORSDOF 18
ENDMDL
MODEL 3
REMARK VINA RESULT:      -9.9      3.409      6.416
REMARK SMILES C[C@@H](CCC(=O)Nc1ccccn1)C(=O)NCCCCNC(=O)c1ccc(-c2c3nc(c(-c4c(F)cc(S(=O)(=O)[O-])cc4F)c4ccc([nH]4)c(-c4c(F)cc(S(=O)(=O)[O-])cc4F)c4nc(c(-c5c(F)cc(S(=O)(=O)[O-])cc5F)c5ccc2[nH]5)C=C4)C=C3)cc1
REMARK SMILES IDX 18 1 17 2 16 3 14 4 15 5 2 7 1 8 3 9 4 10 5 11 6 12 7 13
REMARK SMILES IDX 8 15 9 16 13 17 10 18 12 19 11 20 19 21 20 22 21 23 22 24
REMARK SMILES IDX 23 26 24 27 25 28 89 29 26 30 88 31 27 32 28 33 29 34 82 35
REMARK SMILES IDX 30 36 87 37 81 38 83 39 31 40 86 41 80 42 79 43 32 45 66 46
REMARK SMILES IDX 45 47 65 48 46 49 49 50 64 51 84 52 47 53 48 54 63 56 85 57
REMARK SMILES IDX 50 58 33 59 34 60 43 61 35 62 36 63 42 64 44 65 37 66 38 67
REMARK SMILES IDX 39 68 40 69 41 70 67 71 68 72 77 73 69 74 70 75 76 76 78 77
REMARK SMILES IDX 71 78 72 79 73 80 74 81 75 82 51 83 52 84 61 85 53 86 54 87
REMARK SMILES IDX 60 88 62 89 55 90 56 91 57 92 58 93 59 94
REMARK H PARENT 16 6 7 14 21 25 83 44 49 55
REMARK Flexibility Score: inf
ROOT
ATOM      1  C   UNL A   1      31.496  27.468  26.887  1.00  0.00     0.023 C 
ENDROOT
BRANCH   1   2
ATOM      2  C   UNL A   1      30.660  26.610  25.897  1.00  0.00     0.116 C 
BRANCH   2   3
ATOM      3  N   UNL A   1      30.218  25.333  26.503  1.00  0.00    -0.356 N 
ATOM      4  C   UNL A   1      30.298  23.989  26.369  1.00  0.00     0.222 C 
ATOM      5  O   UNL A   1      29.782  23.377  27.322  1.00  0.00    -0.275 OA
ATOM      6  H   UNL A   1      29.666  25.537  27.292  1.00  0.00     0.163 HD
BRANCH   4   7
ATOM      7  C   UNL A   1      30.865  23.106  25.228  1.00  0.00     0.076 C 
ATOM      8  C   UNL A   1      30.756  23.680  23.787  1.00  0.00     0.018 C 
BRANCH   7   9
ATOM      9  C   UNL A   1      32.177  22.380  25.415  1.00  0.00     0.023 C 
BRANCH   9  10
ATOM     10  C   UNL A   1      32.168  20.899  25.057  1.00  0.00     0.101 C 
BRANCH  10  11
ATOM     11  C   UNL A   1      33.357  20.062  25.449  1.00  0.00     0.225 C 
ATOM     12  O   UNL A   1      33.118  18.873  25.727  1.00  0.00    -0.275 OA
ATOM     13  N   UNL A   1      34.662  20.375  25.471  1.00  0.00    -0.311 N 
ATOM     14  H   UNL A   1      35.140  19.516  25.428  1.00  0.00     0.171 HD
BRANCH  13  15
ATOM     15  C   UNL A   1      35.659  21.349  25.527  1.00  0.00     0.132 A 
ATOM     16  C   UNL A   1      35.646  22.629  26.038  1.00  0.00     0.047 A 
ATOM     17  N   UNL A   1      36.833  20.805  25.142  1.00  0.00    -0.239 NA
ATOM     18  C   UNL A   1      36.825  23.384  26.129  1.00  0.00     0.005 A 
ATOM     19  C   UNL A   1      37.970  21.531  25.253  1.00  0.00     0.113 A 
ATOM     20  C   UNL A   1      38.018  22.824  25.725  1.00  0.00     0.020 A 
ENDBRANCH  13  15
ENDBRANCH  10  11
ENDBRANCH   9  10
ENDBRANCH   7   9
ENDBRANCH   4   7
ENDBRANCH   2   3
ENDBRANCH   1   2
BRANCH   1  21
ATOM     21  C   UNL A   1      32.211  28.727  26.378  1.00  0.00     0.023 C 
BRANCH  21  22
ATOM     22  C   UNL A   1      33.515  29.132  27.043  1.00  0.00     0.116 C 
BRANCH  22  23
ATOM     23  N   UNL A   1      33.517  30.406  27.748  1.00  0.00    -0.352 N 
ATOM     24  C   UNL A   1      34.583  30.948  28.449  1.00  0.00     0.251 C 
ATOM     25  H   UNL A   1      32.684  30.931  27.725  1.00  0.00     0.163 HD
ATOM     26  O   UNL A   1      34.489  32.022  29.040  1.00  0.00    -0.269 OA
BRANCH  24  27
ATOM     27  C   UNL A   1      35.837  30.163  28.520  1.00  0.00     0.039 A 
ATOM     28  C   UNL A   1      36.714  30.172  27.433  1.00  0.00     0.014 A 
ATOM     29  C   UNL A   1      36.219  29.587  29.732  1.00  0.00     0.014 A 
ATOM     30  C   UNL A   1      38.023  29.712  27.604  1.00  0.00     0.010 A 
ATOM     31  C   UNL A   1      37.548  29.227  29.927  1.00  0.00     0.010 A 
ATOM     32  C   UNL A   1      38.471  29.302  28.871  1.00  0.00    -0.014 A 
BRANCH  32  33
ATOM     33  C   UNL A   1      39.900  28.964  29.125  1.00  0.00     0.031 A 
ATOM     34  C   UNL A   1      40.825  30.005  29.695  1.00  0.00     0.074 A 
ATOM     35  C   UNL A   1      40.386  27.758  28.760  1.00  0.00     0.049 A 
ATOM     36  N   UNL A   1      42.116  29.944  29.896  1.00  0.00    -0.248 NA
ATOM     37  C   UNL A   1      40.226  31.304  30.045  1.00  0.00     0.031 C 
ATOM     38  C   UNL A   1      39.614  26.686  28.126  1.00  0.00     0.029 A 
ATOM     39  N   UNL A   1      41.652  27.232  28.859  1.00  0.00    -0.354 N 
ATOM     40  C   UNL A   1      42.483  31.196  30.376  1.00  0.00     0.074 A 
ATOM     41  C   UNL A   1      41.294  32.019  30.365  1.00  0.00     0.031 C 
ATOM     42  C   UNL A   1      40.412  25.625  27.922  1.00  0.00     0.029 A 
ATOM     43  C   UNL A   1      41.761  25.948  28.375  1.00  0.00     0.049 A 
ATOM     44  H   UNL A   1      42.411  27.729  29.241  1.00  0.00     0.167 HD
ATOM     45  C   UNL A   1      43.690  31.615  30.824  1.00  0.00     0.037 A 
ATOM     46  C   UNL A   1      42.827  25.125  28.301  1.00  0.00     0.037 A 
ATOM     47  C   UNL A   1      44.860  30.780  30.874  1.00  0.00     0.049 A 
ATOM     48  C   UNL A   1      44.155  25.602  28.830  1.00  0.00     0.074 A 
ATOM     49  C   UNL A   1      46.116  31.087  31.368  1.00  0.00     0.029 A 
ATOM     50  N   UNL A   1      44.917  29.472  30.419  1.00  0.00    -0.354 N 
ATOM     51  N   UNL A   1      44.465  26.767  29.347  1.00  0.00    -0.248 NA
ATOM     52  C   UNL A   1      45.275  24.651  28.776  1.00  0.00     0.031 C 
ATOM     53  C   UNL A   1      46.943  29.975  31.177  1.00  0.00     0.029 A 
ATOM     54  C   UNL A   1      46.190  28.959  30.609  1.00  0.00     0.049 A 
ATOM     55  H   UNL A   1      44.164  28.979  30.020  1.00  0.00     0.167 HD
ATOM     56  C   UNL A   1      45.806  26.680  29.703  1.00  0.00     0.074 A 
ATOM     57  C   UNL A   1      46.245  25.345  29.355  1.00  0.00     0.031 C 
ATOM     58  C   UNL A   1      46.604  27.622  30.267  1.00  0.00     0.037 A 
BRANCH  45  59
ATOM     59  C   UNL A   1      43.791  33.032  31.318  1.00  0.00     0.058 A 
ATOM     60  C   UNL A   1      43.518  33.364  32.656  1.00  0.00     0.135 A 
ATOM     61  C   UNL A   1      44.179  34.068  30.454  1.00  0.00     0.135 A 
ATOM     62  F   UNL A   1      43.126  32.416  33.521  1.00  0.00    -0.206 F 
ATOM     63  C   UNL A   1      43.587  34.677  33.108  1.00  0.00     0.059 A 
ATOM     64  C   UNL A   1      44.286  35.384  30.893  1.00  0.00     0.059 A 
ATOM     65  F   UNL A   1      44.452  33.808  29.165  1.00  0.00    -0.206 F 
ATOM     66  C   UNL A   1      43.971  35.681  32.219  1.00  0.00     0.060 A 
BRANCH  66  67
ATOM     67  S   UNL A   1      44.057  37.379  32.824  1.00  0.00     0.124 S 
ATOM     68  O   UNL A   1      42.962  37.399  33.790  1.00  0.00    -0.237 OA
ATOM     69  O   UNL A   1      45.400  37.440  33.391  1.00  0.00    -0.237 OA
ATOM     70  O   UNL A   1      43.848  38.180  31.622  1.00  0.00    -0.744 OA
ENDBRANCH  66  67
ENDBRANCH  45  59
BRANCH  46  71
ATOM     71  C   UNL A   1      42.681  23.756  27.735  1.00  0.00     0.058 A 
ATOM     72  C   UNL A   1      42.477  22.645  28.569  1.00  0.00     0.135 A 
ATOM     73  C   UNL A   1      42.735  23.527  26.351  1.00  0.00     0.135 A 
ATOM     74  F   UNL A   1      42.425  22.808  29.900  1.00  0.00    -0.206 F 
ATOM     75  C   UNL A   1      42.353  21.357  28.056  1.00  0.00     0.059 A 
ATOM     76  C   UNL A   1      42.588  22.252  25.812  1.00  0.00     0.059 A 
ATOM     77  F   UNL A   1      42.911  24.555  25.506  1.00  0.00    -0.206 F 
ATOM     78  C   UNL A   1      42.407  21.171  26.674  1.00  0.00     0.060 A 
BRANCH  78  79
ATOM     79  S   UNL A   1      42.197  19.502  26.015  1.00  0.00     0.124 S 
ATOM     80  O   UNL A   1      42.737  18.687  27.097  1.00  0.00    -0.237 OA
ATOM     81  O   UNL A   1      40.752  19.428  25.820  1.00  0.00    -0.237 OA
ATOM     82  O   UNL A   1      42.986  19.525  24.787  1.00  0.00    -0.744 OA
ENDBRANCH  78  79
ENDBRANCH  46  71
BRANCH  58  83
ATOM     83  C   UNL A   1      48.022  27.234  30.579  1.00  0.00     0.058 A 
ATOM     84  C   UNL A   1      48.352  26.505  31.732  1.00  0.00     0.135 A 
ATOM     85  C   UNL A   1      49.055  27.538  29.677  1.00  0.00     0.135 A 
ATOM     86  F   UNL A   1      47.403  26.192  32.628  1.00  0.00    -0.206 F 
ATOM     87  C   UNL A   1      49.660  26.109  31.991  1.00  0.00     0.059 A 
ATOM     88  C   UNL A   1      50.366  27.129  29.901  1.00  0.00     0.059 A 
ATOM     89  F   UNL A   1      48.791  28.224  28.553  1.00  0.00    -0.206 F 
ATOM     90  C   UNL A   1      50.660  26.424  31.067  1.00  0.00     0.060 A 
BRANCH  90  91
ATOM     91  S   UNL A   1      52.346  25.870  31.395  1.00  0.00     0.124 S 
ATOM     92  O   UNL A   1      52.116  24.535  31.938  1.00  0.00    -0.237 OA
ATOM     93  O   UNL A   1      52.955  25.918  30.069  1.00  0.00    -0.237 OA
ATOM     94  O   UNL A   1      52.850  26.856  32.347  1.00  0.00    -0.744 OA
ENDBRANCH  90  91
ENDBRANCH  58  83
ENDBRANCH  32  33
ENDBRANCH  24  27
ENDBRANCH  22  23
ENDBRANCH  21  22
ENDBRANCH   1  21
TORSDOF 18
ENDMDL
