MODEL 1
REMARK VINA RESULT:     -13.0      0.000      0.000
REMARK SMILES COc1ccc2c(c1C)OC(=O)[C@@H](CC(=O)N[C@@H](CC1=c3ccccc3=NC1)C(=O)NCCCCNC(=O)c1ccc(-c3c4nc(c(-c5c(F)cc(S(=O)(=O)[O-])cc5F)c5ccc([nH]5)c(-c5c(F)cc(S(=O)(=O)[O-])cc5F)c5nc(c(-c6c(F)cc(S(=O)(=O)[O-])cc6F)c6ccc3[nH]6)C=C5)C=C4)cc1)[C@H]2C
REMARK SMILES IDX 33 1 32 2 31 3 29 4 30 5 18 7 17 8 15 9 16 10 14 12 13 13
REMARK SMILES IDX 3 14 4 15 8 16 5 17 7 18 9 19 6 20 10 21 105 22 11 23 106 24
REMARK SMILES IDX 12 25 2 26 1 27 19 28 20 29 21 30 28 31 22 32 26 33 27 34
REMARK SMILES IDX 23 35 25 36 24 37 34 38 35 39 36 40 37 41 38 43 39 44 40 45
REMARK SMILES IDX 104 46 41 47 103 48 42 49 43 50 44 51 97 52 45 53 102 54
REMARK SMILES IDX 96 55 98 56 46 57 101 58 95 59 94 60 47 62 81 63 60 64 80 65
REMARK SMILES IDX 61 66 64 67 79 68 99 69 62 70 63 71 78 73 100 74 65 75 48 76
REMARK SMILES IDX 49 77 58 78 50 79 51 80 57 81 59 82 52 83 53 84 54 85 55 86
REMARK SMILES IDX 56 87 82 88 83 89 92 90 84 91 85 92 91 93 93 94 86 95 87 96
REMARK SMILES IDX 88 97 89 98 90 99 66 100 67 101 76 102 68 103 69 104 75 105
REMARK SMILES IDX 77 106 70 107 71 108 72 109 73 110 74 111
REMARK H PARENT 31 6 17 11 36 42 98 61 64 72
REMARK Flexibility Score: inf
ROOT
ATOM      1  C   UNL A   1      35.430  29.720  27.223  1.00  0.00     0.023 C 
ENDROOT
BRANCH   1   2
ATOM      2  C   UNL A   1      34.242  28.838  26.920  1.00  0.00     0.116 C 
BRANCH   2   3
ATOM      3  N   UNL A   1      33.103  28.871  27.791  1.00  0.00    -0.354 N 
ATOM      4  C   UNL A   1      31.876  28.328  27.496  1.00  0.00     0.242 C 
ATOM      5  O   UNL A   1      31.049  28.202  28.403  1.00  0.00    -0.273 OA
ATOM      6  H   UNL A   1      33.208  29.316  28.663  1.00  0.00     0.163 HD
BRANCH   4   7
ATOM      7  C   UNL A   1      31.560  27.806  26.055  1.00  0.00     0.175 C 
BRANCH   7   8
ATOM      8  N   UNL A   1      30.530  26.711  26.075  1.00  0.00    -0.344 N 
ATOM      9  C   UNL A   1      30.142  25.595  25.380  1.00  0.00     0.221 C 
ATOM     10  O   UNL A   1      29.225  24.969  25.937  1.00  0.00    -0.275 OA
ATOM     11  H   UNL A   1      29.933  26.839  26.848  1.00  0.00     0.164 HD
BRANCH   9  12
ATOM     12  C   UNL A   1      30.649  25.040  23.998  1.00  0.00     0.116 C 
BRANCH  12  13
ATOM     13  C   UNL A   1      32.184  25.068  23.793  1.00  0.00     0.116 C 
ATOM     14  C   UNL A   1      36.658  23.501  25.127  1.00  0.00     0.125 A 
ATOM     15  C   UNL A   1      35.987  24.280  26.066  1.00  0.00     0.047 A 
ATOM     16  C   UNL A   1      36.134  23.382  23.809  1.00  0.00     0.034 A 
ATOM     17  C   UNL A   1      34.664  24.553  25.844  1.00  0.00     0.012 A 
ATOM     18  C   UNL A   1      34.866  23.909  23.587  1.00  0.00     0.140 A 
ATOM     19  C   UNL A   1      36.816  22.562  22.763  1.00  0.00     0.052 C 
ATOM     20  C   UNL A   1      34.092  24.080  24.685  1.00  0.00    -0.001 A 
ATOM     21  O   UNL A   1      34.194  24.264  22.385  1.00  0.00    -0.426 OA
ATOM     22  C   UNL A   1      32.656  23.839  24.477  1.00  0.00     0.035 C 
ATOM     23  C   UNL A   1      32.894  24.973  22.398  1.00  0.00     0.315 C 
ATOM     24  C   UNL A   1      32.249  22.564  23.652  1.00  0.00     0.014 C 
ATOM     25  O   UNL A   1      32.415  25.434  21.367  1.00  0.00    -0.251 OA
BRANCH  14  26
ATOM     26  O   UNL A   1      37.832  22.883  25.477  1.00  0.00    -0.496 OA
ATOM     27  C   UNL A   1      38.493  23.521  26.589  1.00  0.00     0.278 C 
ENDBRANCH  14  26
ENDBRANCH  12  13
ENDBRANCH   9  12
ENDBRANCH   7   8
BRANCH   7  28
ATOM     28  C   UNL A   1      31.428  29.083  25.112  1.00  0.00     0.068 C 
BRANCH  28  29
ATOM     29  C   UNL A   1      30.556  29.352  23.895  1.00  0.00    -0.037 C 
ATOM     30  C   UNL A   1      29.685  30.290  23.512  1.00  0.00     0.001 A 
ATOM     31  C   UNL A   1      30.698  28.325  22.783  1.00  0.00     0.174 C 
ATOM     32  C   UNL A   1      29.098  31.465  24.081  1.00  0.00     0.010 A 
ATOM     33  C   UNL A   1      29.349  29.896  22.124  1.00  0.00     0.065 A 
ATOM     34  N   UNL A   1      29.870  28.805  21.664  1.00  0.00    -0.280 NA
ATOM     35  C   UNL A   1      28.292  32.234  23.335  1.00  0.00     0.001 A 
ATOM     36  C   UNL A   1      28.485  30.812  21.351  1.00  0.00     0.028 A 
ATOM     37  C   UNL A   1      28.012  31.917  21.948  1.00  0.00     0.002 A 
ENDBRANCH  28  29
ENDBRANCH   7  28
ENDBRANCH   4   7
ENDBRANCH   2   3
ENDBRANCH   1   2
BRANCH   1  38
ATOM     38  C   UNL A   1      35.078  31.102  27.752  1.00  0.00     0.023 C 
BRANCH  38  39
ATOM     39  C   UNL A   1      35.903  31.590  28.943  1.00  0.00     0.116 C 
BRANCH  39  40
ATOM     40  N   UNL A   1      35.805  30.745  30.130  1.00  0.00    -0.352 N 
ATOM     41  C   UNL A   1      36.800  30.019  30.757  1.00  0.00     0.251 C 
ATOM     42  H   UNL A   1      34.910  30.684  30.537  1.00  0.00     0.163 HD
ATOM     43  O   UNL A   1      36.570  29.273  31.688  1.00  0.00    -0.269 OA
BRANCH  41  44
ATOM     44  C   UNL A   1      38.159  30.160  30.207  1.00  0.00     0.039 A 
ATOM     45  C   UNL A   1      39.228  30.317  31.089  1.00  0.00     0.014 A 
ATOM     46  C   UNL A   1      38.362  29.888  28.852  1.00  0.00     0.014 A 
ATOM     47  C   UNL A   1      40.521  30.087  30.625  1.00  0.00     0.010 A 
ATOM     48  C   UNL A   1      39.639  29.559  28.423  1.00  0.00     0.010 A 
ATOM     49  C   UNL A   1      40.727  29.651  29.306  1.00  0.00    -0.014 A 
BRANCH  49  50
ATOM     50  C   UNL A   1      42.084  29.330  28.803  1.00  0.00     0.031 A 
ATOM     51  C   UNL A   1      42.366  27.928  28.350  1.00  0.00     0.074 A 
ATOM     52  C   UNL A   1      43.057  30.263  28.816  1.00  0.00     0.049 A 
ATOM     53  N   UNL A   1      43.495  27.396  27.966  1.00  0.00    -0.248 NA
ATOM     54  C   UNL A   1      41.232  26.985  28.366  1.00  0.00     0.031 C 
ATOM     55  C   UNL A   1      42.913  31.644  29.285  1.00  0.00     0.029 A 
ATOM     56  N   UNL A   1      44.373  30.185  28.430  1.00  0.00    -0.354 N 
ATOM     57  C   UNL A   1      43.210  26.061  27.712  1.00  0.00     0.074 A 
ATOM     58  C   UNL A   1      41.824  25.843  28.055  1.00  0.00     0.031 C 
ATOM     59  C   UNL A   1      44.083  32.287  29.132  1.00  0.00     0.029 A 
ATOM     60  C   UNL A   1      45.069  31.361  28.585  1.00  0.00     0.049 A 
ATOM     61  H   UNL A   1      44.779  29.362  28.074  1.00  0.00     0.167 HD
ATOM     62  C   UNL A   1      44.019  25.110  27.195  1.00  0.00     0.037 A 
ATOM     63  C   UNL A   1      46.357  31.652  28.312  1.00  0.00     0.037 A 
ATOM     64  C   UNL A   1      45.380  25.347  26.805  1.00  0.00     0.049 A 
ATOM     65  C   UNL A   1      47.238  30.575  27.733  1.00  0.00     0.074 A 
ATOM     66  C   UNL A   1      46.268  24.470  26.212  1.00  0.00     0.029 A 
ATOM     67  N   UNL A   1      46.043  26.555  26.958  1.00  0.00    -0.354 N 
ATOM     68  N   UNL A   1      46.936  29.330  27.444  1.00  0.00    -0.248 NA
ATOM     69  C   UNL A   1      48.632  30.938  27.440  1.00  0.00     0.031 C 
ATOM     70  C   UNL A   1      47.482  25.140  26.034  1.00  0.00     0.029 A 
ATOM     71  C   UNL A   1      47.336  26.444  26.482  1.00  0.00     0.049 A 
ATOM     72  H   UNL A   1      45.651  27.372  27.346  1.00  0.00     0.167 HD
ATOM     73  C   UNL A   1      48.095  28.770  26.918  1.00  0.00     0.074 A 
ATOM     74  C   UNL A   1      49.098  29.814  26.913  1.00  0.00     0.031 C 
ATOM     75  C   UNL A   1      48.312  27.505  26.481  1.00  0.00     0.037 A 
BRANCH  62  76
ATOM     76  C   UNL A   1      43.437  23.742  26.992  1.00  0.00     0.058 A 
ATOM     77  C   UNL A   1      43.370  22.815  28.045  1.00  0.00     0.135 A 
ATOM     78  C   UNL A   1      42.915  23.364  25.747  1.00  0.00     0.135 A 
ATOM     79  F   UNL A   1      43.883  23.120  29.248  1.00  0.00    -0.206 F 
ATOM     80  C   UNL A   1      42.818  21.553  27.866  1.00  0.00     0.059 A 
ATOM     81  C   UNL A   1      42.334  22.114  25.552  1.00  0.00     0.059 A 
ATOM     82  F   UNL A   1      42.968  24.208  24.705  1.00  0.00    -0.206 F 
ATOM     83  C   UNL A   1      42.297  21.214  26.616  1.00  0.00     0.060 A 
BRANCH  83  84
ATOM     84  S   UNL A   1      41.553  19.583  26.414  1.00  0.00     0.124 S 
ATOM     85  O   UNL A   1      42.304  19.059  25.277  1.00  0.00    -0.237 OA
ATOM     86  O   UNL A   1      41.833  18.954  27.701  1.00  0.00    -0.237 OA
ATOM     87  O   UNL A   1      40.147  19.879  26.156  1.00  0.00    -0.744 OA
ENDBRANCH  83  84
ENDBRANCH  62  76
BRANCH  63  88
ATOM     88  C   UNL A   1      46.890  33.021  28.551  1.00  0.00     0.058 A 
ATOM     89  C   UNL A   1      47.364  33.398  29.817  1.00  0.00     0.135 A 
ATOM     90  C   UNL A   1      46.930  33.981  27.528  1.00  0.00     0.135 A 
ATOM     91  F   UNL A   1      47.340  32.519  30.830  1.00  0.00    -0.206 F 
ATOM     92  C   UNL A   1      47.839  34.682  30.067  1.00  0.00     0.059 A 
ATOM     93  C   UNL A   1      47.420  35.265  27.748  1.00  0.00     0.059 A 
ATOM     94  F   UNL A   1      46.503  33.668  26.295  1.00  0.00    -0.206 F 
ATOM     95  C   UNL A   1      47.864  35.609  29.025  1.00  0.00     0.060 A 
BRANCH  95  96
ATOM     96  S   UNL A   1      48.520  37.261  29.353  1.00  0.00     0.124 S 
ATOM     97  O   UNL A   1      47.297  38.046  29.464  1.00  0.00    -0.237 OA
ATOM     98  O   UNL A   1      49.261  37.054  30.592  1.00  0.00    -0.237 OA
ATOM     99  O   UNL A   1      49.341  37.535  28.177  1.00  0.00    -0.744 OA
ENDBRANCH  95  96
ENDBRANCH  63  88
BRANCH  75 100
ATOM    100  C   UNL A   1      49.676  27.178  25.948  1.00  0.00     0.058 A 
ATOM    101  C   UNL A   1      50.694  26.704  26.790  1.00  0.00     0.135 A 
ATOM    102  C   UNL A   1      49.940  27.255  24.571  1.00  0.00     0.135 A 
ATOM    103  F   UNL A   1      50.490  26.617  28.113  1.00  0.00    -0.206 F 
ATOM    104  C   UNL A   1      51.932  26.326  26.285  1.00  0.00     0.059 A 
ATOM    105  C   UNL A   1      51.163  26.858  24.042  1.00  0.00     0.059 A 
ATOM    106  F   UNL A   1      48.994  27.690  23.724  1.00  0.00    -0.206 F 
ATOM    107  C   UNL A   1      52.155  26.400  24.907  1.00  0.00     0.060 A 
BRANCH 107 108
ATOM    108  S   UNL A   1      53.749  25.854  24.262  1.00  0.00     0.124 S 
ATOM    109  O   UNL A   1      54.675  26.689  25.022  1.00  0.00    -0.237 OA
ATOM    110  O   UNL A   1      53.754  24.434  24.601  1.00  0.00    -0.237 OA
ATOM    111  O   UNL A   1      53.660  26.153  22.836  1.00  0.00    -0.744 OA
ENDBRANCH 107 108
ENDBRANCH  75 100
ENDBRANCH  49  50
ENDBRANCH  41  44
ENDBRANCH  39  40
ENDBRANCH  38  39
ENDBRANCH   1  38
TORSDOF 20
ENDMDL
MODEL 2
REMARK VINA RESULT:     -12.5      1.508      7.958
REMARK SMILES COc1ccc2c(c1C)OC(=O)[C@@H](CC(=O)N[C@@H](CC1=c3ccccc3=NC1)C(=O)NCCCCNC(=O)c1ccc(-c3c4nc(c(-c5c(F)cc(S(=O)(=O)[O-])cc5F)c5ccc([nH]5)c(-c5c(F)cc(S(=O)(=O)[O-])cc5F)c5nc(c(-c6c(F)cc(S(=O)(=O)[O-])cc6F)c6ccc3[nH]6)C=C5)C=C4)cc1)[C@H]2C
REMARK SMILES IDX 33 1 32 2 31 3 29 4 30 5 18 7 17 8 15 9 16 10 14 12 13 13
REMARK SMILES IDX 3 14 4 15 8 16 5 17 7 18 9 19 6 20 10 21 105 22 11 23 106 24
REMARK SMILES IDX 12 25 2 26 1 27 19 28 20 29 21 30 28 31 22 32 26 33 27 34
REMARK SMILES IDX 23 35 25 36 24 37 34 38 35 39 36 40 37 41 38 43 39 44 40 45
REMARK SMILES IDX 104 46 41 47 103 48 42 49 43 50 44 51 97 52 45 53 102 54
REMARK SMILES IDX 96 55 98 56 46 57 101 58 95 59 94 60 47 62 81 63 60 64 80 65
REMARK SMILES IDX 61 66 64 67 79 68 99 69 62 70 63 71 78 73 100 74 65 75 48 76
REMARK SMILES IDX 49 77 58 78 50 79 51 80 57 81 59 82 52 83 53 84 54 85 55 86
REMARK SMILES IDX 56 87 82 88 83 89 92 90 84 91 85 92 91 93 93 94 86 95 87 96
REMARK SMILES IDX 88 97 89 98 90 99 66 100 67 101 76 102 68 103 69 104 75 105
REMARK SMILES IDX 77 106 70 107 71 108 72 109 73 110 74 111
REMARK H PARENT 31 6 17 11 36 42 98 61 64 72
REMARK Flexibility Score: inf
ROOT
ATOM      1  C   UNL A   1      34.950  30.669  27.564  1.00  0.00     0.023 C 
ENDROOT
BRANCH   1   2
ATOM      2  C   UNL A   1      33.549  30.496  27.026  1.00  0.00     0.116 C 
BRANCH   2   3
ATOM      3  N   UNL A   1      32.613  29.688  27.754  1.00  0.00    -0.354 N 
ATOM      4  C   UNL A   1      32.047  28.528  27.282  1.00  0.00     0.242 C 
ATOM      5  O   UNL A   1      31.451  27.794  28.074  1.00  0.00    -0.273 OA
ATOM      6  H   UNL A   1      32.357  29.987  28.657  1.00  0.00     0.163 HD
BRANCH   4   7
ATOM      7  C   UNL A   1      32.224  28.105  25.786  1.00  0.00     0.175 C 
BRANCH   7   8
ATOM      8  N   UNL A   1      31.777  26.689  25.553  1.00  0.00    -0.344 N 
ATOM      9  C   UNL A   1      32.270  25.449  25.240  1.00  0.00     0.221 C 
ATOM     10  O   UNL A   1      31.406  24.558  25.275  1.00  0.00    -0.275 OA
ATOM     11  H   UNL A   1      30.799  26.634  25.661  1.00  0.00     0.164 HD
BRANCH   9  12
ATOM     12  C   UNL A   1      33.722  25.020  24.813  1.00  0.00     0.116 C 
BRANCH  12  13
ATOM     13  C   UNL A   1      34.184  23.634  25.328  1.00  0.00     0.116 C 
ATOM     14  C   UNL A   1      34.550  18.772  24.639  1.00  0.00     0.125 A 
ATOM     15  C   UNL A   1      33.256  19.264  24.792  1.00  0.00     0.047 A 
ATOM     16  C   UNL A   1      35.660  19.625  24.892  1.00  0.00     0.034 A 
ATOM     17  C   UNL A   1      33.079  20.622  24.762  1.00  0.00     0.012 A 
ATOM     18  C   UNL A   1      35.384  20.971  25.102  1.00  0.00     0.140 A 
ATOM     19  C   UNL A   1      37.069  19.147  24.747  1.00  0.00     0.052 C 
ATOM     20  C   UNL A   1      34.196  21.416  24.629  1.00  0.00    -0.001 A 
ATOM     21  O   UNL A   1      36.158  22.009  25.691  1.00  0.00    -0.426 OA
ATOM     22  C   UNL A   1      34.208  22.791  24.108  1.00  0.00     0.035 C 
ATOM     23  C   UNL A   1      35.589  23.349  25.965  1.00  0.00     0.315 C 
ATOM     24  C   UNL A   1      35.411  23.202  23.183  1.00  0.00     0.014 C 
ATOM     25  O   UNL A   1      36.204  24.172  26.635  1.00  0.00    -0.251 OA
BRANCH  14  26
ATOM     26  O   UNL A   1      34.736  17.462  24.276  1.00  0.00    -0.496 OA
ATOM     27  C   UNL A   1      33.933  17.073  23.143  1.00  0.00     0.278 C 
ENDBRANCH  14  26
ENDBRANCH  12  13
ENDBRANCH   9  12
ENDBRANCH   7   8
BRANCH   7  28
ATOM     28  C   UNL A   1      31.710  29.320  24.892  1.00  0.00     0.068 C 
BRANCH  28  29
ATOM     29  C   UNL A   1      30.661  29.389  23.793  1.00  0.00    -0.037 C 
ATOM     30  C   UNL A   1      29.662  30.210  23.454  1.00  0.00     0.001 A 
ATOM     31  C   UNL A   1      30.747  28.267  22.772  1.00  0.00     0.174 C 
ATOM     32  C   UNL A   1      29.050  31.388  23.991  1.00  0.00     0.010 A 
ATOM     33  C   UNL A   1      29.181  29.648  22.171  1.00  0.00     0.065 A 
ATOM     34  N   UNL A   1      29.735  28.560  21.744  1.00  0.00    -0.280 NA
ATOM     35  C   UNL A   1      28.082  32.007  23.300  1.00  0.00     0.001 A 
ATOM     36  C   UNL A   1      28.138  30.407  21.449  1.00  0.00     0.028 A 
ATOM     37  C   UNL A   1      27.649  31.526  22.003  1.00  0.00     0.002 A 
ENDBRANCH  28  29
ENDBRANCH   7  28
ENDBRANCH   4   7
ENDBRANCH   2   3
ENDBRANCH   1   2
BRANCH   1  38
ATOM     38  C   UNL A   1      35.267  32.065  28.075  1.00  0.00     0.023 C 
BRANCH  38  39
ATOM     39  C   UNL A   1      36.435  32.167  29.057  1.00  0.00     0.116 C 
BRANCH  39  40
ATOM     40  N   UNL A   1      36.106  31.775  30.425  1.00  0.00    -0.352 N 
ATOM     41  C   UNL A   1      36.645  30.754  31.184  1.00  0.00     0.251 C 
ATOM     42  H   UNL A   1      35.405  32.309  30.865  1.00  0.00     0.163 HD
ATOM     43  O   UNL A   1      36.217  30.466  32.284  1.00  0.00    -0.269 OA
BRANCH  41  44
ATOM     44  C   UNL A   1      37.748  29.994  30.569  1.00  0.00     0.039 A 
ATOM     45  C   UNL A   1      38.066  30.234  29.233  1.00  0.00     0.014 A 
ATOM     46  C   UNL A   1      38.588  29.249  31.399  1.00  0.00     0.014 A 
ATOM     47  C   UNL A   1      39.302  29.812  28.750  1.00  0.00     0.010 A 
ATOM     48  C   UNL A   1      39.857  28.925  30.944  1.00  0.00     0.010 A 
ATOM     49  C   UNL A   1      40.226  29.208  29.618  1.00  0.00    -0.014 A 
BRANCH  49  50
ATOM     50  C   UNL A   1      41.576  28.812  29.153  1.00  0.00     0.031 A 
ATOM     51  C   UNL A   1      42.659  29.851  29.129  1.00  0.00     0.074 A 
ATOM     52  C   UNL A   1      41.805  27.563  28.700  1.00  0.00     0.049 A 
ATOM     53  N   UNL A   1      43.879  29.761  28.674  1.00  0.00    -0.248 NA
ATOM     54  C   UNL A   1      42.310  31.184  29.653  1.00  0.00     0.031 C 
ATOM     55  C   UNL A   1      40.815  26.484  28.626  1.00  0.00     0.029 A 
ATOM     56  N   UNL A   1      42.950  26.989  28.204  1.00  0.00    -0.354 N 
ATOM     57  C   UNL A   1      44.434  31.022  28.844  1.00  0.00     0.074 A 
ATOM     58  C   UNL A   1      43.399  31.881  29.372  1.00  0.00     0.031 C 
ATOM     59  C   UNL A   1      41.404  25.377  28.142  1.00  0.00     0.029 A 
ATOM     60  C   UNL A   1      42.801  25.671  27.842  1.00  0.00     0.049 A 
ATOM     61  H   UNL A   1      43.801  27.478  28.117  1.00  0.00     0.167 HD
ATOM     62  C   UNL A   1      45.706  31.421  28.622  1.00  0.00     0.037 A 
ATOM     63  C   UNL A   1      43.696  24.802  27.329  1.00  0.00     0.037 A 
ATOM     64  C   UNL A   1      46.743  30.549  28.150  1.00  0.00     0.049 A 
ATOM     65  C   UNL A   1      45.109  25.271  27.095  1.00  0.00     0.074 A 
ATOM     66  C   UNL A   1      48.081  30.834  27.952  1.00  0.00     0.029 A 
ATOM     67  N   UNL A   1      46.559  29.216  27.815  1.00  0.00    -0.354 N 
ATOM     68  N   UNL A   1      45.633  26.454  27.315  1.00  0.00    -0.248 NA
ATOM     69  C   UNL A   1      46.055  24.288  26.545  1.00  0.00     0.031 C 
ATOM     70  C   UNL A   1      48.701  29.680  27.466  1.00  0.00     0.029 A 
ATOM     71  C   UNL A   1      47.757  28.667  27.398  1.00  0.00     0.049 A 
ATOM     72  H   UNL A   1      45.703  28.732  27.867  1.00  0.00     0.167 HD
ATOM     73  C   UNL A   1      46.971  26.352  26.951  1.00  0.00     0.074 A 
ATOM     74  C   UNL A   1      47.181  24.989  26.511  1.00  0.00     0.031 C 
ATOM     75  C   UNL A   1      47.939  27.301  26.974  1.00  0.00     0.037 A 
BRANCH  62  76
ATOM     76  C   UNL A   1      46.046  32.850  28.925  1.00  0.00     0.058 A 
ATOM     77  C   UNL A   1      45.926  33.851  27.946  1.00  0.00     0.135 A 
ATOM     78  C   UNL A   1      46.465  33.231  30.208  1.00  0.00     0.135 A 
ATOM     79  F   UNL A   1      45.556  33.531  26.695  1.00  0.00    -0.206 F 
ATOM     80  C   UNL A   1      46.224  35.178  28.225  1.00  0.00     0.059 A 
ATOM     81  C   UNL A   1      46.744  34.559  30.516  1.00  0.00     0.059 A 
ATOM     82  F   UNL A   1      46.609  32.311  31.174  1.00  0.00    -0.206 F 
ATOM     83  C   UNL A   1      46.627  35.523  29.516  1.00  0.00     0.060 A 
BRANCH  83  84
ATOM     84  S   UNL A   1      46.976  37.258  29.867  1.00  0.00     0.124 S 
ATOM     85  O   UNL A   1      46.424  37.401  31.211  1.00  0.00    -0.237 OA
ATOM     86  O   UNL A   1      48.432  37.306  29.772  1.00  0.00    -0.237 OA
ATOM     87  O   UNL A   1      46.257  37.970  28.815  1.00  0.00    -0.744 OA
ENDBRANCH  83  84
ENDBRANCH  62  76
BRANCH  63  88
ATOM     88  C   UNL A   1      43.302  23.399  27.029  1.00  0.00     0.058 A 
ATOM     89  C   UNL A   1      43.074  22.983  25.708  1.00  0.00     0.135 A 
ATOM     90  C   UNL A   1      43.136  22.450  28.049  1.00  0.00     0.135 A 
ATOM     91  F   UNL A   1      43.212  23.855  24.698  1.00  0.00    -0.206 F 
ATOM     92  C   UNL A   1      42.677  21.683  25.410  1.00  0.00     0.059 A 
ATOM     93  C   UNL A   1      42.760  21.138  27.773  1.00  0.00     0.059 A 
ATOM     94  F   UNL A   1      43.356  22.791  29.328  1.00  0.00    -0.206 F 
ATOM     95  C   UNL A   1      42.523  20.766  26.450  1.00  0.00     0.060 A 
BRANCH  95  96
ATOM     96  S   UNL A   1      42.045  19.071  26.045  1.00  0.00     0.124 S 
ATOM     97  O   UNL A   1      42.841  18.818  24.851  1.00  0.00    -0.237 OA
ATOM     98  O   UNL A   1      42.445  18.347  27.246  1.00  0.00    -0.237 OA
ATOM     99  O   UNL A   1      40.603  19.172  25.833  1.00  0.00    -0.744 OA
ENDBRANCH  95  96
ENDBRANCH  63  88
BRANCH  75 100
ATOM    100  C   UNL A   1      49.315  26.902  26.526  1.00  0.00     0.058 A 
ATOM    101  C   UNL A   1      50.254  26.384  27.430  1.00  0.00     0.135 A 
ATOM    102  C   UNL A   1      49.665  26.956  25.168  1.00  0.00     0.135 A 
ATOM    103  F   UNL A   1      49.966  26.316  28.740  1.00  0.00    -0.206 F 
ATOM    104  C   UNL A   1      51.500  25.940  27.003  1.00  0.00     0.059 A 
ATOM    105  C   UNL A   1      50.896  26.494  24.715  1.00  0.00     0.059 A 
ATOM    106  F   UNL A   1      48.795  27.432  24.263  1.00  0.00    -0.206 F 
ATOM    107  C   UNL A   1      51.810  25.993  25.642  1.00  0.00     0.060 A 
BRANCH 107 108
ATOM    108  S   UNL A   1      53.410  25.362  25.097  1.00  0.00     0.124 S 
ATOM    109  O   UNL A   1      54.319  26.032  26.021  1.00  0.00    -0.237 OA
ATOM    110  O   UNL A   1      53.260  23.922  25.288  1.00  0.00    -0.237 OA
ATOM    111  O   UNL A   1      53.493  25.799  23.706  1.00  0.00    -0.744 OA
ENDBRANCH 107 108
ENDBRANCH  75 100
ENDBRANCH  49  50
ENDBRANCH  41  44
ENDBRANCH  39  40
ENDBRANCH  38  39
ENDBRANCH   1  38
TORSDOF 20
ENDMDL
MODEL 3
REMARK VINA RESULT:     -12.1      1.283      7.831
REMARK SMILES COc1ccc2c(c1C)OC(=O)[C@@H](CC(=O)N[C@@H](CC1=c3ccccc3=NC1)C(=O)NCCCCNC(=O)c1ccc(-c3c4nc(c(-c5c(F)cc(S(=O)(=O)[O-])cc5F)c5ccc([nH]5)c(-c5c(F)cc(S(=O)(=O)[O-])cc5F)c5nc(c(-c6c(F)cc(S(=O)(=O)[O-])cc6F)c6ccc3[nH]6)C=C5)C=C4)cc1)[C@H]2C
REMARK SMILES IDX 33 1 32 2 31 3 29 4 30 5 18 7 17 8 15 9 16 10 14 12 13 13
REMARK SMILES IDX 3 14 4 15 8 16 5 17 7 18 9 19 6 20 10 21 105 22 11 23 106 24
REMARK SMILES IDX 12 25 2 26 1 27 19 28 20 29 21 30 28 31 22 32 26 33 27 34
REMARK SMILES IDX 23 35 25 36 24 37 34 38 35 39 36 40 37 41 38 43 39 44 40 45
REMARK SMILES IDX 104 46 41 47 103 48 42 49 43 50 44 51 97 52 45 53 102 54
REMARK SMILES IDX 96 55 98 56 46 57 101 58 95 59 94 60 47 62 81 63 60 64 80 65
REMARK SMILES IDX 61 66 64 67 79 68 99 69 62 70 63 71 78 73 100 74 65 75 48 76
REMARK SMILES IDX 49 77 58 78 50 79 51 80 57 81 59 82 52 83 53 84 54 85 55 86
REMARK SMILES IDX 56 87 82 88 83 89 92 90 84 91 85 92 91 93 93 94 86 95 87 96
REMARK SMILES IDX 88 97 89 98 90 99 66 100 67 101 76 102 68 103 69 104 75 105
REMARK SMILES IDX 77 106 70 107 71 108 72 109 73 110 74 111
REMARK H PARENT 31 6 17 11 36 42 98 61 64 72
REMARK Flexibility Score: inf
ROOT
ATOM      1  C   UNL A   1      33.894  33.253  27.862  1.00  0.00     0.023 C 
ENDROOT
BRANCH   1   2
ATOM      2  C   UNL A   1      32.869  32.226  27.441  1.00  0.00     0.116 C 
BRANCH   2   3
ATOM      3  N   UNL A   1      33.062  30.852  27.805  1.00  0.00    -0.354 N 
ATOM      4  C   UNL A   1      33.126  29.808  26.914  1.00  0.00     0.242 C 
ATOM      5  O   UNL A   1      33.532  28.713  27.311  1.00  0.00    -0.273 OA
ATOM      6  H   UNL A   1      33.156  30.642  28.763  1.00  0.00     0.163 HD
BRANCH   4   7
ATOM      7  C   UNL A   1      32.766  30.023  25.407  1.00  0.00     0.175 C 
BRANCH   7   8
ATOM      8  N   UNL A   1      33.571  29.125  24.510  1.00  0.00    -0.344 N 
ATOM      9  C   UNL A   1      33.630  27.829  24.067  1.00  0.00     0.221 C 
ATOM     10  O   UNL A   1      34.502  27.649  23.200  1.00  0.00    -0.275 OA
ATOM     11  H   UNL A   1      34.306  29.642  24.105  1.00  0.00     0.164 HD
BRANCH   9  12
ATOM     12  C   UNL A   1      32.802  26.570  24.519  1.00  0.00     0.116 C 
BRANCH  12  13
ATOM     13  C   UNL A   1      33.323  25.208  23.995  1.00  0.00     0.116 C 
ATOM     14  C   UNL A   1      36.472  21.445  24.399  1.00  0.00     0.125 A 
ATOM     15  C   UNL A   1      37.038  22.673  24.064  1.00  0.00     0.047 A 
ATOM     16  C   UNL A   1      35.057  21.300  24.396  1.00  0.00     0.034 A 
ATOM     17  C   UNL A   1      36.250  23.788  24.157  1.00  0.00     0.012 A 
ATOM     18  C   UNL A   1      34.307  22.460  24.236  1.00  0.00     0.140 A 
ATOM     19  C   UNL A   1      34.398  20.005  24.744  1.00  0.00     0.052 C 
ATOM     20  C   UNL A   1      34.936  23.622  24.531  1.00  0.00    -0.001 A 
ATOM     21  O   UNL A   1      32.949  22.657  23.859  1.00  0.00    -0.426 OA
ATOM     22  C   UNL A   1      34.085  24.654  25.141  1.00  0.00     0.035 C 
ATOM     23  C   UNL A   1      32.402  24.006  23.586  1.00  0.00     0.315 C 
ATOM     24  C   UNL A   1      33.103  24.200  26.282  1.00  0.00     0.014 C 
ATOM     25  O   UNL A   1      31.291  24.148  23.088  1.00  0.00    -0.251 OA
BRANCH  14  26
ATOM     26  O   UNL A   1      37.289  20.383  24.698  1.00  0.00    -0.496 OA
ATOM     27  C   UNL A   1      38.254  20.688  25.725  1.00  0.00     0.278 C 
ENDBRANCH  14  26
ENDBRANCH  12  13
ENDBRANCH   9  12
ENDBRANCH   7   8
BRANCH   7  28
ATOM     28  C   UNL A   1      31.178  30.118  25.313  1.00  0.00     0.068 C 
BRANCH  28  29
ATOM     29  C   UNL A   1      30.232  30.045  24.124  1.00  0.00    -0.037 C 
ATOM     30  C   UNL A   1      29.458  30.897  23.445  1.00  0.00     0.001 A 
ATOM     31  C   UNL A   1      30.124  28.667  23.492  1.00  0.00     0.174 C 
ATOM     32  C   UNL A   1      29.092  32.278  23.539  1.00  0.00     0.010 A 
ATOM     33  C   UNL A   1      28.936  30.069  22.333  1.00  0.00     0.065 A 
ATOM     34  N   UNL A   1      29.259  28.817  22.311  1.00  0.00    -0.280 NA
ATOM     35  C   UNL A   1      28.323  32.828  22.588  1.00  0.00     0.001 A 
ATOM     36  C   UNL A   1      28.127  30.754  21.303  1.00  0.00     0.028 A 
ATOM     37  C   UNL A   1      27.866  32.062  21.445  1.00  0.00     0.002 A 
ENDBRANCH  28  29
ENDBRANCH   7  28
ENDBRANCH   4   7
ENDBRANCH   2   3
ENDBRANCH   1   2
BRANCH   1  38
ATOM     38  C   UNL A   1      35.335  32.766  27.825  1.00  0.00     0.023 C 
BRANCH  38  39
ATOM     39  C   UNL A   1      36.040  32.666  29.177  1.00  0.00     0.116 C 
BRANCH  39  40
ATOM     40  N   UNL A   1      35.648  31.507  29.976  1.00  0.00    -0.352 N 
ATOM     41  C   UNL A   1      36.394  30.390  30.300  1.00  0.00     0.251 C 
ATOM     42  H   UNL A   1      34.728  31.524  30.329  1.00  0.00     0.163 HD
ATOM     43  O   UNL A   1      35.920  29.443  30.896  1.00  0.00    -0.269 OA
BRANCH  41  44
ATOM     44  C   UNL A   1      37.795  30.384  29.845  1.00  0.00     0.039 A 
ATOM     45  C   UNL A   1      38.809  30.549  30.789  1.00  0.00     0.014 A 
ATOM     46  C   UNL A   1      38.070  29.974  28.539  1.00  0.00     0.014 A 
ATOM     47  C   UNL A   1      40.110  30.187  30.447  1.00  0.00     0.010 A 
ATOM     48  C   UNL A   1      39.345  29.517  28.239  1.00  0.00     0.010 A 
ATOM     49  C   UNL A   1      40.373  29.616  29.191  1.00  0.00    -0.014 A 
BRANCH  49  50
ATOM     50  C   UNL A   1      41.733  29.156  28.824  1.00  0.00     0.031 A 
ATOM     51  C   UNL A   1      42.847  30.161  28.802  1.00  0.00     0.074 A 
ATOM     52  C   UNL A   1      41.947  27.877  28.454  1.00  0.00     0.049 A 
ATOM     53  N   UNL A   1      44.087  30.011  28.420  1.00  0.00    -0.248 NA
ATOM     54  C   UNL A   1      42.512  31.531  29.231  1.00  0.00     0.031 C 
ATOM     55  C   UNL A   1      40.929  26.824  28.386  1.00  0.00     0.029 A 
ATOM     56  N   UNL A   1      43.099  27.244  28.055  1.00  0.00    -0.354 N 
ATOM     57  C   UNL A   1      44.670  31.264  28.549  1.00  0.00     0.074 A 
ATOM     58  C   UNL A   1      43.636  32.180  28.971  1.00  0.00     0.031 C 
ATOM     59  C   UNL A   1      41.508  25.675  27.998  1.00  0.00     0.029 A 
ATOM     60  C   UNL A   1      42.928  25.912  27.760  1.00  0.00     0.049 A 
ATOM     61  H   UNL A   1      43.967  27.703  27.987  1.00  0.00     0.167 HD
ATOM     62  C   UNL A   1      45.964  31.613  28.376  1.00  0.00     0.037 A 
ATOM     63  C   UNL A   1      43.822  24.990  27.345  1.00  0.00     0.037 A 
ATOM     64  C   UNL A   1      46.998  30.687  28.011  1.00  0.00     0.049 A 
ATOM     65  C   UNL A   1      45.259  25.405  27.163  1.00  0.00     0.074 A 
ATOM     66  C   UNL A   1      48.352  30.923  27.871  1.00  0.00     0.029 A 
ATOM     67  N   UNL A   1      46.790  29.343  27.740  1.00  0.00    -0.354 N 
ATOM     68  N   UNL A   1      45.807  26.583  27.346  1.00  0.00    -0.248 NA
ATOM     69  C   UNL A   1      46.202  24.367  26.721  1.00  0.00     0.031 C 
ATOM     70  C   UNL A   1      48.962  29.726  27.484  1.00  0.00     0.029 A 
ATOM     71  C   UNL A   1      47.991  28.737  27.421  1.00  0.00     0.049 A 
ATOM     72  H   UNL A   1      45.918  28.887  27.773  1.00  0.00     0.167 HD
ATOM     73  C   UNL A   1      47.158  26.424  27.061  1.00  0.00     0.074 A 
ATOM     74  C   UNL A   1      47.349  25.032  26.711  1.00  0.00     0.031 C 
ATOM     75  C   UNL A   1      48.153  27.345  27.085  1.00  0.00     0.037 A 
BRANCH  62  76
ATOM     76  C   UNL A   1      46.332  33.048  28.616  1.00  0.00     0.058 A 
ATOM     77  C   UNL A   1      46.310  33.990  27.575  1.00  0.00     0.135 A 
ATOM     78  C   UNL A   1      46.679  33.493  29.900  1.00  0.00     0.135 A 
ATOM     79  F   UNL A   1      46.012  33.607  26.323  1.00  0.00    -0.206 F 
ATOM     80  C   UNL A   1      46.634  35.322  27.795  1.00  0.00     0.059 A 
ATOM     81  C   UNL A   1      46.982  34.828  30.149  1.00  0.00     0.059 A 
ATOM     82  F   UNL A   1      46.728  32.629  30.926  1.00  0.00    -0.206 F 
ATOM     83  C   UNL A   1      46.963  35.733  29.088  1.00  0.00     0.060 A 
BRANCH  83  84
ATOM     84  S   UNL A   1      47.347  37.474  29.360  1.00  0.00     0.124 S 
ATOM     85  O   UNL A   1      47.307  37.559  30.817  1.00  0.00    -0.237 OA
ATOM     86  O   UNL A   1      48.669  37.598  28.755  1.00  0.00    -0.237 OA
ATOM     87  O   UNL A   1      46.272  38.173  28.662  1.00  0.00    -0.744 OA
ENDBRANCH  83  84
ENDBRANCH  62  76
BRANCH  63  88
ATOM     88  C   UNL A   1      43.401  23.584  27.102  1.00  0.00     0.058 A 
ATOM     89  C   UNL A   1      43.258  22.681  28.167  1.00  0.00     0.135 A 
ATOM     90  C   UNL A   1      43.141  23.110  25.807  1.00  0.00     0.135 A 
ATOM     91  F   UNL A   1      43.502  23.084  29.423  1.00  0.00    -0.206 F 
ATOM     92  C   UNL A   1      42.893  21.355  27.956  1.00  0.00     0.059 A 
ATOM     93  C   UNL A   1      42.754  21.793  25.573  1.00  0.00     0.059 A 
ATOM     94  F   UNL A   1      43.249  23.935  24.755  1.00  0.00    -0.206 F 
ATOM     95  C   UNL A   1      42.642  20.920  26.655  1.00  0.00     0.060 A 
BRANCH  95  96
ATOM     96  S   UNL A   1      42.131  19.206  26.400  1.00  0.00     0.124 S 
ATOM     97  O   UNL A   1      41.261  19.328  25.237  1.00  0.00    -0.237 OA
ATOM     98  O   UNL A   1      43.408  18.537  26.175  1.00  0.00    -0.237 OA
ATOM     99  O   UNL A   1      41.465  18.864  27.654  1.00  0.00    -0.744 OA
ENDBRANCH  95  96
ENDBRANCH  63  88
BRANCH  75 100
ATOM    100  C   UNL A   1      49.537  26.883  26.736  1.00  0.00     0.058 A 
ATOM    101  C   UNL A   1      50.422  26.421  27.722  1.00  0.00     0.135 A 
ATOM    102  C   UNL A   1      49.950  26.817  25.396  1.00  0.00     0.135 A 
ATOM    103  F   UNL A   1      50.074  26.468  29.018  1.00  0.00    -0.206 F 
ATOM    104  C   UNL A   1      51.675  25.919  27.392  1.00  0.00     0.059 A 
ATOM    105  C   UNL A   1      51.189  26.294  25.041  1.00  0.00     0.059 A 
ATOM    106  F   UNL A   1      49.134  27.235  24.415  1.00  0.00    -0.206 F 
ATOM    107  C   UNL A   1      52.047  25.853  26.047  1.00  0.00     0.060 A 
BRANCH 107 108
ATOM    108  S   UNL A   1      53.655  25.147  25.631  1.00  0.00     0.124 S 
ATOM    109  O   UNL A   1      53.283  23.800  25.209  1.00  0.00    -0.237 OA
ATOM    110  O   UNL A   1      54.121  26.036  24.570  1.00  0.00    -0.237 OA
ATOM    111  O   UNL A   1      54.398  25.231  26.884  1.00  0.00    -0.744 OA
ENDBRANCH 107 108
ENDBRANCH  75 100
ENDBRANCH  49  50
ENDBRANCH  41  44
ENDBRANCH  39  40
ENDBRANCH  38  39
ENDBRANCH   1  38
TORSDOF 20
ENDMDL
