MODEL 1
REMARK VINA RESULT:     -11.6      0.000      0.000
REMARK SMILES CC1(C)[C@H]2CC[C@]1(C)C(=O)N(CC(=O)NCCCCNC(=O)c1ccc(-c3c4nc(c(-c5c(F)cc(S(=O)(=O)[O-])cc5F)c5ccc([nH]5)c(-c5c(F)cc(S(=O)(=O)[O-])cc5F)c5nc(c(-c6c(F)cc(S(=O)(=O)[O-])cc6F)c6ccc3[nH]6)C=C5)C=C4)cc1)C2=O
REMARK SMILES IDX 18 1 17 2 16 3 15 4 13 5 14 6 12 8 11 9 1 10 2 11 4 12 7 13
REMARK SMILES IDX 3 14 5 15 89 16 6 17 9 18 8 19 90 20 10 21 19 22 20 23 21 24
REMARK SMILES IDX 22 26 23 27 24 28 88 29 25 30 87 31 26 32 27 33 28 34 81 35
REMARK SMILES IDX 29 36 86 37 80 38 82 39 30 40 85 41 79 42 78 43 31 45 65 46
REMARK SMILES IDX 44 47 64 48 45 49 48 50 63 51 83 52 46 53 47 54 62 56 84 57
REMARK SMILES IDX 49 58 32 59 33 60 42 61 34 62 35 63 41 64 43 65 36 66 37 67
REMARK SMILES IDX 38 68 39 69 40 70 66 71 67 72 76 73 68 74 69 75 75 76 77 77
REMARK SMILES IDX 70 78 71 79 72 80 73 81 74 82 50 83 51 84 60 85 52 86 53 87
REMARK SMILES IDX 59 88 61 89 54 90 55 91 56 92 57 93 58 94
REMARK H PARENT 15 7 20 25 82 44 48 55
REMARK Flexibility Score: inf
ROOT
ATOM      1  C   UNL A   1      33.958  28.549  25.757  1.00  0.00     0.023 C 
ENDROOT
BRANCH   1   2
ATOM      2  C   UNL A   1      33.013  29.265  24.803  1.00  0.00     0.023 C 
BRANCH   2   3
ATOM      3  C   UNL A   1      33.190  28.934  23.327  1.00  0.00     0.116 C 
BRANCH   3   4
ATOM      4  N   UNL A   1      32.199  27.975  22.898  1.00  0.00    -0.355 N 
ATOM      5  C   UNL A   1      32.311  26.641  22.650  1.00  0.00     0.240 C 
ATOM      6  O   UNL A   1      31.257  26.036  22.418  1.00  0.00    -0.273 OA
ATOM      7  H   UNL A   1      31.297  28.346  22.765  1.00  0.00     0.163 HD
BRANCH   5   8
ATOM      8  C   UNL A   1      33.611  25.854  22.883  1.00  0.00     0.228 C 
BRANCH   8   9
ATOM      9  N   UNL A   1      33.567  24.524  23.495  1.00  0.00    -0.272 N 
ATOM     10  C   UNL A   1      36.026  22.364  23.960  1.00  0.00     0.013 C 
ATOM     11  C   UNL A   1      34.616  21.979  24.430  1.00  0.00    -0.010 C 
ATOM     12  C   UNL A   1      33.526  22.067  23.338  1.00  0.00     0.086 C 
ATOM     13  C   UNL A   1      33.982  22.979  25.433  1.00  0.00     0.053 C 
ATOM     14  C   UNL A   1      34.701  20.522  24.966  1.00  0.00     0.013 C 
ATOM     15  C   UNL A   1      32.196  21.963  24.107  1.00  0.00     0.015 C 
ATOM     16  C   UNL A   1      33.527  23.423  22.646  1.00  0.00     0.233 C 
ATOM     17  C   UNL A   1      32.535  22.460  25.518  1.00  0.00     0.018 C 
ATOM     18  C   UNL A   1      33.985  24.413  24.819  1.00  0.00     0.236 C 
ATOM     19  C   UNL A   1      34.608  23.034  26.828  1.00  0.00     0.022 C 
ATOM     20  O   UNL A   1      33.499  23.498  21.419  1.00  0.00    -0.274 OA
ATOM     21  O   UNL A   1      34.377  25.388  25.457  1.00  0.00    -0.274 OA
ENDBRANCH   8   9
ENDBRANCH   5   8
ENDBRANCH   3   4
ENDBRANCH   2   3
ENDBRANCH   1   2
BRANCH   1  22
ATOM     22  C   UNL A   1      33.561  28.664  27.222  1.00  0.00     0.116 C 
BRANCH  22  23
ATOM     23  N   UNL A   1      33.571  30.035  27.734  1.00  0.00    -0.352 N 
ATOM     24  C   UNL A   1      34.591  30.737  28.333  1.00  0.00     0.251 C 
ATOM     25  H   UNL A   1      32.724  30.526  27.635  1.00  0.00     0.163 HD
ATOM     26  O   UNL A   1      34.384  31.857  28.793  1.00  0.00    -0.269 OA
BRANCH  24  27
ATOM     27  C   UNL A   1      35.923  30.113  28.446  1.00  0.00     0.039 A 
ATOM     28  C   UNL A   1      36.811  30.178  27.370  1.00  0.00     0.014 A 
ATOM     29  C   UNL A   1      36.319  29.542  29.656  1.00  0.00     0.014 A 
ATOM     30  C   UNL A   1      38.131  29.757  27.546  1.00  0.00     0.010 A 
ATOM     31  C   UNL A   1      37.657  29.248  29.865  1.00  0.00     0.010 A 
ATOM     32  C   UNL A   1      38.577  29.341  28.810  1.00  0.00    -0.014 A 
BRANCH  32  33
ATOM     33  C   UNL A   1      39.990  28.960  29.068  1.00  0.00     0.031 A 
ATOM     34  C   UNL A   1      40.933  29.983  29.645  1.00  0.00     0.074 A 
ATOM     35  C   UNL A   1      40.445  27.749  28.688  1.00  0.00     0.049 A 
ATOM     36  N   UNL A   1      42.230  29.924  29.795  1.00  0.00    -0.248 NA
ATOM     37  C   UNL A   1      40.344  31.271  30.054  1.00  0.00     0.031 C 
ATOM     38  C   UNL A   1      39.647  26.699  28.048  1.00  0.00     0.029 A 
ATOM     39  N   UNL A   1      41.700  27.201  28.773  1.00  0.00    -0.354 N 
ATOM     40  C   UNL A   1      42.612  31.174  30.268  1.00  0.00     0.074 A 
ATOM     41  C   UNL A   1      41.422  31.992  30.316  1.00  0.00     0.031 C 
ATOM     42  C   UNL A   1      40.422  25.624  27.831  1.00  0.00     0.029 A 
ATOM     43  C   UNL A   1      41.779  25.919  28.280  1.00  0.00     0.049 A 
ATOM     44  H   UNL A   1      42.472  27.679  29.153  1.00  0.00     0.167 HD
ATOM     45  C   UNL A   1      43.836  31.592  30.664  1.00  0.00     0.037 A 
ATOM     46  C   UNL A   1      42.830  25.080  28.199  1.00  0.00     0.037 A 
ATOM     47  C   UNL A   1      44.997  30.745  30.688  1.00  0.00     0.049 A 
ATOM     48  C   UNL A   1      44.166  25.539  28.718  1.00  0.00     0.074 A 
ATOM     49  C   UNL A   1      46.269  31.036  31.145  1.00  0.00     0.029 A 
ATOM     50  N   UNL A   1      45.017  29.427  30.254  1.00  0.00    -0.354 N 
ATOM     51  N   UNL A   1      44.499  26.708  29.213  1.00  0.00    -0.248 NA
ATOM     52  C   UNL A   1      45.265  24.566  28.679  1.00  0.00     0.031 C 
ATOM     53  C   UNL A   1      47.064  29.899  30.969  1.00  0.00     0.029 A 
ATOM     54  C   UNL A   1      46.278  28.889  30.436  1.00  0.00     0.049 A 
ATOM     55  H   UNL A   1      44.247  28.945  29.874  1.00  0.00     0.167 HD
ATOM     56  C   UNL A   1      45.838  26.602  29.571  1.00  0.00     0.074 A 
ATOM     57  C   UNL A   1      46.249  25.251  29.245  1.00  0.00     0.031 C 
ATOM     58  C   UNL A   1      46.654  27.535  30.121  1.00  0.00     0.037 A 
BRANCH  45  59
ATOM     59  C   UNL A   1      43.966  33.017  31.129  1.00  0.00     0.058 A 
ATOM     60  C   UNL A   1      44.366  34.042  30.256  1.00  0.00     0.135 A 
ATOM     61  C   UNL A   1      43.684  33.364  32.459  1.00  0.00     0.135 A 
ATOM     62  F   UNL A   1      44.669  33.762  28.978  1.00  0.00    -0.206 F 
ATOM     63  C   UNL A   1      44.522  35.352  30.693  1.00  0.00     0.059 A 
ATOM     64  C   UNL A   1      43.802  34.677  32.911  1.00  0.00     0.059 A 
ATOM     65  F   UNL A   1      43.299  32.426  33.338  1.00  0.00    -0.206 F 
ATOM     66  C   UNL A   1      44.240  35.659  32.025  1.00  0.00     0.060 A 
BRANCH  66  67
ATOM     67  S   UNL A   1      44.450  37.365  32.578  1.00  0.00     0.124 S 
ATOM     68  O   UNL A   1      43.870  38.105  31.461  1.00  0.00    -0.237 OA
ATOM     69  O   UNL A   1      43.685  37.388  33.820  1.00  0.00    -0.237 OA
ATOM     70  O   UNL A   1      45.896  37.494  32.733  1.00  0.00    -0.744 OA
ENDBRANCH  66  67
ENDBRANCH  45  59
BRANCH  46  71
ATOM     71  C   UNL A   1      42.650  23.707  27.655  1.00  0.00     0.058 A 
ATOM     72  C   UNL A   1      42.485  22.612  28.517  1.00  0.00     0.135 A 
ATOM     73  C   UNL A   1      42.627  23.461  26.274  1.00  0.00     0.135 A 
ATOM     74  F   UNL A   1      42.504  22.796  29.845  1.00  0.00    -0.206 F 
ATOM     75  C   UNL A   1      42.322  21.318  28.031  1.00  0.00     0.059 A 
ATOM     76  C   UNL A   1      42.442  22.179  25.764  1.00  0.00     0.059 A 
ATOM     77  F   UNL A   1      42.759  24.477  25.407  1.00  0.00    -0.206 F 
ATOM     78  C   UNL A   1      42.302  21.112  26.650  1.00  0.00     0.060 A 
BRANCH  78  79
ATOM     79  S   UNL A   1      42.043  19.435  26.030  1.00  0.00     0.124 S 
ATOM     80  O   UNL A   1      42.899  19.424  24.849  1.00  0.00    -0.237 OA
ATOM     81  O   UNL A   1      42.495  18.618  27.153  1.00  0.00    -0.237 OA
ATOM     82  O   UNL A   1      40.607  19.392  25.771  1.00  0.00    -0.744 OA
ENDBRANCH  78  79
ENDBRANCH  46  71
BRANCH  58  83
ATOM     83  C   UNL A   1      48.058  27.116  30.446  1.00  0.00     0.058 A 
ATOM     84  C   UNL A   1      49.121  27.356  29.563  1.00  0.00     0.135 A 
ATOM     85  C   UNL A   1      48.349  26.521  31.684  1.00  0.00     0.135 A 
ATOM     86  F   UNL A   1      48.891  27.918  28.365  1.00  0.00    -0.206 F 
ATOM     87  C   UNL A   1      50.426  27.001  29.888  1.00  0.00     0.059 A 
ATOM     88  C   UNL A   1      49.649  26.180  32.040  1.00  0.00     0.059 A 
ATOM     89  F   UNL A   1      47.367  26.282  32.567  1.00  0.00    -0.206 F 
ATOM     90  C   UNL A   1      50.679  26.415  31.130  1.00  0.00     0.060 A 
BRANCH  90  91
ATOM     91  S   UNL A   1      52.381  25.993  31.557  1.00  0.00     0.124 S 
ATOM     92  O   UNL A   1      52.682  26.990  32.579  1.00  0.00    -0.237 OA
ATOM     93  O   UNL A   1      52.254  24.618  32.032  1.00  0.00    -0.237 OA
ATOM     94  O   UNL A   1      53.097  26.150  30.295  1.00  0.00    -0.744 OA
ENDBRANCH  90  91
ENDBRANCH  58  83
ENDBRANCH  32  33
ENDBRANCH  24  27
ENDBRANCH  22  23
ENDBRANCH   1  22
TORSDOF 15
ENDMDL
MODEL 2
REMARK VINA RESULT:     -11.6      4.004     10.811
REMARK SMILES CC1(C)[C@H]2CC[C@]1(C)C(=O)N(CC(=O)NCCCCNC(=O)c1ccc(-c3c4nc(c(-c5c(F)cc(S(=O)(=O)[O-])cc5F)c5ccc([nH]5)c(-c5c(F)cc(S(=O)(=O)[O-])cc5F)c5nc(c(-c6c(F)cc(S(=O)(=O)[O-])cc6F)c6ccc3[nH]6)C=C5)C=C4)cc1)C2=O
REMARK SMILES IDX 18 1 17 2 16 3 15 4 13 5 14 6 12 8 11 9 1 10 2 11 4 12 7 13
REMARK SMILES IDX 3 14 5 15 89 16 6 17 9 18 8 19 90 20 10 21 19 22 20 23 21 24
REMARK SMILES IDX 22 26 23 27 24 28 88 29 25 30 87 31 26 32 27 33 28 34 81 35
REMARK SMILES IDX 29 36 86 37 80 38 82 39 30 40 85 41 79 42 78 43 31 45 65 46
REMARK SMILES IDX 44 47 64 48 45 49 48 50 63 51 83 52 46 53 47 54 62 56 84 57
REMARK SMILES IDX 49 58 32 59 33 60 42 61 34 62 35 63 41 64 43 65 36 66 37 67
REMARK SMILES IDX 38 68 39 69 40 70 66 71 67 72 76 73 68 74 69 75 75 76 77 77
REMARK SMILES IDX 70 78 71 79 72 80 73 81 74 82 50 83 51 84 60 85 52 86 53 87
REMARK SMILES IDX 59 88 61 89 54 90 55 91 56 92 57 93 58 94
REMARK H PARENT 15 7 20 25 82 44 48 55
REMARK Flexibility Score: inf
ROOT
ATOM      1  C   UNL A   1      40.812  20.288  26.163  1.00  0.00     0.023 C 
ENDROOT
BRANCH   1   2
ATOM      2  C   UNL A   1      42.242  19.850  26.446  1.00  0.00     0.023 C 
BRANCH   2   3
ATOM      3  C   UNL A   1      43.082  19.513  25.221  1.00  0.00     0.116 C 
BRANCH   3   4
ATOM      4  N   UNL A   1      44.471  19.832  25.452  1.00  0.00    -0.355 N 
ATOM      5  C   UNL A   1      45.171  20.969  25.188  1.00  0.00     0.240 C 
ATOM      6  O   UNL A   1      46.332  21.011  25.616  1.00  0.00    -0.273 OA
ATOM      7  H   UNL A   1      44.996  19.110  25.869  1.00  0.00     0.163 HD
BRANCH   5   8
ATOM      8  C   UNL A   1      44.518  22.240  24.621  1.00  0.00     0.228 C 
BRANCH   8   9
ATOM      9  N   UNL A   1      44.825  23.548  25.202  1.00  0.00    -0.272 N 
ATOM     10  C   UNL A   1      47.089  24.337  27.478  1.00  0.00     0.013 C 
ATOM     11  C   UNL A   1      46.203  25.455  26.910  1.00  0.00    -0.010 C 
ATOM     12  C   UNL A   1      44.684  25.195  27.028  1.00  0.00     0.086 C 
ATOM     13  C   UNL A   1      46.267  25.600  25.367  1.00  0.00     0.053 C 
ATOM     14  C   UNL A   1      46.569  26.756  27.678  1.00  0.00     0.013 C 
ATOM     15  C   UNL A   1      44.036  26.259  26.122  1.00  0.00     0.015 C 
ATOM     16  C   UNL A   1      44.297  23.838  26.456  1.00  0.00     0.233 C 
ATOM     17  C   UNL A   1      45.128  26.601  25.100  1.00  0.00     0.018 C 
ATOM     18  C   UNL A   1      45.927  24.234  24.696  1.00  0.00     0.236 C 
ATOM     19  C   UNL A   1      47.581  26.126  24.786  1.00  0.00     0.022 C 
ATOM     20  O   UNL A   1      43.569  23.077  27.091  1.00  0.00    -0.274 OA
ATOM     21  O   UNL A   1      46.621  23.765  23.796  1.00  0.00    -0.274 OA
ENDBRANCH   8   9
ENDBRANCH   5   8
ENDBRANCH   3   4
ENDBRANCH   2   3
ENDBRANCH   1   2
BRANCH   1  22
ATOM     22  C   UNL A   1      40.590  21.789  26.287  1.00  0.00     0.116 C 
BRANCH  22  23
ATOM     23  N   UNL A   1      39.294  22.241  25.778  1.00  0.00    -0.352 N 
ATOM     24  C   UNL A   1      38.629  23.423  26.007  1.00  0.00     0.251 C 
ATOM     25  H   UNL A   1      38.832  21.606  25.185  1.00  0.00     0.163 HD
ATOM     26  O   UNL A   1      37.493  23.587  25.570  1.00  0.00    -0.269 OA
BRANCH  24  27
ATOM     27  C   UNL A   1      39.283  24.471  26.814  1.00  0.00     0.039 A 
ATOM     28  C   UNL A   1      40.086  25.425  26.186  1.00  0.00     0.014 A 
ATOM     29  C   UNL A   1      39.023  24.555  28.182  1.00  0.00     0.014 A 
ATOM     30  C   UNL A   1      40.546  26.521  26.919  1.00  0.00     0.010 A 
ATOM     31  C   UNL A   1      39.370  25.705  28.871  1.00  0.00     0.010 A 
ATOM     32  C   UNL A   1      40.145  26.697  28.253  1.00  0.00    -0.014 A 
BRANCH  32  33
ATOM     33  C   UNL A   1      40.540  27.886  29.052  1.00  0.00     0.031 A 
ATOM     34  C   UNL A   1      41.861  27.879  29.777  1.00  0.00     0.074 A 
ATOM     35  C   UNL A   1      39.678  28.911  29.212  1.00  0.00     0.049 A 
ATOM     36  N   UNL A   1      42.329  28.726  30.654  1.00  0.00    -0.248 NA
ATOM     37  C   UNL A   1      42.749  26.730  29.524  1.00  0.00     0.031 C 
ATOM     38  C   UNL A   1      38.339  29.000  28.624  1.00  0.00     0.029 A 
ATOM     39  N   UNL A   1      39.797  30.071  29.933  1.00  0.00    -0.354 N 
ATOM     40  C   UNL A   1      43.537  28.190  31.087  1.00  0.00     0.074 A 
ATOM     41  C   UNL A   1      43.696  26.914  30.430  1.00  0.00     0.031 C 
ATOM     42  C   UNL A   1      37.776  30.166  28.979  1.00  0.00     0.029 A 
ATOM     43  C   UNL A   1      38.695  30.891  29.850  1.00  0.00     0.049 A 
ATOM     44  H   UNL A   1      40.597  30.298  30.461  1.00  0.00     0.167 HD
ATOM     45  C   UNL A   1      44.449  28.730  31.928  1.00  0.00     0.037 A 
ATOM     46  C   UNL A   1      38.457  32.091  30.415  1.00  0.00     0.037 A 
ATOM     47  C   UNL A   1      44.317  30.035  32.514  1.00  0.00     0.049 A 
ATOM     48  C   UNL A   1      39.520  32.707  31.284  1.00  0.00     0.074 A 
ATOM     49  C   UNL A   1      45.216  30.717  33.315  1.00  0.00     0.029 A 
ATOM     50  N   UNL A   1      43.220  30.868  32.341  1.00  0.00    -0.354 N 
ATOM     51  N   UNL A   1      40.681  32.210  31.641  1.00  0.00    -0.248 NA
ATOM     52  C   UNL A   1      39.248  34.047  31.818  1.00  0.00     0.031 C 
ATOM     53  C   UNL A   1      44.653  31.954  33.642  1.00  0.00     0.029 A 
ATOM     54  C   UNL A   1      43.421  32.058  33.015  1.00  0.00     0.049 A 
ATOM     55  H   UNL A   1      42.419  30.645  31.813  1.00  0.00     0.167 HD
ATOM     56  C   UNL A   1      41.290  33.188  32.417  1.00  0.00     0.074 A 
ATOM     57  C   UNL A   1      40.373  34.310  32.469  1.00  0.00     0.031 C 
ATOM     58  C   UNL A   1      42.499  33.165  33.032  1.00  0.00     0.037 A 
BRANCH  45  59
ATOM     59  C   UNL A   1      45.677  27.916  32.234  1.00  0.00     0.058 A 
ATOM     60  C   UNL A   1      46.836  28.008  31.446  1.00  0.00     0.135 A 
ATOM     61  C   UNL A   1      45.700  27.039  33.329  1.00  0.00     0.135 A 
ATOM     62  F   UNL A   1      46.862  28.817  30.373  1.00  0.00    -0.206 F 
ATOM     63  C   UNL A   1      47.958  27.231  31.706  1.00  0.00     0.059 A 
ATOM     64  C   UNL A   1      46.825  26.273  33.628  1.00  0.00     0.059 A 
ATOM     65  F   UNL A   1      44.621  26.909  34.116  1.00  0.00    -0.206 F 
ATOM     66  C   UNL A   1      47.942  26.363  32.799  1.00  0.00     0.060 A 
BRANCH  66  67
ATOM     67  S   UNL A   1      49.406  25.357  33.121  1.00  0.00     0.124 S 
ATOM     68  O   UNL A   1      48.862  24.327  34.001  1.00  0.00    -0.237 OA
ATOM     69  O   UNL A   1      49.783  24.913  31.784  1.00  0.00    -0.237 OA
ATOM     70  O   UNL A   1      50.329  26.297  33.750  1.00  0.00    -0.744 OA
ENDBRANCH  66  67
ENDBRANCH  45  59
BRANCH  46  71
ATOM     71  C   UNL A   1      37.185  32.810  30.134  1.00  0.00     0.058 A 
ATOM     72  C   UNL A   1      36.056  32.609  30.943  1.00  0.00     0.135 A 
ATOM     73  C   UNL A   1      37.072  33.715  29.068  1.00  0.00     0.135 A 
ATOM     74  F   UNL A   1      36.114  31.751  31.972  1.00  0.00    -0.206 F 
ATOM     75  C   UNL A   1      34.854  33.265  30.695  1.00  0.00     0.059 A 
ATOM     76  C   UNL A   1      35.887  34.400  28.814  1.00  0.00     0.059 A 
ATOM     77  F   UNL A   1      38.129  33.959  28.277  1.00  0.00    -0.206 F 
ATOM     78  C   UNL A   1      34.780  34.160  29.627  1.00  0.00     0.060 A 
BRANCH  78  79
ATOM     79  S   UNL A   1      33.228  35.040  29.342  1.00  0.00     0.124 S 
ATOM     80  O   UNL A   1      32.631  35.020  30.672  1.00  0.00    -0.237 OA
ATOM     81  O   UNL A   1      33.695  36.341  28.872  1.00  0.00    -0.237 OA
ATOM     82  O   UNL A   1      32.559  34.222  28.336  1.00  0.00    -0.744 OA
ENDBRANCH  78  79
ENDBRANCH  46  71
BRANCH  58  83
ATOM     83  C   UNL A   1      42.919  34.400  33.774  1.00  0.00     0.058 A 
ATOM     84  C   UNL A   1      42.681  34.552  35.147  1.00  0.00     0.135 A 
ATOM     85  C   UNL A   1      43.622  35.419  33.109  1.00  0.00     0.135 A 
ATOM     86  F   UNL A   1      42.009  33.607  35.825  1.00  0.00    -0.206 F 
ATOM     87  C   UNL A   1      43.108  35.681  35.836  1.00  0.00     0.059 A 
ATOM     88  C   UNL A   1      44.079  36.545  33.782  1.00  0.00     0.059 A 
ATOM     89  F   UNL A   1      43.884  35.314  31.797  1.00  0.00    -0.206 F 
ATOM     90  C   UNL A   1      43.808  36.672  35.144  1.00  0.00     0.060 A 
BRANCH  90  91
ATOM     91  S   UNL A   1      44.392  38.117  36.055  1.00  0.00     0.124 S 
ATOM     92  O   UNL A   1      43.621  38.016  37.289  1.00  0.00    -0.237 OA
ATOM     93  O   UNL A   1      45.823  37.853  36.179  1.00  0.00    -0.237 OA
ATOM     94  O   UNL A   1      44.041  39.233  35.182  1.00  0.00    -0.744 OA
ENDBRANCH  90  91
ENDBRANCH  58  83
ENDBRANCH  32  33
ENDBRANCH  24  27
ENDBRANCH  22  23
ENDBRANCH   1  22
TORSDOF 15
ENDMDL
MODEL 3
REMARK VINA RESULT:     -11.5      2.944      9.403
REMARK SMILES CC1(C)[C@H]2CC[C@]1(C)C(=O)N(CC(=O)NCCCCNC(=O)c1ccc(-c3c4nc(c(-c5c(F)cc(S(=O)(=O)[O-])cc5F)c5ccc([nH]5)c(-c5c(F)cc(S(=O)(=O)[O-])cc5F)c5nc(c(-c6c(F)cc(S(=O)(=O)[O-])cc6F)c6ccc3[nH]6)C=C5)C=C4)cc1)C2=O
REMARK SMILES IDX 18 1 17 2 16 3 15 4 13 5 14 6 12 8 11 9 1 10 2 11 4 12 7 13
REMARK SMILES IDX 3 14 5 15 89 16 6 17 9 18 8 19 90 20 10 21 19 22 20 23 21 24
REMARK SMILES IDX 22 26 23 27 24 28 88 29 25 30 87 31 26 32 27 33 28 34 81 35
REMARK SMILES IDX 29 36 86 37 80 38 82 39 30 40 85 41 79 42 78 43 31 45 65 46
REMARK SMILES IDX 44 47 64 48 45 49 48 50 63 51 83 52 46 53 47 54 62 56 84 57
REMARK SMILES IDX 49 58 32 59 33 60 42 61 34 62 35 63 41 64 43 65 36 66 37 67
REMARK SMILES IDX 38 68 39 69 40 70 66 71 67 72 76 73 68 74 69 75 75 76 77 77
REMARK SMILES IDX 70 78 71 79 72 80 73 81 74 82 50 83 51 84 60 85 52 86 53 87
REMARK SMILES IDX 59 88 61 89 54 90 55 91 56 92 57 93 58 94
REMARK H PARENT 15 7 20 25 82 44 48 55
REMARK Flexibility Score: inf
ROOT
ATOM      1  C   UNL A   1      35.775  22.919  24.833  1.00  0.00     0.023 C 
ENDROOT
BRANCH   1   2
ATOM      2  C   UNL A   1      34.955  22.649  26.086  1.00  0.00     0.023 C 
BRANCH   2   3
ATOM      3  C   UNL A   1      33.565  22.073  25.852  1.00  0.00     0.116 C 
BRANCH   3   4
ATOM      4  N   UNL A   1      32.582  22.779  26.639  1.00  0.00    -0.355 N 
ATOM      5  C   UNL A   1      31.933  23.951  26.397  1.00  0.00     0.240 C 
ATOM      6  O   UNL A   1      31.036  24.257  27.193  1.00  0.00    -0.273 OA
ATOM      7  H   UNL A   1      32.342  22.341  27.488  1.00  0.00     0.163 HD
BRANCH   5   8
ATOM      8  C   UNL A   1      32.100  24.743  25.091  1.00  0.00     0.228 C 
BRANCH   8   9
ATOM      9  N   UNL A   1      32.168  26.206  25.119  1.00  0.00    -0.272 N 
ATOM     10  C   UNL A   1      31.544  28.271  27.625  1.00  0.00     0.013 C 
ATOM     11  C   UNL A   1      31.969  28.867  26.275  1.00  0.00    -0.010 C 
ATOM     12  C   UNL A   1      31.101  28.426  25.074  1.00  0.00     0.086 C 
ATOM     13  C   UNL A   1      33.331  28.344  25.746  1.00  0.00     0.053 C 
ATOM     14  C   UNL A   1      31.906  30.413  26.423  1.00  0.00     0.013 C 
ATOM     15  C   UNL A   1      31.899  28.869  23.834  1.00  0.00     0.015 C 
ATOM     16  C   UNL A   1      30.975  26.911  24.994  1.00  0.00     0.233 C 
ATOM     17  C   UNL A   1      33.354  28.921  24.319  1.00  0.00     0.018 C 
ATOM     18  C   UNL A   1      33.305  26.786  25.676  1.00  0.00     0.236 C 
ATOM     19  C   UNL A   1      34.577  28.786  26.517  1.00  0.00     0.022 C 
ATOM     20  O   UNL A   1      29.875  26.384  24.836  1.00  0.00    -0.274 OA
ATOM     21  O   UNL A   1      34.222  26.103  26.129  1.00  0.00    -0.274 OA
ENDBRANCH   8   9
ENDBRANCH   5   8
ENDBRANCH   3   4
ENDBRANCH   2   3
ENDBRANCH   1   2
BRANCH   1  22
ATOM     22  C   UNL A   1      37.081  23.657  25.096  1.00  0.00     0.116 C 
BRANCH  22  23
ATOM     23  N   UNL A   1      38.212  22.775  25.387  1.00  0.00    -0.352 N 
ATOM     24  C   UNL A   1      39.349  23.025  26.120  1.00  0.00     0.251 C 
ATOM     25  H   UNL A   1      38.150  21.871  25.002  1.00  0.00     0.163 HD
ATOM     26  O   UNL A   1      40.246  22.188  26.174  1.00  0.00    -0.269 OA
BRANCH  24  27
ATOM     27  C   UNL A   1      39.490  24.324  26.807  1.00  0.00     0.039 A 
ATOM     28  C   UNL A   1      38.963  24.487  28.089  1.00  0.00     0.014 A 
ATOM     29  C   UNL A   1      40.227  25.347  26.208  1.00  0.00     0.014 A 
ATOM     30  C   UNL A   1      39.262  25.647  28.809  1.00  0.00     0.010 A 
ATOM     31  C   UNL A   1      40.627  26.432  26.970  1.00  0.00     0.010 A 
ATOM     32  C   UNL A   1      40.142  26.602  28.275  1.00  0.00    -0.014 A 
BRANCH  32  33
ATOM     33  C   UNL A   1      40.555  27.811  29.032  1.00  0.00     0.031 A 
ATOM     34  C   UNL A   1      41.891  27.823  29.727  1.00  0.00     0.074 A 
ATOM     35  C   UNL A   1      39.697  28.841  29.184  1.00  0.00     0.049 A 
ATOM     36  N   UNL A   1      42.380  28.693  30.570  1.00  0.00    -0.248 NA
ATOM     37  C   UNL A   1      42.773  26.667  29.484  1.00  0.00     0.031 C 
ATOM     38  C   UNL A   1      38.344  28.916  28.625  1.00  0.00     0.029 A 
ATOM     39  N   UNL A   1      39.832  30.021  29.871  1.00  0.00    -0.354 N 
ATOM     40  C   UNL A   1      43.597  28.168  30.990  1.00  0.00     0.074 A 
ATOM     41  C   UNL A   1      43.741  26.874  30.364  1.00  0.00     0.031 C 
ATOM     42  C   UNL A   1      37.790  30.091  28.961  1.00  0.00     0.029 A 
ATOM     43  C   UNL A   1      38.729  30.838  29.791  1.00  0.00     0.049 A 
ATOM     44  H   UNL A   1      40.644  30.261  30.375  1.00  0.00     0.167 HD
ATOM     45  C   UNL A   1      44.528  28.729  31.795  1.00  0.00     0.037 A 
ATOM     46  C   UNL A   1      38.504  32.053  30.329  1.00  0.00     0.037 A 
ATOM     47  C   UNL A   1      44.410  30.049  32.350  1.00  0.00     0.049 A 
ATOM     48  C   UNL A   1      39.586  32.692  31.157  1.00  0.00     0.074 A 
ATOM     49  C   UNL A   1      45.326  30.751  33.111  1.00  0.00     0.029 A 
ATOM     50  N   UNL A   1      43.310  30.878  32.178  1.00  0.00    -0.354 N 
ATOM     51  N   UNL A   1      40.755  32.203  31.501  1.00  0.00    -0.248 NA
ATOM     52  C   UNL A   1      39.327  34.046  31.661  1.00  0.00     0.031 C 
ATOM     53  C   UNL A   1      44.771  31.998  33.417  1.00  0.00     0.029 A 
ATOM     54  C   UNL A   1      43.525  32.086  32.816  1.00  0.00     0.049 A 
ATOM     55  H   UNL A   1      42.497  30.642  31.676  1.00  0.00     0.167 HD
ATOM     56  C   UNL A   1      41.382  33.202  32.237  1.00  0.00     0.074 A 
ATOM     57  C   UNL A   1      40.467  34.325  32.279  1.00  0.00     0.031 C 
ATOM     58  C   UNL A   1      42.604  33.194  32.824  1.00  0.00     0.037 A 
BRANCH  45  59
ATOM     59  C   UNL A   1      45.763  27.923  32.095  1.00  0.00     0.058 A 
ATOM     60  C   UNL A   1      45.810  27.020  33.170  1.00  0.00     0.135 A 
ATOM     61  C   UNL A   1      46.910  28.049  31.296  1.00  0.00     0.135 A 
ATOM     62  F   UNL A   1      44.747  26.876  33.978  1.00  0.00    -0.206 F 
ATOM     63  C   UNL A   1      46.962  26.302  33.468  1.00  0.00     0.059 A 
ATOM     64  C   UNL A   1      48.065  27.315  31.558  1.00  0.00     0.059 A 
ATOM     65  F   UNL A   1      46.923  28.897  30.256  1.00  0.00    -0.206 F 
ATOM     66  C   UNL A   1      48.087  26.459  32.658  1.00  0.00     0.060 A 
BRANCH  66  67
ATOM     67  S   UNL A   1      49.576  25.522  33.061  1.00  0.00     0.124 S 
ATOM     68  O   UNL A   1      49.798  24.784  31.821  1.00  0.00    -0.237 OA
ATOM     69  O   UNL A   1      50.541  26.576  33.353  1.00  0.00    -0.237 OA
ATOM     70  O   UNL A   1      49.167  24.715  34.207  1.00  0.00    -0.744 OA
ENDBRANCH  66  67
ENDBRANCH  45  59
BRANCH  46  71
ATOM     71  C   UNL A   1      37.226  32.765  30.058  1.00  0.00     0.058 A 
ATOM     72  C   UNL A   1      36.082  32.500  30.826  1.00  0.00     0.135 A 
ATOM     73  C   UNL A   1      37.122  33.728  29.042  1.00  0.00     0.135 A 
ATOM     74  F   UNL A   1      36.131  31.585  31.806  1.00  0.00    -0.206 F 
ATOM     75  C   UNL A   1      34.875  33.148  30.586  1.00  0.00     0.059 A 
ATOM     76  C   UNL A   1      35.931  34.407  28.799  1.00  0.00     0.059 A 
ATOM     77  F   UNL A   1      38.192  34.034  28.294  1.00  0.00    -0.206 F 
ATOM     78  C   UNL A   1      34.809  34.101  29.568  1.00  0.00     0.060 A 
BRANCH  78  79
ATOM     79  S   UNL A   1      33.249  34.970  29.296  1.00  0.00     0.124 S 
ATOM     80  O   UNL A   1      32.680  34.979  30.639  1.00  0.00    -0.237 OA
ATOM     81  O   UNL A   1      33.701  36.261  28.786  1.00  0.00    -0.237 OA
ATOM     82  O   UNL A   1      32.562  34.126  28.323  1.00  0.00    -0.744 OA
ENDBRANCH  78  79
ENDBRANCH  46  71
BRANCH  58  83
ATOM     83  C   UNL A   1      43.041  34.448  33.523  1.00  0.00     0.058 A 
ATOM     84  C   UNL A   1      42.779  34.663  34.883  1.00  0.00     0.135 A 
ATOM     85  C   UNL A   1      43.784  35.419  32.832  1.00  0.00     0.135 A 
ATOM     86  F   UNL A   1      42.068  33.765  35.585  1.00  0.00    -0.206 F 
ATOM     87  C   UNL A   1      43.222  35.809  35.534  1.00  0.00     0.059 A 
ATOM     88  C   UNL A   1      44.258  36.561  33.468  1.00  0.00     0.059 A 
ATOM     89  F   UNL A   1      44.071  35.252  31.531  1.00  0.00    -0.206 F 
ATOM     90  C   UNL A   1      43.962  36.752  34.817  1.00  0.00     0.060 A 
BRANCH  90  91
ATOM     91  S   UNL A   1      44.564  38.218  35.680  1.00  0.00     0.124 S 
ATOM     92  O   UNL A   1      45.999  38.138  35.428  1.00  0.00    -0.237 OA
ATOM     93  O   UNL A   1      43.861  39.298  34.993  1.00  0.00    -0.237 OA
ATOM     94  O   UNL A   1      44.154  37.991  37.062  1.00  0.00    -0.744 OA
ENDBRANCH  90  91
ENDBRANCH  58  83
ENDBRANCH  32  33
ENDBRANCH  24  27
ENDBRANCH  22  23
ENDBRANCH   1  22
TORSDOF 15
ENDMDL
