MODEL 1
REMARK VINA RESULT:     -12.5      0.000      0.000
REMARK SMILES Cc1c(F)cc(C(=O)NCCCCNC(=O)c2ccc(-c3c4nc(c(-c5c(F)cc(S(=O)(=O)[O-])cc5F)c5ccc([nH]5)c(-c5c(F)cc(S(=O)(=O)[O-])cc5F)c5nc(c(-c6c(F)cc(S(=O)(=O)[O-])cc6F)c6ccc3[nH]6)C=C5)C=C4)cc2)cc1S(=O)(=O)NC#N
REMARK SMILES IDX 11 1 10 2 9 3 7 4 8 5 6 7 1 8 2 9 3 10 84 11 4 12 5 13 83 14
REMARK SMILES IDX 85 15 86 16 87 17 88 18 89 20 90 21 12 22 13 23 14 24 15 25
REMARK SMILES IDX 16 27 17 28 18 29 82 30 19 31 81 32 20 33 21 34 22 35 75 36
REMARK SMILES IDX 23 37 80 38 74 39 76 40 24 41 79 42 73 43 72 44 25 46 59 47
REMARK SMILES IDX 38 48 58 49 39 50 42 51 57 52 77 53 40 54 41 55 56 57 78 58
REMARK SMILES IDX 43 59 26 60 27 61 36 62 28 63 29 64 35 65 37 66 30 67 31 68
REMARK SMILES IDX 32 69 33 70 34 71 60 72 61 73 70 74 62 75 63 76 69 77 71 78
REMARK SMILES IDX 64 79 65 80 66 81 67 82 68 83 44 84 45 85 54 86 46 87 47 88
REMARK SMILES IDX 53 89 55 90 48 91 49 92 50 93 51 94 52 95
REMARK H PARENT 9 6 88 19 14 26 76 45 42 56
REMARK Flexibility Score: inf
ROOT
ATOM      1  C   UNL A   1      33.769  26.270  26.012  1.00  0.00     0.023 C 
ENDROOT
BRANCH   1   2
ATOM      2  C   UNL A   1      32.604  25.427  25.474  1.00  0.00     0.116 C 
BRANCH   2   3
ATOM      3  N   UNL A   1      32.693  25.331  24.029  1.00  0.00    -0.352 N 
ATOM      4  C   UNL A   1      31.837  25.667  23.016  1.00  0.00     0.251 C 
ATOM      5  O   UNL A   1      32.113  25.253  21.888  1.00  0.00    -0.269 OA
ATOM      6  H   UNL A   1      33.543  24.946  23.714  1.00  0.00     0.163 HD
BRANCH   4   7
ATOM      7  C   UNL A   1      30.637  26.542  23.174  1.00  0.00     0.044 A 
ATOM      8  C   UNL A   1      26.885  28.659  23.708  1.00  0.00     0.049 C 
ATOM      9  C   UNL A   1      28.202  28.023  23.430  1.00  0.00     0.005 A 
ATOM     10  C   UNL A   1      28.339  26.690  23.876  1.00  0.00     0.128 A 
ATOM     11  C   UNL A   1      29.298  28.596  22.787  1.00  0.00     0.095 A 
ATOM     12  F   UNL A   1      27.291  26.076  24.447  1.00  0.00    -0.207 F 
ATOM     13  C   UNL A   1      29.511  25.957  23.741  1.00  0.00     0.053 A 
ATOM     14  C   UNL A   1      30.519  27.866  22.759  1.00  0.00     0.036 A 
BRANCH  11  15
ATOM     15  S   UNL A   1      29.454  30.080  21.798  1.00  0.00     0.270 S 
ATOM     16  O   UNL A   1      30.794  29.981  21.248  1.00  0.00    -0.201 OA
ATOM     17  O   UNL A   1      28.310  30.067  20.912  1.00  0.00    -0.201 OA
BRANCH  15  18
ATOM     18  N   UNL A   1      29.505  31.560  22.498  1.00  0.00    -0.215 NA
ATOM     19  H   UNL A   1      30.248  31.731  23.122  1.00  0.00     0.193 HD
BRANCH  18  20
ATOM     20  C   UNL A   1      28.654  32.543  22.310  1.00  0.00     0.191 C 
ATOM     21  N   UNL A   1      28.028  33.462  22.010  1.00  0.00    -0.172 NA
ENDBRANCH  18  20
ENDBRANCH  15  18
ENDBRANCH  11  15
ENDBRANCH   4   7
ENDBRANCH   2   3
ENDBRANCH   1   2
BRANCH   1  22
ATOM     22  C   UNL A   1      33.622  27.773  25.733  1.00  0.00     0.023 C 
BRANCH  22  23
ATOM     23  C   UNL A   1      33.881  28.612  26.958  1.00  0.00     0.116 C 
BRANCH  23  24
ATOM     24  N   UNL A   1      34.312  29.962  26.611  1.00  0.00    -0.352 N 
ATOM     25  C   UNL A   1      34.475  30.862  27.653  1.00  0.00     0.251 C 
ATOM     26  H   UNL A   1      34.479  30.223  25.677  1.00  0.00     0.163 HD
ATOM     27  O   UNL A   1      33.584  31.603  28.045  1.00  0.00    -0.269 OA
BRANCH  25  28
ATOM     28  C   UNL A   1      35.719  30.635  28.431  1.00  0.00     0.039 A 
ATOM     29  C   UNL A   1      35.785  29.696  29.465  1.00  0.00     0.014 A 
ATOM     30  C   UNL A   1      36.876  31.257  27.959  1.00  0.00     0.014 A 
ATOM     31  C   UNL A   1      37.026  29.373  29.999  1.00  0.00     0.010 A 
ATOM     32  C   UNL A   1      38.083  30.777  28.302  1.00  0.00     0.010 A 
ATOM     33  C   UNL A   1      38.155  29.915  29.384  1.00  0.00    -0.014 A 
BRANCH  33  34
ATOM     34  C   UNL A   1      39.532  29.606  29.680  1.00  0.00     0.031 A 
ATOM     35  C   UNL A   1      39.972  28.282  29.235  1.00  0.00     0.074 A 
ATOM     36  C   UNL A   1      40.253  30.692  30.054  1.00  0.00     0.049 A 
ATOM     37  N   UNL A   1      40.913  27.603  29.769  1.00  0.00    -0.248 NA
ATOM     38  C   UNL A   1      39.303  27.542  28.154  1.00  0.00     0.031 C 
ATOM     39  C   UNL A   1      41.673  30.970  30.129  1.00  0.00     0.029 A 
ATOM     40  N   UNL A   1      39.686  31.859  30.592  1.00  0.00    -0.354 N 
ATOM     41  C   UNL A   1      41.271  26.647  28.837  1.00  0.00     0.074 A 
ATOM     42  C   UNL A   1      40.107  26.483  28.011  1.00  0.00     0.031 C 
ATOM     43  C   UNL A   1      41.865  31.980  31.008  1.00  0.00     0.029 A 
ATOM     44  C   UNL A   1      40.564  32.339  31.564  1.00  0.00     0.049 A 
ATOM     45  H   UNL A   1      38.828  32.265  30.330  1.00  0.00     0.167 HD
ATOM     46  C   UNL A   1      42.595  26.329  28.739  1.00  0.00     0.037 A 
ATOM     47  C   UNL A   1      40.155  32.175  32.860  1.00  0.00     0.037 A 
ATOM     48  C   UNL A   1      43.330  27.159  29.704  1.00  0.00     0.049 A 
ATOM     49  C   UNL A   1      40.945  31.043  33.479  1.00  0.00     0.074 A 
ATOM     50  C   UNL A   1      44.041  28.340  29.561  1.00  0.00     0.029 A 
ATOM     51  N   UNL A   1      43.024  27.047  31.055  1.00  0.00    -0.354 N 
ATOM     52  N   UNL A   1      41.412  30.015  32.817  1.00  0.00    -0.248 NA
ATOM     53  C   UNL A   1      41.440  31.106  34.848  1.00  0.00     0.031 C 
ATOM     54  C   UNL A   1      44.078  28.976  30.838  1.00  0.00     0.029 A 
ATOM     55  C   UNL A   1      43.364  28.200  31.739  1.00  0.00     0.049 A 
ATOM     56  H   UNL A   1      42.619  26.251  31.471  1.00  0.00     0.167 HD
ATOM     57  C   UNL A   1      42.324  29.351  33.595  1.00  0.00     0.074 A 
ATOM     58  C   UNL A   1      42.295  30.071  34.859  1.00  0.00     0.031 C 
ATOM     59  C   UNL A   1      43.090  28.300  33.167  1.00  0.00     0.037 A 
BRANCH  46  60
ATOM     60  C   UNL A   1      43.295  25.533  27.651  1.00  0.00     0.058 A 
ATOM     61  C   UNL A   1      43.686  24.198  27.916  1.00  0.00     0.135 A 
ATOM     62  C   UNL A   1      43.607  25.976  26.348  1.00  0.00     0.135 A 
ATOM     63  F   UNL A   1      43.435  23.616  29.097  1.00  0.00    -0.206 F 
ATOM     64  C   UNL A   1      44.342  23.388  26.990  1.00  0.00     0.059 A 
ATOM     65  C   UNL A   1      44.272  25.182  25.401  1.00  0.00     0.059 A 
ATOM     66  F   UNL A   1      43.264  27.189  25.907  1.00  0.00    -0.206 F 
ATOM     67  C   UNL A   1      44.633  23.885  25.730  1.00  0.00     0.060 A 
BRANCH  67  68
ATOM     68  S   UNL A   1      45.436  22.798  24.541  1.00  0.00     0.124 S 
ATOM     69  O   UNL A   1      44.308  22.342  23.735  1.00  0.00    -0.237 OA
ATOM     70  O   UNL A   1      46.366  23.704  23.876  1.00  0.00    -0.237 OA
ATOM     71  O   UNL A   1      46.056  21.773  25.378  1.00  0.00    -0.744 OA
ENDBRANCH  67  68
ENDBRANCH  46  60
BRANCH  47  72
ATOM     72  C   UNL A   1      38.682  32.500  32.989  1.00  0.00     0.058 A 
ATOM     73  C   UNL A   1      38.346  33.867  32.832  1.00  0.00     0.135 A 
ATOM     74  C   UNL A   1      37.673  31.572  32.680  1.00  0.00     0.135 A 
ATOM     75  F   UNL A   1      39.243  34.813  33.158  1.00  0.00    -0.206 F 
ATOM     76  C   UNL A   1      37.186  34.279  32.175  1.00  0.00     0.059 A 
ATOM     77  C   UNL A   1      36.481  31.973  32.049  1.00  0.00     0.059 A 
ATOM     78  F   UNL A   1      37.891  30.259  32.843  1.00  0.00    -0.206 F 
ATOM     79  C   UNL A   1      36.294  33.318  31.716  1.00  0.00     0.060 A 
BRANCH  79  80
ATOM     80  S   UNL A   1      34.946  33.855  30.625  1.00  0.00     0.124 S 
ATOM     81  O   UNL A   1      35.634  34.052  29.353  1.00  0.00    -0.237 OA
ATOM     82  O   UNL A   1      34.026  32.715  30.660  1.00  0.00    -0.237 OA
ATOM     83  O   UNL A   1      34.457  35.069  31.266  1.00  0.00    -0.744 OA
ENDBRANCH  79  80
ENDBRANCH  47  72
BRANCH  59  84
ATOM     84  C   UNL A   1      43.717  27.274  34.088  1.00  0.00     0.058 A 
ATOM     85  C   UNL A   1      42.995  26.240  34.703  1.00  0.00     0.135 A 
ATOM     86  C   UNL A   1      45.128  27.197  34.238  1.00  0.00     0.135 A 
ATOM     87  F   UNL A   1      41.677  26.084  34.523  1.00  0.00    -0.206 F 
ATOM     88  C   UNL A   1      43.605  25.275  35.496  1.00  0.00     0.059 A 
ATOM     89  C   UNL A   1      45.763  26.175  34.929  1.00  0.00     0.059 A 
ATOM     90  F   UNL A   1      45.958  28.100  33.697  1.00  0.00    -0.206 F 
ATOM     91  C   UNL A   1      44.989  25.244  35.596  1.00  0.00     0.060 A 
BRANCH  91  92
ATOM     92  S   UNL A   1      45.755  23.957  36.579  1.00  0.00     0.124 S 
ATOM     93  O   UNL A   1      45.699  24.548  37.913  1.00  0.00    -0.237 OA
ATOM     94  O   UNL A   1      44.867  22.821  36.353  1.00  0.00    -0.237 OA
ATOM     95  O   UNL A   1      47.088  23.830  35.999  1.00  0.00    -0.744 OA
ENDBRANCH  91  92
ENDBRANCH  59  84
ENDBRANCH  33  34
ENDBRANCH  25  28
ENDBRANCH  23  24
ENDBRANCH  22  23
ENDBRANCH   1  22
TORSDOF 17
ENDMDL
MODEL 2
REMARK VINA RESULT:     -12.4      2.382      3.908
REMARK SMILES Cc1c(F)cc(C(=O)NCCCCNC(=O)c2ccc(-c3c4nc(c(-c5c(F)cc(S(=O)(=O)[O-])cc5F)c5ccc([nH]5)c(-c5c(F)cc(S(=O)(=O)[O-])cc5F)c5nc(c(-c6c(F)cc(S(=O)(=O)[O-])cc6F)c6ccc3[nH]6)C=C5)C=C4)cc2)cc1S(=O)(=O)NC#N
REMARK SMILES IDX 11 1 10 2 9 3 7 4 8 5 6 7 1 8 2 9 3 10 84 11 4 12 5 13 83 14
REMARK SMILES IDX 85 15 86 16 87 17 88 18 89 20 90 21 12 22 13 23 14 24 15 25
REMARK SMILES IDX 16 27 17 28 18 29 82 30 19 31 81 32 20 33 21 34 22 35 75 36
REMARK SMILES IDX 23 37 80 38 74 39 76 40 24 41 79 42 73 43 72 44 25 46 59 47
REMARK SMILES IDX 38 48 58 49 39 50 42 51 57 52 77 53 40 54 41 55 56 57 78 58
REMARK SMILES IDX 43 59 26 60 27 61 36 62 28 63 29 64 35 65 37 66 30 67 31 68
REMARK SMILES IDX 32 69 33 70 34 71 60 72 61 73 70 74 62 75 63 76 69 77 71 78
REMARK SMILES IDX 64 79 65 80 66 81 67 82 68 83 44 84 45 85 54 86 46 87 47 88
REMARK SMILES IDX 53 89 55 90 48 91 49 92 50 93 51 94 52 95
REMARK H PARENT 9 6 88 19 14 26 76 45 42 56
REMARK Flexibility Score: inf
ROOT
ATOM      1  C   UNL A   1      32.164  27.952  25.240  1.00  0.00     0.023 C 
ENDROOT
BRANCH   1   2
ATOM      2  C   UNL A   1      33.371  27.117  24.788  1.00  0.00     0.116 C 
BRANCH   2   3
ATOM      3  N   UNL A   1      33.315  26.911  23.352  1.00  0.00    -0.352 N 
ATOM      4  C   UNL A   1      33.537  25.821  22.556  1.00  0.00     0.251 C 
ATOM      5  O   UNL A   1      33.628  26.022  21.343  1.00  0.00    -0.269 OA
ATOM      6  H   UNL A   1      33.066  27.720  22.850  1.00  0.00     0.163 HD
BRANCH   4   7
ATOM      7  C   UNL A   1      33.616  24.413  23.047  1.00  0.00     0.044 A 
ATOM      8  C   UNL A   1      33.367  20.268  24.315  1.00  0.00     0.049 C 
ATOM      9  C   UNL A   1      33.524  21.713  23.990  1.00  0.00     0.005 A 
ATOM     10  C   UNL A   1      32.602  22.229  23.054  1.00  0.00     0.128 A 
ATOM     11  C   UNL A   1      34.471  22.596  24.507  1.00  0.00     0.095 A 
ATOM     12  F   UNL A   1      31.634  21.432  22.575  1.00  0.00    -0.207 F 
ATOM     13  C   UNL A   1      32.628  23.543  22.603  1.00  0.00     0.053 A 
ATOM     14  C   UNL A   1      34.547  23.902  23.949  1.00  0.00     0.036 A 
BRANCH  11  15
ATOM     15  S   UNL A   1      35.574  22.470  25.911  1.00  0.00     0.270 S 
ATOM     16  O   UNL A   1      36.120  21.130  25.793  1.00  0.00    -0.201 OA
ATOM     17  O   UNL A   1      36.451  23.616  25.809  1.00  0.00    -0.201 OA
BRANCH  15  18
ATOM     18  N   UNL A   1      34.992  22.443  27.442  1.00  0.00    -0.215 NA
ATOM     19  H   UNL A   1      35.656  22.477  28.169  1.00  0.00     0.193 HD
BRANCH  18  20
ATOM     20  C   UNL A   1      33.729  22.381  27.798  1.00  0.00     0.191 C 
ATOM     21  N   UNL A   1      32.615  22.509  28.058  1.00  0.00    -0.172 NA
ENDBRANCH  18  20
ENDBRANCH  15  18
ENDBRANCH  11  15
ENDBRANCH   4   7
ENDBRANCH   2   3
ENDBRANCH   1   2
BRANCH   1  22
ATOM     22  C   UNL A   1      32.364  28.639  26.598  1.00  0.00     0.023 C 
BRANCH  22  23
ATOM     23  C   UNL A   1      33.820  28.792  26.956  1.00  0.00     0.116 C 
BRANCH  23  24
ATOM     24  N   UNL A   1      34.325  30.120  26.628  1.00  0.00    -0.352 N 
ATOM     25  C   UNL A   1      34.532  30.998  27.680  1.00  0.00     0.251 C 
ATOM     26  H   UNL A   1      34.511  30.382  25.698  1.00  0.00     0.163 HD
ATOM     27  O   UNL A   1      33.680  31.782  28.077  1.00  0.00    -0.269 OA
BRANCH  25  28
ATOM     28  C   UNL A   1      35.758  30.695  28.462  1.00  0.00     0.039 A 
ATOM     29  C   UNL A   1      35.812  29.635  29.372  1.00  0.00     0.014 A 
ATOM     30  C   UNL A   1      36.915  31.389  28.105  1.00  0.00     0.014 A 
ATOM     31  C   UNL A   1      37.045  29.267  29.898  1.00  0.00     0.010 A 
ATOM     32  C   UNL A   1      38.121  30.889  28.422  1.00  0.00     0.010 A 
ATOM     33  C   UNL A   1      38.179  29.900  29.390  1.00  0.00    -0.014 A 
BRANCH  33  34
ATOM     34  C   UNL A   1      39.553  29.577  29.687  1.00  0.00     0.031 A 
ATOM     35  C   UNL A   1      39.989  28.260  29.218  1.00  0.00     0.074 A 
ATOM     36  C   UNL A   1      40.278  30.652  30.086  1.00  0.00     0.049 A 
ATOM     37  N   UNL A   1      40.923  27.566  29.743  1.00  0.00    -0.248 NA
ATOM     38  C   UNL A   1      39.321  27.546  28.119  1.00  0.00     0.031 C 
ATOM     39  C   UNL A   1      41.699  30.921  30.173  1.00  0.00     0.029 A 
ATOM     40  N   UNL A   1      39.715  31.812  30.643  1.00  0.00    -0.354 N 
ATOM     41  C   UNL A   1      41.280  26.627  28.794  1.00  0.00     0.074 A 
ATOM     42  C   UNL A   1      40.120  26.485  27.959  1.00  0.00     0.031 C 
ATOM     43  C   UNL A   1      41.892  31.913  31.072  1.00  0.00     0.029 A 
ATOM     44  C   UNL A   1      40.590  32.267  31.629  1.00  0.00     0.049 A 
ATOM     45  H   UNL A   1      38.860  32.228  30.385  1.00  0.00     0.167 HD
ATOM     46  C   UNL A   1      42.603  26.303  28.696  1.00  0.00     0.037 A 
ATOM     47  C   UNL A   1      40.174  32.081  32.920  1.00  0.00     0.037 A 
ATOM     48  C   UNL A   1      43.339  27.110  29.681  1.00  0.00     0.049 A 
ATOM     49  C   UNL A   1      40.955  30.933  33.520  1.00  0.00     0.074 A 
ATOM     50  C   UNL A   1      44.056  28.290  29.564  1.00  0.00     0.029 A 
ATOM     51  N   UNL A   1      43.025  26.973  31.028  1.00  0.00    -0.354 N 
ATOM     52  N   UNL A   1      41.421  29.915  32.840  1.00  0.00    -0.248 NA
ATOM     53  C   UNL A   1      41.445  30.966  34.892  1.00  0.00     0.031 C 
ATOM     54  C   UNL A   1      44.090  28.901  30.854  1.00  0.00     0.029 A 
ATOM     55  C   UNL A   1      43.368  28.111  31.736  1.00  0.00     0.049 A 
ATOM     56  H   UNL A   1      42.614  26.172  31.426  1.00  0.00     0.167 HD
ATOM     57  C   UNL A   1      42.325  29.231  33.609  1.00  0.00     0.074 A 
ATOM     58  C   UNL A   1      42.293  29.926  34.887  1.00  0.00     0.031 C 
ATOM     59  C   UNL A   1      43.087  28.185  33.164  1.00  0.00     0.037 A 
BRANCH  46  60
ATOM     60  C   UNL A   1      43.305  25.525  27.597  1.00  0.00     0.058 A 
ATOM     61  C   UNL A   1      43.831  24.243  27.887  1.00  0.00     0.135 A 
ATOM     62  C   UNL A   1      43.494  25.935  26.259  1.00  0.00     0.135 A 
ATOM     63  F   UNL A   1      43.708  23.694  29.103  1.00  0.00    -0.206 F 
ATOM     64  C   UNL A   1      44.500  23.453  26.951  1.00  0.00     0.059 A 
ATOM     65  C   UNL A   1      44.168  25.162  25.302  1.00  0.00     0.059 A 
ATOM     66  F   UNL A   1      43.015  27.093  25.795  1.00  0.00    -0.206 F 
ATOM     67  C   UNL A   1      44.666  23.919  25.657  1.00  0.00     0.060 A 
BRANCH  67  68
ATOM     68  S   UNL A   1      45.490  22.854  24.460  1.00  0.00     0.124 S 
ATOM     69  O   UNL A   1      46.081  21.833  25.319  1.00  0.00    -0.237 OA
ATOM     70  O   UNL A   1      44.378  22.415  23.624  1.00  0.00    -0.237 OA
ATOM     71  O   UNL A   1      46.445  23.747  23.808  1.00  0.00    -0.744 OA
ENDBRANCH  67  68
ENDBRANCH  46  60
BRANCH  47  72
ATOM     72  C   UNL A   1      38.703  32.410  33.047  1.00  0.00     0.058 A 
ATOM     73  C   UNL A   1      38.377  33.785  32.942  1.00  0.00     0.135 A 
ATOM     74  C   UNL A   1      37.690  31.503  32.692  1.00  0.00     0.135 A 
ATOM     75  F   UNL A   1      39.277  34.711  33.314  1.00  0.00    -0.206 F 
ATOM     76  C   UNL A   1      37.226  34.232  32.292  1.00  0.00     0.059 A 
ATOM     77  C   UNL A   1      36.507  31.937  32.067  1.00  0.00     0.059 A 
ATOM     78  F   UNL A   1      37.897  30.183  32.805  1.00  0.00    -0.206 F 
ATOM     79  C   UNL A   1      36.332  33.296  31.787  1.00  0.00     0.060 A 
BRANCH  79  80
ATOM     80  S   UNL A   1      34.998  33.886  30.705  1.00  0.00     0.124 S 
ATOM     81  O   UNL A   1      35.694  34.101  29.441  1.00  0.00    -0.237 OA
ATOM     82  O   UNL A   1      34.056  32.763  30.709  1.00  0.00    -0.237 OA
ATOM     83  O   UNL A   1      34.531  35.093  31.375  1.00  0.00    -0.744 OA
ENDBRANCH  79  80
ENDBRANCH  47  72
BRANCH  59  84
ATOM     84  C   UNL A   1      43.705  27.138  34.068  1.00  0.00     0.058 A 
ATOM     85  C   UNL A   1      45.077  27.076  34.357  1.00  0.00     0.135 A 
ATOM     86  C   UNL A   1      42.888  26.257  34.826  1.00  0.00     0.135 A 
ATOM     87  F   UNL A   1      45.955  27.947  33.844  1.00  0.00    -0.206 F 
ATOM     88  C   UNL A   1      45.611  26.143  35.238  1.00  0.00     0.059 A 
ATOM     89  C   UNL A   1      43.392  25.398  35.793  1.00  0.00     0.059 A 
ATOM     90  F   UNL A   1      41.557  26.207  34.679  1.00  0.00    -0.206 F 
ATOM     91  C   UNL A   1      44.762  25.315  35.958  1.00  0.00     0.060 A 
BRANCH  91  92
ATOM     92  S   UNL A   1      45.471  24.157  37.128  1.00  0.00     0.124 S 
ATOM     93  O   UNL A   1      45.051  22.881  36.554  1.00  0.00    -0.237 OA
ATOM     94  O   UNL A   1      46.897  24.453  37.035  1.00  0.00    -0.237 OA
ATOM     95  O   UNL A   1      44.841  24.520  38.393  1.00  0.00    -0.744 OA
ENDBRANCH  91  92
ENDBRANCH  59  84
ENDBRANCH  33  34
ENDBRANCH  25  28
ENDBRANCH  23  24
ENDBRANCH  22  23
ENDBRANCH   1  22
TORSDOF 17
ENDMDL
MODEL 3
REMARK VINA RESULT:     -12.4      3.196      4.790
REMARK SMILES Cc1c(F)cc(C(=O)NCCCCNC(=O)c2ccc(-c3c4nc(c(-c5c(F)cc(S(=O)(=O)[O-])cc5F)c5ccc([nH]5)c(-c5c(F)cc(S(=O)(=O)[O-])cc5F)c5nc(c(-c6c(F)cc(S(=O)(=O)[O-])cc6F)c6ccc3[nH]6)C=C5)C=C4)cc2)cc1S(=O)(=O)NC#N
REMARK SMILES IDX 11 1 10 2 9 3 7 4 8 5 6 7 1 8 2 9 3 10 84 11 4 12 5 13 83 14
REMARK SMILES IDX 85 15 86 16 87 17 88 18 89 20 90 21 12 22 13 23 14 24 15 25
REMARK SMILES IDX 16 27 17 28 18 29 82 30 19 31 81 32 20 33 21 34 22 35 75 36
REMARK SMILES IDX 23 37 80 38 74 39 76 40 24 41 79 42 73 43 72 44 25 46 59 47
REMARK SMILES IDX 38 48 58 49 39 50 42 51 57 52 77 53 40 54 41 55 56 57 78 58
REMARK SMILES IDX 43 59 26 60 27 61 36 62 28 63 29 64 35 65 37 66 30 67 31 68
REMARK SMILES IDX 32 69 33 70 34 71 60 72 61 73 70 74 62 75 63 76 69 77 71 78
REMARK SMILES IDX 64 79 65 80 66 81 67 82 68 83 44 84 45 85 54 86 46 87 47 88
REMARK SMILES IDX 53 89 55 90 48 91 49 92 50 93 51 94 52 95
REMARK H PARENT 9 6 88 19 14 26 76 45 42 56
REMARK Flexibility Score: inf
ROOT
ATOM      1  C   UNL A   1      32.120  28.874  26.126  1.00  0.00     0.023 C 
ENDROOT
BRANCH   1   2
ATOM      2  C   UNL A   1      32.176  27.894  27.306  1.00  0.00     0.116 C 
BRANCH   2   3
ATOM      3  N   UNL A   1      31.176  26.856  27.131  1.00  0.00    -0.352 N 
ATOM      4  C   UNL A   1      31.137  25.715  26.378  1.00  0.00     0.251 C 
ATOM      5  O   UNL A   1      30.046  25.150  26.272  1.00  0.00    -0.269 OA
ATOM      6  H   UNL A   1      30.361  27.005  27.662  1.00  0.00     0.163 HD
BRANCH   4   7
ATOM      7  C   UNL A   1      32.327  25.082  25.735  1.00  0.00     0.044 A 
ATOM      8  C   UNL A   1      35.624  23.448  23.431  1.00  0.00     0.049 C 
ATOM      9  C   UNL A   1      34.492  23.894  24.289  1.00  0.00     0.005 A 
ATOM     10  C   UNL A   1      33.735  24.973  23.785  1.00  0.00     0.128 A 
ATOM     11  C   UNL A   1      34.107  23.364  25.520  1.00  0.00     0.095 A 
ATOM     12  F   UNL A   1      34.031  25.478  22.576  1.00  0.00    -0.207 F 
ATOM     13  C   UNL A   1      32.671  25.546  24.471  1.00  0.00     0.053 A 
ATOM     14  C   UNL A   1      33.088  24.035  26.251  1.00  0.00     0.036 A 
BRANCH  11  15
ATOM     15  S   UNL A   1      34.546  21.839  26.348  1.00  0.00     0.270 S 
ATOM     16  O   UNL A   1      35.991  21.921  26.465  1.00  0.00    -0.201 OA
ATOM     17  O   UNL A   1      33.729  21.808  27.542  1.00  0.00    -0.201 OA
BRANCH  15  18
ATOM     18  N   UNL A   1      34.368  20.391  25.604  1.00  0.00    -0.215 NA
ATOM     19  H   UNL A   1      35.193  19.932  25.324  1.00  0.00     0.193 HD
BRANCH  18  20
ATOM     20  C   UNL A   1      33.234  19.781  25.344  1.00  0.00     0.191 C 
ATOM     21  N   UNL A   1      32.158  19.399  25.192  1.00  0.00    -0.172 NA
ENDBRANCH  18  20
ENDBRANCH  15  18
ENDBRANCH  11  15
ENDBRANCH   4   7
ENDBRANCH   2   3
ENDBRANCH   1   2
BRANCH   1  22
ATOM     22  C   UNL A   1      33.480  29.497  25.777  1.00  0.00     0.023 C 
BRANCH  22  23
ATOM     23  C   UNL A   1      34.522  29.229  26.831  1.00  0.00     0.116 C 
BRANCH  23  24
ATOM     24  N   UNL A   1      35.293  30.425  27.151  1.00  0.00    -0.352 N 
ATOM     25  C   UNL A   1      36.039  30.405  28.319  1.00  0.00     0.251 C 
ATOM     26  H   UNL A   1      35.282  31.214  26.563  1.00  0.00     0.163 HD
ATOM     27  O   UNL A   1      35.610  30.795  29.396  1.00  0.00    -0.269 OA
BRANCH  25  28
ATOM     28  C   UNL A   1      37.283  29.602  28.204  1.00  0.00     0.039 A 
ATOM     29  C   UNL A   1      38.152  29.735  27.117  1.00  0.00     0.014 A 
ATOM     30  C   UNL A   1      37.649  28.850  29.321  1.00  0.00     0.014 A 
ATOM     31  C   UNL A   1      39.399  29.126  27.178  1.00  0.00     0.010 A 
ATOM     32  C   UNL A   1      38.926  28.467  29.483  1.00  0.00     0.010 A 
ATOM     33  C   UNL A   1      39.762  28.516  28.379  1.00  0.00    -0.014 A 
BRANCH  33  34
ATOM     34  C   UNL A   1      41.049  27.954  28.707  1.00  0.00     0.031 A 
ATOM     35  C   UNL A   1      41.181  26.522  28.430  1.00  0.00     0.074 A 
ATOM     36  C   UNL A   1      41.997  28.895  28.940  1.00  0.00     0.049 A 
ATOM     37  N   UNL A   1      41.970  25.726  29.041  1.00  0.00    -0.248 NA
ATOM     38  C   UNL A   1      40.336  25.820  27.452  1.00  0.00     0.031 C 
ATOM     39  C   UNL A   1      43.446  28.866  28.974  1.00  0.00     0.029 A 
ATOM     40  N   UNL A   1      41.711  30.214  29.329  1.00  0.00    -0.354 N 
ATOM     41  C   UNL A   1      42.086  24.609  28.235  1.00  0.00     0.074 A 
ATOM     42  C   UNL A   1      40.890  24.602  27.440  1.00  0.00     0.031 C 
ATOM     43  C   UNL A   1      43.877  29.910  29.719  1.00  0.00     0.029 A 
ATOM     44  C   UNL A   1      42.700  30.607  30.231  1.00  0.00     0.049 A 
ATOM     45  H   UNL A   1      40.952  30.762  29.022  1.00  0.00     0.167 HD
ATOM     46  C   UNL A   1      43.307  24.002  28.172  1.00  0.00     0.037 A 
ATOM     47  C   UNL A   1      42.306  30.694  31.538  1.00  0.00     0.037 A 
ATOM     48  C   UNL A   1      44.233  24.764  29.023  1.00  0.00     0.049 A 
ATOM     49  C   UNL A   1      42.853  29.502  32.291  1.00  0.00     0.074 A 
ATOM     50  C   UNL A   1      45.176  25.736  28.731  1.00  0.00     0.029 A 
ATOM     51  N   UNL A   1      43.951  24.885  30.379  1.00  0.00    -0.354 N 
ATOM     52  N   UNL A   1      43.069  28.324  31.761  1.00  0.00    -0.248 NA
ATOM     53  C   UNL A   1      43.393  29.622  33.640  1.00  0.00     0.031 C 
ATOM     54  C   UNL A   1      45.387  26.500  29.918  1.00  0.00     0.029 A 
ATOM     55  C   UNL A   1      44.552  26.012  30.912  1.00  0.00     0.049 A 
ATOM     56  H   UNL A   1      43.398  24.253  30.892  1.00  0.00     0.167 HD
ATOM     57  C   UNL A   1      43.840  27.577  32.613  1.00  0.00     0.074 A 
ATOM     58  C   UNL A   1      44.005  28.435  33.777  1.00  0.00     0.031 C 
ATOM     59  C   UNL A   1      44.349  26.342  32.317  1.00  0.00     0.037 A 
BRANCH  46  60
ATOM     60  C   UNL A   1      43.787  22.947  27.191  1.00  0.00     0.058 A 
ATOM     61  C   UNL A   1      43.090  21.718  27.102  1.00  0.00     0.135 A 
ATOM     62  C   UNL A   1      44.884  23.051  26.308  1.00  0.00     0.135 A 
ATOM     63  F   UNL A   1      42.005  21.473  27.851  1.00  0.00    -0.206 F 
ATOM     64  C   UNL A   1      43.455  20.683  26.241  1.00  0.00     0.059 A 
ATOM     65  C   UNL A   1      45.274  22.022  25.437  1.00  0.00     0.059 A 
ATOM     66  F   UNL A   1      45.623  24.160  26.217  1.00  0.00    -0.206 F 
ATOM     67  C   UNL A   1      44.550  20.841  25.408  1.00  0.00     0.060 A 
BRANCH  67  68
ATOM     68  S   UNL A   1      44.965  19.506  24.273  1.00  0.00     0.124 S 
ATOM     69  O   UNL A   1      44.506  20.040  22.994  1.00  0.00    -0.237 OA
ATOM     70  O   UNL A   1      46.411  19.404  24.436  1.00  0.00    -0.237 OA
ATOM     71  O   UNL A   1      44.200  18.372  24.784  1.00  0.00    -0.744 OA
ENDBRANCH  67  68
ENDBRANCH  46  60
BRANCH  47  72
ATOM     72  C   UNL A   1      40.941  31.343  31.630  1.00  0.00     0.058 A 
ATOM     73  C   UNL A   1      39.960  30.596  32.327  1.00  0.00     0.135 A 
ATOM     74  C   UNL A   1      40.763  32.736  31.609  1.00  0.00     0.135 A 
ATOM     75  F   UNL A   1      40.036  29.255  32.347  1.00  0.00    -0.206 F 
ATOM     76  C   UNL A   1      39.013  31.199  33.157  1.00  0.00     0.059 A 
ATOM     77  C   UNL A   1      39.791  33.360  32.412  1.00  0.00     0.059 A 
ATOM     78  F   UNL A   1      41.620  33.516  30.934  1.00  0.00    -0.206 F 
ATOM     79  C   UNL A   1      38.988  32.585  33.254  1.00  0.00     0.060 A 
BRANCH  79  80
ATOM     80  S   UNL A   1      37.950  33.332  34.543  1.00  0.00     0.124 S 
ATOM     81  O   UNL A   1      37.790  34.700  34.060  1.00  0.00    -0.237 OA
ATOM     82  O   UNL A   1      36.735  32.514  34.496  1.00  0.00    -0.237 OA
ATOM     83  O   UNL A   1      38.754  33.185  35.749  1.00  0.00    -0.744 OA
ENDBRANCH  79  80
ENDBRANCH  47  72
BRANCH  59  84
ATOM     84  C   UNL A   1      44.770  25.324  33.357  1.00  0.00     0.058 A 
ATOM     85  C   UNL A   1      43.879  24.727  34.262  1.00  0.00     0.135 A 
ATOM     86  C   UNL A   1      46.082  24.778  33.352  1.00  0.00     0.135 A 
ATOM     87  F   UNL A   1      42.572  25.020  34.277  1.00  0.00    -0.206 F 
ATOM     88  C   UNL A   1      44.279  23.750  35.166  1.00  0.00     0.059 A 
ATOM     89  C   UNL A   1      46.468  23.724  34.168  1.00  0.00     0.059 A 
ATOM     90  F   UNL A   1      47.044  25.229  32.534  1.00  0.00    -0.206 F 
ATOM     91  C   UNL A   1      45.572  23.248  35.106  1.00  0.00     0.060 A 
BRANCH  91  92
ATOM     92  S   UNL A   1      46.049  21.951  36.247  1.00  0.00     0.124 S 
ATOM     93  O   UNL A   1      45.350  20.802  35.677  1.00  0.00    -0.237 OA
ATOM     94  O   UNL A   1      47.502  21.937  36.114  1.00  0.00    -0.237 OA
ATOM     95  O   UNL A   1      45.546  22.424  37.532  1.00  0.00    -0.744 OA
ENDBRANCH  91  92
ENDBRANCH  59  84
ENDBRANCH  33  34
ENDBRANCH  25  28
ENDBRANCH  23  24
ENDBRANCH  22  23
ENDBRANCH   1  22
TORSDOF 17
ENDMDL
