MODEL 1
REMARK VINA RESULT:     -12.5      0.000      0.000
REMARK SMILES O=C(NCCCCNC(=O)c1cc(NC(=O)c2cccs2)ccc1N1CCC[C@H](C[NH+]2CCCC2)C1)c1ccc(-c2c3nc(c(-c4c(F)cc(S(=O)(=O)[O-])cc4F)c4ccc([nH]4)c(-c4c(F)cc(S(=O)(=O)[O-])cc4F)c4nc(c(-c5c(F)cc(S(=O)(=O)[O-])cc5F)c5ccc2[nH]5)C=C4)C=C3)cc1
REMARK SMILES IDX 5 1 4 2 3 3 1 4 2 5 37 7 38 8 102 9 39 10 101 11 40 12 41 13
REMARK SMILES IDX 42 14 95 15 43 16 100 17 94 18 96 19 44 20 99 21 93 22 92 23
REMARK SMILES IDX 45 25 79 26 58 27 78 28 59 29 62 30 77 31 97 32 60 33 61 34
REMARK SMILES IDX 76 36 98 37 63 38 46 39 47 40 56 41 48 42 49 43 55 44 57 45
REMARK SMILES IDX 50 46 51 47 52 48 53 49 54 50 80 51 81 52 90 53 82 54 83 55
REMARK SMILES IDX 89 56 91 57 84 58 85 59 86 60 87 61 88 62 64 63 65 64 74 65
REMARK SMILES IDX 66 66 67 67 73 68 75 69 68 70 69 71 70 72 71 73 72 74 6 75
REMARK SMILES IDX 7 76 8 77 9 78 10 80 11 81 12 82 24 83 13 84 23 85 22 86
REMARK SMILES IDX 25 87 26 88 36 89 27 90 29 91 28 92 30 93 31 94 32 95 35 96
REMARK SMILES IDX 33 98 34 99 14 100 15 101 16 103 17 104 18 105 21 106 19 107
REMARK SMILES IDX 20 108
REMARK H PARENT 3 6 96 24 62 35 8 79 31 97 14 102
REMARK Flexibility Score: inf
ROOT
ATOM      1  C   UNL A   1      34.141  29.350  27.361  1.00  0.00     0.023 C 
ENDROOT
BRANCH   1   2
ATOM      2  C   UNL A   1      35.416  30.069  27.793  1.00  0.00     0.116 C 
BRANCH   2   3
ATOM      3  N   UNL A   1      35.375  30.529  29.172  1.00  0.00    -0.352 N 
ATOM      4  O   UNL A   1      36.102  30.835  31.280  1.00  0.00    -0.269 OA
ATOM      5  C   UNL A   1      36.370  30.531  30.126  1.00  0.00     0.251 C 
ATOM      6  H   UNL A   1      34.509  30.892  29.467  1.00  0.00     0.163 HD
BRANCH   5   7
ATOM      7  C   UNL A   1      37.751  30.142  29.758  1.00  0.00     0.039 A 
ATOM      8  C   UNL A   1      38.167  30.152  28.424  1.00  0.00     0.014 A 
ATOM      9  C   UNL A   1      38.650  29.782  30.766  1.00  0.00     0.014 A 
ATOM     10  C   UNL A   1      39.430  29.674  28.087  1.00  0.00     0.010 A 
ATOM     11  C   UNL A   1      39.948  29.379  30.432  1.00  0.00     0.010 A 
ATOM     12  C   UNL A   1      40.342  29.302  29.087  1.00  0.00    -0.014 A 
BRANCH  12  13
ATOM     13  C   UNL A   1      41.735  28.944  28.711  1.00  0.00     0.031 A 
ATOM     14  C   UNL A   1      42.827  29.977  28.665  1.00  0.00     0.074 A 
ATOM     15  C   UNL A   1      42.000  27.660  28.400  1.00  0.00     0.049 A 
ATOM     16  N   UNL A   1      44.083  29.825  28.332  1.00  0.00    -0.248 NA
ATOM     17  C   UNL A   1      42.470  31.357  29.033  1.00  0.00     0.031 C 
ATOM     18  C   UNL A   1      41.010  26.577  28.385  1.00  0.00     0.029 A 
ATOM     19  N   UNL A   1      43.168  27.042  28.034  1.00  0.00    -0.354 N 
ATOM     20  C   UNL A   1      44.662  31.086  28.424  1.00  0.00     0.074 A 
ATOM     21  C   UNL A   1      43.616  31.997  28.839  1.00  0.00     0.031 C 
ATOM     22  C   UNL A   1      41.615  25.431  28.044  1.00  0.00     0.029 A 
ATOM     23  C   UNL A   1      43.018  25.703  27.757  1.00  0.00     0.049 A 
ATOM     24  H   UNL A   1      44.032  27.512  27.975  1.00  0.00     0.167 HD
ATOM     25  C   UNL A   1      45.947  31.441  28.186  1.00  0.00     0.037 A 
ATOM     26  C   UNL A   1      43.898  24.800  27.286  1.00  0.00     0.037 A 
ATOM     27  C   UNL A   1      46.986  30.516  27.805  1.00  0.00     0.049 A 
ATOM     28  C   UNL A   1      45.309  25.232  27.008  1.00  0.00     0.074 A 
ATOM     29  C   UNL A   1      48.338  30.767  27.640  1.00  0.00     0.029 A 
ATOM     30  N   UNL A   1      46.790  29.176  27.514  1.00  0.00    -0.354 N 
ATOM     31  N   UNL A   1      45.853  26.412  27.183  1.00  0.00    -0.248 NA
ATOM     32  C   UNL A   1      46.219  24.219  26.461  1.00  0.00     0.031 C 
ATOM     33  C   UNL A   1      48.949  29.590  27.195  1.00  0.00     0.029 A 
ATOM     34  C   UNL A   1      47.987  28.596  27.126  1.00  0.00     0.049 A 
ATOM     35  H   UNL A   1      45.927  28.704  27.574  1.00  0.00     0.167 HD
ATOM     36  C   UNL A   1      47.172  26.283  26.764  1.00  0.00     0.074 A 
ATOM     37  C   UNL A   1      47.350  24.904  26.358  1.00  0.00     0.031 C 
ATOM     38  C   UNL A   1      48.145  27.225  26.713  1.00  0.00     0.037 A 
BRANCH  25  39
ATOM     39  C   UNL A   1      46.329  32.890  28.312  1.00  0.00     0.058 A 
ATOM     40  C   UNL A   1      46.859  33.414  29.502  1.00  0.00     0.135 A 
ATOM     41  C   UNL A   1      46.275  33.735  27.191  1.00  0.00     0.135 A 
ATOM     42  F   UNL A   1      46.923  32.653  30.606  1.00  0.00    -0.206 F 
ATOM     43  C   UNL A   1      47.324  34.724  29.573  1.00  0.00     0.059 A 
ATOM     44  C   UNL A   1      46.752  35.043  27.235  1.00  0.00     0.059 A 
ATOM     45  F   UNL A   1      45.777  33.282  26.030  1.00  0.00    -0.206 F 
ATOM     46  C   UNL A   1      47.274  35.528  28.432  1.00  0.00     0.060 A 
BRANCH  46  47
ATOM     47  S   UNL A   1      47.930  37.208  28.529  1.00  0.00     0.124 S 
ATOM     48  O   UNL A   1      49.296  36.960  28.981  1.00  0.00    -0.237 OA
ATOM     49  O   UNL A   1      47.794  37.676  27.154  1.00  0.00    -0.237 OA
ATOM     50  O   UNL A   1      47.058  37.860  29.501  1.00  0.00    -0.744 OA
ENDBRANCH  46  47
ENDBRANCH  25  39
BRANCH  26  51
ATOM     51  C   UNL A   1      43.449  23.414  26.993  1.00  0.00     0.058 A 
ATOM     52  C   UNL A   1      43.283  22.471  28.016  1.00  0.00     0.135 A 
ATOM     53  C   UNL A   1      43.177  23.009  25.676  1.00  0.00     0.135 A 
ATOM     54  F   UNL A   1      43.534  22.810  29.289  1.00  0.00    -0.206 F 
ATOM     55  C   UNL A   1      42.883  21.166  27.742  1.00  0.00     0.059 A 
ATOM     56  C   UNL A   1      42.750  21.720  25.381  1.00  0.00     0.059 A 
ATOM     57  F   UNL A   1      43.304  23.881  24.664  1.00  0.00    -0.206 F 
ATOM     58  C   UNL A   1      42.622  20.801  26.421  1.00  0.00     0.060 A 
BRANCH  58  59
ATOM     59  S   UNL A   1      42.079  19.114  26.074  1.00  0.00     0.124 S 
ATOM     60  O   UNL A   1      40.653  19.309  25.844  1.00  0.00    -0.237 OA
ATOM     61  O   UNL A   1      42.875  18.767  24.900  1.00  0.00    -0.237 OA
ATOM     62  O   UNL A   1      42.430  18.394  27.295  1.00  0.00    -0.744 OA
ENDBRANCH  58  59
ENDBRANCH  26  51
BRANCH  38  63
ATOM     63  C   UNL A   1      49.486  26.798  26.192  1.00  0.00     0.058 A 
ATOM     64  C   UNL A   1      49.864  27.050  24.865  1.00  0.00     0.135 A 
ATOM     65  C   UNL A   1      50.420  26.178  27.038  1.00  0.00     0.135 A 
ATOM     66  F   UNL A   1      49.001  27.628  24.014  1.00  0.00    -0.206 F 
ATOM     67  C   UNL A   1      51.120  26.691  24.388  1.00  0.00     0.059 A 
ATOM     68  C   UNL A   1      51.691  25.833  26.588  1.00  0.00     0.059 A 
ATOM     69  F   UNL A   1      50.107  25.920  28.317  1.00  0.00    -0.206 F 
ATOM     70  C   UNL A   1      52.028  26.087  25.259  1.00  0.00     0.060 A 
BRANCH  70  71
ATOM     71  S   UNL A   1      53.672  25.670  24.641  1.00  0.00     0.124 S 
ATOM     72  O   UNL A   1      53.555  26.029  23.232  1.00  0.00    -0.237 OA
ATOM     73  O   UNL A   1      54.536  26.528  25.445  1.00  0.00    -0.237 OA
ATOM     74  O   UNL A   1      53.786  24.241  24.917  1.00  0.00    -0.744 OA
ENDBRANCH  70  71
ENDBRANCH  38  63
ENDBRANCH  12  13
ENDBRANCH   5   7
ENDBRANCH   2   3
ENDBRANCH   1   2
BRANCH   1  75
ATOM     75  C   UNL A   1      34.064  28.935  25.891  1.00  0.00     0.023 C 
BRANCH  75  76
ATOM     76  C   UNL A   1      33.000  27.897  25.552  1.00  0.00     0.116 C 
BRANCH  76  77
ATOM     77  N   UNL A   1      32.624  27.019  26.638  1.00  0.00    -0.352 N 
ATOM     78  C   UNL A   1      31.935  25.831  26.553  1.00  0.00     0.253 C 
ATOM     79  H   UNL A   1      32.891  27.303  27.541  1.00  0.00     0.163 HD
ATOM     80  O   UNL A   1      31.838  25.115  27.546  1.00  0.00    -0.269 OA
BRANCH  78  81
ATOM     81  C   UNL A   1      31.196  25.466  25.318  1.00  0.00     0.065 A 
ATOM     82  C   UNL A   1      29.917  26.057  25.247  1.00  0.00     0.042 A 
ATOM     83  C   UNL A   1      31.674  24.653  24.275  1.00  0.00     0.050 A 
ATOM     84  C   UNL A   1      29.133  25.968  24.103  1.00  0.00     0.042 A 
ATOM     85  C   UNL A   1      30.831  24.520  23.154  1.00  0.00     0.029 A 
ATOM     86  C   UNL A   1      29.591  25.167  23.062  1.00  0.00     0.028 A 
BRANCH  83  87
ATOM     87  N   UNL A   1      32.855  23.925  24.290  1.00  0.00    -0.370 N 
ATOM     88  C   UNL A   1      34.014  24.410  23.535  1.00  0.00     0.116 C 
ATOM     89  C   UNL A   1      33.050  22.866  25.286  1.00  0.00     0.126 C 
ATOM     90  C   UNL A   1      34.827  23.256  22.972  1.00  0.00     0.022 C 
ATOM     91  C   UNL A   1      33.791  21.668  24.659  1.00  0.00     0.064 C 
ATOM     92  C   UNL A   1      35.092  22.194  24.034  1.00  0.00     0.013 C 
BRANCH  91  93
ATOM     93  C   UNL A   1      32.830  20.916  23.698  1.00  0.00     0.267 C 
BRANCH  93  94
ATOM     94  N   UNL A   1      32.406  19.544  23.994  1.00  0.00    -0.335 N 
ATOM     95  C   UNL A   1      33.167  18.862  25.037  1.00  0.00     0.262 C 
ATOM     96  C   UNL A   1      32.293  18.638  22.855  1.00  0.00     0.262 C 
ATOM     97  H   UNL A   1      31.465  19.739  24.337  1.00  0.00     0.348 HD
ATOM     98  C   UNL A   1      34.095  17.918  24.300  1.00  0.00     0.067 C 
ATOM     99  C   UNL A   1      33.301  17.516  23.071  1.00  0.00     0.067 C 
ENDBRANCH  93  94
ENDBRANCH  91  93
ENDBRANCH  83  87
BRANCH  84 100
ATOM    100  N   UNL A   1      27.894  26.614  23.926  1.00  0.00    -0.321 N 
ATOM    101  C   UNL A   1      27.552  27.872  23.461  1.00  0.00     0.265 C 
ATOM    102  H   UNL A   1      27.119  26.063  24.183  1.00  0.00     0.170 HD
ATOM    103  O   UNL A   1      26.374  28.217  23.590  1.00  0.00    -0.268 OA
BRANCH 101 104
ATOM    104  C   UNL A   1      28.542  28.690  22.795  1.00  0.00     0.092 A 
ATOM    105  C   UNL A   1      29.920  28.580  22.812  1.00  0.00     0.025 A 
ATOM    106  S   UNL A   1      28.024  30.017  21.843  1.00  0.00    -0.139 S 
ATOM    107  C   UNL A   1      30.551  29.688  22.172  1.00  0.00     0.012 A 
ATOM    108  C   UNL A   1      29.635  30.561  21.629  1.00  0.00     0.065 A 
ENDBRANCH 101 104
ENDBRANCH  84 100
ENDBRANCH  78  81
ENDBRANCH  76  77
ENDBRANCH  75  76
ENDBRANCH   1  75
TORSDOF 19
ENDMDL
MODEL 2
REMARK VINA RESULT:     -12.4      1.779      4.790
REMARK SMILES O=C(NCCCCNC(=O)c1cc(NC(=O)c2cccs2)ccc1N1CCC[C@H](C[NH+]2CCCC2)C1)c1ccc(-c2c3nc(c(-c4c(F)cc(S(=O)(=O)[O-])cc4F)c4ccc([nH]4)c(-c4c(F)cc(S(=O)(=O)[O-])cc4F)c4nc(c(-c5c(F)cc(S(=O)(=O)[O-])cc5F)c5ccc2[nH]5)C=C4)C=C3)cc1
REMARK SMILES IDX 5 1 4 2 3 3 1 4 2 5 37 7 38 8 102 9 39 10 101 11 40 12 41 13
REMARK SMILES IDX 42 14 95 15 43 16 100 17 94 18 96 19 44 20 99 21 93 22 92 23
REMARK SMILES IDX 45 25 79 26 58 27 78 28 59 29 62 30 77 31 97 32 60 33 61 34
REMARK SMILES IDX 76 36 98 37 63 38 46 39 47 40 56 41 48 42 49 43 55 44 57 45
REMARK SMILES IDX 50 46 51 47 52 48 53 49 54 50 80 51 81 52 90 53 82 54 83 55
REMARK SMILES IDX 89 56 91 57 84 58 85 59 86 60 87 61 88 62 64 63 65 64 74 65
REMARK SMILES IDX 66 66 67 67 73 68 75 69 68 70 69 71 70 72 71 73 72 74 6 75
REMARK SMILES IDX 7 76 8 77 9 78 10 80 11 81 12 82 24 83 13 84 23 85 22 86
REMARK SMILES IDX 25 87 26 88 36 89 27 90 29 91 28 92 30 93 31 94 32 95 35 96
REMARK SMILES IDX 33 98 34 99 14 100 15 101 16 103 17 104 18 105 21 106 19 107
REMARK SMILES IDX 20 108
REMARK H PARENT 3 6 96 24 62 35 8 79 31 97 14 102
REMARK Flexibility Score: inf
ROOT
ATOM      1  C   UNL A   1      33.902  29.364  27.348  1.00  0.00     0.023 C 
ENDROOT
BRANCH   1   2
ATOM      2  C   UNL A   1      35.294  29.668  27.898  1.00  0.00     0.116 C 
BRANCH   2   3
ATOM      3  N   UNL A   1      35.266  30.439  29.131  1.00  0.00    -0.352 N 
ATOM      4  O   UNL A   1      36.030  31.265  31.080  1.00  0.00    -0.269 OA
ATOM      5  C   UNL A   1      36.282  30.707  30.021  1.00  0.00     0.251 C 
ATOM      6  H   UNL A   1      34.391  30.828  29.362  1.00  0.00     0.163 HD
BRANCH   5   7
ATOM      7  C   UNL A   1      37.670  30.296  29.707  1.00  0.00     0.039 A 
ATOM      8  C   UNL A   1      38.126  30.260  28.387  1.00  0.00     0.014 A 
ATOM      9  C   UNL A   1      38.538  29.963  30.752  1.00  0.00     0.014 A 
ATOM     10  C   UNL A   1      39.394  29.763  28.102  1.00  0.00     0.010 A 
ATOM     11  C   UNL A   1      39.841  29.541  30.470  1.00  0.00     0.010 A 
ATOM     12  C   UNL A   1      40.274  29.417  29.140  1.00  0.00    -0.014 A 
BRANCH  12  13
ATOM     13  C   UNL A   1      41.674  29.038  28.817  1.00  0.00     0.031 A 
ATOM     14  C   UNL A   1      42.785  30.052  28.826  1.00  0.00     0.074 A 
ATOM     15  C   UNL A   1      41.929  27.752  28.504  1.00  0.00     0.049 A 
ATOM     16  N   UNL A   1      44.051  29.880  28.542  1.00  0.00    -0.248 NA
ATOM     17  C   UNL A   1      42.438  31.434  29.193  1.00  0.00     0.031 C 
ATOM     18  C   UNL A   1      40.922  26.688  28.438  1.00  0.00     0.029 A 
ATOM     19  N   UNL A   1      43.100  27.117  28.179  1.00  0.00    -0.354 N 
ATOM     20  C   UNL A   1      44.648  31.130  28.671  1.00  0.00     0.074 A 
ATOM     21  C   UNL A   1      43.602  32.055  29.053  1.00  0.00     0.031 C 
ATOM     22  C   UNL A   1      41.519  25.534  28.110  1.00  0.00     0.029 A 
ATOM     23  C   UNL A   1      42.937  25.784  27.882  1.00  0.00     0.049 A 
ATOM     24  H   UNL A   1      43.973  27.571  28.160  1.00  0.00     0.167 HD
ATOM     25  C   UNL A   1      45.948  31.464  28.488  1.00  0.00     0.037 A 
ATOM     26  C   UNL A   1      43.819  24.869  27.438  1.00  0.00     0.037 A 
ATOM     27  C   UNL A   1      46.985  30.523  28.141  1.00  0.00     0.049 A 
ATOM     28  C   UNL A   1      45.247  25.279  27.222  1.00  0.00     0.074 A 
ATOM     29  C   UNL A   1      48.347  30.751  28.033  1.00  0.00     0.029 A 
ATOM     30  N   UNL A   1      46.777  29.190  27.828  1.00  0.00    -0.354 N 
ATOM     31  N   UNL A   1      45.806  26.446  27.431  1.00  0.00    -0.248 NA
ATOM     32  C   UNL A   1      46.161  24.254  26.702  1.00  0.00     0.031 C 
ATOM     33  C   UNL A   1      48.954  29.568  27.601  1.00  0.00     0.029 A 
ATOM     34  C   UNL A   1      47.978  28.592  27.482  1.00  0.00     0.049 A 
ATOM     35  H   UNL A   1      45.904  28.733  27.849  1.00  0.00     0.167 HD
ATOM     36  C   UNL A   1      47.138  26.298  27.064  1.00  0.00     0.074 A 
ATOM     37  C   UNL A   1      47.308  24.920  26.651  1.00  0.00     0.031 C 
ATOM     38  C   UNL A   1      48.129  27.222  27.063  1.00  0.00     0.037 A 
BRANCH  25  39
ATOM     39  C   UNL A   1      46.350  32.904  28.645  1.00  0.00     0.058 A 
ATOM     40  C   UNL A   1      46.362  33.790  27.558  1.00  0.00     0.135 A 
ATOM     41  C   UNL A   1      46.608  33.430  29.922  1.00  0.00     0.135 A 
ATOM     42  F   UNL A   1      46.133  33.339  26.314  1.00  0.00    -0.206 F 
ATOM     43  C   UNL A   1      46.616  35.148  27.731  1.00  0.00     0.059 A 
ATOM     44  C   UNL A   1      46.845  34.787  30.122  1.00  0.00     0.059 A 
ATOM     45  F   UNL A   1      46.607  32.624  30.996  1.00  0.00    -0.206 F 
ATOM     46  C   UNL A   1      46.848  35.639  29.018  1.00  0.00     0.060 A 
BRANCH  46  47
ATOM     47  S   UNL A   1      47.122  37.411  29.231  1.00  0.00     0.124 S 
ATOM     48  O   UNL A   1      45.839  37.958  28.801  1.00  0.00    -0.237 OA
ATOM     49  O   UNL A   1      47.406  37.513  30.660  1.00  0.00    -0.237 OA
ATOM     50  O   UNL A   1      48.251  37.691  28.349  1.00  0.00    -0.744 OA
ENDBRANCH  46  47
ENDBRANCH  25  39
BRANCH  26  51
ATOM     51  C   UNL A   1      43.358  23.494  27.113  1.00  0.00     0.058 A 
ATOM     52  C   UNL A   1      43.172  23.084  25.786  1.00  0.00     0.135 A 
ATOM     53  C   UNL A   1      43.096  22.564  28.131  1.00  0.00     0.135 A 
ATOM     54  F   UNL A   1      43.406  23.938  24.779  1.00  0.00    -0.206 F 
ATOM     55  C   UNL A   1      42.720  21.803  25.479  1.00  0.00     0.059 A 
ATOM     56  C   UNL A   1      42.671  21.271  27.850  1.00  0.00     0.059 A 
ATOM     57  F   UNL A   1      43.277  22.904  29.417  1.00  0.00    -0.206 F 
ATOM     58  C   UNL A   1      42.470  20.906  26.519  1.00  0.00     0.060 A 
BRANCH  58  59
ATOM     59  S   UNL A   1      41.910  19.238  26.115  1.00  0.00     0.124 S 
ATOM     60  O   UNL A   1      42.284  18.506  27.319  1.00  0.00    -0.237 OA
ATOM     61  O   UNL A   1      40.478  19.434  25.905  1.00  0.00    -0.237 OA
ATOM     62  O   UNL A   1      42.672  18.913  24.913  1.00  0.00    -0.744 OA
ENDBRANCH  58  59
ENDBRANCH  26  51
BRANCH  38  63
ATOM     63  C   UNL A   1      49.481  26.776  26.592  1.00  0.00     0.058 A 
ATOM     64  C   UNL A   1      50.360  26.093  27.447  1.00  0.00     0.135 A 
ATOM     65  C   UNL A   1      49.883  26.983  25.263  1.00  0.00     0.135 A 
ATOM     66  F   UNL A   1      50.027  25.882  28.731  1.00  0.00    -0.206 F 
ATOM     67  C   UNL A   1      51.599  25.643  27.005  1.00  0.00     0.059 A 
ATOM     68  C   UNL A   1      51.108  26.519  24.792  1.00  0.00     0.059 A 
ATOM     69  F   UNL A   1      49.076  27.626  24.405  1.00  0.00    -0.206 F 
ATOM     70  C   UNL A   1      51.962  25.858  25.673  1.00  0.00     0.060 A 
BRANCH  70  71
ATOM     71  S   UNL A   1      53.552  25.225  25.099  1.00  0.00     0.124 S 
ATOM     72  O   UNL A   1      54.485  25.986  25.923  1.00  0.00    -0.237 OA
ATOM     73  O   UNL A   1      53.452  23.802  25.404  1.00  0.00    -0.237 OA
ATOM     74  O   UNL A   1      53.556  25.557  23.678  1.00  0.00    -0.744 OA
ENDBRANCH  70  71
ENDBRANCH  38  63
ENDBRANCH  12  13
ENDBRANCH   5   7
ENDBRANCH   2   3
ENDBRANCH   1   2
BRANCH   1  75
ATOM     75  C   UNL A   1      33.836  28.366  26.191  1.00  0.00     0.023 C 
BRANCH  75  76
ATOM     76  C   UNL A   1      33.213  27.014  26.518  1.00  0.00     0.116 C 
BRANCH  76  77
ATOM     77  N   UNL A   1      31.775  26.946  26.377  1.00  0.00    -0.352 N 
ATOM     78  C   UNL A   1      31.042  25.968  25.744  1.00  0.00     0.253 C 
ATOM     79  H   UNL A   1      31.262  27.682  26.781  1.00  0.00     0.163 HD
ATOM     80  O   UNL A   1      29.819  25.961  25.855  1.00  0.00    -0.269 OA
BRANCH  78  81
ATOM     81  C   UNL A   1      31.695  25.003  24.824  1.00  0.00     0.065 A 
ATOM     82  C   UNL A   1      31.858  23.723  25.393  1.00  0.00     0.042 A 
ATOM     83  C   UNL A   1      32.102  25.262  23.503  1.00  0.00     0.050 A 
ATOM     84  C   UNL A   1      32.303  22.640  24.644  1.00  0.00     0.042 A 
ATOM     85  C   UNL A   1      32.616  24.165  22.784  1.00  0.00     0.029 A 
ATOM     86  C   UNL A   1      32.709  22.880  23.335  1.00  0.00     0.028 A 
BRANCH  83  87
ATOM     87  N   UNL A   1      32.106  26.504  22.884  1.00  0.00    -0.370 N 
ATOM     88  C   UNL A   1      33.320  27.324  22.915  1.00  0.00     0.116 C 
ATOM     89  C   UNL A   1      31.033  26.860  21.949  1.00  0.00     0.126 C 
ATOM     90  C   UNL A   1      32.983  28.805  22.989  1.00  0.00     0.022 C 
ATOM     91  C   UNL A   1      30.646  28.343  22.115  1.00  0.00     0.064 C 
ATOM     92  C   UNL A   1      31.922  29.184  21.961  1.00  0.00     0.013 C 
BRANCH  91  93
ATOM     93  C   UNL A   1      29.869  28.525  23.448  1.00  0.00     0.267 C 
BRANCH  93  94
ATOM     94  N   UNL A   1      28.784  29.507  23.548  1.00  0.00    -0.335 N 
ATOM     95  C   UNL A   1      27.735  29.389  22.539  1.00  0.00     0.262 C 
ATOM     96  C   UNL A   1      29.182  30.910  23.623  1.00  0.00     0.262 C 
ATOM     97  H   UNL A   1      28.408  29.236  24.457  1.00  0.00     0.348 HD
ATOM     98  C   UNL A   1      28.016  30.497  21.544  1.00  0.00     0.067 C 
ATOM     99  C   UNL A   1      28.613  31.605  22.392  1.00  0.00     0.067 C 
ENDBRANCH  93  94
ENDBRANCH  91  93
ENDBRANCH  83  87
BRANCH  84 100
ATOM    100  N   UNL A   1      32.394  21.318  25.119  1.00  0.00    -0.321 N 
ATOM    101  C   UNL A   1      33.472  20.513  25.445  1.00  0.00     0.265 C 
ATOM    102  H   UNL A   1      31.521  20.880  25.244  1.00  0.00     0.170 HD
ATOM    103  O   UNL A   1      33.236  19.323  25.670  1.00  0.00    -0.268 OA
BRANCH 101 104
ATOM    104  C   UNL A   1      34.792  21.091  25.578  1.00  0.00     0.092 A 
ATOM    105  C   UNL A   1      35.167  22.286  26.164  1.00  0.00     0.025 A 
ATOM    106  S   UNL A   1      36.138  20.255  24.927  1.00  0.00    -0.139 S 
ATOM    107  C   UNL A   1      36.543  22.584  25.933  1.00  0.00     0.012 A 
ATOM    108  C   UNL A   1      37.180  21.577  25.244  1.00  0.00     0.065 A 
ENDBRANCH 101 104
ENDBRANCH  84 100
ENDBRANCH  78  81
ENDBRANCH  76  77
ENDBRANCH  75  76
ENDBRANCH   1  75
TORSDOF 19
ENDMDL
MODEL 3
REMARK VINA RESULT:     -12.2      1.693      9.038
REMARK SMILES O=C(NCCCCNC(=O)c1cc(NC(=O)c2cccs2)ccc1N1CCC[C@H](C[NH+]2CCCC2)C1)c1ccc(-c2c3nc(c(-c4c(F)cc(S(=O)(=O)[O-])cc4F)c4ccc([nH]4)c(-c4c(F)cc(S(=O)(=O)[O-])cc4F)c4nc(c(-c5c(F)cc(S(=O)(=O)[O-])cc5F)c5ccc2[nH]5)C=C4)C=C3)cc1
REMARK SMILES IDX 5 1 4 2 3 3 1 4 2 5 37 7 38 8 102 9 39 10 101 11 40 12 41 13
REMARK SMILES IDX 42 14 95 15 43 16 100 17 94 18 96 19 44 20 99 21 93 22 92 23
REMARK SMILES IDX 45 25 79 26 58 27 78 28 59 29 62 30 77 31 97 32 60 33 61 34
REMARK SMILES IDX 76 36 98 37 63 38 46 39 47 40 56 41 48 42 49 43 55 44 57 45
REMARK SMILES IDX 50 46 51 47 52 48 53 49 54 50 80 51 81 52 90 53 82 54 83 55
REMARK SMILES IDX 89 56 91 57 84 58 85 59 86 60 87 61 88 62 64 63 65 64 74 65
REMARK SMILES IDX 66 66 67 67 73 68 75 69 68 70 69 71 70 72 71 73 72 74 6 75
REMARK SMILES IDX 7 76 8 77 9 78 10 80 11 81 12 82 24 83 13 84 23 85 22 86
REMARK SMILES IDX 25 87 26 88 36 89 27 90 29 91 28 92 30 93 31 94 32 95 35 96
REMARK SMILES IDX 33 98 34 99 14 100 15 101 16 103 17 104 18 105 21 106 19 107
REMARK SMILES IDX 20 108
REMARK H PARENT 3 6 96 24 62 35 8 79 31 97 14 102
REMARK Flexibility Score: inf
ROOT
ATOM      1  C   UNL A   1      34.683  28.628  27.580  1.00  0.00     0.023 C 
ENDROOT
BRANCH   1   2
ATOM      2  C   UNL A   1      35.300  30.019  27.704  1.00  0.00     0.116 C 
BRANCH   2   3
ATOM      3  N   UNL A   1      35.331  30.512  29.071  1.00  0.00    -0.352 N 
ATOM      4  O   UNL A   1      36.160  30.855  31.136  1.00  0.00    -0.269 OA
ATOM      5  C   UNL A   1      36.369  30.519  29.978  1.00  0.00     0.251 C 
ATOM      6  H   UNL A   1      34.486  30.899  29.396  1.00  0.00     0.163 HD
BRANCH   5   7
ATOM      7  C   UNL A   1      37.724  30.094  29.557  1.00  0.00     0.039 A 
ATOM      8  C   UNL A   1      38.093  30.108  28.210  1.00  0.00     0.014 A 
ATOM      9  C   UNL A   1      38.648  29.698  30.529  1.00  0.00     0.014 A 
ATOM     10  C   UNL A   1      39.329  29.598  27.823  1.00  0.00     0.010 A 
ATOM     11  C   UNL A   1      39.921  29.262  30.145  1.00  0.00     0.010 A 
ATOM     12  C   UNL A   1      40.265  29.189  28.786  1.00  0.00    -0.014 A 
BRANCH  12  13
ATOM     13  C   UNL A   1      41.632  28.797  28.356  1.00  0.00     0.031 A 
ATOM     14  C   UNL A   1      41.950  27.388  27.934  1.00  0.00     0.074 A 
ATOM     15  C   UNL A   1      42.596  29.739  28.361  1.00  0.00     0.049 A 
ATOM     16  N   UNL A   1      43.099  26.887  27.559  1.00  0.00    -0.248 NA
ATOM     17  C   UNL A   1      40.846  26.415  27.938  1.00  0.00     0.031 C 
ATOM     18  C   UNL A   1      42.406  31.133  28.776  1.00  0.00     0.029 A 
ATOM     19  N   UNL A   1      43.921  29.678  28.013  1.00  0.00    -0.354 N 
ATOM     20  C   UNL A   1      42.867  25.539  27.305  1.00  0.00     0.074 A 
ATOM     21  C   UNL A   1      41.466  25.298  27.576  1.00  0.00     0.031 C 
ATOM     22  C   UNL A   1      43.563  31.795  28.646  1.00  0.00     0.029 A 
ATOM     23  C   UNL A   1      44.592  30.864  28.197  1.00  0.00     0.049 A 
ATOM     24  H   UNL A   1      44.350  28.863  27.665  1.00  0.00     0.167 HD
ATOM     25  C   UNL A   1      43.746  24.600  26.882  1.00  0.00     0.037 A 
ATOM     26  C   UNL A   1      45.897  31.165  28.059  1.00  0.00     0.037 A 
ATOM     27  C   UNL A   1      45.132  24.863  26.584  1.00  0.00     0.049 A 
ATOM     28  C   UNL A   1      46.849  30.094  27.613  1.00  0.00     0.074 A 
ATOM     29  C   UNL A   1      46.074  23.996  26.054  1.00  0.00     0.029 A 
ATOM     30  N   UNL A   1      45.778  26.069  26.802  1.00  0.00    -0.354 N 
ATOM     31  N   UNL A   1      46.591  28.847  27.298  1.00  0.00    -0.248 NA
ATOM     32  C   UNL A   1      48.266  30.463  27.513  1.00  0.00     0.031 C 
ATOM     33  C   UNL A   1      47.303  24.663  26.006  1.00  0.00     0.029 A 
ATOM     34  C   UNL A   1      47.116  25.958  26.463  1.00  0.00     0.049 A 
ATOM     35  H   UNL A   1      45.349  26.886  27.149  1.00  0.00     0.167 HD
ATOM     36  C   UNL A   1      47.816  28.282  26.965  1.00  0.00     0.074 A 
ATOM     37  C   UNL A   1      48.808  29.330  27.087  1.00  0.00     0.031 C 
ATOM     38  C   UNL A   1      48.094  27.007  26.600  1.00  0.00     0.037 A 
BRANCH  25  39
ATOM     39  C   UNL A   1      43.264  23.185  26.719  1.00  0.00     0.058 A 
ATOM     40  C   UNL A   1      43.102  22.600  25.453  1.00  0.00     0.135 A 
ATOM     41  C   UNL A   1      43.077  22.368  27.847  1.00  0.00     0.135 A 
ATOM     42  F   UNL A   1      43.257  23.339  24.343  1.00  0.00    -0.206 F 
ATOM     43  C   UNL A   1      42.775  21.255  25.312  1.00  0.00     0.059 A 
ATOM     44  C   UNL A   1      42.768  21.015  27.729  1.00  0.00     0.059 A 
ATOM     45  F   UNL A   1      43.221  22.878  29.080  1.00  0.00    -0.206 F 
ATOM     46  C   UNL A   1      42.617  20.468  26.456  1.00  0.00     0.060 A 
BRANCH  46  47
ATOM     47  S   UNL A   1      42.245  18.713  26.253  1.00  0.00     0.124 S 
ATOM     48  O   UNL A   1      40.851  18.759  25.824  1.00  0.00    -0.237 OA
ATOM     49  O   UNL A   1      43.207  18.306  25.233  1.00  0.00    -0.237 OA
ATOM     50  O   UNL A   1      42.473  18.159  27.583  1.00  0.00    -0.744 OA
ENDBRANCH  46  47
ENDBRANCH  25  39
BRANCH  26  51
ATOM     51  C   UNL A   1      46.382  32.527  28.404  1.00  0.00     0.058 A 
ATOM     52  C   UNL A   1      46.800  32.842  29.705  1.00  0.00     0.135 A 
ATOM     53  C   UNL A   1      46.436  33.539  27.433  1.00  0.00     0.135 A 
ATOM     54  F   UNL A   1      46.762  31.909  30.667  1.00  0.00    -0.206 F 
ATOM     55  C   UNL A   1      47.235  34.122  30.036  1.00  0.00     0.059 A 
ATOM     56  C   UNL A   1      46.893  34.817  27.733  1.00  0.00     0.059 A 
ATOM     57  F   UNL A   1      46.065  33.281  26.170  1.00  0.00    -0.206 F 
ATOM     58  C   UNL A   1      47.275  35.103  29.043  1.00  0.00     0.060 A 
BRANCH  58  59
ATOM     59  S   UNL A   1      47.865  36.754  29.472  1.00  0.00     0.124 S 
ATOM     60  O   UNL A   1      48.594  36.491  30.707  1.00  0.00    -0.237 OA
ATOM     61  O   UNL A   1      48.678  37.105  28.312  1.00  0.00    -0.237 OA
ATOM     62  O   UNL A   1      46.631  37.521  29.617  1.00  0.00    -0.744 OA
ENDBRANCH  58  59
ENDBRANCH  26  51
BRANCH  38  63
ATOM     63  C   UNL A   1      49.529  26.673  26.315  1.00  0.00     0.058 A 
ATOM     64  C   UNL A   1      50.346  26.083  27.291  1.00  0.00     0.135 A 
ATOM     65  C   UNL A   1      50.077  26.895  25.042  1.00  0.00     0.135 A 
ATOM     66  F   UNL A   1      49.871  25.863  28.527  1.00  0.00    -0.206 F 
ATOM     67  C   UNL A   1      51.665  25.737  27.019  1.00  0.00     0.059 A 
ATOM     68  C   UNL A   1      51.387  26.534  24.740  1.00  0.00     0.059 A 
ATOM     69  F   UNL A   1      49.334  27.452  24.073  1.00  0.00    -0.206 F 
ATOM     70  C   UNL A   1      52.175  25.962  25.739  1.00  0.00     0.060 A 
BRANCH  70  71
ATOM     71  S   UNL A   1      53.873  25.463  25.385  1.00  0.00     0.124 S 
ATOM     72  O   UNL A   1      54.603  26.125  26.460  1.00  0.00    -0.237 OA
ATOM     73  O   UNL A   1      53.796  24.008  25.472  1.00  0.00    -0.237 OA
ATOM     74  O   UNL A   1      54.111  25.992  24.046  1.00  0.00    -0.744 OA
ENDBRANCH  70  71
ENDBRANCH  38  63
ENDBRANCH  12  13
ENDBRANCH   5   7
ENDBRANCH   2   3
ENDBRANCH   1   2
BRANCH   1  75
ATOM     75  C   UNL A   1      33.262  28.567  27.018  1.00  0.00     0.023 C 
BRANCH  75  76
ATOM     76  C   UNL A   1      32.777  27.185  26.595  1.00  0.00     0.116 C 
BRANCH  76  77
ATOM     77  N   UNL A   1      31.343  27.045  26.467  1.00  0.00    -0.352 N 
ATOM     78  C   UNL A   1      30.652  25.998  25.902  1.00  0.00     0.253 C 
ATOM     79  H   UNL A   1      30.799  27.783  26.826  1.00  0.00     0.163 HD
ATOM     80  O   UNL A   1      29.430  25.945  26.020  1.00  0.00    -0.269 OA
BRANCH  78  81
ATOM     81  C   UNL A   1      31.344  25.006  25.041  1.00  0.00     0.065 A 
ATOM     82  C   UNL A   1      31.404  23.721  25.621  1.00  0.00     0.042 A 
ATOM     83  C   UNL A   1      31.875  25.245  23.761  1.00  0.00     0.050 A 
ATOM     84  C   UNL A   1      31.869  22.620  24.912  1.00  0.00     0.042 A 
ATOM     85  C   UNL A   1      32.405  24.128  23.089  1.00  0.00     0.029 A 
ATOM     86  C   UNL A   1      32.398  22.841  23.644  1.00  0.00     0.028 A 
BRANCH  83  87
ATOM     87  N   UNL A   1      31.983  26.485  23.147  1.00  0.00    -0.370 N 
ATOM     88  C   UNL A   1      33.223  27.255  23.284  1.00  0.00     0.116 C 
ATOM     89  C   UNL A   1      31.010  26.883  22.123  1.00  0.00     0.126 C 
ATOM     90  C   UNL A   1      32.942  28.748  23.330  1.00  0.00     0.022 C 
ATOM     91  C   UNL A   1      30.671  28.381  22.258  1.00  0.00     0.064 C 
ATOM     92  C   UNL A   1      31.990  29.169  22.216  1.00  0.00     0.013 C 
BRANCH  91  93
ATOM     93  C   UNL A   1      29.791  28.597  23.519  1.00  0.00     0.267 C 
BRANCH  93  94
ATOM     94  N   UNL A   1      28.742  29.622  23.527  1.00  0.00    -0.335 N 
ATOM     95  C   UNL A   1      27.718  29.481  22.495  1.00  0.00     0.262 C 
ATOM     96  C   UNL A   1      29.190  31.012  23.529  1.00  0.00     0.262 C 
ATOM     97  H   UNL A   1      28.330  29.422  24.439  1.00  0.00     0.348 HD
ATOM     98  C   UNL A   1      28.068  30.513  21.444  1.00  0.00     0.067 C 
ATOM     99  C   UNL A   1      28.683  31.649  22.241  1.00  0.00     0.067 C 
ENDBRANCH  93  94
ENDBRANCH  91  93
ENDBRANCH  83  87
BRANCH  84 100
ATOM    100  N   UNL A   1      31.865  21.296  25.391  1.00  0.00    -0.321 N 
ATOM    101  C   UNL A   1      32.871  20.361  25.566  1.00  0.00     0.265 C 
ATOM    102  H   UNL A   1      30.973  20.972  25.654  1.00  0.00     0.170 HD
ATOM    103  O   UNL A   1      32.525  19.210  25.844  1.00  0.00    -0.268 OA
BRANCH 101 104
ATOM    104  C   UNL A   1      34.257  20.767  25.487  1.00  0.00     0.092 A 
ATOM    105  C   UNL A   1      35.269  20.272  24.685  1.00  0.00     0.025 A 
ATOM    106  S   UNL A   1      34.819  22.020  26.512  1.00  0.00    -0.139 S 
ATOM    107  C   UNL A   1      36.541  20.817  25.032  1.00  0.00     0.012 A 
ATOM    108  C   UNL A   1      36.443  21.757  26.034  1.00  0.00     0.065 A 
ENDBRANCH 101 104
ENDBRANCH  84 100
ENDBRANCH  78  81
ENDBRANCH  76  77
ENDBRANCH  75  76
ENDBRANCH   1  75
TORSDOF 19
ENDMDL
