MODEL 1
REMARK VINA RESULT:     -11.0      0.000      0.000
REMARK SMILES CCC1C[NH+]([C@H]2COC[C@@]2(C)C(=O)NCCCCNC(=O)c2ccc(-c3c4nc(c(-c5c(F)cc(S(=O)(=O)[O-])cc5F)c5ccc([nH]5)c(-c5c(F)cc(S(=O)(=O)[O-])cc5F)c5nc(c(-c6c(F)cc(S(=O)(=O)[O-])cc6F)c6ccc3[nH]6)C=C5)C=C4)cc2)C1
REMARK SMILES IDX 17 1 16 2 15 3 14 4 12 5 13 6 10 8 6 9 7 10 8 11 9 12 11 13
REMARK SMILES IDX 5 14 3 15 4 16 88 17 2 19 1 20 18 21 19 22 20 23 21 25 22 26
REMARK SMILES IDX 23 27 87 28 24 29 86 30 25 31 26 32 27 33 80 34 28 35 85 36
REMARK SMILES IDX 79 37 81 38 29 39 84 40 78 41 77 42 30 44 64 45 43 46 63 47
REMARK SMILES IDX 44 48 47 49 62 50 82 51 45 52 46 53 61 55 83 56 48 57 31 58
REMARK SMILES IDX 32 59 41 60 33 61 34 62 40 63 42 64 35 65 36 66 37 67 38 68
REMARK SMILES IDX 39 69 65 70 66 71 75 72 67 73 68 74 74 75 76 76 69 77 70 78
REMARK SMILES IDX 71 79 72 80 73 81 49 82 50 83 59 84 51 85 52 86 58 87 60 88
REMARK SMILES IDX 53 89 54 90 55 91 56 92 57 93
REMARK H PARENT 14 7 5 18 19 24 81 43 47 54
REMARK Flexibility Score: inf
ROOT
ATOM      1  C   UNL A   1      37.198  33.960  33.333  1.00  0.00     0.023 C 
ENDROOT
BRANCH   1   2
ATOM      2  C   UNL A   1      36.818  34.206  34.798  1.00  0.00     0.023 C 
BRANCH   2   3
ATOM      3  C   UNL A   1      35.357  34.619  34.998  1.00  0.00     0.116 C 
BRANCH   3   4
ATOM      4  N   UNL A   1      34.497  33.746  34.230  1.00  0.00    -0.355 N 
ATOM      5  C   UNL A   1      33.534  34.036  33.313  1.00  0.00     0.234 C 
ATOM      6  O   UNL A   1      32.688  33.156  33.120  1.00  0.00    -0.274 OA
ATOM      7  H   UNL A   1      34.630  32.786  34.398  1.00  0.00     0.163 HD
BRANCH   5   8
ATOM      8  C   UNL A   1      33.512  35.357  32.533  1.00  0.00     0.123 C 
ATOM      9  C   UNL A   1      34.070  35.249  31.086  1.00  0.00     0.228 C 
ATOM     10  C   UNL A   1      33.332  36.417  30.413  1.00  0.00     0.226 C 
ATOM     11  O   UNL A   1      32.061  36.576  31.058  1.00  0.00    -0.374 OA
ATOM     12  C   UNL A   1      32.055  35.760  32.245  1.00  0.00     0.183 C 
ATOM     13  C   UNL A   1      34.143  36.530  33.318  1.00  0.00     0.031 C 
BRANCH   9  14
ATOM     14  N   UNL A   1      33.980  33.904  30.485  1.00  0.00    -0.329 N 
ATOM     15  C   UNL A   1      34.587  32.474  29.101  1.00  0.00     0.099 C 
ATOM     16  C   UNL A   1      35.257  33.151  30.339  1.00  0.00     0.271 C 
ATOM     17  C   UNL A   1      33.833  33.831  29.010  1.00  0.00     0.271 C 
ATOM     18  H   UNL A   1      33.237  33.582  31.104  1.00  0.00     0.348 HD
BRANCH  15  19
ATOM     19  C   UNL A   1      35.396  32.098  27.871  1.00  0.00     0.012 C 
ATOM     20  C   UNL A   1      35.221  30.613  27.576  1.00  0.00     0.004 C 
ENDBRANCH  15  19
ENDBRANCH   9  14
ENDBRANCH   5   8
ENDBRANCH   3   4
ENDBRANCH   2   3
ENDBRANCH   1   2
BRANCH   1  21
ATOM     21  C   UNL A   1      37.935  32.651  33.075  1.00  0.00     0.116 C 
BRANCH  21  22
ATOM     22  N   UNL A   1      37.033  31.542  32.809  1.00  0.00    -0.352 N 
ATOM     23  C   UNL A   1      37.203  30.470  31.970  1.00  0.00     0.251 C 
ATOM     24  H   UNL A   1      36.180  31.565  33.300  1.00  0.00     0.163 HD
ATOM     25  O   UNL A   1      36.263  29.705  31.766  1.00  0.00    -0.269 OA
BRANCH  23  26
ATOM     26  C   UNL A   1      38.499  30.260  31.293  1.00  0.00     0.039 A 
ATOM     27  C   UNL A   1      39.576  29.786  32.044  1.00  0.00     0.014 A 
ATOM     28  C   UNL A   1      38.653  30.516  29.926  1.00  0.00     0.014 A 
ATOM     29  C   UNL A   1      40.791  29.518  31.413  1.00  0.00     0.010 A 
ATOM     30  C   UNL A   1      39.839  30.170  29.285  1.00  0.00     0.010 A 
ATOM     31  C   UNL A   1      40.923  29.672  30.022  1.00  0.00    -0.014 A 
BRANCH  31  32
ATOM     32  C   UNL A   1      42.185  29.284  29.341  1.00  0.00     0.031 A 
ATOM     33  C   UNL A   1      43.306  30.272  29.169  1.00  0.00     0.074 A 
ATOM     34  C   UNL A   1      42.304  28.034  28.850  1.00  0.00     0.049 A 
ATOM     35  N   UNL A   1      44.493  30.088  28.649  1.00  0.00    -0.248 NA
ATOM     36  C   UNL A   1      43.057  31.651  29.616  1.00  0.00     0.031 C 
ATOM     37  C   UNL A   1      41.255  27.011  28.885  1.00  0.00     0.029 A 
ATOM     38  N   UNL A   1      43.356  27.408  28.232  1.00  0.00    -0.354 N 
ATOM     39  C   UNL A   1      45.127  31.324  28.702  1.00  0.00     0.074 A 
ATOM     40  C   UNL A   1      44.172  32.263  29.247  1.00  0.00     0.031 C 
ATOM     41  C   UNL A   1      41.731  25.875  28.353  1.00  0.00     0.029 A 
ATOM     42  C   UNL A   1      43.103  26.095  27.909  1.00  0.00     0.049 A 
ATOM     43  H   UNL A   1      44.211  27.855  28.038  1.00  0.00     0.167 HD
ATOM     44  C   UNL A   1      46.397  31.640  28.350  1.00  0.00     0.037 A 
ATOM     45  C   UNL A   1      43.889  25.169  27.326  1.00  0.00     0.037 A 
ATOM     46  C   UNL A   1      47.343  30.692  27.815  1.00  0.00     0.049 A 
ATOM     47  C   UNL A   1      45.303  25.535  26.970  1.00  0.00     0.074 A 
ATOM     48  C   UNL A   1      48.672  30.894  27.487  1.00  0.00     0.029 A 
ATOM     49  N   UNL A   1      47.057  29.365  27.520  1.00  0.00    -0.354 N 
ATOM     50  N   UNL A   1      45.918  26.686  27.109  1.00  0.00    -0.248 NA
ATOM     51  C   UNL A   1      46.137  24.472  26.394  1.00  0.00     0.031 C 
ATOM     52  C   UNL A   1      49.173  29.708  26.940  1.00  0.00     0.029 A 
ATOM     53  C   UNL A   1      48.177  28.745  26.989  1.00  0.00     0.049 A 
ATOM     54  H   UNL A   1      46.187  28.930  27.665  1.00  0.00     0.167 HD
ATOM     55  C   UNL A   1      47.219  26.479  26.663  1.00  0.00     0.074 A 
ATOM     56  C   UNL A   1      47.305  25.088  26.268  1.00  0.00     0.031 C 
ATOM     57  C   UNL A   1      48.249  27.360  26.592  1.00  0.00     0.037 A 
BRANCH  44  58
ATOM     58  C   UNL A   1      46.836  33.070  28.527  1.00  0.00     0.058 A 
ATOM     59  C   UNL A   1      46.695  34.022  27.503  1.00  0.00     0.135 A 
ATOM     60  C   UNL A   1      47.377  33.505  29.749  1.00  0.00     0.135 A 
ATOM     61  F   UNL A   1      46.197  33.663  26.310  1.00  0.00    -0.206 F 
ATOM     62  C   UNL A   1      47.108  35.340  27.670  1.00  0.00     0.059 A 
ATOM     63  C   UNL A   1      47.766  34.827  29.949  1.00  0.00     0.059 A 
ATOM     64  F   UNL A   1      47.534  32.642  30.764  1.00  0.00    -0.206 F 
ATOM     65  C   UNL A   1      47.643  35.733  28.898  1.00  0.00     0.060 A 
BRANCH  65  66
ATOM     66  S   UNL A   1      48.174  37.447  29.097  1.00  0.00     0.124 S 
ATOM     67  O   UNL A   1      47.693  37.746  30.442  1.00  0.00    -0.237 OA
ATOM     68  O   UNL A   1      49.623  37.343  28.952  1.00  0.00    -0.237 OA
ATOM     69  O   UNL A   1      47.487  38.146  28.016  1.00  0.00    -0.744 OA
ENDBRANCH  65  66
ENDBRANCH  44  58
BRANCH  45  70
ATOM     70  C   UNL A   1      43.360  23.800  27.083  1.00  0.00     0.058 A 
ATOM     71  C   UNL A   1      43.012  23.373  25.793  1.00  0.00     0.135 A 
ATOM     72  C   UNL A   1      43.223  22.880  28.134  1.00  0.00     0.135 A 
ATOM     73  F   UNL A   1      43.120  24.216  24.754  1.00  0.00    -0.206 F 
ATOM     74  C   UNL A   1      42.536  22.087  25.554  1.00  0.00     0.059 A 
ATOM     75  C   UNL A   1      42.778  21.581  27.917  1.00  0.00     0.059 A 
ATOM     76  F   UNL A   1      43.561  23.233  29.385  1.00  0.00    -0.206 F 
ATOM     77  C   UNL A   1      42.429  21.196  26.623  1.00  0.00     0.060 A 
BRANCH  77  78
ATOM     78  S   UNL A   1      41.874  19.509  26.293  1.00  0.00     0.124 S 
ATOM     79  O   UNL A   1      42.604  19.193  25.071  1.00  0.00    -0.237 OA
ATOM     80  O   UNL A   1      42.307  18.805  27.497  1.00  0.00    -0.237 OA
ATOM     81  O   UNL A   1      40.429  19.654  26.146  1.00  0.00    -0.744 OA
ENDBRANCH  77  78
ENDBRANCH  45  70
BRANCH  57  82
ATOM     82  C   UNL A   1      49.570  26.833  26.099  1.00  0.00     0.058 A 
ATOM     83  C   UNL A   1      50.458  26.145  26.941  1.00  0.00     0.135 A 
ATOM     84  C   UNL A   1      49.947  27.011  24.757  1.00  0.00     0.135 A 
ATOM     85  F   UNL A   1      50.151  25.948  28.233  1.00  0.00    -0.206 F 
ATOM     86  C   UNL A   1      51.692  25.693  26.482  1.00  0.00     0.059 A 
ATOM     87  C   UNL A   1      51.162  26.537  24.269  1.00  0.00     0.059 A 
ATOM     88  F   UNL A   1      49.132  27.649  23.903  1.00  0.00    -0.206 F 
ATOM     89  C   UNL A   1      52.037  25.899  25.146  1.00  0.00     0.060 A 
BRANCH  89  90
ATOM     90  S   UNL A   1      53.644  25.316  24.565  1.00  0.00     0.124 S 
ATOM     91  O   UNL A   1      53.600  25.694  23.157  1.00  0.00    -0.237 OA
ATOM     92  O   UNL A   1      54.571  26.076  25.398  1.00  0.00    -0.237 OA
ATOM     93  O   UNL A   1      53.602  23.881  24.832  1.00  0.00    -0.744 OA
ENDBRANCH  89  90
ENDBRANCH  57  82
ENDBRANCH  31  32
ENDBRANCH  23  26
ENDBRANCH  21  22
ENDBRANCH   1  21
TORSDOF 16
ENDMDL
MODEL 2
REMARK VINA RESULT:     -10.8      3.213      5.054
REMARK SMILES CCC1C[NH+]([C@H]2COC[C@@]2(C)C(=O)NCCCCNC(=O)c2ccc(-c3c4nc(c(-c5c(F)cc(S(=O)(=O)[O-])cc5F)c5ccc([nH]5)c(-c5c(F)cc(S(=O)(=O)[O-])cc5F)c5nc(c(-c6c(F)cc(S(=O)(=O)[O-])cc6F)c6ccc3[nH]6)C=C5)C=C4)cc2)C1
REMARK SMILES IDX 17 1 16 2 15 3 14 4 12 5 13 6 10 8 6 9 7 10 8 11 9 12 11 13
REMARK SMILES IDX 5 14 3 15 4 16 88 17 2 19 1 20 18 21 19 22 20 23 21 25 22 26
REMARK SMILES IDX 23 27 87 28 24 29 86 30 25 31 26 32 27 33 80 34 28 35 85 36
REMARK SMILES IDX 79 37 81 38 29 39 84 40 78 41 77 42 30 44 64 45 43 46 63 47
REMARK SMILES IDX 44 48 47 49 62 50 82 51 45 52 46 53 61 55 83 56 48 57 31 58
REMARK SMILES IDX 32 59 41 60 33 61 34 62 40 63 42 64 35 65 36 66 37 67 38 68
REMARK SMILES IDX 39 69 65 70 66 71 75 72 67 73 68 74 74 75 76 76 69 77 70 78
REMARK SMILES IDX 71 79 72 80 73 81 49 82 50 83 59 84 51 85 52 86 58 87 60 88
REMARK SMILES IDX 53 89 54 90 55 91 56 92 57 93
REMARK H PARENT 14 7 5 18 19 24 81 43 47 54
REMARK Flexibility Score: inf
ROOT
ATOM      1  C   UNL A   1      34.597  30.540  27.930  1.00  0.00     0.023 C 
ENDROOT
BRANCH   1   2
ATOM      2  C   UNL A   1      35.083  29.316  27.144  1.00  0.00     0.023 C 
BRANCH   2   3
ATOM      3  C   UNL A   1      33.987  28.631  26.323  1.00  0.00     0.116 C 
BRANCH   3   4
ATOM      4  N   UNL A   1      34.077  29.056  24.943  1.00  0.00    -0.355 N 
ATOM      5  C   UNL A   1      33.967  28.343  23.790  1.00  0.00     0.234 C 
ATOM      6  O   UNL A   1      34.482  28.851  22.788  1.00  0.00    -0.274 OA
ATOM      7  H   UNL A   1      34.247  30.017  24.819  1.00  0.00     0.163 HD
BRANCH   5   8
ATOM      8  C   UNL A   1      33.216  27.006  23.717  1.00  0.00     0.123 C 
ATOM      9  C   UNL A   1      31.669  27.145  23.743  1.00  0.00     0.228 C 
ATOM     10  C   UNL A   1      31.259  25.854  23.016  1.00  0.00     0.226 C 
ATOM     11  O   UNL A   1      32.286  25.529  22.069  1.00  0.00    -0.374 OA
ATOM     12  C   UNL A   1      33.421  26.376  22.328  1.00  0.00     0.183 C 
ATOM     13  C   UNL A   1      33.730  25.971  24.746  1.00  0.00     0.031 C 
BRANCH   9  14
ATOM     14  N   UNL A   1      31.153  28.437  23.253  1.00  0.00    -0.329 N 
ATOM     15  C   UNL A   1      29.641  29.856  23.076  1.00  0.00     0.099 C 
ATOM     16  C   UNL A   1      30.509  29.326  24.261  1.00  0.00     0.271 C 
ATOM     17  C   UNL A   1      29.859  28.418  22.526  1.00  0.00     0.271 C 
ATOM     18  H   UNL A   1      32.017  28.702  22.781  1.00  0.00     0.348 HD
BRANCH  15  19
ATOM     19  C   UNL A   1      28.190  30.261  23.277  1.00  0.00     0.012 C 
ATOM     20  C   UNL A   1      28.069  31.779  23.227  1.00  0.00     0.004 C 
ENDBRANCH  15  19
ENDBRANCH   9  14
ENDBRANCH   5   8
ENDBRANCH   3   4
ENDBRANCH   2   3
ENDBRANCH   1   2
BRANCH   1  21
ATOM     21  C   UNL A   1      35.664  31.218  28.782  1.00  0.00     0.116 C 
BRANCH  21  22
ATOM     22  N   UNL A   1      35.609  30.811  30.177  1.00  0.00    -0.352 N 
ATOM     23  C   UNL A   1      36.575  30.206  30.939  1.00  0.00     0.251 C 
ATOM     24  H   UNL A   1      34.760  30.996  30.638  1.00  0.00     0.163 HD
ATOM     25  O   UNL A   1      36.294  29.803  32.067  1.00  0.00    -0.269 OA
BRANCH  23  26
ATOM     26  C   UNL A   1      37.934  30.010  30.394  1.00  0.00     0.039 A 
ATOM     27  C   UNL A   1      38.936  29.548  31.249  1.00  0.00     0.014 A 
ATOM     28  C   UNL A   1      38.220  30.267  29.049  1.00  0.00     0.014 A 
ATOM     29  C   UNL A   1      40.211  29.293  30.742  1.00  0.00     0.010 A 
ATOM     30  C   UNL A   1      39.468  29.935  28.529  1.00  0.00     0.010 A 
ATOM     31  C   UNL A   1      40.479  29.449  29.371  1.00  0.00    -0.014 A 
BRANCH  31  32
ATOM     32  C   UNL A   1      41.806  29.075  28.819  1.00  0.00     0.031 A 
ATOM     33  C   UNL A   1      42.906  30.093  28.694  1.00  0.00     0.074 A 
ATOM     34  C   UNL A   1      42.007  27.809  28.402  1.00  0.00     0.049 A 
ATOM     35  N   UNL A   1      44.138  29.928  28.286  1.00  0.00    -0.248 NA
ATOM     36  C   UNL A   1      42.576  31.482  29.050  1.00  0.00     0.031 C 
ATOM     37  C   UNL A   1      40.991  26.752  28.398  1.00  0.00     0.029 A 
ATOM     38  N   UNL A   1      43.127  27.192  27.906  1.00  0.00    -0.354 N 
ATOM     39  C   UNL A   1      44.727  31.187  28.331  1.00  0.00     0.074 A 
ATOM     40  C   UNL A   1      43.699  32.116  28.747  1.00  0.00     0.031 C 
ATOM     41  C   UNL A   1      41.547  25.610  27.965  1.00  0.00     0.029 A 
ATOM     42  C   UNL A   1      42.944  25.858  27.628  1.00  0.00     0.049 A 
ATOM     43  H   UNL A   1      43.981  27.661  27.764  1.00  0.00     0.167 HD
ATOM     44  C   UNL A   1      46.011  31.531  28.073  1.00  0.00     0.037 A 
ATOM     45  C   UNL A   1      43.807  24.934  27.160  1.00  0.00     0.037 A 
ATOM     46  C   UNL A   1      47.029  30.594  27.667  1.00  0.00     0.049 A 
ATOM     47  C   UNL A   1      45.234  25.333  26.907  1.00  0.00     0.074 A 
ATOM     48  C   UNL A   1      48.375  30.827  27.443  1.00  0.00     0.029 A 
ATOM     49  N   UNL A   1      46.812  29.246  27.414  1.00  0.00    -0.354 N 
ATOM     50  N   UNL A   1      45.798  26.511  27.041  1.00  0.00    -0.248 NA
ATOM     51  C   UNL A   1      46.147  24.275  26.457  1.00  0.00     0.031 C 
ATOM     52  C   UNL A   1      48.959  29.636  27.000  1.00  0.00     0.029 A 
ATOM     53  C   UNL A   1      47.993  28.642  27.011  1.00  0.00     0.049 A 
ATOM     54  H   UNL A   1      45.947  28.786  27.507  1.00  0.00     0.167 HD
ATOM     55  C   UNL A   1      47.138  26.330  26.717  1.00  0.00     0.074 A 
ATOM     56  C   UNL A   1      47.302  24.926  26.400  1.00  0.00     0.031 C 
ATOM     57  C   UNL A   1      48.142  27.243  26.690  1.00  0.00     0.037 A 
BRANCH  44  58
ATOM     58  C   UNL A   1      46.388  32.982  28.216  1.00  0.00     0.058 A 
ATOM     59  C   UNL A   1      46.294  33.883  27.141  1.00  0.00     0.135 A 
ATOM     60  C   UNL A   1      46.821  33.490  29.453  1.00  0.00     0.135 A 
ATOM     61  F   UNL A   1      45.899  33.455  25.932  1.00  0.00    -0.206 F 
ATOM     62  C   UNL A   1      46.649  35.222  27.277  1.00  0.00     0.059 A 
ATOM     63  C   UNL A   1      47.150  34.833  29.621  1.00  0.00     0.059 A 
ATOM     64  F   UNL A   1      46.929  32.678  30.516  1.00  0.00    -0.206 F 
ATOM     65  C   UNL A   1      47.076  35.687  28.522  1.00  0.00     0.060 A 
BRANCH  65  66
ATOM     66  S   UNL A   1      47.534  37.426  28.681  1.00  0.00     0.124 S 
ATOM     67  O   UNL A   1      48.835  37.326  29.336  1.00  0.00    -0.237 OA
ATOM     68  O   UNL A   1      47.558  37.871  27.291  1.00  0.00    -0.237 OA
ATOM     69  O   UNL A   1      46.462  37.988  29.497  1.00  0.00    -0.744 OA
ENDBRANCH  65  66
ENDBRANCH  44  58
BRANCH  45  70
ATOM     70  C   UNL A   1      43.343  23.538  26.941  1.00  0.00     0.058 A 
ATOM     71  C   UNL A   1      43.076  23.054  25.652  1.00  0.00     0.135 A 
ATOM     72  C   UNL A   1      43.192  22.649  28.016  1.00  0.00     0.135 A 
ATOM     73  F   UNL A   1      43.202  23.866  24.590  1.00  0.00    -0.206 F 
ATOM     74  C   UNL A   1      42.663  21.742  25.436  1.00  0.00     0.059 A 
ATOM     75  C   UNL A   1      42.809  21.326  27.824  1.00  0.00     0.059 A 
ATOM     76  F   UNL A   1      43.454  23.056  29.268  1.00  0.00    -0.206 F 
ATOM     77  C   UNL A   1      42.539  20.884  26.529  1.00  0.00     0.060 A 
BRANCH  77  78
ATOM     78  S   UNL A   1      42.066  19.166  26.233  1.00  0.00     0.124 S 
ATOM     79  O   UNL A   1      42.993  18.785  25.174  1.00  0.00    -0.237 OA
ATOM     80  O   UNL A   1      42.302  18.556  27.539  1.00  0.00    -0.237 OA
ATOM     81  O   UNL A   1      40.664  19.266  25.841  1.00  0.00    -0.744 OA
ENDBRANCH  77  78
ENDBRANCH  45  70
BRANCH  57  82
ATOM     82  C   UNL A   1      49.517  26.741  26.338  1.00  0.00     0.058 A 
ATOM     83  C   UNL A   1      50.058  26.892  25.051  1.00  0.00     0.135 A 
ATOM     84  C   UNL A   1      50.311  26.110  27.310  1.00  0.00     0.135 A 
ATOM     85  F   UNL A   1      49.342  27.485  24.081  1.00  0.00    -0.206 F 
ATOM     86  C   UNL A   1      51.316  26.393  24.728  1.00  0.00     0.059 A 
ATOM     87  C   UNL A   1      51.586  25.635  27.018  1.00  0.00     0.059 A 
ATOM     88  F   UNL A   1      49.852  25.952  28.562  1.00  0.00    -0.206 F 
ATOM     89  C   UNL A   1      52.071  25.762  25.717  1.00  0.00     0.060 A 
BRANCH  89  90
ATOM     90  S   UNL A   1      53.698  25.112  25.285  1.00  0.00     0.124 S 
ATOM     91  O   UNL A   1      53.490  23.676  25.438  1.00  0.00    -0.237 OA
ATOM     92  O   UNL A   1      53.870  25.586  23.915  1.00  0.00    -0.237 OA
ATOM     93  O   UNL A   1      54.582  25.726  26.271  1.00  0.00    -0.744 OA
ENDBRANCH  89  90
ENDBRANCH  57  82
ENDBRANCH  31  32
ENDBRANCH  23  26
ENDBRANCH  21  22
ENDBRANCH   1  21
TORSDOF 16
ENDMDL
MODEL 3
REMARK VINA RESULT:     -10.8      5.953      8.786
REMARK SMILES CCC1C[NH+]([C@H]2COC[C@@]2(C)C(=O)NCCCCNC(=O)c2ccc(-c3c4nc(c(-c5c(F)cc(S(=O)(=O)[O-])cc5F)c5ccc([nH]5)c(-c5c(F)cc(S(=O)(=O)[O-])cc5F)c5nc(c(-c6c(F)cc(S(=O)(=O)[O-])cc6F)c6ccc3[nH]6)C=C5)C=C4)cc2)C1
REMARK SMILES IDX 17 1 16 2 15 3 14 4 12 5 13 6 10 8 6 9 7 10 8 11 9 12 11 13
REMARK SMILES IDX 5 14 3 15 4 16 88 17 2 19 1 20 18 21 19 22 20 23 21 25 22 26
REMARK SMILES IDX 23 27 87 28 24 29 86 30 25 31 26 32 27 33 80 34 28 35 85 36
REMARK SMILES IDX 79 37 81 38 29 39 84 40 78 41 77 42 30 44 64 45 43 46 63 47
REMARK SMILES IDX 44 48 47 49 62 50 82 51 45 52 46 53 61 55 83 56 48 57 31 58
REMARK SMILES IDX 32 59 41 60 33 61 34 62 40 63 42 64 35 65 36 66 37 67 38 68
REMARK SMILES IDX 39 69 65 70 66 71 75 72 67 73 68 74 74 75 76 76 69 77 70 78
REMARK SMILES IDX 71 79 72 80 73 81 49 82 50 83 59 84 51 85 52 86 58 87 60 88
REMARK SMILES IDX 53 89 54 90 55 91 56 92 57 93
REMARK H PARENT 14 7 5 18 19 24 81 43 47 54
REMARK Flexibility Score: inf
ROOT
ATOM      1  C   UNL A   1      33.217  27.515  26.493  1.00  0.00     0.023 C 
ENDROOT
BRANCH   1   2
ATOM      2  C   UNL A   1      31.706  27.625  26.250  1.00  0.00     0.023 C 
BRANCH   2   3
ATOM      3  C   UNL A   1      31.040  26.297  25.880  1.00  0.00     0.116 C 
BRANCH   3   4
ATOM      4  N   UNL A   1      31.492  25.260  26.781  1.00  0.00    -0.355 N 
ATOM      5  C   UNL A   1      31.607  23.917  26.597  1.00  0.00     0.234 C 
ATOM      6  O   UNL A   1      31.620  23.229  27.623  1.00  0.00    -0.274 OA
ATOM      7  H   UNL A   1      31.760  25.578  27.673  1.00  0.00     0.163 HD
BRANCH   5   8
ATOM      8  C   UNL A   1      31.751  23.286  25.205  1.00  0.00     0.123 C 
ATOM      9  C   UNL A   1      33.177  23.405  24.599  1.00  0.00     0.228 C 
ATOM     10  C   UNL A   1      33.179  22.197  23.648  1.00  0.00     0.226 C 
ATOM     11  O   UNL A   1      32.340  21.181  24.213  1.00  0.00    -0.374 OA
ATOM     12  C   UNL A   1      31.617  21.758  25.316  1.00  0.00     0.183 C 
ATOM     13  C   UNL A   1      30.655  23.751  24.218  1.00  0.00     0.031 C 
BRANCH   9  14
ATOM     14  N   UNL A   1      34.264  23.537  25.589  1.00  0.00    -0.329 N 
ATOM     15  C   UNL A   1      36.277  23.703  26.085  1.00  0.00     0.099 C 
ATOM     16  C   UNL A   1      35.253  24.627  25.355  1.00  0.00     0.271 C 
ATOM     17  C   UNL A   1      35.388  22.573  25.493  1.00  0.00     0.271 C 
ATOM     18  H   UNL A   1      33.643  23.543  26.398  1.00  0.00     0.348 HD
BRANCH  15  19
ATOM     19  C   UNL A   1      37.739  23.661  25.671  1.00  0.00     0.012 C 
ATOM     20  C   UNL A   1      38.620  24.015  26.863  1.00  0.00     0.004 C 
ENDBRANCH  15  19
ENDBRANCH   9  14
ENDBRANCH   5   8
ENDBRANCH   3   4
ENDBRANCH   2   3
ENDBRANCH   1   2
BRANCH   1  21
ATOM     21  C   UNL A   1      34.053  28.596  25.817  1.00  0.00     0.116 C 
BRANCH  21  22
ATOM     22  N   UNL A   1      33.727  29.933  26.285  1.00  0.00    -0.352 N 
ATOM     23  C   UNL A   1      34.336  30.680  27.261  1.00  0.00     0.251 C 
ATOM     24  H   UNL A   1      32.961  30.361  25.840  1.00  0.00     0.163 HD
ATOM     25  O   UNL A   1      33.825  31.739  27.621  1.00  0.00    -0.269 OA
BRANCH  23  26
ATOM     26  C   UNL A   1      35.579  30.196  27.896  1.00  0.00     0.039 A 
ATOM     27  C   UNL A   1      36.795  30.450  27.261  1.00  0.00     0.014 A 
ATOM     28  C   UNL A   1      35.550  29.506  29.113  1.00  0.00     0.014 A 
ATOM     29  C   UNL A   1      37.987  30.060  27.873  1.00  0.00     0.010 A 
ATOM     30  C   UNL A   1      36.742  29.192  29.760  1.00  0.00     0.010 A 
ATOM     31  C   UNL A   1      37.974  29.461  29.145  1.00  0.00    -0.014 A 
BRANCH  31  32
ATOM     32  C   UNL A   1      39.249  29.145  29.838  1.00  0.00     0.031 A 
ATOM     33  C   UNL A   1      39.652  29.880  31.087  1.00  0.00     0.074 A 
ATOM     34  C   UNL A   1      40.060  28.203  29.317  1.00  0.00     0.049 A 
ATOM     35  N   UNL A   1      40.701  29.696  31.848  1.00  0.00    -0.248 NA
ATOM     36  C   UNL A   1      38.781  30.981  31.527  1.00  0.00     0.031 C 
ATOM     37  C   UNL A   1      39.815  27.478  28.067  1.00  0.00     0.029 A 
ATOM     38  N   UNL A   1      41.249  27.690  29.769  1.00  0.00    -0.354 N 
ATOM     39  C   UNL A   1      40.618  30.656  32.849  1.00  0.00     0.074 A 
ATOM     40  C   UNL A   1      39.450  31.461  32.565  1.00  0.00     0.031 C 
ATOM     41  C   UNL A   1      40.798  26.585  27.876  1.00  0.00     0.029 A 
ATOM     42  C   UNL A   1      41.760  26.695  28.967  1.00  0.00     0.049 A 
ATOM     43  H   UNL A   1      41.693  28.002  30.590  1.00  0.00     0.167 HD
ATOM     44  C   UNL A   1      41.427  30.835  33.921  1.00  0.00     0.037 A 
ATOM     45  C   UNL A   1      42.876  25.951  29.098  1.00  0.00     0.037 A 
ATOM     46  C   UNL A   1      42.585  30.021  34.200  1.00  0.00     0.049 A 
ATOM     47  C   UNL A   1      43.744  26.148  30.310  1.00  0.00     0.074 A 
ATOM     48  C   UNL A   1      43.435  30.076  35.290  1.00  0.00     0.029 A 
ATOM     49  N   UNL A   1      43.062  29.010  33.375  1.00  0.00    -0.354 N 
ATOM     50  N   UNL A   1      43.602  27.002  31.296  1.00  0.00    -0.248 NA
ATOM     51  C   UNL A   1      44.913  25.269  30.436  1.00  0.00     0.031 C 
ATOM     52  C   UNL A   1      44.456  29.140  35.099  1.00  0.00     0.029 A 
ATOM     53  C   UNL A   1      44.207  28.453  33.921  1.00  0.00     0.049 A 
ATOM     54  H   UNL A   1      42.647  28.730  32.528  1.00  0.00     0.167 HD
ATOM     55  C   UNL A   1      44.649  26.745  32.175  1.00  0.00     0.074 A 
ATOM     56  C   UNL A   1      45.403  25.644  31.610  1.00  0.00     0.031 C 
ATOM     57  C   UNL A   1      44.955  27.362  33.344  1.00  0.00     0.037 A 
BRANCH  44  58
ATOM     58  C   UNL A   1      41.094  31.956  34.870  1.00  0.00     0.058 A 
ATOM     59  C   UNL A   1      41.726  33.210  34.789  1.00  0.00     0.135 A 
ATOM     60  C   UNL A   1      40.107  31.789  35.856  1.00  0.00     0.135 A 
ATOM     61  F   UNL A   1      42.686  33.426  33.877  1.00  0.00    -0.206 F 
ATOM     62  C   UNL A   1      41.418  34.240  35.672  1.00  0.00     0.059 A 
ATOM     63  C   UNL A   1      39.759  32.817  36.728  1.00  0.00     0.059 A 
ATOM     64  F   UNL A   1      39.468  30.615  35.980  1.00  0.00    -0.206 F 
ATOM     65  C   UNL A   1      40.433  34.034  36.639  1.00  0.00     0.060 A 
BRANCH  65  66
ATOM     66  S   UNL A   1      40.047  35.381  37.777  1.00  0.00     0.124 S 
ATOM     67  O   UNL A   1      39.675  36.447  36.851  1.00  0.00    -0.237 OA
ATOM     68  O   UNL A   1      38.955  34.819  38.566  1.00  0.00    -0.237 OA
ATOM     69  O   UNL A   1      41.298  35.587  38.500  1.00  0.00    -0.744 OA
ENDBRANCH  65  66
ENDBRANCH  44  58
BRANCH  45  70
ATOM     70  C   UNL A   1      43.204  24.928  28.069  1.00  0.00     0.058 A 
ATOM     71  C   UNL A   1      44.042  25.230  26.985  1.00  0.00     0.135 A 
ATOM     72  C   UNL A   1      42.712  23.618  28.169  1.00  0.00     0.135 A 
ATOM     73  F   UNL A   1      44.535  26.470  26.843  1.00  0.00    -0.206 F 
ATOM     74  C   UNL A   1      44.372  24.273  26.030  1.00  0.00     0.059 A 
ATOM     75  C   UNL A   1      43.050  22.637  27.243  1.00  0.00     0.059 A 
ATOM     76  F   UNL A   1      41.922  23.272  29.197  1.00  0.00    -0.206 F 
ATOM     77  C   UNL A   1      43.876  22.977  26.172  1.00  0.00     0.060 A 
BRANCH  77  78
ATOM     78  S   UNL A   1      44.362  21.725  24.964  1.00  0.00     0.124 S 
ATOM     79  O   UNL A   1      45.750  21.480  25.337  1.00  0.00    -0.237 OA
ATOM     80  O   UNL A   1      43.423  20.644  25.250  1.00  0.00    -0.237 OA
ATOM     81  O   UNL A   1      44.160  22.397  23.684  1.00  0.00    -0.744 OA
ENDBRANCH  77  78
ENDBRANCH  45  70
BRANCH  57  82
ATOM     82  C   UNL A   1      46.139  26.834  34.110  1.00  0.00     0.058 A 
ATOM     83  C   UNL A   1      46.019  25.787  35.038  1.00  0.00     0.135 A 
ATOM     84  C   UNL A   1      47.417  27.379  33.901  1.00  0.00     0.135 A 
ATOM     85  F   UNL A   1      44.822  25.230  35.279  1.00  0.00    -0.206 F 
ATOM     86  C   UNL A   1      47.115  25.331  35.765  1.00  0.00     0.059 A 
ATOM     87  C   UNL A   1      48.533  26.915  34.592  1.00  0.00     0.059 A 
ATOM     88  F   UNL A   1      47.594  28.372  33.015  1.00  0.00    -0.206 F 
ATOM     89  C   UNL A   1      48.367  25.905  35.538  1.00  0.00     0.060 A 
BRANCH  89  90
ATOM     90  S   UNL A   1      49.779  25.311  36.493  1.00  0.00     0.124 S 
ATOM     91  O   UNL A   1      50.237  24.194  35.675  1.00  0.00    -0.237 OA
ATOM     92  O   UNL A   1      50.653  26.481  36.516  1.00  0.00    -0.237 OA
ATOM     93  O   UNL A   1      49.192  24.949  37.779  1.00  0.00    -0.744 OA
ENDBRANCH  89  90
ENDBRANCH  57  82
ENDBRANCH  31  32
ENDBRANCH  23  26
ENDBRANCH  21  22
ENDBRANCH   1  21
TORSDOF 16
ENDMDL
