MODEL 1
REMARK VINA RESULT:     -10.2      0.000      0.000
REMARK SMILES O=C(NCCCCNC(=O)c1cccc(OCC(F)F)c1)c1ccc(-c2c3nc(c(-c4c(F)cc(S(=O)(=O)[O-])cc4F)c4ccc([nH]4)c(-c4c(F)cc(S(=O)(=O)[O-])cc4F)c4nc(c(-c5c(F)cc(S(=O)(=O)[O-])cc5F)c5ccc2[nH]5)C=C4)C=C3)cc1
REMARK SMILES IDX 5 1 4 2 3 3 1 4 2 5 22 7 23 8 87 9 24 10 86 11 25 12 26 13
REMARK SMILES IDX 27 14 80 15 28 16 85 17 79 18 81 19 29 20 84 21 78 22 77 23
REMARK SMILES IDX 30 25 64 26 43 27 63 28 44 29 47 30 62 31 82 32 45 33 46 34
REMARK SMILES IDX 61 36 83 37 48 38 31 39 32 40 41 41 33 42 34 43 40 44 42 45
REMARK SMILES IDX 35 46 36 47 37 48 38 49 39 50 65 51 66 52 75 53 67 54 68 55
REMARK SMILES IDX 74 56 76 57 69 58 70 59 71 60 72 61 73 62 49 63 50 64 59 65
REMARK SMILES IDX 51 66 52 67 58 68 60 69 53 70 54 71 55 72 56 73 57 74 6 75
REMARK SMILES IDX 7 76 8 77 9 78 10 80 11 81 12 82 21 83 13 84 15 85 14 86
REMARK SMILES IDX 16 87 17 88 18 89 19 90 20 91
REMARK H PARENT 3 6 81 24 47 35 8 79
REMARK Flexibility Score: inf
ROOT
ATOM      1  C   UNL A   1      33.545  27.896  25.760  1.00  0.00     0.023 C 
ENDROOT
BRANCH   1   2
ATOM      2  C   UNL A   1      33.726  28.224  27.236  1.00  0.00     0.116 C 
BRANCH   2   3
ATOM      3  N   UNL A   1      33.559  29.642  27.517  1.00  0.00    -0.352 N 
ATOM      4  O   UNL A   1      34.078  31.647  28.408  1.00  0.00    -0.269 OA
ATOM      5  C   UNL A   1      34.452  30.525  28.078  1.00  0.00     0.251 C 
ATOM      6  H   UNL A   1      32.685  30.022  27.272  1.00  0.00     0.163 HD
BRANCH   5   7
ATOM      7  C   UNL A   1      35.858  30.116  28.297  1.00  0.00     0.039 A 
ATOM      8  C   UNL A   1      36.794  30.207  27.265  1.00  0.00     0.014 A 
ATOM      9  C   UNL A   1      36.249  29.658  29.559  1.00  0.00     0.014 A 
ATOM     10  C   UNL A   1      38.085  29.726  27.454  1.00  0.00     0.010 A 
ATOM     11  C   UNL A   1      37.572  29.253  29.773  1.00  0.00     0.010 A 
ATOM     12  C   UNL A   1      38.495  29.270  28.717  1.00  0.00    -0.014 A 
BRANCH  12  13
ATOM     13  C   UNL A   1      39.926  28.937  28.938  1.00  0.00     0.031 A 
ATOM     14  C   UNL A   1      40.495  27.603  28.544  1.00  0.00     0.074 A 
ATOM     15  C   UNL A   1      40.710  29.872  29.513  1.00  0.00     0.049 A 
ATOM     16  N   UNL A   1      41.717  27.161  28.688  1.00  0.00    -0.248 NA
ATOM     17  C   UNL A   1      39.580  26.639  27.913  1.00  0.00     0.031 C 
ATOM     18  C   UNL A   1      40.253  31.192  29.963  1.00  0.00     0.029 A 
ATOM     19  N   UNL A   1      42.045  29.864  29.821  1.00  0.00    -0.354 N 
ATOM     20  C   UNL A   1      41.718  25.864  28.191  1.00  0.00     0.074 A 
ATOM     21  C   UNL A   1      40.370  25.583  27.746  1.00  0.00     0.031 C 
ATOM     22  C   UNL A   1      41.292  31.871  30.467  1.00  0.00     0.029 A 
ATOM     23  C   UNL A   1      42.474  31.018  30.434  1.00  0.00     0.049 A 
ATOM     24  H   UNL A   1      42.641  29.107  29.620  1.00  0.00     0.167 HD
ATOM     25  C   UNL A   1      42.754  24.994  28.115  1.00  0.00     0.037 A 
ATOM     26  C   UNL A   1      43.673  31.344  30.951  1.00  0.00     0.037 A 
ATOM     27  C   UNL A   1      44.099  25.300  28.534  1.00  0.00     0.049 A 
ATOM     28  C   UNL A   1      44.794  30.349  30.866  1.00  0.00     0.074 A 
ATOM     29  C   UNL A   1      45.236  24.518  28.407  1.00  0.00     0.029 A 
ATOM     30  N   UNL A   1      44.488  26.468  29.170  1.00  0.00    -0.354 N 
ATOM     31  N   UNL A   1      44.793  29.157  30.321  1.00  0.00    -0.248 NA
ATOM     32  C   UNL A   1      46.073  30.737  31.475  1.00  0.00     0.031 C 
ATOM     33  C   UNL A   1      46.301  25.191  29.014  1.00  0.00     0.029 A 
ATOM     34  C   UNL A   1      45.838  26.411  29.482  1.00  0.00     0.049 A 
ATOM     35  H   UNL A   1      43.894  27.227  29.371  1.00  0.00     0.167 HD
ATOM     36  C   UNL A   1      46.070  28.649  30.523  1.00  0.00     0.074 A 
ATOM     37  C   UNL A   1      46.825  29.676  31.212  1.00  0.00     0.031 C 
ATOM     38  C   UNL A   1      46.569  27.438  30.179  1.00  0.00     0.037 A 
BRANCH  25  39
ATOM     39  C   UNL A   1      42.498  23.617  27.568  1.00  0.00     0.058 A 
ATOM     40  C   UNL A   1      42.519  23.354  26.191  1.00  0.00     0.135 A 
ATOM     41  C   UNL A   1      42.349  22.527  28.443  1.00  0.00     0.135 A 
ATOM     42  F   UNL A   1      42.647  24.360  25.312  1.00  0.00    -0.206 F 
ATOM     43  C   UNL A   1      42.406  22.056  25.698  1.00  0.00     0.059 A 
ATOM     44  C   UNL A   1      42.252  21.220  27.973  1.00  0.00     0.059 A 
ATOM     45  F   UNL A   1      42.322  22.726  29.770  1.00  0.00    -0.206 F 
ATOM     46  C   UNL A   1      42.280  20.995  26.597  1.00  0.00     0.060 A 
BRANCH  46  47
ATOM     47  S   UNL A   1      42.192  19.314  25.943  1.00  0.00     0.124 S 
ATOM     48  O   UNL A   1      40.763  19.178  25.682  1.00  0.00    -0.237 OA
ATOM     49  O   UNL A   1      43.047  19.393  24.763  1.00  0.00    -0.237 OA
ATOM     50  O   UNL A   1      42.711  18.495  27.035  1.00  0.00    -0.744 OA
ENDBRANCH  46  47
ENDBRANCH  25  39
BRANCH  26  51
ATOM     51  C   UNL A   1      43.855  32.648  31.638  1.00  0.00     0.058 A 
ATOM     52  C   UNL A   1      43.625  32.786  33.013  1.00  0.00     0.135 A 
ATOM     53  C   UNL A   1      44.263  33.786  30.923  1.00  0.00     0.135 A 
ATOM     54  F   UNL A   1      43.231  31.727  33.737  1.00  0.00    -0.206 F 
ATOM     55  C   UNL A   1      43.772  34.011  33.655  1.00  0.00     0.059 A 
ATOM     56  C   UNL A   1      44.445  35.015  31.547  1.00  0.00     0.059 A 
ATOM     57  F   UNL A   1      44.515  33.701  29.607  1.00  0.00    -0.206 F 
ATOM     58  C   UNL A   1      44.179  35.121  32.911  1.00  0.00     0.060 A 
BRANCH  58  59
ATOM     59  S   UNL A   1      44.390  36.705  33.752  1.00  0.00     0.124 S 
ATOM     60  O   UNL A   1      45.186  36.316  34.909  1.00  0.00    -0.237 OA
ATOM     61  O   UNL A   1      45.079  37.503  32.742  1.00  0.00    -0.237 OA
ATOM     62  O   UNL A   1      43.019  37.116  34.036  1.00  0.00    -0.744 OA
ENDBRANCH  58  59
ENDBRANCH  26  51
BRANCH  38  63
ATOM     63  C   UNL A   1      47.997  27.157  30.549  1.00  0.00     0.058 A 
ATOM     64  C   UNL A   1      48.318  26.443  31.714  1.00  0.00     0.135 A 
ATOM     65  C   UNL A   1      49.049  27.566  29.716  1.00  0.00     0.135 A 
ATOM     66  F   UNL A   1      47.346  26.041  32.550  1.00  0.00    -0.206 F 
ATOM     67  C   UNL A   1      49.636  26.157  32.049  1.00  0.00     0.059 A 
ATOM     68  C   UNL A   1      50.373  27.270  30.018  1.00  0.00     0.059 A 
ATOM     69  F   UNL A   1      48.792  28.248  28.587  1.00  0.00    -0.206 F 
ATOM     70  C   UNL A   1      50.657  26.573  31.192  1.00  0.00     0.060 A 
BRANCH  70  71
ATOM     71  S   UNL A   1      52.363  26.162  31.618  1.00  0.00     0.124 S 
ATOM     72  O   UNL A   1      52.996  26.139  30.305  1.00  0.00    -0.237 OA
ATOM     73  O   UNL A   1      52.744  27.270  32.488  1.00  0.00    -0.237 OA
ATOM     74  O   UNL A   1      52.243  24.866  32.281  1.00  0.00    -0.744 OA
ENDBRANCH  70  71
ENDBRANCH  38  63
ENDBRANCH  12  13
ENDBRANCH   5   7
ENDBRANCH   2   3
ENDBRANCH   1   2
BRANCH   1  75
ATOM     75  C   UNL A   1      33.871  26.456  25.373  1.00  0.00     0.023 C 
BRANCH  75  76
ATOM     76  C   UNL A   1      32.687  25.624  24.892  1.00  0.00     0.116 C 
BRANCH  76  77
ATOM     77  N   UNL A   1      32.677  25.407  23.455  1.00  0.00    -0.352 N 
ATOM     78  C   UNL A   1      33.261  24.390  22.738  1.00  0.00     0.251 C 
ATOM     79  H   UNL A   1      32.187  26.077  22.924  1.00  0.00     0.163 HD
ATOM     80  O   UNL A   1      33.240  24.392  21.512  1.00  0.00    -0.269 OA
BRANCH  78  81
ATOM     81  C   UNL A   1      33.950  23.299  23.454  1.00  0.00     0.043 A 
ATOM     82  C   UNL A   1      33.177  22.301  24.050  1.00  0.00     0.014 A 
ATOM     83  C   UNL A   1      35.351  23.260  23.522  1.00  0.00     0.060 A 
ATOM     84  C   UNL A   1      33.811  21.225  24.667  1.00  0.00     0.005 A 
ATOM     85  C   UNL A   1      35.986  22.168  24.106  1.00  0.00     0.120 A 
ATOM     86  C   UNL A   1      35.207  21.157  24.682  1.00  0.00     0.046 A 
BRANCH  85  87
ATOM     87  O   UNL A   1      37.335  21.959  24.174  1.00  0.00    -0.488 OA
BRANCH  87  88
ATOM     88  C   UNL A   1      37.919  21.634  25.441  1.00  0.00     0.302 C 
BRANCH  88  89
ATOM     89  C   UNL A   1      38.728  22.784  26.025  1.00  0.00     0.379 C 
ATOM     90  F   UNL A   1      37.915  23.815  26.368  1.00  0.00    -0.207 F 
ATOM     91  F   UNL A   1      39.323  22.378  27.177  1.00  0.00    -0.207 F 
ENDBRANCH  88  89
ENDBRANCH  87  88
ENDBRANCH  85  87
ENDBRANCH  78  81
ENDBRANCH  76  77
ENDBRANCH  75  76
ENDBRANCH   1  75
TORSDOF 17
ENDMDL
MODEL 2
REMARK VINA RESULT:     -10.0      5.301     10.570
REMARK SMILES O=C(NCCCCNC(=O)c1cccc(OCC(F)F)c1)c1ccc(-c2c3nc(c(-c4c(F)cc(S(=O)(=O)[O-])cc4F)c4ccc([nH]4)c(-c4c(F)cc(S(=O)(=O)[O-])cc4F)c4nc(c(-c5c(F)cc(S(=O)(=O)[O-])cc5F)c5ccc2[nH]5)C=C4)C=C3)cc1
REMARK SMILES IDX 5 1 4 2 3 3 1 4 2 5 22 7 23 8 87 9 24 10 86 11 25 12 26 13
REMARK SMILES IDX 27 14 80 15 28 16 85 17 79 18 81 19 29 20 84 21 78 22 77 23
REMARK SMILES IDX 30 25 64 26 43 27 63 28 44 29 47 30 62 31 82 32 45 33 46 34
REMARK SMILES IDX 61 36 83 37 48 38 31 39 32 40 41 41 33 42 34 43 40 44 42 45
REMARK SMILES IDX 35 46 36 47 37 48 38 49 39 50 65 51 66 52 75 53 67 54 68 55
REMARK SMILES IDX 74 56 76 57 69 58 70 59 71 60 72 61 73 62 49 63 50 64 59 65
REMARK SMILES IDX 51 66 52 67 58 68 60 69 53 70 54 71 55 72 56 73 57 74 6 75
REMARK SMILES IDX 7 76 8 77 9 78 10 80 11 81 12 82 21 83 13 84 15 85 14 86
REMARK SMILES IDX 16 87 17 88 18 89 19 90 20 91
REMARK H PARENT 3 6 81 24 47 35 8 79
REMARK Flexibility Score: inf
ROOT
ATOM      1  C   UNL A   1      42.365  22.528  28.204  1.00  0.00     0.023 C 
ENDROOT
BRANCH   1   2
ATOM      2  C   UNL A   1      41.042  23.064  27.675  1.00  0.00     0.116 C 
BRANCH   2   3
ATOM      3  N   UNL A   1      41.199  23.834  26.451  1.00  0.00    -0.352 N 
ATOM      4  O   UNL A   1      41.099  25.657  25.129  1.00  0.00    -0.269 OA
ATOM      5  C   UNL A   1      41.117  25.194  26.267  1.00  0.00     0.251 C 
ATOM      6  H   UNL A   1      41.392  23.308  25.642  1.00  0.00     0.163 HD
BRANCH   5   7
ATOM      7  C   UNL A   1      41.034  26.096  27.438  1.00  0.00     0.039 A 
ATOM      8  C   UNL A   1      42.019  27.060  27.664  1.00  0.00     0.014 A 
ATOM      9  C   UNL A   1      39.944  25.991  28.308  1.00  0.00     0.014 A 
ATOM     10  C   UNL A   1      41.983  27.831  28.821  1.00  0.00     0.010 A 
ATOM     11  C   UNL A   1      39.865  26.827  29.427  1.00  0.00     0.010 A 
ATOM     12  C   UNL A   1      40.891  27.743  29.700  1.00  0.00    -0.014 A 
BRANCH  12  13
ATOM     13  C   UNL A   1      40.787  28.706  30.825  1.00  0.00     0.031 A 
ATOM     14  C   UNL A   1      41.656  28.589  32.046  1.00  0.00     0.074 A 
ATOM     15  C   UNL A   1      39.879  29.698  30.725  1.00  0.00     0.049 A 
ATOM     16  N   UNL A   1      41.669  29.342  33.115  1.00  0.00    -0.248 NA
ATOM     17  C   UNL A   1      42.629  27.486  32.079  1.00  0.00     0.031 C 
ATOM     18  C   UNL A   1      38.963  29.888  29.595  1.00  0.00     0.029 A 
ATOM     19  N   UNL A   1      39.571  30.729  31.574  1.00  0.00    -0.354 N 
ATOM     20  C   UNL A   1      42.629  28.797  33.958  1.00  0.00     0.074 A 
ATOM     21  C   UNL A   1      43.176  27.641  33.281  1.00  0.00     0.031 C 
ATOM     22  C   UNL A   1      38.214  30.978  29.811  1.00  0.00     0.029 A 
ATOM     23  C   UNL A   1      38.550  31.529  31.118  1.00  0.00     0.049 A 
ATOM     24  H   UNL A   1      40.037  30.882  32.427  1.00  0.00     0.167 HD
ATOM     25  C   UNL A   1      43.015  29.230  35.182  1.00  0.00     0.037 A 
ATOM     26  C   UNL A   1      37.923  32.568  31.700  1.00  0.00     0.037 A 
ATOM     27  C   UNL A   1      42.483  30.402  35.831  1.00  0.00     0.049 A 
ATOM     28  C   UNL A   1      38.364  33.009  33.065  1.00  0.00     0.074 A 
ATOM     29  C   UNL A   1      42.879  30.974  37.029  1.00  0.00     0.029 A 
ATOM     30  N   UNL A   1      41.436  31.172  35.349  1.00  0.00    -0.354 N 
ATOM     31  N   UNL A   1      39.327  32.527  33.812  1.00  0.00    -0.248 NA
ATOM     32  C   UNL A   1      37.626  34.124  33.673  1.00  0.00     0.031 C 
ATOM     33  C   UNL A   1      42.037  32.058  37.297  1.00  0.00     0.029 A 
ATOM     34  C   UNL A   1      41.143  32.188  36.246  1.00  0.00     0.049 A 
ATOM     35  H   UNL A   1      40.969  31.020  34.496  1.00  0.00     0.167 HD
ATOM     36  C   UNL A   1      39.312  33.279  34.979  1.00  0.00     0.074 A 
ATOM     37  C   UNL A   1      38.263  34.267  34.827  1.00  0.00     0.031 C 
ATOM     38  C   UNL A   1      40.088  33.155  36.083  1.00  0.00     0.037 A 
BRANCH  25  39
ATOM     39  C   UNL A   1      44.057  28.442  35.927  1.00  0.00     0.058 A 
ATOM     40  C   UNL A   1      43.716  27.360  36.751  1.00  0.00     0.135 A 
ATOM     41  C   UNL A   1      45.423  28.700  35.715  1.00  0.00     0.135 A 
ATOM     42  F   UNL A   1      42.427  27.077  36.996  1.00  0.00    -0.206 F 
ATOM     43  C   UNL A   1      44.691  26.558  37.337  1.00  0.00     0.059 A 
ATOM     44  C   UNL A   1      46.414  27.901  36.276  1.00  0.00     0.059 A 
ATOM     45  F   UNL A   1      45.802  29.724  34.935  1.00  0.00    -0.206 F 
ATOM     46  C   UNL A   1      46.037  26.831  37.088  1.00  0.00     0.060 A 
BRANCH  46  47
ATOM     47  S   UNL A   1      47.288  25.746  37.810  1.00  0.00     0.124 S 
ATOM     48  O   UNL A   1      46.710  25.467  39.120  1.00  0.00    -0.237 OA
ATOM     49  O   UNL A   1      47.307  24.626  36.875  1.00  0.00    -0.237 OA
ATOM     50  O   UNL A   1      48.492  26.571  37.819  1.00  0.00    -0.744 OA
ENDBRANCH  46  47
ENDBRANCH  25  39
BRANCH  26  51
ATOM     51  C   UNL A   1      36.782  33.224  31.013  1.00  0.00     0.058 A 
ATOM     52  C   UNL A   1      35.457  32.954  31.381  1.00  0.00     0.135 A 
ATOM     53  C   UNL A   1      36.999  34.138  29.969  1.00  0.00     0.135 A 
ATOM     54  F   UNL A   1      35.199  32.085  32.370  1.00  0.00    -0.206 F 
ATOM     55  C   UNL A   1      34.385  33.548  30.724  1.00  0.00     0.059 A 
ATOM     56  C   UNL A   1      35.945  34.767  29.317  1.00  0.00     0.059 A 
ATOM     57  F   UNL A   1      38.251  34.446  29.593  1.00  0.00    -0.206 F 
ATOM     58  C   UNL A   1      34.640  34.452  29.690  1.00  0.00     0.060 A 
BRANCH  58  59
ATOM     59  S   UNL A   1      33.246  35.239  28.854  1.00  0.00     0.124 S 
ATOM     60  O   UNL A   1      33.926  36.214  28.010  1.00  0.00    -0.237 OA
ATOM     61  O   UNL A   1      32.627  34.115  28.158  1.00  0.00    -0.237 OA
ATOM     62  O   UNL A   1      32.465  35.790  29.957  1.00  0.00    -0.744 OA
ENDBRANCH  58  59
ENDBRANCH  26  51
BRANCH  38  63
ATOM     63  C   UNL A   1      39.827  34.108  37.213  1.00  0.00     0.058 A 
ATOM     64  C   UNL A   1      39.027  33.737  38.305  1.00  0.00     0.135 A 
ATOM     65  C   UNL A   1      40.410  35.383  37.227  1.00  0.00     0.135 A 
ATOM     66  F   UNL A   1      38.436  32.531  38.331  1.00  0.00    -0.206 F 
ATOM     67  C   UNL A   1      38.802  34.605  39.366  1.00  0.00     0.059 A 
ATOM     68  C   UNL A   1      40.219  36.259  38.290  1.00  0.00     0.059 A 
ATOM     69  F   UNL A   1      41.188  35.782  36.207  1.00  0.00    -0.206 F 
ATOM     70  C   UNL A   1      39.405  35.864  39.351  1.00  0.00     0.060 A 
BRANCH  70  71
ATOM     71  S   UNL A   1      39.137  36.968  40.754  1.00  0.00     0.124 S 
ATOM     72  O   UNL A   1      40.501  37.371  41.076  1.00  0.00    -0.237 OA
ATOM     73  O   UNL A   1      38.288  38.006  40.178  1.00  0.00    -0.237 OA
ATOM     74  O   UNL A   1      38.485  36.110  41.740  1.00  0.00    -0.744 OA
ENDBRANCH  70  71
ENDBRANCH  38  63
ENDBRANCH  12  13
ENDBRANCH   5   7
ENDBRANCH   2   3
ENDBRANCH   1   2
BRANCH   1  75
ATOM     75  C   UNL A   1      43.312  23.585  28.767  1.00  0.00     0.023 C 
BRANCH  75  76
ATOM     76  C   UNL A   1      44.662  23.693  28.066  1.00  0.00     0.116 C 
BRANCH  76  77
ATOM     77  N   UNL A   1      44.633  24.528  26.876  1.00  0.00    -0.352 N 
ATOM     78  C   UNL A   1      44.795  24.154  25.564  1.00  0.00     0.251 C 
ATOM     79  H   UNL A   1      44.477  25.488  27.031  1.00  0.00     0.163 HD
ATOM     80  O   UNL A   1      44.833  24.994  24.671  1.00  0.00    -0.269 OA
BRANCH  78  81
ATOM     81  C   UNL A   1      44.956  22.725  25.230  1.00  0.00     0.043 A 
ATOM     82  C   UNL A   1      46.245  22.233  25.017  1.00  0.00     0.014 A 
ATOM     83  C   UNL A   1      43.840  21.880  25.142  1.00  0.00     0.060 A 
ATOM     84  C   UNL A   1      46.423  20.874  24.773  1.00  0.00     0.005 A 
ATOM     85  C   UNL A   1      44.019  20.516  24.934  1.00  0.00     0.120 A 
ATOM     86  C   UNL A   1      45.315  20.022  24.744  1.00  0.00     0.046 A 
BRANCH  85  87
ATOM     87  O   UNL A   1      43.035  19.568  24.903  1.00  0.00    -0.488 OA
BRANCH  87  88
ATOM     88  C   UNL A   1      42.430  19.161  26.136  1.00  0.00     0.302 C 
BRANCH  88  89
ATOM     89  C   UNL A   1      41.025  19.721  26.313  1.00  0.00     0.379 C 
ATOM     90  F   UNL A   1      40.110  18.911  25.722  1.00  0.00    -0.207 F 
ATOM     91  F   UNL A   1      40.710  19.741  27.634  1.00  0.00    -0.207 F 
ENDBRANCH  88  89
ENDBRANCH  87  88
ENDBRANCH  85  87
ENDBRANCH  78  81
ENDBRANCH  76  77
ENDBRANCH  75  76
ENDBRANCH   1  75
TORSDOF 17
ENDMDL
MODEL 3
REMARK VINA RESULT:     -10.0      2.910      6.304
REMARK SMILES O=C(NCCCCNC(=O)c1cccc(OCC(F)F)c1)c1ccc(-c2c3nc(c(-c4c(F)cc(S(=O)(=O)[O-])cc4F)c4ccc([nH]4)c(-c4c(F)cc(S(=O)(=O)[O-])cc4F)c4nc(c(-c5c(F)cc(S(=O)(=O)[O-])cc5F)c5ccc2[nH]5)C=C4)C=C3)cc1
REMARK SMILES IDX 5 1 4 2 3 3 1 4 2 5 22 7 23 8 87 9 24 10 86 11 25 12 26 13
REMARK SMILES IDX 27 14 80 15 28 16 85 17 79 18 81 19 29 20 84 21 78 22 77 23
REMARK SMILES IDX 30 25 64 26 43 27 63 28 44 29 47 30 62 31 82 32 45 33 46 34
REMARK SMILES IDX 61 36 83 37 48 38 31 39 32 40 41 41 33 42 34 43 40 44 42 45
REMARK SMILES IDX 35 46 36 47 37 48 38 49 39 50 65 51 66 52 75 53 67 54 68 55
REMARK SMILES IDX 74 56 76 57 69 58 70 59 71 60 72 61 73 62 49 63 50 64 59 65
REMARK SMILES IDX 51 66 52 67 58 68 60 69 53 70 54 71 55 72 56 73 57 74 6 75
REMARK SMILES IDX 7 76 8 77 9 78 10 80 11 81 12 82 21 83 13 84 15 85 14 86
REMARK SMILES IDX 16 87 17 88 18 89 19 90 20 91
REMARK H PARENT 3 6 81 24 47 35 8 79
REMARK Flexibility Score: inf
ROOT
ATOM      1  C   UNL A   1      34.209  34.028  28.310  1.00  0.00     0.023 C 
ENDROOT
BRANCH   1   2
ATOM      2  C   UNL A   1      34.597  32.714  28.975  1.00  0.00     0.116 C 
BRANCH   2   3
ATOM      3  N   UNL A   1      33.850  31.580  28.450  1.00  0.00    -0.352 N 
ATOM      4  O   UNL A   1      33.561  29.579  27.453  1.00  0.00    -0.269 OA
ATOM      5  C   UNL A   1      34.314  30.353  28.038  1.00  0.00     0.251 C 
ATOM      6  H   UNL A   1      32.877  31.710  28.381  1.00  0.00     0.163 HD
BRANCH   5   7
ATOM      7  C   UNL A   1      35.724  29.974  28.284  1.00  0.00     0.039 A 
ATOM      8  C   UNL A   1      36.689  30.137  27.287  1.00  0.00     0.014 A 
ATOM      9  C   UNL A   1      36.089  29.472  29.537  1.00  0.00     0.014 A 
ATOM     10  C   UNL A   1      37.986  29.684  27.497  1.00  0.00     0.010 A 
ATOM     11  C   UNL A   1      37.415  29.095  29.775  1.00  0.00     0.010 A 
ATOM     12  C   UNL A   1      38.370  29.184  28.752  1.00  0.00    -0.014 A 
BRANCH  12  13
ATOM     13  C   UNL A   1      39.802  28.881  29.004  1.00  0.00     0.031 A 
ATOM     14  C   UNL A   1      40.414  27.570  28.599  1.00  0.00     0.074 A 
ATOM     15  C   UNL A   1      40.548  29.823  29.617  1.00  0.00     0.049 A 
ATOM     16  N   UNL A   1      41.643  27.155  28.767  1.00  0.00    -0.248 NA
ATOM     17  C   UNL A   1      39.540  26.596  27.926  1.00  0.00     0.031 C 
ATOM     18  C   UNL A   1      40.047  31.122  30.080  1.00  0.00     0.029 A 
ATOM     19  N   UNL A   1      41.875  29.841  29.959  1.00  0.00    -0.354 N 
ATOM     20  C   UNL A   1      41.689  25.867  28.245  1.00  0.00     0.074 A 
ATOM     21  C   UNL A   1      40.360  25.563  27.759  1.00  0.00     0.031 C 
ATOM     22  C   UNL A   1      41.056  31.816  30.625  1.00  0.00     0.029 A 
ATOM     23  C   UNL A   1      42.259  30.993  30.607  1.00  0.00     0.049 A 
ATOM     24  H   UNL A   1      42.494  29.103  29.760  1.00  0.00     0.167 HD
ATOM     25  C   UNL A   1      42.747  25.025  28.179  1.00  0.00     0.037 A 
ATOM     26  C   UNL A   1      43.436  31.336  31.161  1.00  0.00     0.037 A 
ATOM     27  C   UNL A   1      44.073  25.354  28.639  1.00  0.00     0.049 A 
ATOM     28  C   UNL A   1      44.583  30.371  31.086  1.00  0.00     0.074 A 
ATOM     29  C   UNL A   1      45.231  24.603  28.527  1.00  0.00     0.029 A 
ATOM     30  N   UNL A   1      44.417  26.519  29.308  1.00  0.00    -0.354 N 
ATOM     31  N   UNL A   1      44.625  29.190  30.519  1.00  0.00    -0.248 NA
ATOM     32  C   UNL A   1      45.836  30.777  31.736  1.00  0.00     0.031 C 
ATOM     33  C   UNL A   1      46.263  25.289  29.175  1.00  0.00     0.029 A 
ATOM     34  C   UNL A   1      45.759  26.488  29.654  1.00  0.00     0.049 A 
ATOM     35  H   UNL A   1      43.799  27.259  29.508  1.00  0.00     0.167 HD
ATOM     36  C   UNL A   1      45.908  28.710  30.744  1.00  0.00     0.074 A 
ATOM     37  C   UNL A   1      46.620  29.741  31.473  1.00  0.00     0.031 C 
ATOM     38  C   UNL A   1      46.446  27.518  30.390  1.00  0.00     0.037 A 
BRANCH  25  39
ATOM     39  C   UNL A   1      42.539  23.654  27.599  1.00  0.00     0.058 A 
ATOM     40  C   UNL A   1      42.658  23.407  26.223  1.00  0.00     0.135 A 
ATOM     41  C   UNL A   1      42.337  22.551  28.448  1.00  0.00     0.135 A 
ATOM     42  F   UNL A   1      42.840  24.425  25.368  1.00  0.00    -0.206 F 
ATOM     43  C   UNL A   1      42.588  22.116  25.708  1.00  0.00     0.059 A 
ATOM     44  C   UNL A   1      42.283  21.250  27.957  1.00  0.00     0.059 A 
ATOM     45  F   UNL A   1      42.216  22.733  29.772  1.00  0.00    -0.206 F 
ATOM     46  C   UNL A   1      42.408  21.043  26.584  1.00  0.00     0.060 A 
BRANCH  46  47
ATOM     47  S   UNL A   1      42.377  19.369  25.905  1.00  0.00     0.124 S 
ATOM     48  O   UNL A   1      40.953  19.187  25.642  1.00  0.00    -0.237 OA
ATOM     49  O   UNL A   1      43.227  19.495  24.726  1.00  0.00    -0.237 OA
ATOM     50  O   UNL A   1      42.924  18.552  26.984  1.00  0.00    -0.744 OA
ENDBRANCH  46  47
ENDBRANCH  25  39
BRANCH  26  51
ATOM     51  C   UNL A   1      43.568  32.631  31.877  1.00  0.00     0.058 A 
ATOM     52  C   UNL A   1      43.985  33.792  31.214  1.00  0.00     0.135 A 
ATOM     53  C   UNL A   1      43.277  32.727  33.248  1.00  0.00     0.135 A 
ATOM     54  F   UNL A   1      44.277  33.749  29.905  1.00  0.00    -0.206 F 
ATOM     55  C   UNL A   1      44.131  35.001  31.887  1.00  0.00     0.059 A 
ATOM     56  C   UNL A   1      43.388  33.929  33.936  1.00  0.00     0.059 A 
ATOM     57  F   UNL A   1      42.854  31.647  33.924  1.00  0.00    -0.206 F 
ATOM     58  C   UNL A   1      43.833  35.057  33.250  1.00  0.00     0.060 A 
BRANCH  58  59
ATOM     59  S   UNL A   1      44.004  36.632  34.116  1.00  0.00     0.124 S 
ATOM     60  O   UNL A   1      42.643  37.151  34.046  1.00  0.00    -0.237 OA
ATOM     61  O   UNL A   1      44.459  36.213  35.438  1.00  0.00    -0.237 OA
ATOM     62  O   UNL A   1      44.996  37.346  33.318  1.00  0.00    -0.744 OA
ENDBRANCH  58  59
ENDBRANCH  26  51
BRANCH  38  63
ATOM     63  C   UNL A   1      47.870  27.264  30.792  1.00  0.00     0.058 A 
ATOM     64  C   UNL A   1      48.179  26.589  31.983  1.00  0.00     0.135 A 
ATOM     65  C   UNL A   1      48.932  27.660  29.964  1.00  0.00     0.135 A 
ATOM     66  F   UNL A   1      47.198  26.202  32.814  1.00  0.00    -0.206 F 
ATOM     67  C   UNL A   1      49.494  26.328  32.348  1.00  0.00     0.059 A 
ATOM     68  C   UNL A   1      50.254  27.388  30.297  1.00  0.00     0.059 A 
ATOM     69  F   UNL A   1      48.686  28.304  28.811  1.00  0.00    -0.206 F 
ATOM     70  C   UNL A   1      50.526  26.729  31.496  1.00  0.00     0.060 A 
BRANCH  70  71
ATOM     71  S   UNL A   1      52.228  26.351  31.963  1.00  0.00     0.124 S 
ATOM     72  O   UNL A   1      52.893  26.343  30.665  1.00  0.00    -0.237 OA
ATOM     73  O   UNL A   1      52.567  27.464  32.844  1.00  0.00    -0.237 OA
ATOM     74  O   UNL A   1      52.117  25.051  32.620  1.00  0.00    -0.744 OA
ENDBRANCH  70  71
ENDBRANCH  38  63
ENDBRANCH  12  13
ENDBRANCH   5   7
ENDBRANCH   2   3
ENDBRANCH   1   2
BRANCH   1  75
ATOM     75  C   UNL A   1      33.148  34.838  29.049  1.00  0.00     0.023 C 
BRANCH  75  76
ATOM     76  C   UNL A   1      33.617  36.179  29.603  1.00  0.00     0.116 C 
BRANCH  76  77
ATOM     77  N   UNL A   1      32.776  36.691  30.672  1.00  0.00    -0.352 N 
ATOM     78  C   UNL A   1      32.770  36.338  32.000  1.00  0.00     0.251 C 
ATOM     79  H   UNL A   1      32.125  37.382  30.410  1.00  0.00     0.163 HD
ATOM     80  O   UNL A   1      31.933  36.800  32.769  1.00  0.00    -0.269 OA
BRANCH  78  81
ATOM     81  C   UNL A   1      33.763  35.367  32.499  1.00  0.00     0.043 A 
ATOM     82  C   UNL A   1      33.343  34.063  32.767  1.00  0.00     0.014 A 
ATOM     83  C   UNL A   1      35.101  35.744  32.685  1.00  0.00     0.060 A 
ATOM     84  C   UNL A   1      34.280  33.115  33.168  1.00  0.00     0.005 A 
ATOM     85  C   UNL A   1      36.045  34.789  33.050  1.00  0.00     0.120 A 
ATOM     86  C   UNL A   1      35.624  33.476  33.297  1.00  0.00     0.046 A 
BRANCH  85  87
ATOM     87  O   UNL A   1      37.389  34.995  33.193  1.00  0.00    -0.488 OA
BRANCH  87  88
ATOM     88  C   UNL A   1      38.293  33.967  32.767  1.00  0.00     0.302 C 
BRANCH  88  89
ATOM     89  C   UNL A   1      39.731  34.241  33.185  1.00  0.00     0.379 C 
ATOM     90  F   UNL A   1      40.437  34.766  32.151  1.00  0.00    -0.207 F 
ATOM     91  F   UNL A   1      39.745  35.183  34.164  1.00  0.00    -0.207 F 
ENDBRANCH  88  89
ENDBRANCH  87  88
ENDBRANCH  85  87
ENDBRANCH  78  81
ENDBRANCH  76  77
ENDBRANCH  75  76
ENDBRANCH   1  75
TORSDOF 17
ENDMDL
