MODEL 1
REMARK VINA RESULT:     -11.9      0.000      0.000
REMARK SMILES O=C(NCCCCNC(=O)[C@H]1C=C[C@H](Nc2ccc([N+](=O)[O-])cc2C(F)F)C1)c1ccc(-c2c3nc(c(-c4c(F)cc(S(=O)(=O)[O-])cc4F)c4ccc([nH]4)c(-c4c(F)cc(S(=O)(=O)[O-])cc4F)c4nc(c(-c5c(F)cc(S(=O)(=O)[O-])cc5F)c5ccc2[nH]5)C=C4)C=C3)cc1
REMARK SMILES IDX 5 1 4 2 3 3 1 4 2 5 29 7 30 8 94 9 31 10 93 11 32 12 33 13
REMARK SMILES IDX 34 14 87 15 35 16 92 17 86 18 88 19 36 20 91 21 85 22 84 23
REMARK SMILES IDX 37 25 71 26 50 27 70 28 51 29 54 30 69 31 89 32 52 33 53 34
REMARK SMILES IDX 68 36 90 37 55 38 38 39 39 40 48 41 40 42 41 43 47 44 49 45
REMARK SMILES IDX 42 46 43 47 44 48 45 49 46 50 72 51 73 52 82 53 74 54 75 55
REMARK SMILES IDX 81 56 83 57 76 58 77 59 78 60 79 61 80 62 56 63 57 64 66 65
REMARK SMILES IDX 58 66 59 67 65 68 67 69 60 70 61 71 62 72 63 73 64 74 6 75
REMARK SMILES IDX 7 76 8 77 9 78 10 80 11 81 12 82 28 83 13 84 14 85 15 86
REMARK SMILES IDX 16 88 17 89 24 90 18 91 23 92 19 93 25 94 26 95 27 96 20 97
REMARK SMILES IDX 21 98 22 99
REMARK H PARENT 3 6 88 24 54 35 8 79 15 87
REMARK Flexibility Score: inf
ROOT
ATOM      1  C   UNL A   1      37.264  23.817  25.336  1.00  0.00     0.023 C 
ENDROOT
BRANCH   1   2
ATOM      2  C   UNL A   1      38.231  24.057  26.489  1.00  0.00     0.116 C 
BRANCH   2   3
ATOM      3  N   UNL A   1      39.629  23.964  26.100  1.00  0.00    -0.352 N 
ATOM      4  O   UNL A   1      41.801  24.580  26.006  1.00  0.00    -0.269 OA
ATOM      5  C   UNL A   1      40.694  24.732  26.515  1.00  0.00     0.251 C 
ATOM      6  H   UNL A   1      39.845  23.255  25.452  1.00  0.00     0.163 HD
BRANCH   5   7
ATOM      7  C   UNL A   1      40.481  25.764  27.550  1.00  0.00     0.039 A 
ATOM      8  C   UNL A   1      41.290  26.900  27.592  1.00  0.00     0.014 A 
ATOM      9  C   UNL A   1      39.491  25.566  28.517  1.00  0.00     0.014 A 
ATOM     10  C   UNL A   1      41.218  27.754  28.684  1.00  0.00     0.010 A 
ATOM     11  C   UNL A   1      39.362  26.474  29.571  1.00  0.00     0.010 A 
ATOM     12  C   UNL A   1      40.251  27.555  29.684  1.00  0.00    -0.014 A 
BRANCH  12  13
ATOM     13  C   UNL A   1      40.165  28.519  30.809  1.00  0.00     0.031 A 
ATOM     14  C   UNL A   1      41.098  28.433  31.985  1.00  0.00     0.074 A 
ATOM     15  C   UNL A   1      39.254  29.510  30.736  1.00  0.00     0.049 A 
ATOM     16  N   UNL A   1      41.172  29.214  33.033  1.00  0.00    -0.248 NA
ATOM     17  C   UNL A   1      42.068  27.327  31.994  1.00  0.00     0.031 C 
ATOM     18  C   UNL A   1      38.286  29.681  29.647  1.00  0.00     0.029 A 
ATOM     19  N   UNL A   1      39.004  30.566  31.571  1.00  0.00    -0.354 N 
ATOM     20  C   UNL A   1      42.175  28.685  33.837  1.00  0.00     0.074 A 
ATOM     21  C   UNL A   1      42.672  27.504  33.163  1.00  0.00     0.031 C 
ATOM     22  C   UNL A   1      37.583  30.803  29.856  1.00  0.00     0.029 A 
ATOM     23  C   UNL A   1      38.010  31.399  31.117  1.00  0.00     0.049 A 
ATOM     24  H   UNL A   1      39.491  30.714  32.413  1.00  0.00     0.167 HD
ATOM     25  C   UNL A   1      42.638  29.146  35.023  1.00  0.00     0.037 A 
ATOM     26  C   UNL A   1      37.489  32.515  31.660  1.00  0.00     0.037 A 
ATOM     27  C   UNL A   1      42.153  30.336  35.676  1.00  0.00     0.049 A 
ATOM     28  C   UNL A   1      38.029  33.010  32.967  1.00  0.00     0.074 A 
ATOM     29  C   UNL A   1      42.581  30.904  36.864  1.00  0.00     0.029 A 
ATOM     30  N   UNL A   1      41.135  31.145  35.193  1.00  0.00    -0.354 N 
ATOM     31  N   UNL A   1      38.989  32.504  33.704  1.00  0.00    -0.248 NA
ATOM     32  C   UNL A   1      37.415  34.223  33.522  1.00  0.00     0.031 C 
ATOM     33  C   UNL A   1      41.799  32.037  37.115  1.00  0.00     0.029 A 
ATOM     34  C   UNL A   1      40.909  32.197  36.066  1.00  0.00     0.049 A 
ATOM     35  H   UNL A   1      40.643  30.994  34.354  1.00  0.00     0.167 HD
ATOM     36  C   UNL A   1      39.098  33.337  34.808  1.00  0.00     0.074 A 
ATOM     37  C   UNL A   1      38.120  34.394  34.632  1.00  0.00     0.031 C 
ATOM     38  C   UNL A   1      39.926  33.235  35.876  1.00  0.00     0.037 A 
BRANCH  25  39
ATOM     39  C   UNL A   1      43.718  28.354  35.709  1.00  0.00     0.058 A 
ATOM     40  C   UNL A   1      45.079  28.614  35.483  1.00  0.00     0.135 A 
ATOM     41  C   UNL A   1      43.387  27.355  36.639  1.00  0.00     0.135 A 
ATOM     42  F   UNL A   1      45.451  29.547  34.594  1.00  0.00    -0.206 F 
ATOM     43  C   UNL A   1      46.074  27.896  36.142  1.00  0.00     0.059 A 
ATOM     44  C   UNL A   1      44.366  26.640  37.324  1.00  0.00     0.059 A 
ATOM     45  F   UNL A   1      42.101  27.069  36.893  1.00  0.00    -0.206 F 
ATOM     46  C   UNL A   1      45.708  26.909  37.058  1.00  0.00     0.060 A 
BRANCH  46  47
ATOM     47  S   UNL A   1      47.008  25.989  37.908  1.00  0.00     0.124 S 
ATOM     48  O   UNL A   1      46.432  25.835  39.240  1.00  0.00    -0.237 OA
ATOM     49  O   UNL A   1      47.102  24.768  37.113  1.00  0.00    -0.237 OA
ATOM     50  O   UNL A   1      48.164  26.878  37.824  1.00  0.00    -0.744 OA
ENDBRANCH  46  47
ENDBRANCH  25  39
BRANCH  26  51
ATOM     51  C   UNL A   1      36.392  33.226  30.955  1.00  0.00     0.058 A 
ATOM     52  C   UNL A   1      35.078  33.189  31.440  1.00  0.00     0.135 A 
ATOM     53  C   UNL A   1      36.652  34.000  29.814  1.00  0.00     0.135 A 
ATOM     54  F   UNL A   1      34.785  32.460  32.527  1.00  0.00    -0.206 F 
ATOM     55  C   UNL A   1      34.054  33.893  30.816  1.00  0.00     0.059 A 
ATOM     56  C   UNL A   1      35.650  34.732  29.187  1.00  0.00     0.059 A 
ATOM     57  F   UNL A   1      37.899  34.083  29.326  1.00  0.00    -0.206 F 
ATOM     58  C   UNL A   1      34.352  34.666  29.692  1.00  0.00     0.060 A 
BRANCH  58  59
ATOM     59  S   UNL A   1      33.036  35.641  28.930  1.00  0.00     0.124 S 
ATOM     60  O   UNL A   1      33.792  36.736  28.335  1.00  0.00    -0.237 OA
ATOM     61  O   UNL A   1      32.447  34.688  27.993  1.00  0.00    -0.237 OA
ATOM     62  O   UNL A   1      32.187  35.997  30.063  1.00  0.00    -0.744 OA
ENDBRANCH  58  59
ENDBRANCH  26  51
BRANCH  38  63
ATOM     63  C   UNL A   1      39.814  34.300  36.928  1.00  0.00     0.058 A 
ATOM     64  C   UNL A   1      40.475  35.530  36.793  1.00  0.00     0.135 A 
ATOM     65  C   UNL A   1      39.021  34.098  38.067  1.00  0.00     0.135 A 
ATOM     66  F   UNL A   1      41.252  35.766  35.724  1.00  0.00    -0.206 F 
ATOM     67  C   UNL A   1      40.374  36.517  37.767  1.00  0.00     0.059 A 
ATOM     68  C   UNL A   1      38.888  35.079  39.044  1.00  0.00     0.059 A 
ATOM     69  F   UNL A   1      38.364  32.940  38.238  1.00  0.00    -0.206 F 
ATOM     70  C   UNL A   1      39.580  36.282  38.891  1.00  0.00     0.060 A 
BRANCH  70  71
ATOM     71  S   UNL A   1      39.437  37.574  40.142  1.00  0.00     0.124 S 
ATOM     72  O   UNL A   1      38.984  36.811  41.300  1.00  0.00    -0.237 OA
ATOM     73  O   UNL A   1      40.800  38.092  40.219  1.00  0.00    -0.237 OA
ATOM     74  O   UNL A   1      38.458  38.492  39.569  1.00  0.00    -0.744 OA
ENDBRANCH  70  71
ENDBRANCH  38  63
ENDBRANCH  12  13
ENDBRANCH   5   7
ENDBRANCH   2   3
ENDBRANCH   1   2
BRANCH   1  75
ATOM     75  C   UNL A   1      37.124  22.365  24.892  1.00  0.00     0.023 C 
BRANCH  75  76
ATOM     76  C   UNL A   1      36.522  21.426  25.928  1.00  0.00     0.116 C 
BRANCH  76  77
ATOM     77  N   UNL A   1      35.848  20.284  25.347  1.00  0.00    -0.356 N 
ATOM     78  C   UNL A   1      34.549  20.093  24.993  1.00  0.00     0.227 C 
ATOM     79  H   UNL A   1      36.433  19.510  25.179  1.00  0.00     0.163 HD
ATOM     80  O   UNL A   1      34.258  19.003  24.488  1.00  0.00    -0.274 OA
BRANCH  78  81
ATOM     81  C   UNL A   1      33.451  21.136  25.224  1.00  0.00     0.103 C 
ATOM     82  C   UNL A   1      33.479  21.706  26.605  1.00  0.00    -0.016 C 
ATOM     83  C   UNL A   1      33.454  22.360  24.299  1.00  0.00     0.046 C 
ATOM     84  C   UNL A   1      33.529  23.041  26.591  1.00  0.00    -0.006 C 
ATOM     85  C   UNL A   1      33.575  23.604  25.207  1.00  0.00     0.103 C 
BRANCH  85  86
ATOM     86  N   UNL A   1      32.459  24.515  25.000  1.00  0.00    -0.378 N 
ATOM     87  H   UNL A   1      31.683  24.207  24.480  1.00  0.00     0.161 HD
BRANCH  86  88
ATOM     88  C   UNL A   1      32.455  25.810  25.513  1.00  0.00     0.044 A 
ATOM     89  C   UNL A   1      33.710  26.430  25.671  1.00  0.00     0.033 A 
ATOM     90  C   UNL A   1      31.299  26.557  25.813  1.00  0.00     0.048 A 
ATOM     91  C   UNL A   1      33.835  27.753  26.097  1.00  0.00     0.088 A 
ATOM     92  C   UNL A   1      31.425  27.903  26.226  1.00  0.00     0.097 A 
ATOM     93  C   UNL A   1      32.686  28.491  26.369  1.00  0.00     0.270 A 
BRANCH  90  94
ATOM     94  C   UNL A   1      29.906  25.983  25.739  1.00  0.00     0.375 C 
ATOM     95  F   UNL A   1      29.514  25.717  24.458  1.00  0.00    -0.205 F 
ATOM     96  F   UNL A   1      29.801  24.796  26.401  1.00  0.00    -0.205 F 
ENDBRANCH  90  94
BRANCH  93  97
ATOM     97  N   UNL A   1      32.802  29.884  26.815  1.00  0.00     0.062 N 
ATOM     98  O   UNL A   1      31.985  30.702  26.365  1.00  0.00    -0.258 OA
ATOM     99  O   UNL A   1      33.710  30.165  27.610  1.00  0.00    -0.258 OA
ENDBRANCH  93  97
ENDBRANCH  86  88
ENDBRANCH  85  86
ENDBRANCH  78  81
ENDBRANCH  76  77
ENDBRANCH  75  76
ENDBRANCH   1  75
TORSDOF 18
ENDMDL
MODEL 2
REMARK VINA RESULT:     -11.8      6.482      9.030
REMARK SMILES O=C(NCCCCNC(=O)[C@H]1C=C[C@H](Nc2ccc([N+](=O)[O-])cc2C(F)F)C1)c1ccc(-c2c3nc(c(-c4c(F)cc(S(=O)(=O)[O-])cc4F)c4ccc([nH]4)c(-c4c(F)cc(S(=O)(=O)[O-])cc4F)c4nc(c(-c5c(F)cc(S(=O)(=O)[O-])cc5F)c5ccc2[nH]5)C=C4)C=C3)cc1
REMARK SMILES IDX 5 1 4 2 3 3 1 4 2 5 29 7 30 8 94 9 31 10 93 11 32 12 33 13
REMARK SMILES IDX 34 14 87 15 35 16 92 17 86 18 88 19 36 20 91 21 85 22 84 23
REMARK SMILES IDX 37 25 71 26 50 27 70 28 51 29 54 30 69 31 89 32 52 33 53 34
REMARK SMILES IDX 68 36 90 37 55 38 38 39 39 40 48 41 40 42 41 43 47 44 49 45
REMARK SMILES IDX 42 46 43 47 44 48 45 49 46 50 72 51 73 52 82 53 74 54 75 55
REMARK SMILES IDX 81 56 83 57 76 58 77 59 78 60 79 61 80 62 56 63 57 64 66 65
REMARK SMILES IDX 58 66 59 67 65 68 67 69 60 70 61 71 62 72 63 73 64 74 6 75
REMARK SMILES IDX 7 76 8 77 9 78 10 80 11 81 12 82 28 83 13 84 14 85 15 86
REMARK SMILES IDX 16 88 17 89 24 90 18 91 23 92 19 93 25 94 26 95 27 96 20 97
REMARK SMILES IDX 21 98 22 99
REMARK H PARENT 3 6 88 24 54 35 8 79 15 87
REMARK Flexibility Score: inf
ROOT
ATOM      1  C   UNL A   1      38.755  19.922  25.060  1.00  0.00     0.023 C 
ENDROOT
BRANCH   1   2
ATOM      2  C   UNL A   1      39.691  19.889  26.261  1.00  0.00     0.116 C 
BRANCH   2   3
ATOM      3  N   UNL A   1      40.883  19.084  26.046  1.00  0.00    -0.352 N 
ATOM      4  O   UNL A   1      43.084  18.677  25.742  1.00  0.00    -0.269 OA
ATOM      5  C   UNL A   1      42.203  19.476  26.043  1.00  0.00     0.251 C 
ATOM      6  H   UNL A   1      40.725  18.126  25.879  1.00  0.00     0.163 HD
BRANCH   5   7
ATOM      7  C   UNL A   1      42.540  20.877  26.368  1.00  0.00     0.039 A 
ATOM      8  C   UNL A   1      42.728  21.812  25.349  1.00  0.00     0.014 A 
ATOM      9  C   UNL A   1      42.716  21.244  27.705  1.00  0.00     0.014 A 
ATOM     10  C   UNL A   1      43.246  23.064  25.655  1.00  0.00     0.010 A 
ATOM     11  C   UNL A   1      43.155  22.534  28.017  1.00  0.00     0.010 A 
ATOM     12  C   UNL A   1      43.461  23.441  26.992  1.00  0.00    -0.014 A 
BRANCH  12  13
ATOM     13  C   UNL A   1      43.962  24.807  27.285  1.00  0.00     0.031 A 
ATOM     14  C   UNL A   1      45.397  25.183  27.038  1.00  0.00     0.074 A 
ATOM     15  C   UNL A   1      43.088  25.726  27.741  1.00  0.00     0.049 A 
ATOM     16  N   UNL A   1      45.984  26.340  27.215  1.00  0.00    -0.248 NA
ATOM     17  C   UNL A   1      46.292  24.129  26.537  1.00  0.00     0.031 C 
ATOM     18  C   UNL A   1      41.674  25.468  28.032  1.00  0.00     0.029 A 
ATOM     19  N   UNL A   1      43.245  27.058  28.019  1.00  0.00    -0.354 N 
ATOM     20  C   UNL A   1      47.318  26.150  26.871  1.00  0.00     0.074 A 
ATOM     21  C   UNL A   1      47.458  24.760  26.490  1.00  0.00     0.031 C 
ATOM     22  C   UNL A   1      41.083  26.614  28.398  1.00  0.00     0.029 A 
ATOM     23  C   UNL A   1      42.085  27.674  28.423  1.00  0.00     0.049 A 
ATOM     24  H   UNL A   1      44.106  27.528  27.936  1.00  0.00     0.167 HD
ATOM     25  C   UNL A   1      48.327  27.054  26.870  1.00  0.00     0.037 A 
ATOM     26  C   UNL A   1      41.853  28.949  28.785  1.00  0.00     0.037 A 
ATOM     27  C   UNL A   1      48.173  28.441  27.229  1.00  0.00     0.049 A 
ATOM     28  C   UNL A   1      42.984  29.931  28.763  1.00  0.00     0.074 A 
ATOM     29  C   UNL A   1      49.128  29.443  27.228  1.00  0.00     0.029 A 
ATOM     30  N   UNL A   1      46.986  29.024  27.648  1.00  0.00    -0.354 N 
ATOM     31  N   UNL A   1      44.235  29.735  28.419  1.00  0.00    -0.248 NA
ATOM     32  C   UNL A   1      42.679  31.305  29.181  1.00  0.00     0.031 C 
ATOM     33  C   UNL A   1      48.526  30.624  27.677  1.00  0.00     0.029 A 
ATOM     34  C   UNL A   1      47.187  30.367  27.923  1.00  0.00     0.049 A 
ATOM     35  H   UNL A   1      46.126  28.553  27.737  1.00  0.00     0.167 HD
ATOM     36  C   UNL A   1      44.867  30.961  28.576  1.00  0.00     0.074 A 
ATOM     37  C   UNL A   1      43.855  31.898  29.024  1.00  0.00     0.031 C 
ATOM     38  C   UNL A   1      46.168  31.282  28.375  1.00  0.00     0.037 A 
BRANCH  25  39
ATOM     39  C   UNL A   1      49.699  26.571  26.485  1.00  0.00     0.058 A 
ATOM     40  C   UNL A   1      50.535  25.915  27.402  1.00  0.00     0.135 A 
ATOM     41  C   UNL A   1      50.165  26.726  25.169  1.00  0.00     0.135 A 
ATOM     42  F   UNL A   1      50.146  25.754  28.676  1.00  0.00    -0.206 F 
ATOM     43  C   UNL A   1      51.793  25.446  27.032  1.00  0.00     0.059 A 
ATOM     44  C   UNL A   1      51.410  26.247  24.772  1.00  0.00     0.059 A 
ATOM     45  F   UNL A   1      49.404  27.345  24.252  1.00  0.00    -0.206 F 
ATOM     46  C   UNL A   1      52.223  25.619  25.716  1.00  0.00     0.060 A 
BRANCH  46  47
ATOM     47  S   UNL A   1      53.854  25.002  25.248  1.00  0.00     0.124 S 
ATOM     48  O   UNL A   1      54.689  25.559  26.308  1.00  0.00    -0.237 OA
ATOM     49  O   UNL A   1      53.666  23.555  25.286  1.00  0.00    -0.237 OA
ATOM     50  O   UNL A   1      54.064  25.569  23.920  1.00  0.00    -0.744 OA
ENDBRANCH  46  47
ENDBRANCH  25  39
BRANCH  26  51
ATOM     51  C   UNL A   1      40.485  29.352  29.199  1.00  0.00     0.058 A 
ATOM     52  C   UNL A   1      40.171  29.563  30.549  1.00  0.00     0.135 A 
ATOM     53  C   UNL A   1      39.482  29.587  28.246  1.00  0.00     0.135 A 
ATOM     54  F   UNL A   1      41.099  29.349  31.494  1.00  0.00    -0.206 F 
ATOM     55  C   UNL A   1      38.908  29.989  30.942  1.00  0.00     0.059 A 
ATOM     56  C   UNL A   1      38.219  30.036  28.613  1.00  0.00     0.059 A 
ATOM     57  F   UNL A   1      39.743  29.419  26.940  1.00  0.00    -0.206 F 
ATOM     58  C   UNL A   1      37.940  30.228  29.965  1.00  0.00     0.060 A 
BRANCH  58  59
ATOM     59  S   UNL A   1      36.324  30.857  30.473  1.00  0.00     0.124 S 
ATOM     60  O   UNL A   1      35.534  30.640  29.266  1.00  0.00    -0.237 OA
ATOM     61  O   UNL A   1      36.001  30.000  31.610  1.00  0.00    -0.237 OA
ATOM     62  O   UNL A   1      36.600  32.250  30.810  1.00  0.00    -0.744 OA
ENDBRANCH  58  59
ENDBRANCH  26  51
BRANCH  38  63
ATOM     63  C   UNL A   1      46.564  32.707  28.629  1.00  0.00     0.058 A 
ATOM     64  C   UNL A   1      46.542  33.664  27.604  1.00  0.00     0.135 A 
ATOM     65  C   UNL A   1      46.945  33.124  29.913  1.00  0.00     0.135 A 
ATOM     66  F   UNL A   1      46.193  33.310  26.356  1.00  0.00    -0.206 F 
ATOM     67  C   UNL A   1      46.909  34.984  27.837  1.00  0.00     0.059 A 
ATOM     68  C   UNL A   1      47.296  34.444  30.175  1.00  0.00     0.059 A 
ATOM     69  F   UNL A   1      46.975  32.247  30.929  1.00  0.00    -0.206 F 
ATOM     70  C   UNL A   1      47.288  35.365  29.126  1.00  0.00     0.060 A 
BRANCH  70  71
ATOM     71  S   UNL A   1      47.745  37.085  29.426  1.00  0.00     0.124 S 
ATOM     72  O   UNL A   1      46.470  37.765  29.225  1.00  0.00    -0.237 OA
ATOM     73  O   UNL A   1      48.233  37.047  30.802  1.00  0.00    -0.237 OA
ATOM     74  O   UNL A   1      48.764  37.345  28.414  1.00  0.00    -0.744 OA
ENDBRANCH  70  71
ENDBRANCH  38  63
ENDBRANCH  12  13
ENDBRANCH   5   7
ENDBRANCH   2   3
ENDBRANCH   1   2
BRANCH   1  75
ATOM     75  C   UNL A   1      37.883  21.168  24.945  1.00  0.00     0.023 C 
BRANCH  75  76
ATOM     76  C   UNL A   1      38.144  22.239  25.996  1.00  0.00     0.116 C 
BRANCH  76  77
ATOM     77  N   UNL A   1      37.435  23.476  25.743  1.00  0.00    -0.356 N 
ATOM     78  C   UNL A   1      36.105  23.755  25.699  1.00  0.00     0.227 C 
ATOM     79  H   UNL A   1      38.018  24.251  25.574  1.00  0.00     0.163 HD
ATOM     80  O   UNL A   1      35.783  24.928  25.480  1.00  0.00    -0.274 OA
BRANCH  78  81
ATOM     81  C   UNL A   1      35.015  22.691  25.869  1.00  0.00     0.103 C 
ATOM     82  C   UNL A   1      34.141  22.947  27.054  1.00  0.00    -0.016 C 
ATOM     83  C   UNL A   1      34.040  22.505  24.700  1.00  0.00     0.046 C 
ATOM     84  C   UNL A   1      32.847  22.963  26.722  1.00  0.00    -0.006 C 
ATOM     85  C   UNL A   1      32.622  22.754  25.259  1.00  0.00     0.103 C 
BRANCH  85  86
ATOM     86  N   UNL A   1      31.763  21.599  25.044  1.00  0.00    -0.378 N 
ATOM     87  H   UNL A   1      30.796  21.689  25.204  1.00  0.00     0.161 HD
BRANCH  86  88
ATOM     88  C   UNL A   1      32.266  20.371  24.622  1.00  0.00     0.044 A 
ATOM     89  C   UNL A   1      32.731  19.500  25.627  1.00  0.00     0.033 A 
ATOM     90  C   UNL A   1      32.275  19.917  23.289  1.00  0.00     0.048 A 
ATOM     91  C   UNL A   1      33.181  18.211  25.341  1.00  0.00     0.088 A 
ATOM     92  C   UNL A   1      32.714  18.604  23.001  1.00  0.00     0.097 A 
ATOM     93  C   UNL A   1      33.166  17.762  24.023  1.00  0.00     0.270 A 
BRANCH  90  94
ATOM     94  C   UNL A   1      31.858  20.777  22.123  1.00  0.00     0.375 C 
ATOM     95  F   UNL A   1      32.627  21.900  21.996  1.00  0.00    -0.205 F 
ATOM     96  F   UNL A   1      31.977  20.125  20.931  1.00  0.00    -0.205 F 
ENDBRANCH  90  94
BRANCH  93  97
ATOM     97  N   UNL A   1      33.634  16.408  23.707  1.00  0.00     0.062 N 
ATOM     98  O   UNL A   1      34.264  16.248  22.651  1.00  0.00    -0.258 OA
ATOM     99  O   UNL A   1      33.368  15.501  24.508  1.00  0.00    -0.258 OA
ENDBRANCH  93  97
ENDBRANCH  86  88
ENDBRANCH  85  86
ENDBRANCH  78  81
ENDBRANCH  76  77
ENDBRANCH  75  76
ENDBRANCH   1  75
TORSDOF 18
ENDMDL
MODEL 3
REMARK VINA RESULT:     -11.8      6.466      8.500
REMARK SMILES O=C(NCCCCNC(=O)[C@H]1C=C[C@H](Nc2ccc([N+](=O)[O-])cc2C(F)F)C1)c1ccc(-c2c3nc(c(-c4c(F)cc(S(=O)(=O)[O-])cc4F)c4ccc([nH]4)c(-c4c(F)cc(S(=O)(=O)[O-])cc4F)c4nc(c(-c5c(F)cc(S(=O)(=O)[O-])cc5F)c5ccc2[nH]5)C=C4)C=C3)cc1
REMARK SMILES IDX 5 1 4 2 3 3 1 4 2 5 29 7 30 8 94 9 31 10 93 11 32 12 33 13
REMARK SMILES IDX 34 14 87 15 35 16 92 17 86 18 88 19 36 20 91 21 85 22 84 23
REMARK SMILES IDX 37 25 71 26 50 27 70 28 51 29 54 30 69 31 89 32 52 33 53 34
REMARK SMILES IDX 68 36 90 37 55 38 38 39 39 40 48 41 40 42 41 43 47 44 49 45
REMARK SMILES IDX 42 46 43 47 44 48 45 49 46 50 72 51 73 52 82 53 74 54 75 55
REMARK SMILES IDX 81 56 83 57 76 58 77 59 78 60 79 61 80 62 56 63 57 64 66 65
REMARK SMILES IDX 58 66 59 67 65 68 67 69 60 70 61 71 62 72 63 73 64 74 6 75
REMARK SMILES IDX 7 76 8 77 9 78 10 80 11 81 12 82 28 83 13 84 14 85 15 86
REMARK SMILES IDX 16 88 17 89 24 90 18 91 23 92 19 93 25 94 26 95 27 96 20 97
REMARK SMILES IDX 21 98 22 99
REMARK H PARENT 3 6 88 24 54 35 8 79 15 87
REMARK Flexibility Score: inf
ROOT
ATOM      1  C   UNL A   1      37.972  20.438  25.038  1.00  0.00     0.023 C 
ENDROOT
BRANCH   1   2
ATOM      2  C   UNL A   1      39.179  20.637  25.946  1.00  0.00     0.116 C 
BRANCH   2   3
ATOM      3  N   UNL A   1      40.109  19.519  25.927  1.00  0.00    -0.352 N 
ATOM      4  O   UNL A   1      42.123  18.497  25.922  1.00  0.00    -0.269 OA
ATOM      5  C   UNL A   1      41.479  19.531  26.063  1.00  0.00     0.251 C 
ATOM      6  H   UNL A   1      39.704  18.630  25.800  1.00  0.00     0.163 HD
BRANCH   5   7
ATOM      7  C   UNL A   1      42.165  20.809  26.343  1.00  0.00     0.039 A 
ATOM      8  C   UNL A   1      42.429  21.196  27.657  1.00  0.00     0.014 A 
ATOM      9  C   UNL A   1      42.505  21.648  25.277  1.00  0.00     0.014 A 
ATOM     10  C   UNL A   1      42.883  22.483  27.916  1.00  0.00     0.010 A 
ATOM     11  C   UNL A   1      43.043  22.912  25.537  1.00  0.00     0.010 A 
ATOM     12  C   UNL A   1      43.199  23.354  26.859  1.00  0.00    -0.014 A 
BRANCH  12  13
ATOM     13  C   UNL A   1      43.735  24.703  27.171  1.00  0.00     0.031 A 
ATOM     14  C   UNL A   1      45.183  25.039  26.948  1.00  0.00     0.074 A 
ATOM     15  C   UNL A   1      42.880  25.643  27.622  1.00  0.00     0.049 A 
ATOM     16  N   UNL A   1      45.801  26.176  27.143  1.00  0.00    -0.248 NA
ATOM     17  C   UNL A   1      46.055  23.963  26.451  1.00  0.00     0.031 C 
ATOM     18  C   UNL A   1      41.456  25.423  27.891  1.00  0.00     0.029 A 
ATOM     19  N   UNL A   1      43.072  26.968  27.913  1.00  0.00    -0.354 N 
ATOM     20  C   UNL A   1      47.134  25.951  26.817  1.00  0.00     0.074 A 
ATOM     21  C   UNL A   1      47.239  24.561  26.427  1.00  0.00     0.031 C 
ATOM     22  C   UNL A   1      40.893  26.584  28.257  1.00  0.00     0.029 A 
ATOM     23  C   UNL A   1      41.925  27.614  28.306  1.00  0.00     0.049 A 
ATOM     24  H   UNL A   1      43.947  27.413  27.847  1.00  0.00     0.167 HD
ATOM     25  C   UNL A   1      48.168  26.825  26.838  1.00  0.00     0.037 A 
ATOM     26  C   UNL A   1      41.724  28.892  28.675  1.00  0.00     0.037 A 
ATOM     27  C   UNL A   1      48.049  28.213  27.206  1.00  0.00     0.049 A 
ATOM     28  C   UNL A   1      42.883  29.841  28.677  1.00  0.00     0.074 A 
ATOM     29  C   UNL A   1      49.033  29.187  27.227  1.00  0.00     0.029 A 
ATOM     30  N   UNL A   1      46.873  28.828  27.612  1.00  0.00    -0.354 N 
ATOM     31  N   UNL A   1      44.133  29.612  28.350  1.00  0.00    -0.248 NA
ATOM     32  C   UNL A   1      42.612  31.220  29.101  1.00  0.00     0.031 C 
ATOM     33  C   UNL A   1      48.458  30.382  27.677  1.00  0.00     0.029 A 
ATOM     34  C   UNL A   1      47.109  30.161  27.901  1.00  0.00     0.049 A 
ATOM     35  H   UNL A   1      45.999  28.381  27.685  1.00  0.00     0.167 HD
ATOM     36  C   UNL A   1      44.798  30.817  28.526  1.00  0.00     0.074 A 
ATOM     37  C   UNL A   1      43.807  31.780  28.967  1.00  0.00     0.031 C 
ATOM     38  C   UNL A   1      46.110  31.102  28.346  1.00  0.00     0.037 A 
BRANCH  25  39
ATOM     39  C   UNL A   1      49.531  26.306  26.469  1.00  0.00     0.058 A 
ATOM     40  C   UNL A   1      50.034  26.418  25.163  1.00  0.00     0.135 A 
ATOM     41  C   UNL A   1      50.364  25.732  27.444  1.00  0.00     0.135 A 
ATOM     42  F   UNL A   1      49.275  26.944  24.189  1.00  0.00    -0.206 F 
ATOM     43  C   UNL A   1      51.307  25.961  24.833  1.00  0.00     0.059 A 
ATOM     44  C   UNL A   1      51.647  25.288  27.140  1.00  0.00     0.059 A 
ATOM     45  F   UNL A   1      49.932  25.603  28.708  1.00  0.00    -0.206 F 
ATOM     46  C   UNL A   1      52.105  25.394  25.827  1.00  0.00     0.060 A 
BRANCH  46  47
ATOM     47  S   UNL A   1      53.755  24.810  25.387  1.00  0.00     0.124 S 
ATOM     48  O   UNL A   1      54.483  25.027  26.633  1.00  0.00    -0.237 OA
ATOM     49  O   UNL A   1      53.511  23.415  25.031  1.00  0.00    -0.237 OA
ATOM     50  O   UNL A   1      54.139  25.678  24.277  1.00  0.00    -0.744 OA
ENDBRANCH  46  47
ENDBRANCH  25  39
BRANCH  26  51
ATOM     51  C   UNL A   1      40.362  29.331  29.072  1.00  0.00     0.058 A 
ATOM     52  C   UNL A   1      40.030  29.522  30.420  1.00  0.00     0.135 A 
ATOM     53  C   UNL A   1      39.386  29.620  28.106  1.00  0.00     0.135 A 
ATOM     54  F   UNL A   1      40.931  29.257  31.377  1.00  0.00    -0.206 F 
ATOM     55  C   UNL A   1      38.773  29.982  30.799  1.00  0.00     0.059 A 
ATOM     56  C   UNL A   1      38.132  30.103  28.459  1.00  0.00     0.059 A 
ATOM     57  F   UNL A   1      39.666  29.472  26.801  1.00  0.00    -0.206 F 
ATOM     58  C   UNL A   1      37.833  30.275  29.810  1.00  0.00     0.060 A 
BRANCH  58  59
ATOM     59  S   UNL A   1      36.229  30.945  30.302  1.00  0.00     0.124 S 
ATOM     60  O   UNL A   1      35.936  30.157  31.493  1.00  0.00    -0.237 OA
ATOM     61  O   UNL A   1      36.538  32.354  30.527  1.00  0.00    -0.237 OA
ATOM     62  O   UNL A   1      35.386  30.677  29.140  1.00  0.00    -0.744 OA
ENDBRANCH  58  59
ENDBRANCH  26  51
BRANCH  38  63
ATOM     63  C   UNL A   1      46.543  32.513  28.618  1.00  0.00     0.058 A 
ATOM     64  C   UNL A   1      46.985  32.909  29.889  1.00  0.00     0.135 A 
ATOM     65  C   UNL A   1      46.538  33.471  27.593  1.00  0.00     0.135 A 
ATOM     66  F   UNL A   1      46.999  32.029  30.904  1.00  0.00    -0.206 F 
ATOM     67  C   UNL A   1      47.385  34.216  30.143  1.00  0.00     0.059 A 
ATOM     68  C   UNL A   1      46.954  34.779  27.818  1.00  0.00     0.059 A 
ATOM     69  F   UNL A   1      46.131  33.138  26.358  1.00  0.00    -0.206 F 
ATOM     70  C   UNL A   1      47.363  35.145  29.101  1.00  0.00     0.060 A 
BRANCH  70  71
ATOM     71  S   UNL A   1      47.902  36.836  29.431  1.00  0.00     0.124 S 
ATOM     72  O   UNL A   1      46.650  37.466  29.840  1.00  0.00    -0.237 OA
ATOM     73  O   UNL A   1      48.892  36.652  30.488  1.00  0.00    -0.237 OA
ATOM     74  O   UNL A   1      48.439  37.277  28.148  1.00  0.00    -0.744 OA
ENDBRANCH  70  71
ENDBRANCH  38  63
ENDBRANCH  12  13
ENDBRANCH   5   7
ENDBRANCH   2   3
ENDBRANCH   1   2
BRANCH   1  75
ATOM     75  C   UNL A   1      37.241  21.714  24.635  1.00  0.00     0.023 C 
BRANCH  75  76
ATOM     76  C   UNL A   1      37.155  22.781  25.719  1.00  0.00     0.116 C 
BRANCH  76  77
ATOM     77  N   UNL A   1      35.874  22.814  26.393  1.00  0.00    -0.356 N 
ATOM     78  C   UNL A   1      34.798  23.630  26.235  1.00  0.00     0.227 C 
ATOM     79  H   UNL A   1      35.763  22.125  27.087  1.00  0.00     0.163 HD
ATOM     80  O   UNL A   1      33.813  23.407  26.947  1.00  0.00    -0.274 OA
BRANCH  78  81
ATOM     81  C   UNL A   1      34.772  24.810  25.258  1.00  0.00     0.103 C 
ATOM     82  C   UNL A   1      34.330  24.413  23.887  1.00  0.00    -0.016 C 
ATOM     83  C   UNL A   1      33.873  25.996  25.628  1.00  0.00     0.046 C 
ATOM     84  C   UNL A   1      33.314  25.166  23.455  1.00  0.00    -0.006 C 
ATOM     85  C   UNL A   1      32.872  26.177  24.465  1.00  0.00     0.103 C 
BRANCH  85  86
ATOM     86  N   UNL A   1      32.958  27.516  23.902  1.00  0.00    -0.378 N 
ATOM     87  H   UNL A   1      33.845  27.894  23.705  1.00  0.00     0.161 HD
BRANCH  86  88
ATOM     88  C   UNL A   1      31.826  28.282  23.636  1.00  0.00     0.044 A 
ATOM     89  C   UNL A   1      31.101  27.952  22.473  1.00  0.00     0.033 A 
ATOM     90  C   UNL A   1      31.323  29.299  24.470  1.00  0.00     0.048 A 
ATOM     91  C   UNL A   1      29.904  28.588  22.140  1.00  0.00     0.088 A 
ATOM     92  C   UNL A   1      30.101  29.931  24.142  1.00  0.00     0.097 A 
ATOM     93  C   UNL A   1      29.403  29.577  22.983  1.00  0.00     0.270 A 
BRANCH  90  94
ATOM     94  C   UNL A   1      32.040  29.780  25.706  1.00  0.00     0.375 C 
ATOM     95  F   UNL A   1      33.316  30.193  25.447  1.00  0.00    -0.205 F 
ATOM     96  F   UNL A   1      31.424  30.854  26.276  1.00  0.00    -0.205 F 
ENDBRANCH  90  94
BRANCH  93  97
ATOM     97  N   UNL A   1      28.145  30.254  22.647  1.00  0.00     0.062 N 
ATOM     98  O   UNL A   1      28.091  30.867  21.570  1.00  0.00    -0.258 OA
ATOM     99  O   UNL A   1      27.211  30.179  23.458  1.00  0.00    -0.258 OA
ENDBRANCH  93  97
ENDBRANCH  86  88
ENDBRANCH  85  86
ENDBRANCH  78  81
ENDBRANCH  76  77
ENDBRANCH  75  76
ENDBRANCH   1  75
TORSDOF 18
ENDMDL
