MODEL 1
REMARK VINA RESULT:     -12.7      0.000      0.000
REMARK SMILES O=C(NCCCCNC(=O)c1cccn1CC(=O)N1CCc2ccccc2C1)c1ccc(-c2c3nc(c(-c4c(F)cc(S(=O)(=O)[O-])cc4F)c4ccc([nH]4)c(-c4c(F)cc(S(=O)(=O)[O-])cc4F)c4nc(c(-c5c(F)cc(S(=O)(=O)[O-])cc5F)c5ccc2[nH]5)C=C4)C=C3)cc1
REMARK SMILES IDX 5 1 4 2 3 3 1 4 2 5 29 7 30 8 94 9 31 10 93 11 32 12 33 13
REMARK SMILES IDX 34 14 87 15 35 16 92 17 86 18 88 19 36 20 91 21 85 22 84 23
REMARK SMILES IDX 37 25 71 26 50 27 70 28 51 29 54 30 69 31 89 32 52 33 53 34
REMARK SMILES IDX 68 36 90 37 55 38 38 39 39 40 48 41 40 42 41 43 47 44 49 45
REMARK SMILES IDX 42 46 43 47 44 48 45 49 46 50 72 51 73 52 82 53 74 54 75 55
REMARK SMILES IDX 81 56 83 57 76 58 77 59 78 60 79 61 80 62 56 63 57 64 66 65
REMARK SMILES IDX 58 66 59 67 65 68 67 69 60 70 61 71 62 72 63 73 64 74 6 75
REMARK SMILES IDX 7 76 8 77 9 78 10 80 11 81 12 82 15 83 13 84 14 85 16 86
REMARK SMILES IDX 17 87 18 88 19 89 20 90 28 91 21 92 27 93 22 94 26 95 23 96
REMARK SMILES IDX 25 97 24 98
REMARK H PARENT 3 6 88 24 54 35 8 79
REMARK Flexibility Score: inf
ROOT
ATOM      1  C   UNL A   1      33.801  28.066  25.744  1.00  0.00     0.023 C 
ENDROOT
BRANCH   1   2
ATOM      2  C   UNL A   1      33.292  28.359  27.153  1.00  0.00     0.116 C 
BRANCH   2   3
ATOM      3  N   UNL A   1      33.240  29.765  27.506  1.00  0.00    -0.352 N 
ATOM      4  O   UNL A   1      33.816  31.841  28.048  1.00  0.00    -0.269 OA
ATOM      5  C   UNL A   1      34.184  30.673  27.920  1.00  0.00     0.251 C 
ATOM      6  H   UNL A   1      32.337  30.149  27.434  1.00  0.00     0.163 HD
BRANCH   5   7
ATOM      7  C   UNL A   1      35.580  30.309  28.278  1.00  0.00     0.039 A 
ATOM      8  C   UNL A   1      36.645  30.318  27.376  1.00  0.00     0.014 A 
ATOM      9  C   UNL A   1      35.831  29.953  29.617  1.00  0.00     0.014 A 
ATOM     10  C   UNL A   1      37.903  29.879  27.765  1.00  0.00     0.010 A 
ATOM     11  C   UNL A   1      37.104  29.551  30.027  1.00  0.00     0.010 A 
ATOM     12  C   UNL A   1      38.136  29.501  29.090  1.00  0.00    -0.014 A 
BRANCH  12  13
ATOM     13  C   UNL A   1      39.541  29.203  29.453  1.00  0.00     0.031 A 
ATOM     14  C   UNL A   1      40.295  30.473  29.893  1.00  0.00     0.074 A 
ATOM     15  C   UNL A   1      39.968  27.927  29.220  1.00  0.00     0.049 A 
ATOM     16  N   UNL A   1      41.535  30.819  29.716  1.00  0.00    -0.248 NA
ATOM     17  C   UNL A   1      39.517  31.572  30.528  1.00  0.00     0.031 C 
ATOM     18  C   UNL A   1      39.089  26.814  28.799  1.00  0.00     0.029 A 
ATOM     19  N   UNL A   1      41.196  27.299  29.264  1.00  0.00    -0.354 N 
ATOM     20  C   UNL A   1      41.729  32.055  30.376  1.00  0.00     0.074 A 
ATOM     21  C   UNL A   1      40.428  32.524  30.742  1.00  0.00     0.031 C 
ATOM     22  C   UNL A   1      39.808  25.700  28.553  1.00  0.00     0.029 A 
ATOM     23  C   UNL A   1      41.215  25.961  28.787  1.00  0.00     0.049 A 
ATOM     24  H   UNL A   1      42.004  27.748  29.603  1.00  0.00     0.167 HD
ATOM     25  C   UNL A   1      42.956  32.572  30.683  1.00  0.00     0.037 A 
ATOM     26  C   UNL A   1      42.288  25.143  28.545  1.00  0.00     0.037 A 
ATOM     27  C   UNL A   1      43.988  31.692  30.244  1.00  0.00     0.049 A 
ATOM     28  C   UNL A   1      43.463  25.912  28.991  1.00  0.00     0.074 A 
ATOM     29  C   UNL A   1      44.557  31.460  29.022  1.00  0.00     0.029 A 
ATOM     30  N   UNL A   1      44.368  30.695  31.109  1.00  0.00    -0.354 N 
ATOM     31  N   UNL A   1      43.767  26.160  30.230  1.00  0.00    -0.248 NA
ATOM     32  C   UNL A   1      44.323  26.533  27.975  1.00  0.00     0.031 C 
ATOM     33  C   UNL A   1      44.939  30.102  29.069  1.00  0.00     0.029 A 
ATOM     34  C   UNL A   1      44.695  29.594  30.349  1.00  0.00     0.049 A 
ATOM     35  H   UNL A   1      44.401  30.755  32.091  1.00  0.00     0.167 HD
ATOM     36  C   UNL A   1      44.645  27.212  30.125  1.00  0.00     0.074 A 
ATOM     37  C   UNL A   1      45.160  27.187  28.776  1.00  0.00     0.031 C 
ATOM     38  C   UNL A   1      44.515  28.286  30.945  1.00  0.00     0.037 A 
BRANCH  25  39
ATOM     39  C   UNL A   1      43.377  33.746  31.531  1.00  0.00     0.058 A 
ATOM     40  C   UNL A   1      43.231  33.645  32.939  1.00  0.00     0.135 A 
ATOM     41  C   UNL A   1      43.615  35.034  31.031  1.00  0.00     0.135 A 
ATOM     42  F   UNL A   1      43.068  32.449  33.529  1.00  0.00    -0.206 F 
ATOM     43  C   UNL A   1      43.190  34.757  33.775  1.00  0.00     0.059 A 
ATOM     44  C   UNL A   1      43.619  36.164  31.860  1.00  0.00     0.059 A 
ATOM     45  F   UNL A   1      43.774  35.242  29.717  1.00  0.00    -0.206 F 
ATOM     46  C   UNL A   1      43.349  36.019  33.220  1.00  0.00     0.060 A 
BRANCH  46  47
ATOM     47  S   UNL A   1      43.153  37.456  34.297  1.00  0.00     0.124 S 
ATOM     48  O   UNL A   1      41.935  37.120  35.025  1.00  0.00    -0.237 OA
ATOM     49  O   UNL A   1      44.386  37.427  35.081  1.00  0.00    -0.237 OA
ATOM     50  O   UNL A   1      43.044  38.569  33.359  1.00  0.00    -0.744 OA
ENDBRANCH  46  47
ENDBRANCH  25  39
BRANCH  26  51
ATOM     51  C   UNL A   1      42.573  23.821  27.846  1.00  0.00     0.058 A 
ATOM     52  C   UNL A   1      43.202  22.700  28.405  1.00  0.00     0.135 A 
ATOM     53  C   UNL A   1      42.057  23.593  26.536  1.00  0.00     0.135 A 
ATOM     54  F   UNL A   1      43.873  22.781  29.559  1.00  0.00    -0.206 F 
ATOM     55  C   UNL A   1      43.164  21.428  27.802  1.00  0.00     0.059 A 
ATOM     56  C   UNL A   1      41.965  22.337  25.938  1.00  0.00     0.059 A 
ATOM     57  F   UNL A   1      41.577  24.593  25.783  1.00  0.00    -0.206 F 
ATOM     58  C   UNL A   1      42.490  21.246  26.598  1.00  0.00     0.060 A 
BRANCH  58  59
ATOM     59  S   UNL A   1      42.177  19.586  25.956  1.00  0.00     0.124 S 
ATOM     60  O   UNL A   1      42.390  18.758  27.136  1.00  0.00    -0.237 OA
ATOM     61  O   UNL A   1      40.798  19.685  25.485  1.00  0.00    -0.237 OA
ATOM     62  O   UNL A   1      43.175  19.448  24.898  1.00  0.00    -0.744 OA
ENDBRANCH  58  59
ENDBRANCH  26  51
BRANCH  38  63
ATOM     63  C   UNL A   1      43.795  27.986  32.248  1.00  0.00     0.058 A 
ATOM     64  C   UNL A   1      44.435  27.258  33.262  1.00  0.00     0.135 A 
ATOM     65  C   UNL A   1      42.449  28.313  32.488  1.00  0.00     0.135 A 
ATOM     66  F   UNL A   1      45.719  26.893  33.114  1.00  0.00    -0.206 F 
ATOM     67  C   UNL A   1      43.780  26.888  34.442  1.00  0.00     0.059 A 
ATOM     68  C   UNL A   1      41.773  27.972  33.660  1.00  0.00     0.059 A 
ATOM     69  F   UNL A   1      41.744  28.973  31.572  1.00  0.00    -0.206 F 
ATOM     70  C   UNL A   1      42.447  27.254  34.636  1.00  0.00     0.060 A 
BRANCH  70  71
ATOM     71  S   UNL A   1      41.623  26.802  36.178  1.00  0.00     0.124 S 
ATOM     72  O   UNL A   1      40.723  25.736  35.750  1.00  0.00    -0.237 OA
ATOM     73  O   UNL A   1      42.745  26.385  37.013  1.00  0.00    -0.237 OA
ATOM     74  O   UNL A   1      40.965  28.038  36.596  1.00  0.00    -0.744 OA
ENDBRANCH  70  71
ENDBRANCH  38  63
ENDBRANCH  12  13
ENDBRANCH   5   7
ENDBRANCH   2   3
ENDBRANCH   1   2
BRANCH   1  75
ATOM     75  C   UNL A   1      33.452  29.124  24.699  1.00  0.00     0.023 C 
BRANCH  75  76
ATOM     76  C   UNL A   1      33.456  28.664  23.242  1.00  0.00     0.116 C 
BRANCH  76  77
ATOM     77  N   UNL A   1      32.228  29.003  22.547  1.00  0.00    -0.351 N 
ATOM     78  C   UNL A   1      30.976  28.442  22.638  1.00  0.00     0.267 C 
ATOM     79  H   UNL A   1      32.303  29.751  21.912  1.00  0.00     0.163 HD
ATOM     80  O   UNL A   1      30.110  28.842  21.876  1.00  0.00    -0.268 OA
BRANCH  78  81
ATOM     81  C   UNL A   1      30.755  27.375  23.595  1.00  0.00     0.107 A 
ATOM     82  C   UNL A   1      30.224  27.447  24.873  1.00  0.00     0.033 A 
ATOM     83  N   UNL A   1      31.017  26.033  23.351  1.00  0.00    -0.334 N 
ATOM     84  C   UNL A   1      30.168  26.141  25.406  1.00  0.00     0.020 A 
ATOM     85  C   UNL A   1      30.646  25.286  24.441  1.00  0.00     0.087 A 
BRANCH  83  86
ATOM     86  C   UNL A   1      31.553  25.489  22.109  1.00  0.00     0.222 C 
BRANCH  86  87
ATOM     87  C   UNL A   1      33.031  25.124  22.066  1.00  0.00     0.242 C 
ATOM     88  O   UNL A   1      33.789  25.840  21.399  1.00  0.00    -0.273 OA
BRANCH  87  89
ATOM     89  N   UNL A   1      33.535  24.128  22.900  1.00  0.00    -0.336 N 
ATOM     90  C   UNL A   1      33.171  22.716  22.790  1.00  0.00     0.124 C 
ATOM     91  C   UNL A   1      34.564  24.512  23.877  1.00  0.00     0.155 C 
ATOM     92  C   UNL A   1      33.595  21.818  23.947  1.00  0.00     0.057 C 
ATOM     93  C   UNL A   1      35.472  23.398  24.333  1.00  0.00    -0.025 A 
ATOM     94  C   UNL A   1      35.010  22.074  24.353  1.00  0.00    -0.041 A 
ATOM     95  C   UNL A   1      36.740  23.681  24.852  1.00  0.00     0.006 A 
ATOM     96  C   UNL A   1      35.820  21.047  24.848  1.00  0.00     0.004 A 
ATOM     97  C   UNL A   1      37.545  22.656  25.350  1.00  0.00     0.000 A 
ATOM     98  C   UNL A   1      37.090  21.339  25.339  1.00  0.00     0.000 A 
ENDBRANCH  87  89
ENDBRANCH  86  87
ENDBRANCH  83  86
ENDBRANCH  78  81
ENDBRANCH  76  77
ENDBRANCH  75  76
ENDBRANCH   1  75
TORSDOF 17
ENDMDL
MODEL 2
REMARK VINA RESULT:     -12.4      3.986      9.084
REMARK SMILES O=C(NCCCCNC(=O)c1cccn1CC(=O)N1CCc2ccccc2C1)c1ccc(-c2c3nc(c(-c4c(F)cc(S(=O)(=O)[O-])cc4F)c4ccc([nH]4)c(-c4c(F)cc(S(=O)(=O)[O-])cc4F)c4nc(c(-c5c(F)cc(S(=O)(=O)[O-])cc5F)c5ccc2[nH]5)C=C4)C=C3)cc1
REMARK SMILES IDX 5 1 4 2 3 3 1 4 2 5 29 7 30 8 94 9 31 10 93 11 32 12 33 13
REMARK SMILES IDX 34 14 87 15 35 16 92 17 86 18 88 19 36 20 91 21 85 22 84 23
REMARK SMILES IDX 37 25 71 26 50 27 70 28 51 29 54 30 69 31 89 32 52 33 53 34
REMARK SMILES IDX 68 36 90 37 55 38 38 39 39 40 48 41 40 42 41 43 47 44 49 45
REMARK SMILES IDX 42 46 43 47 44 48 45 49 46 50 72 51 73 52 82 53 74 54 75 55
REMARK SMILES IDX 81 56 83 57 76 58 77 59 78 60 79 61 80 62 56 63 57 64 66 65
REMARK SMILES IDX 58 66 59 67 65 68 67 69 60 70 61 71 62 72 63 73 64 74 6 75
REMARK SMILES IDX 7 76 8 77 9 78 10 80 11 81 12 82 15 83 13 84 14 85 16 86
REMARK SMILES IDX 17 87 18 88 19 89 20 90 28 91 21 92 27 93 22 94 26 95 23 96
REMARK SMILES IDX 25 97 24 98
REMARK H PARENT 3 6 88 24 54 35 8 79
REMARK Flexibility Score: inf
ROOT
ATOM      1  C   UNL A   1      35.596  23.354  26.030  1.00  0.00     0.023 C 
ENDROOT
BRANCH   1   2
ATOM      2  C   UNL A   1      36.733  23.563  25.034  1.00  0.00     0.116 C 
BRANCH   2   3
ATOM      3  N   UNL A   1      37.866  22.672  25.200  1.00  0.00    -0.352 N 
ATOM      4  O   UNL A   1      39.746  21.741  25.931  1.00  0.00    -0.269 OA
ATOM      5  C   UNL A   1      39.018  22.735  25.944  1.00  0.00     0.251 C 
ATOM      6  H   UNL A   1      37.792  21.849  24.666  1.00  0.00     0.163 HD
BRANCH   5   7
ATOM      7  C   UNL A   1      39.454  23.943  26.694  1.00  0.00     0.039 A 
ATOM      8  C   UNL A   1      39.026  24.257  27.984  1.00  0.00     0.014 A 
ATOM      9  C   UNL A   1      40.369  24.802  26.056  1.00  0.00     0.014 A 
ATOM     10  C   UNL A   1      39.407  25.449  28.584  1.00  0.00     0.010 A 
ATOM     11  C   UNL A   1      40.792  25.983  26.671  1.00  0.00     0.010 A 
ATOM     12  C   UNL A   1      40.294  26.310  27.932  1.00  0.00    -0.014 A 
BRANCH  12  13
ATOM     13  C   UNL A   1      40.774  27.476  28.710  1.00  0.00     0.031 A 
ATOM     14  C   UNL A   1      42.025  27.130  29.539  1.00  0.00     0.074 A 
ATOM     15  C   UNL A   1      39.984  28.590  28.678  1.00  0.00     0.049 A 
ATOM     16  N   UNL A   1      42.398  27.543  30.714  1.00  0.00    -0.248 NA
ATOM     17  C   UNL A   1      42.942  26.074  29.027  1.00  0.00     0.031 C 
ATOM     18  C   UNL A   1      38.803  28.754  27.804  1.00  0.00     0.029 A 
ATOM     19  N   UNL A   1      39.981  29.788  29.362  1.00  0.00    -0.354 N 
ATOM     20  C   UNL A   1      43.661  26.966  30.985  1.00  0.00     0.074 A 
ATOM     21  C   UNL A   1      43.878  25.978  29.973  1.00  0.00     0.031 C 
ATOM     22  C   UNL A   1      38.168  29.915  28.064  1.00  0.00     0.029 A 
ATOM     23  C   UNL A   1      38.860  30.627  29.121  1.00  0.00     0.049 A 
ATOM     24  H   UNL A   1      40.708  30.045  29.976  1.00  0.00     0.167 HD
ATOM     25  C   UNL A   1      44.508  27.408  31.963  1.00  0.00     0.037 A 
ATOM     26  C   UNL A   1      38.486  31.779  29.763  1.00  0.00     0.037 A 
ATOM     27  C   UNL A   1      43.934  28.516  32.651  1.00  0.00     0.049 A 
ATOM     28  C   UNL A   1      39.570  32.051  30.723  1.00  0.00     0.074 A 
ATOM     29  C   UNL A   1      42.987  28.612  33.635  1.00  0.00     0.029 A 
ATOM     30  N   UNL A   1      44.152  29.763  32.120  1.00  0.00    -0.354 N 
ATOM     31  N   UNL A   1      40.762  32.460  30.407  1.00  0.00    -0.248 NA
ATOM     32  C   UNL A   1      39.339  31.758  32.144  1.00  0.00     0.031 C 
ATOM     33  C   UNL A   1      42.360  29.853  33.393  1.00  0.00     0.029 A 
ATOM     34  C   UNL A   1      43.021  30.513  32.351  1.00  0.00     0.049 A 
ATOM     35  H   UNL A   1      44.967  30.066  31.658  1.00  0.00     0.167 HD
ATOM     36  C   UNL A   1      41.495  32.164  31.532  1.00  0.00     0.074 A 
ATOM     37  C   UNL A   1      40.551  32.034  32.617  1.00  0.00     0.031 C 
ATOM     38  C   UNL A   1      42.709  31.571  31.411  1.00  0.00     0.037 A 
BRANCH  25  39
ATOM     39  C   UNL A   1      45.942  27.073  32.288  1.00  0.00     0.058 A 
ATOM     40  C   UNL A   1      46.963  27.630  31.476  1.00  0.00     0.135 A 
ATOM     41  C   UNL A   1      46.333  26.023  33.131  1.00  0.00     0.135 A 
ATOM     42  F   UNL A   1      46.712  28.684  30.682  1.00  0.00    -0.206 F 
ATOM     43  C   UNL A   1      48.247  27.097  31.407  1.00  0.00     0.059 A 
ATOM     44  C   UNL A   1      47.632  25.497  33.108  1.00  0.00     0.059 A 
ATOM     45  F   UNL A   1      45.450  25.428  33.944  1.00  0.00    -0.206 F 
ATOM     46  C   UNL A   1      48.563  26.004  32.202  1.00  0.00     0.060 A 
BRANCH  46  47
ATOM     47  S   UNL A   1      50.187  25.239  31.996  1.00  0.00     0.124 S 
ATOM     48  O   UNL A   1      51.074  26.394  32.083  1.00  0.00    -0.237 OA
ATOM     49  O   UNL A   1      50.241  24.316  33.127  1.00  0.00    -0.237 OA
ATOM     50  O   UNL A   1      50.098  24.605  30.685  1.00  0.00    -0.744 OA
ENDBRANCH  46  47
ENDBRANCH  25  39
BRANCH  26  51
ATOM     51  C   UNL A   1      37.268  32.687  29.847  1.00  0.00     0.058 A 
ATOM     52  C   UNL A   1      37.221  34.053  29.532  1.00  0.00     0.135 A 
ATOM     53  C   UNL A   1      35.990  32.125  30.142  1.00  0.00     0.135 A 
ATOM     54  F   UNL A   1      38.338  34.771  29.380  1.00  0.00    -0.206 F 
ATOM     55  C   UNL A   1      36.011  34.749  29.349  1.00  0.00     0.059 A 
ATOM     56  C   UNL A   1      34.778  32.777  29.923  1.00  0.00     0.059 A 
ATOM     57  F   UNL A   1      35.862  30.882  30.626  1.00  0.00    -0.206 F 
ATOM     58  C   UNL A   1      34.795  34.086  29.487  1.00  0.00     0.060 A 
BRANCH  58  59
ATOM     59  S   UNL A   1      33.250  34.871  28.977  1.00  0.00     0.124 S 
ATOM     60  O   UNL A   1      32.541  35.001  30.244  1.00  0.00    -0.237 OA
ATOM     61  O   UNL A   1      33.713  36.117  28.374  1.00  0.00    -0.237 OA
ATOM     62  O   UNL A   1      32.687  33.907  28.033  1.00  0.00    -0.744 OA
ENDBRANCH  58  59
ENDBRANCH  26  51
BRANCH  38  63
ATOM     63  C   UNL A   1      43.382  31.805  30.070  1.00  0.00     0.058 A 
ATOM     64  C   UNL A   1      43.890  33.070  29.741  1.00  0.00     0.135 A 
ATOM     65  C   UNL A   1      43.452  30.836  29.053  1.00  0.00     0.135 A 
ATOM     66  F   UNL A   1      43.855  34.061  30.647  1.00  0.00    -0.206 F 
ATOM     67  C   UNL A   1      44.441  33.350  28.485  1.00  0.00     0.059 A 
ATOM     68  C   UNL A   1      44.009  31.079  27.797  1.00  0.00     0.059 A 
ATOM     69  F   UNL A   1      42.966  29.614  29.255  1.00  0.00    -0.206 F 
ATOM     70  C   UNL A   1      44.501  32.345  27.519  1.00  0.00     0.060 A 
BRANCH  70  71
ATOM     71  S   UNL A   1      45.247  32.708  25.913  1.00  0.00     0.124 S 
ATOM     72  O   UNL A   1      44.078  32.944  25.073  1.00  0.00    -0.237 OA
ATOM     73  O   UNL A   1      46.058  33.883  26.213  1.00  0.00    -0.237 OA
ATOM     74  O   UNL A   1      46.002  31.497  25.600  1.00  0.00    -0.744 OA
ENDBRANCH  70  71
ENDBRANCH  38  63
ENDBRANCH  12  13
ENDBRANCH   5   7
ENDBRANCH   2   3
ENDBRANCH   1   2
BRANCH   1  75
ATOM     75  C   UNL A   1      35.366  21.904  26.452  1.00  0.00     0.023 C 
BRANCH  75  76
ATOM     76  C   UNL A   1      34.042  21.606  27.155  1.00  0.00     0.116 C 
BRANCH  76  77
ATOM     77  N   UNL A   1      33.330  20.494  26.552  1.00  0.00    -0.351 N 
ATOM     78  C   UNL A   1      32.709  20.399  25.329  1.00  0.00     0.267 C 
ATOM     79  H   UNL A   1      33.284  19.681  27.106  1.00  0.00     0.163 HD
ATOM     80  O   UNL A   1      32.089  19.378  25.076  1.00  0.00    -0.268 OA
BRANCH  78  81
ATOM     81  C   UNL A   1      32.780  21.526  24.419  1.00  0.00     0.107 A 
ATOM     82  C   UNL A   1      33.612  21.713  23.327  1.00  0.00     0.033 A 
ATOM     83  N   UNL A   1      31.950  22.638  24.479  1.00  0.00    -0.334 N 
ATOM     84  C   UNL A   1      33.286  22.948  22.724  1.00  0.00     0.020 A 
ATOM     85  C   UNL A   1      32.246  23.490  23.443  1.00  0.00     0.087 A 
BRANCH  83  86
ATOM     86  C   UNL A   1      30.889  22.850  25.456  1.00  0.00     0.222 C 
BRANCH  86  87
ATOM     87  C   UNL A   1      31.088  23.935  26.506  1.00  0.00     0.242 C 
ATOM     88  O   UNL A   1      31.428  23.588  27.645  1.00  0.00    -0.273 OA
BRANCH  87  89
ATOM     89  N   UNL A   1      31.068  25.279  26.141  1.00  0.00    -0.336 N 
ATOM     90  C   UNL A   1      32.197  26.188  26.330  1.00  0.00     0.124 C 
ATOM     91  C   UNL A   1      29.878  25.776  25.438  1.00  0.00     0.155 C 
ATOM     92  C   UNL A   1      31.908  27.672  26.133  1.00  0.00     0.057 C 
ATOM     93  C   UNL A   1      30.097  26.994  24.576  1.00  0.00    -0.025 A 
ATOM     94  C   UNL A   1      31.100  27.918  24.899  1.00  0.00    -0.041 A 
ATOM     95  C   UNL A   1      29.229  27.281  23.515  1.00  0.00     0.006 A 
ATOM     96  C   UNL A   1      31.258  29.088  24.150  1.00  0.00     0.004 A 
ATOM     97  C   UNL A   1      29.385  28.451  22.771  1.00  0.00     0.000 A 
ATOM     98  C   UNL A   1      30.404  29.349  23.082  1.00  0.00     0.000 A 
ENDBRANCH  87  89
ENDBRANCH  86  87
ENDBRANCH  83  86
ENDBRANCH  78  81
ENDBRANCH  76  77
ENDBRANCH  75  76
ENDBRANCH   1  75
TORSDOF 17
ENDMDL
MODEL 3
REMARK VINA RESULT:     -12.3      3.435      9.591
REMARK SMILES O=C(NCCCCNC(=O)c1cccn1CC(=O)N1CCc2ccccc2C1)c1ccc(-c2c3nc(c(-c4c(F)cc(S(=O)(=O)[O-])cc4F)c4ccc([nH]4)c(-c4c(F)cc(S(=O)(=O)[O-])cc4F)c4nc(c(-c5c(F)cc(S(=O)(=O)[O-])cc5F)c5ccc2[nH]5)C=C4)C=C3)cc1
REMARK SMILES IDX 5 1 4 2 3 3 1 4 2 5 29 7 30 8 94 9 31 10 93 11 32 12 33 13
REMARK SMILES IDX 34 14 87 15 35 16 92 17 86 18 88 19 36 20 91 21 85 22 84 23
REMARK SMILES IDX 37 25 71 26 50 27 70 28 51 29 54 30 69 31 89 32 52 33 53 34
REMARK SMILES IDX 68 36 90 37 55 38 38 39 39 40 48 41 40 42 41 43 47 44 49 45
REMARK SMILES IDX 42 46 43 47 44 48 45 49 46 50 72 51 73 52 82 53 74 54 75 55
REMARK SMILES IDX 81 56 83 57 76 58 77 59 78 60 79 61 80 62 56 63 57 64 66 65
REMARK SMILES IDX 58 66 59 67 65 68 67 69 60 70 61 71 62 72 63 73 64 74 6 75
REMARK SMILES IDX 7 76 8 77 9 78 10 80 11 81 12 82 15 83 13 84 14 85 16 86
REMARK SMILES IDX 17 87 18 88 19 89 20 90 28 91 21 92 27 93 22 94 26 95 23 96
REMARK SMILES IDX 25 97 24 98
REMARK H PARENT 3 6 88 24 54 35 8 79
REMARK Flexibility Score: inf
ROOT
ATOM      1  C   UNL A   1      33.435  28.138  25.711  1.00  0.00     0.023 C 
ENDROOT
BRANCH   1   2
ATOM      2  C   UNL A   1      34.607  28.362  26.662  1.00  0.00     0.116 C 
BRANCH   2   3
ATOM      3  N   UNL A   1      34.785  29.732  27.105  1.00  0.00    -0.352 N 
ATOM      4  O   UNL A   1      35.689  31.637  27.805  1.00  0.00    -0.269 OA
ATOM      5  C   UNL A   1      35.852  30.431  27.615  1.00  0.00     0.251 C 
ATOM      6  H   UNL A   1      33.969  30.275  27.021  1.00  0.00     0.163 HD
BRANCH   5   7
ATOM      7  C   UNL A   1      37.142  29.804  28.006  1.00  0.00     0.039 A 
ATOM      8  C   UNL A   1      38.326  29.937  27.280  1.00  0.00     0.014 A 
ATOM      9  C   UNL A   1      37.157  29.046  29.192  1.00  0.00     0.014 A 
ATOM     10  C   UNL A   1      39.468  29.248  27.660  1.00  0.00     0.010 A 
ATOM     11  C   UNL A   1      38.315  28.383  29.605  1.00  0.00     0.010 A 
ATOM     12  C   UNL A   1      39.468  28.476  28.824  1.00  0.00    -0.014 A 
BRANCH  12  13
ATOM     13  C   UNL A   1      40.771  27.908  29.241  1.00  0.00     0.031 A 
ATOM     14  C   UNL A   1      41.109  26.626  28.456  1.00  0.00     0.074 A 
ATOM     15  C   UNL A   1      41.378  28.507  30.308  1.00  0.00     0.049 A 
ATOM     16  N   UNL A   1      41.726  25.546  28.832  1.00  0.00    -0.248 NA
ATOM     17  C   UNL A   1      40.577  26.485  27.072  1.00  0.00     0.031 C 
ATOM     18  C   UNL A   1      40.909  29.757  30.944  1.00  0.00     0.029 A 
ATOM     19  N   UNL A   1      42.476  28.204  31.085  1.00  0.00    -0.354 N 
ATOM     20  C   UNL A   1      41.830  24.701  27.702  1.00  0.00     0.074 A 
ATOM     21  C   UNL A   1      40.995  25.276  26.691  1.00  0.00     0.031 C 
ATOM     22  C   UNL A   1      41.650  30.051  32.032  1.00  0.00     0.029 A 
ATOM     23  C   UNL A   1      42.672  29.039  32.219  1.00  0.00     0.049 A 
ATOM     24  H   UNL A   1      43.084  27.460  30.869  1.00  0.00     0.167 HD
ATOM     25  C   UNL A   1      42.681  23.635  27.621  1.00  0.00     0.037 A 
ATOM     26  C   UNL A   1      43.553  28.895  33.259  1.00  0.00     0.037 A 
ATOM     27  C   UNL A   1      43.432  23.509  28.826  1.00  0.00     0.049 A 
ATOM     28  C   UNL A   1      44.365  27.716  32.911  1.00  0.00     0.074 A 
ATOM     29  C   UNL A   1      43.137  22.991  30.057  1.00  0.00     0.029 A 
ATOM     30  N   UNL A   1      44.597  24.231  28.914  1.00  0.00    -0.354 N 
ATOM     31  N   UNL A   1      45.265  27.678  31.975  1.00  0.00    -0.248 NA
ATOM     32  C   UNL A   1      44.093  26.447  33.602  1.00  0.00     0.031 C 
ATOM     33  C   UNL A   1      43.919  23.753  30.951  1.00  0.00     0.029 A 
ATOM     34  C   UNL A   1      44.741  24.622  30.226  1.00  0.00     0.049 A 
ATOM     35  H   UNL A   1      45.216  24.431  28.175  1.00  0.00     0.167 HD
ATOM     36  C   UNL A   1      45.423  26.330  31.757  1.00  0.00     0.074 A 
ATOM     37  C   UNL A   1      44.937  25.660  32.941  1.00  0.00     0.031 C 
ATOM     38  C   UNL A   1      45.464  25.850  30.488  1.00  0.00     0.037 A 
BRANCH  25  39
ATOM     39  C   UNL A   1      43.081  22.744  26.473  1.00  0.00     0.058 A 
ATOM     40  C   UNL A   1      42.577  21.418  26.443  1.00  0.00     0.135 A 
ATOM     41  C   UNL A   1      44.143  23.015  25.599  1.00  0.00     0.135 A 
ATOM     42  F   UNL A   1      41.517  21.068  27.190  1.00  0.00    -0.206 F 
ATOM     43  C   UNL A   1      43.170  20.401  25.699  1.00  0.00     0.059 A 
ATOM     44  C   UNL A   1      44.730  22.016  24.809  1.00  0.00     0.059 A 
ATOM     45  F   UNL A   1      44.691  24.236  25.541  1.00  0.00    -0.206 F 
ATOM     46  C   UNL A   1      44.272  20.703  24.911  1.00  0.00     0.060 A 
BRANCH  46  47
ATOM     47  S   UNL A   1      45.113  19.347  24.064  1.00  0.00     0.124 S 
ATOM     48  O   UNL A   1      44.597  19.477  22.706  1.00  0.00    -0.237 OA
ATOM     49  O   UNL A   1      46.521  19.696  24.240  1.00  0.00    -0.237 OA
ATOM     50  O   UNL A   1      44.674  18.165  24.799  1.00  0.00    -0.744 OA
ENDBRANCH  46  47
ENDBRANCH  25  39
BRANCH  26  51
ATOM     51  C   UNL A   1      43.785  29.491  34.640  1.00  0.00     0.058 A 
ATOM     52  C   UNL A   1      44.736  30.463  34.980  1.00  0.00     0.135 A 
ATOM     53  C   UNL A   1      42.895  29.164  35.706  1.00  0.00     0.135 A 
ATOM     54  F   UNL A   1      45.740  30.775  34.154  1.00  0.00    -0.206 F 
ATOM     55  C   UNL A   1      44.694  31.174  36.195  1.00  0.00     0.059 A 
ATOM     56  C   UNL A   1      42.802  29.883  36.897  1.00  0.00     0.059 A 
ATOM     57  F   UNL A   1      42.035  28.140  35.617  1.00  0.00    -0.206 F 
ATOM     58  C   UNL A   1      43.686  30.918  37.120  1.00  0.00     0.060 A 
BRANCH  58  59
ATOM     59  S   UNL A   1      43.437  32.005  38.542  1.00  0.00     0.124 S 
ATOM     60  O   UNL A   1      44.323  31.414  39.536  1.00  0.00    -0.237 OA
ATOM     61  O   UNL A   1      43.841  33.306  38.018  1.00  0.00    -0.237 OA
ATOM     62  O   UNL A   1      42.006  31.872  38.811  1.00  0.00    -0.744 OA
ENDBRANCH  58  59
ENDBRANCH  26  51
BRANCH  38  63
ATOM     63  C   UNL A   1      45.897  26.873  29.452  1.00  0.00     0.058 A 
ATOM     64  C   UNL A   1      47.229  27.310  29.399  1.00  0.00     0.135 A 
ATOM     65  C   UNL A   1      45.009  27.514  28.571  1.00  0.00     0.135 A 
ATOM     66  F   UNL A   1      48.145  26.761  30.213  1.00  0.00    -0.206 F 
ATOM     67  C   UNL A   1      47.651  28.311  28.518  1.00  0.00     0.059 A 
ATOM     68  C   UNL A   1      45.402  28.505  27.670  1.00  0.00     0.059 A 
ATOM     69  F   UNL A   1      43.717  27.196  28.568  1.00  0.00    -0.206 F 
ATOM     70  C   UNL A   1      46.730  28.901  27.651  1.00  0.00     0.060 A 
BRANCH  70  71
ATOM     71  S   UNL A   1      47.294  30.168  26.493  1.00  0.00     0.124 S 
ATOM     72  O   UNL A   1      46.379  29.994  25.370  1.00  0.00    -0.237 OA
ATOM     73  O   UNL A   1      47.117  31.391  27.269  1.00  0.00    -0.237 OA
ATOM     74  O   UNL A   1      48.682  29.800  26.224  1.00  0.00    -0.744 OA
ENDBRANCH  70  71
ENDBRANCH  38  63
ENDBRANCH  12  13
ENDBRANCH   5   7
ENDBRANCH   2   3
ENDBRANCH   1   2
BRANCH   1  75
ATOM     75  C   UNL A   1      32.299  27.287  26.277  1.00  0.00     0.023 C 
BRANCH  75  76
ATOM     76  C   UNL A   1      32.516  25.775  26.264  1.00  0.00     0.116 C 
BRANCH  76  77
ATOM     77  N   UNL A   1      31.416  25.049  26.873  1.00  0.00    -0.351 N 
ATOM     78  C   UNL A   1      31.018  23.743  26.708  1.00  0.00     0.267 C 
ATOM     79  H   UNL A   1      30.870  25.574  27.502  1.00  0.00     0.163 HD
ATOM     80  O   UNL A   1      29.994  23.379  27.265  1.00  0.00    -0.268 OA
BRANCH  78  81
ATOM     81  C   UNL A   1      31.801  22.877  25.849  1.00  0.00     0.107 A 
ATOM     82  C   UNL A   1      32.696  21.879  26.201  1.00  0.00     0.033 A 
ATOM     83  N   UNL A   1      31.742  22.883  24.462  1.00  0.00    -0.334 N 
ATOM     84  C   UNL A   1      33.184  21.280  25.018  1.00  0.00     0.020 A 
ATOM     85  C   UNL A   1      32.566  21.906  23.961  1.00  0.00     0.087 A 
BRANCH  83  86
ATOM     86  C   UNL A   1      30.895  23.754  23.656  1.00  0.00     0.222 C 
BRANCH  86  87
ATOM     87  C   UNL A   1      31.560  24.888  22.886  1.00  0.00     0.242 C 
ATOM     88  O   UNL A   1      32.422  24.596  22.048  1.00  0.00    -0.273 OA
BRANCH  87  89
ATOM     89  N   UNL A   1      31.077  26.190  22.996  1.00  0.00    -0.336 N 
ATOM     90  C   UNL A   1      31.716  27.348  22.373  1.00  0.00     0.124 C 
ATOM     91  C   UNL A   1      29.800  26.387  23.695  1.00  0.00     0.155 C 
ATOM     92  C   UNL A   1      31.218  28.717  22.822  1.00  0.00     0.057 C 
ATOM     93  C   UNL A   1      29.039  27.633  23.315  1.00  0.00    -0.025 A 
ATOM     94  C   UNL A   1      29.725  28.771  22.870  1.00  0.00    -0.041 A 
ATOM     95  C   UNL A   1      27.656  27.710  23.513  1.00  0.00     0.006 A 
ATOM     96  C   UNL A   1      29.033  29.954  22.591  1.00  0.00     0.004 A 
ATOM     97  C   UNL A   1      26.967  28.892  23.238  1.00  0.00     0.000 A 
ATOM     98  C   UNL A   1      27.653  30.010  22.769  1.00  0.00     0.000 A 
ENDBRANCH  87  89
ENDBRANCH  86  87
ENDBRANCH  83  86
ENDBRANCH  78  81
ENDBRANCH  76  77
ENDBRANCH  75  76
ENDBRANCH   1  75
TORSDOF 17
ENDMDL
