MODEL 1
REMARK VINA RESULT:     -11.8      0.000      0.000
REMARK SMILES O=C(NCCCCNC(=O)[C@H]1CC[C@@H](CNC(=O)c2ccc(CO)cc2)O1)c1ccc(-c2c3nc(c(-c4c(F)cc(S(=O)(=O)[O-])cc4F)c4ccc([nH]4)c(-c4c(F)cc(S(=O)(=O)[O-])cc4F)c4nc(c(-c5c(F)cc(S(=O)(=O)[O-])cc5F)c5ccc2[nH]5)C=C4)C=C3)cc1
REMARK SMILES IDX 6 1 5 2 4 3 3 4 1 5 2 6 28 8 29 9 93 10 30 11 92 12 31 13
REMARK SMILES IDX 32 14 33 15 86 16 34 17 91 18 85 19 87 20 35 21 90 22 84 23
REMARK SMILES IDX 83 24 36 26 70 27 49 28 69 29 50 30 53 31 68 32 88 33 51 34
REMARK SMILES IDX 52 35 67 37 89 38 54 39 37 40 38 41 47 42 39 43 40 44 46 45
REMARK SMILES IDX 48 46 41 47 42 48 43 49 44 50 45 51 71 52 72 53 81 54 73 55
REMARK SMILES IDX 74 56 80 57 82 58 75 59 76 60 77 61 78 62 79 63 55 64 56 65
REMARK SMILES IDX 65 66 57 67 58 68 64 69 66 70 59 71 60 72 61 73 62 74 63 75
REMARK SMILES IDX 7 76 8 77 9 78 10 80 11 81 12 82 27 83 13 84 14 85 15 86
REMARK SMILES IDX 16 87 17 88 18 90 19 91 20 92 26 93 21 94 25 95 22 96 23 97
REMARK SMILES IDX 24 98
REMARK H PARENT 3 7 87 25 53 36 8 79 16 89 24 99
REMARK Flexibility Score: inf
ROOT
ATOM      1  C   UNL A   1      38.505  23.218  26.111  1.00  0.00     0.023 C 
ENDROOT
BRANCH   1   2
ATOM      2  C   UNL A   1      39.655  22.513  26.825  1.00  0.00     0.023 C 
BRANCH   2   3
ATOM      3  C   UNL A   1      40.818  23.430  27.181  1.00  0.00     0.116 C 
BRANCH   3   4
ATOM      4  N   UNL A   1      41.436  24.081  26.033  1.00  0.00    -0.352 N 
ATOM      5  O   UNL A   1      42.137  25.874  24.832  1.00  0.00    -0.269 OA
ATOM      6  C   UNL A   1      41.717  25.422  25.892  1.00  0.00     0.251 C 
ATOM      7  H   UNL A   1      41.679  23.499  25.277  1.00  0.00     0.163 HD
BRANCH   6   8
ATOM      8  C   UNL A   1      41.456  26.320  27.035  1.00  0.00     0.039 A 
ATOM      9  C   UNL A   1      42.277  27.428  27.256  1.00  0.00     0.014 A 
ATOM     10  C   UNL A   1      40.421  26.015  27.923  1.00  0.00     0.014 A 
ATOM     11  C   UNL A   1      42.160  28.143  28.439  1.00  0.00     0.010 A 
ATOM     12  C   UNL A   1      40.248  26.791  29.071  1.00  0.00     0.010 A 
ATOM     13  C   UNL A   1      41.134  27.843  29.351  1.00  0.00    -0.014 A 
BRANCH  13  14
ATOM     14  C   UNL A   1      40.961  28.705  30.546  1.00  0.00     0.031 A 
ATOM     15  C   UNL A   1      41.841  28.553  31.755  1.00  0.00     0.074 A 
ATOM     16  C   UNL A   1      40.001  29.649  30.509  1.00  0.00     0.049 A 
ATOM     17  N   UNL A   1      41.808  29.222  32.878  1.00  0.00    -0.248 NA
ATOM     18  C   UNL A   1      42.886  27.517  31.706  1.00  0.00     0.031 C 
ATOM     19  C   UNL A   1      39.078  29.865  29.389  1.00  0.00     0.029 A 
ATOM     20  N   UNL A   1      39.645  30.608  31.420  1.00  0.00    -0.354 N 
ATOM     21  C   UNL A   1      42.801  28.674  33.682  1.00  0.00     0.074 A 
ATOM     22  C   UNL A   1      43.420  27.611  32.918  1.00  0.00     0.031 C 
ATOM     23  C   UNL A   1      38.289  30.914  29.664  1.00  0.00     0.029 A 
ATOM     24  C   UNL A   1      38.605  31.402  30.999  1.00  0.00     0.049 A 
ATOM     25  H   UNL A   1      40.091  30.717  32.291  1.00  0.00     0.167 HD
ATOM     26  C   UNL A   1      43.158  29.031  34.938  1.00  0.00     0.037 A 
ATOM     27  C   UNL A   1      37.955  32.396  31.630  1.00  0.00     0.037 A 
ATOM     28  C   UNL A   1      42.556  30.117  35.671  1.00  0.00     0.049 A 
ATOM     29  C   UNL A   1      38.377  32.770  33.019  1.00  0.00     0.074 A 
ATOM     30  C   UNL A   1      42.892  30.599  36.924  1.00  0.00     0.029 A 
ATOM     31  N   UNL A   1      41.492  30.885  35.222  1.00  0.00    -0.354 N 
ATOM     32  N   UNL A   1      39.343  32.262  33.747  1.00  0.00    -0.248 NA
ATOM     33  C   UNL A   1      37.617  33.839  33.678  1.00  0.00     0.031 C 
ATOM     34  C   UNL A   1      42.008  31.634  37.248  1.00  0.00     0.029 A 
ATOM     35  C   UNL A   1      41.143  31.820  36.182  1.00  0.00     0.049 A 
ATOM     36  H   UNL A   1      41.050  30.781  34.348  1.00  0.00     0.167 HD
ATOM     37  C   UNL A   1      39.304  32.947  34.954  1.00  0.00     0.074 A 
ATOM     38  C   UNL A   1      38.240  33.925  34.845  1.00  0.00     0.031 C 
ATOM     39  C   UNL A   1      40.072  32.775  36.057  1.00  0.00     0.037 A 
BRANCH  26  40
ATOM     40  C   UNL A   1      44.243  28.247  35.623  1.00  0.00     0.058 A 
ATOM     41  C   UNL A   1      43.961  27.088  36.362  1.00  0.00     0.135 A 
ATOM     42  C   UNL A   1      45.590  28.603  35.449  1.00  0.00     0.135 A 
ATOM     43  F   UNL A   1      42.690  26.711  36.570  1.00  0.00    -0.206 F 
ATOM     44  C   UNL A   1      44.979  26.310  36.906  1.00  0.00     0.059 A 
ATOM     45  C   UNL A   1      46.624  27.831  35.970  1.00  0.00     0.059 A 
ATOM     46  F   UNL A   1      45.913  29.705  34.753  1.00  0.00    -0.206 F 
ATOM     47  C   UNL A   1      46.308  26.686  36.700  1.00  0.00     0.060 A 
BRANCH  47  48
ATOM     48  S   UNL A   1      47.618  25.639  37.370  1.00  0.00     0.124 S 
ATOM     49  O   UNL A   1      47.747  26.165  38.725  1.00  0.00    -0.237 OA
ATOM     50  O   UNL A   1      47.038  24.304  37.263  1.00  0.00    -0.237 OA
ATOM     51  O   UNL A   1      48.750  25.900  36.486  1.00  0.00    -0.744 OA
ENDBRANCH  47  48
ENDBRANCH  26  40
BRANCH  27  52
ATOM     52  C   UNL A   1      36.815  33.073  30.961  1.00  0.00     0.058 A 
ATOM     53  C   UNL A   1      37.025  34.033  29.963  1.00  0.00     0.135 A 
ATOM     54  C   UNL A   1      35.490  32.751  31.297  1.00  0.00     0.135 A 
ATOM     55  F   UNL A   1      38.274  34.373  29.611  1.00  0.00    -0.206 F 
ATOM     56  C   UNL A   1      35.960  34.666  29.329  1.00  0.00     0.059 A 
ATOM     57  C   UNL A   1      34.410  33.350  30.660  1.00  0.00     0.059 A 
ATOM     58  F   UNL A   1      35.239  31.822  32.232  1.00  0.00    -0.206 F 
ATOM     59  C   UNL A   1      34.656  34.317  29.687  1.00  0.00     0.060 A 
BRANCH  59  60
ATOM     60  S   UNL A   1      33.274  35.108  28.835  1.00  0.00     0.124 S 
ATOM     61  O   UNL A   1      32.453  35.546  29.958  1.00  0.00    -0.237 OA
ATOM     62  O   UNL A   1      33.937  36.167  28.079  1.00  0.00    -0.237 OA
ATOM     63  O   UNL A   1      32.719  34.026  28.027  1.00  0.00    -0.744 OA
ENDBRANCH  59  60
ENDBRANCH  27  52
BRANCH  39  64
ATOM     64  C   UNL A   1      39.780  33.664  37.229  1.00  0.00     0.058 A 
ATOM     65  C   UNL A   1      38.890  33.267  38.237  1.00  0.00     0.135 A 
ATOM     66  C   UNL A   1      40.407  34.913  37.353  1.00  0.00     0.135 A 
ATOM     67  F   UNL A   1      38.258  32.085  38.155  1.00  0.00    -0.206 F 
ATOM     68  C   UNL A   1      38.612  34.090  39.323  1.00  0.00     0.059 A 
ATOM     69  C   UNL A   1      40.161  35.742  38.442  1.00  0.00     0.059 A 
ATOM     70  F   UNL A   1      41.271  35.333  36.416  1.00  0.00    -0.206 F 
ATOM     71  C   UNL A   1      39.251  35.328  39.415  1.00  0.00     0.060 A 
BRANCH  71  72
ATOM     72  S   UNL A   1      38.900  36.383  40.836  1.00  0.00     0.124 S 
ATOM     73  O   UNL A   1      38.468  37.616  40.186  1.00  0.00    -0.237 OA
ATOM     74  O   UNL A   1      37.857  35.636  41.534  1.00  0.00    -0.237 OA
ATOM     75  O   UNL A   1      40.182  36.452  41.530  1.00  0.00    -0.744 OA
ENDBRANCH  71  72
ENDBRANCH  39  64
ENDBRANCH  13  14
ENDBRANCH   6   8
ENDBRANCH   3   4
ENDBRANCH   2   3
ENDBRANCH   1   2
BRANCH   1  76
ATOM     76  C   UNL A   1      37.460  22.277  25.508  1.00  0.00     0.116 C 
BRANCH  76  77
ATOM     77  N   UNL A   1      36.374  22.034  26.438  1.00  0.00    -0.354 N 
ATOM     78  C   UNL A   1      35.059  21.768  26.195  1.00  0.00     0.249 C 
ATOM     79  H   UNL A   1      36.624  22.067  27.389  1.00  0.00     0.163 HD
ATOM     80  O   UNL A   1      34.314  21.645  27.173  1.00  0.00    -0.272 OA
BRANCH  78  81
ATOM     81  C   UNL A   1      34.518  21.552  24.756  1.00  0.00     0.207 C 
ATOM     82  C   UNL A   1      33.673  20.278  24.673  1.00  0.00     0.045 C 
ATOM     83  O   UNL A   1      33.727  22.587  24.175  1.00  0.00    -0.363 OA
ATOM     84  C   UNL A   1      32.261  20.817  24.610  1.00  0.00     0.037 C 
ATOM     85  C   UNL A   1      32.459  22.051  23.757  1.00  0.00     0.138 C 
BRANCH  85  86
ATOM     86  C   UNL A   1      31.362  23.108  23.912  1.00  0.00     0.148 C 
BRANCH  86  87
ATOM     87  N   UNL A   1      30.775  23.055  25.245  1.00  0.00    -0.349 N 
ATOM     88  C   UNL A   1      30.665  24.017  26.207  1.00  0.00     0.251 C 
ATOM     89  H   UNL A   1      30.397  22.180  25.493  1.00  0.00     0.163 HD
ATOM     90  O   UNL A   1      30.014  23.808  27.225  1.00  0.00    -0.269 OA
BRANCH  88  91
ATOM     91  C   UNL A   1      31.424  25.270  26.054  1.00  0.00     0.039 A 
ATOM     92  C   UNL A   1      32.811  25.193  26.194  1.00  0.00     0.014 A 
ATOM     93  C   UNL A   1      30.809  26.481  25.729  1.00  0.00     0.014 A 
ATOM     94  C   UNL A   1      33.595  26.308  25.913  1.00  0.00     0.007 A 
ATOM     95  C   UNL A   1      31.598  27.597  25.445  1.00  0.00     0.007 A 
ATOM     96  C   UNL A   1      32.997  27.508  25.500  1.00  0.00    -0.023 A 
BRANCH  96  97
ATOM     97  C   UNL A   1      33.862  28.680  25.123  1.00  0.00     0.191 C 
BRANCH  97  98
ATOM     98  O   UNL A   1      33.083  29.738  24.589  1.00  0.00    -0.392 OA
ATOM     99  H   UNL A   1      33.305  30.565  25.045  1.00  0.00     0.211 HD
ENDBRANCH  97  98
ENDBRANCH  96  97
ENDBRANCH  88  91
ENDBRANCH  86  87
ENDBRANCH  85  86
ENDBRANCH  78  81
ENDBRANCH  76  77
ENDBRANCH   1  76
TORSDOF 19
ENDMDL
MODEL 2
REMARK VINA RESULT:     -11.6      6.389     12.066
REMARK SMILES O=C(NCCCCNC(=O)[C@H]1CC[C@@H](CNC(=O)c2ccc(CO)cc2)O1)c1ccc(-c2c3nc(c(-c4c(F)cc(S(=O)(=O)[O-])cc4F)c4ccc([nH]4)c(-c4c(F)cc(S(=O)(=O)[O-])cc4F)c4nc(c(-c5c(F)cc(S(=O)(=O)[O-])cc5F)c5ccc2[nH]5)C=C4)C=C3)cc1
REMARK SMILES IDX 6 1 5 2 4 3 3 4 1 5 2 6 28 8 29 9 93 10 30 11 92 12 31 13
REMARK SMILES IDX 32 14 33 15 86 16 34 17 91 18 85 19 87 20 35 21 90 22 84 23
REMARK SMILES IDX 83 24 36 26 70 27 49 28 69 29 50 30 53 31 68 32 88 33 51 34
REMARK SMILES IDX 52 35 67 37 89 38 54 39 37 40 38 41 47 42 39 43 40 44 46 45
REMARK SMILES IDX 48 46 41 47 42 48 43 49 44 50 45 51 71 52 72 53 81 54 73 55
REMARK SMILES IDX 74 56 80 57 82 58 75 59 76 60 77 61 78 62 79 63 55 64 56 65
REMARK SMILES IDX 65 66 57 67 58 68 64 69 66 70 59 71 60 72 61 73 62 74 63 75
REMARK SMILES IDX 7 76 8 77 9 78 10 80 11 81 12 82 27 83 13 84 14 85 15 86
REMARK SMILES IDX 16 87 17 88 18 90 19 91 20 92 26 93 21 94 25 95 22 96 23 97
REMARK SMILES IDX 24 98
REMARK H PARENT 3 7 87 25 53 36 8 79 16 89 24 99
REMARK Flexibility Score: inf
ROOT
ATOM      1  C   UNL A   1      34.478  33.258  28.265  1.00  0.00     0.023 C 
ENDROOT
BRANCH   1   2
ATOM      2  C   UNL A   1      35.970  33.076  27.995  1.00  0.00     0.023 C 
BRANCH   2   3
ATOM      3  C   UNL A   1      36.802  32.845  29.250  1.00  0.00     0.116 C 
BRANCH   3   4
ATOM      4  N   UNL A   1      36.167  31.980  30.236  1.00  0.00    -0.352 N 
ATOM      5  O   UNL A   1      35.952  30.073  31.447  1.00  0.00    -0.269 OA
ATOM      6  C   UNL A   1      36.630  30.768  30.697  1.00  0.00     0.251 C 
ATOM      7  H   UNL A   1      35.314  32.297  30.613  1.00  0.00     0.163 HD
BRANCH   6   8
ATOM      8  C   UNL A   1      37.950  30.295  30.231  1.00  0.00     0.039 A 
ATOM      9  C   UNL A   1      38.989  30.108  31.146  1.00  0.00     0.014 A 
ATOM     10  C   UNL A   1      38.163  30.098  28.864  1.00  0.00     0.014 A 
ATOM     11  C   UNL A   1      40.274  29.869  30.683  1.00  0.00     0.010 A 
ATOM     12  C   UNL A   1      39.441  29.770  28.408  1.00  0.00     0.010 A 
ATOM     13  C   UNL A   1      40.511  29.682  29.311  1.00  0.00    -0.014 A 
BRANCH  13  14
ATOM     14  C   UNL A   1      41.874  29.306  28.863  1.00  0.00     0.031 A 
ATOM     15  C   UNL A   1      42.993  30.309  28.835  1.00  0.00     0.074 A 
ATOM     16  C   UNL A   1      42.090  28.027  28.500  1.00  0.00     0.049 A 
ATOM     17  N   UNL A   1      44.235  30.138  28.461  1.00  0.00    -0.248 NA
ATOM     18  C   UNL A   1      42.685  31.680  29.274  1.00  0.00     0.031 C 
ATOM     19  C   UNL A   1      41.064  26.978  28.472  1.00  0.00     0.029 A 
ATOM     20  N   UNL A   1      43.231  27.384  28.100  1.00  0.00    -0.354 N 
ATOM     21  C   UNL A   1      44.850  31.379  28.588  1.00  0.00     0.074 A 
ATOM     22  C   UNL A   1      43.842  32.299  29.072  1.00  0.00     0.031 C 
ATOM     23  C   UNL A   1      41.631  25.817  28.113  1.00  0.00     0.029 A 
ATOM     24  C   UNL A   1      43.039  26.051  27.824  1.00  0.00     0.049 A 
ATOM     25  H   UNL A   1      44.103  27.833  28.017  1.00  0.00     0.167 HD
ATOM     26  C   UNL A   1      46.136  31.710  28.324  1.00  0.00     0.037 A 
ATOM     27  C   UNL A   1      43.895  25.122  27.362  1.00  0.00     0.037 A 
ATOM     28  C   UNL A   1      47.136  30.773  27.877  1.00  0.00     0.049 A 
ATOM     29  C   UNL A   1      45.314  25.521  27.084  1.00  0.00     0.074 A 
ATOM     30  C   UNL A   1      48.482  30.997  27.646  1.00  0.00     0.029 A 
ATOM     31  N   UNL A   1      46.900  29.436  27.590  1.00  0.00    -0.354 N 
ATOM     32  N   UNL A   1      45.883  26.692  27.245  1.00  0.00    -0.248 NA
ATOM     33  C   UNL A   1      46.202  24.482  26.550  1.00  0.00     0.031 C 
ATOM     34  C   UNL A   1      49.053  29.807  27.183  1.00  0.00     0.029 A 
ATOM     35  C   UNL A   1      48.070  28.831  27.159  1.00  0.00     0.049 A 
ATOM     36  H   UNL A   1      46.030  28.984  27.679  1.00  0.00     0.167 HD
ATOM     37  C   UNL A   1      47.197  26.531  26.827  1.00  0.00     0.074 A 
ATOM     38  C   UNL A   1      47.345  25.143  26.436  1.00  0.00     0.031 C 
ATOM     39  C   UNL A   1      48.189  27.451  26.763  1.00  0.00     0.037 A 
BRANCH  26  40
ATOM     40  C   UNL A   1      46.553  33.144  28.497  1.00  0.00     0.058 A 
ATOM     41  C   UNL A   1      46.458  34.072  27.449  1.00  0.00     0.135 A 
ATOM     42  C   UNL A   1      46.957  33.616  29.756  1.00  0.00     0.135 A 
ATOM     43  F   UNL A   1      46.090  33.671  26.222  1.00  0.00    -0.206 F 
ATOM     44  C   UNL A   1      46.748  35.419  27.644  1.00  0.00     0.059 A 
ATOM     45  C   UNL A   1      47.236  34.961  29.978  1.00  0.00     0.059 A 
ATOM     46  F   UNL A   1      47.068  32.768  30.791  1.00  0.00    -0.206 F 
ATOM     47  C   UNL A   1      47.131  35.856  28.914  1.00  0.00     0.060 A 
BRANCH  47  48
ATOM     48  S   UNL A   1      47.456  37.615  29.163  1.00  0.00     0.124 S 
ATOM     49  O   UNL A   1      46.193  38.208  28.735  1.00  0.00    -0.237 OA
ATOM     50  O   UNL A   1      47.734  37.683  30.595  1.00  0.00    -0.237 OA
ATOM     51  O   UNL A   1      48.599  37.877  28.293  1.00  0.00    -0.744 OA
ENDBRANCH  47  48
ENDBRANCH  26  40
BRANCH  27  52
ATOM     52  C   UNL A   1      43.416  23.743  27.099  1.00  0.00     0.058 A 
ATOM     53  C   UNL A   1      43.213  22.833  28.144  1.00  0.00     0.135 A 
ATOM     54  C   UNL A   1      43.129  23.317  25.792  1.00  0.00     0.135 A 
ATOM     55  F   UNL A   1      43.476  23.195  29.410  1.00  0.00    -0.206 F 
ATOM     56  C   UNL A   1      42.758  21.540  27.904  1.00  0.00     0.059 A 
ATOM     57  C   UNL A   1      42.648  22.040  25.528  1.00  0.00     0.059 A 
ATOM     58  F   UNL A   1      43.287  24.160  24.760  1.00  0.00    -0.206 F 
ATOM     59  C   UNL A   1      42.480  21.154  26.591  1.00  0.00     0.060 A 
BRANCH  59  60
ATOM     60  S   UNL A   1      41.850  19.490  26.284  1.00  0.00     0.124 S 
ATOM     61  O   UNL A   1      42.556  19.133  25.058  1.00  0.00    -0.237 OA
ATOM     62  O   UNL A   1      42.261  18.772  27.487  1.00  0.00    -0.237 OA
ATOM     63  O   UNL A   1      40.412  19.699  26.150  1.00  0.00    -0.744 OA
ENDBRANCH  59  60
ENDBRANCH  27  52
BRANCH  39  64
ATOM     64  C   UNL A   1      49.516  26.979  26.246  1.00  0.00     0.058 A 
ATOM     65  C   UNL A   1      50.518  26.534  27.120  1.00  0.00     0.135 A 
ATOM     66  C   UNL A   1      49.779  26.955  24.869  1.00  0.00     0.135 A 
ATOM     67  F   UNL A   1      50.315  26.551  28.447  1.00  0.00    -0.206 F 
ATOM     68  C   UNL A   1      51.752  26.101  26.647  1.00  0.00     0.059 A 
ATOM     69  C   UNL A   1      50.997  26.504  24.372  1.00  0.00     0.059 A 
ATOM     70  F   UNL A   1      48.848  27.365  23.994  1.00  0.00    -0.206 F 
ATOM     71  C   UNL A   1      51.983  26.092  25.269  1.00  0.00     0.060 A 
BRANCH  71  72
ATOM     72  S   UNL A   1      53.579  25.510  24.661  1.00  0.00     0.124 S 
ATOM     73  O   UNL A   1      53.628  26.123  23.338  1.00  0.00    -0.237 OA
ATOM     74  O   UNL A   1      54.510  26.053  25.646  1.00  0.00    -0.237 OA
ATOM     75  O   UNL A   1      53.436  24.057  24.677  1.00  0.00    -0.744 OA
ENDBRANCH  71  72
ENDBRANCH  39  64
ENDBRANCH  13  14
ENDBRANCH   6   8
ENDBRANCH   3   4
ENDBRANCH   2   3
ENDBRANCH   1   2
BRANCH   1  76
ATOM     76  C   UNL A   1      33.596  32.121  27.747  1.00  0.00     0.116 C 
BRANCH  76  77
ATOM     77  N   UNL A   1      34.399  31.012  27.267  1.00  0.00    -0.354 N 
ATOM     78  C   UNL A   1      34.048  29.714  27.038  1.00  0.00     0.249 C 
ATOM     79  H   UNL A   1      35.340  31.230  27.077  1.00  0.00     0.163 HD
ATOM     80  O   UNL A   1      34.939  28.942  26.670  1.00  0.00    -0.272 OA
BRANCH  78  81
ATOM     81  C   UNL A   1      32.579  29.228  27.159  1.00  0.00     0.207 C 
ATOM     82  C   UNL A   1      31.791  29.541  25.884  1.00  0.00     0.045 C 
ATOM     83  O   UNL A   1      32.350  27.847  27.434  1.00  0.00    -0.363 OA
ATOM     84  C   UNL A   1      31.681  28.188  25.218  1.00  0.00     0.037 C 
ATOM     85  C   UNL A   1      31.497  27.287  26.420  1.00  0.00     0.138 C 
BRANCH  85  86
ATOM     86  C   UNL A   1      31.865  25.821  26.171  1.00  0.00     0.148 C 
BRANCH  86  87
ATOM     87  N   UNL A   1      30.804  24.935  26.631  1.00  0.00    -0.349 N 
ATOM     88  C   UNL A   1      30.835  23.613  26.972  1.00  0.00     0.251 C 
ATOM     89  H   UNL A   1      29.919  25.359  26.708  1.00  0.00     0.163 HD
ATOM     90  O   UNL A   1      29.850  23.074  27.465  1.00  0.00    -0.269 OA
BRANCH  88  91
ATOM     91  C   UNL A   1      32.031  22.818  26.643  1.00  0.00     0.039 A 
ATOM     92  C   UNL A   1      32.124  22.322  25.342  1.00  0.00     0.014 A 
ATOM     93  C   UNL A   1      33.062  22.606  27.560  1.00  0.00     0.014 A 
ATOM     94  C   UNL A   1      33.295  21.694  24.926  1.00  0.00     0.007 A 
ATOM     95  C   UNL A   1      34.237  21.979  27.140  1.00  0.00     0.007 A 
ATOM     96  C   UNL A   1      34.374  21.551  25.810  1.00  0.00    -0.023 A 
BRANCH  96  97
ATOM     97  C   UNL A   1      35.661  20.942  25.323  1.00  0.00     0.191 C 
BRANCH  97  98
ATOM     98  O   UNL A   1      36.778  21.507  25.992  1.00  0.00    -0.392 OA
ATOM     99  H   UNL A   1      37.527  21.560  25.379  1.00  0.00     0.211 HD
ENDBRANCH  97  98
ENDBRANCH  96  97
ENDBRANCH  88  91
ENDBRANCH  86  87
ENDBRANCH  85  86
ENDBRANCH  78  81
ENDBRANCH  76  77
ENDBRANCH   1  76
TORSDOF 19
ENDMDL
MODEL 3
REMARK VINA RESULT:     -11.5      0.434      8.175
REMARK SMILES O=C(NCCCCNC(=O)[C@H]1CC[C@@H](CNC(=O)c2ccc(CO)cc2)O1)c1ccc(-c2c3nc(c(-c4c(F)cc(S(=O)(=O)[O-])cc4F)c4ccc([nH]4)c(-c4c(F)cc(S(=O)(=O)[O-])cc4F)c4nc(c(-c5c(F)cc(S(=O)(=O)[O-])cc5F)c5ccc2[nH]5)C=C4)C=C3)cc1
REMARK SMILES IDX 6 1 5 2 4 3 3 4 1 5 2 6 28 8 29 9 93 10 30 11 92 12 31 13
REMARK SMILES IDX 32 14 33 15 86 16 34 17 91 18 85 19 87 20 35 21 90 22 84 23
REMARK SMILES IDX 83 24 36 26 70 27 49 28 69 29 50 30 53 31 68 32 88 33 51 34
REMARK SMILES IDX 52 35 67 37 89 38 54 39 37 40 38 41 47 42 39 43 40 44 46 45
REMARK SMILES IDX 48 46 41 47 42 48 43 49 44 50 45 51 71 52 72 53 81 54 73 55
REMARK SMILES IDX 74 56 80 57 82 58 75 59 76 60 77 61 78 62 79 63 55 64 56 65
REMARK SMILES IDX 65 66 57 67 58 68 64 69 66 70 59 71 60 72 61 73 62 74 63 75
REMARK SMILES IDX 7 76 8 77 9 78 10 80 11 81 12 82 27 83 13 84 14 85 15 86
REMARK SMILES IDX 16 87 17 88 18 90 19 91 20 92 26 93 21 94 25 95 22 96 23 97
REMARK SMILES IDX 24 98
REMARK H PARENT 3 7 87 25 53 36 8 79 16 89 24 99
REMARK Flexibility Score: inf
ROOT
ATOM      1  C   UNL A   1      38.413  23.399  26.283  1.00  0.00     0.023 C 
ENDROOT
BRANCH   1   2
ATOM      2  C   UNL A   1      39.692  22.648  26.641  1.00  0.00     0.023 C 
BRANCH   2   3
ATOM      3  C   UNL A   1      40.842  23.552  27.067  1.00  0.00     0.116 C 
BRANCH   3   4
ATOM      4  N   UNL A   1      41.519  24.217  25.961  1.00  0.00    -0.352 N 
ATOM      5  O   UNL A   1      42.276  26.025  24.819  1.00  0.00    -0.269 OA
ATOM      6  C   UNL A   1      41.802  25.561  25.849  1.00  0.00     0.251 C 
ATOM      7  H   UNL A   1      41.804  23.644  25.213  1.00  0.00     0.163 HD
BRANCH   6   8
ATOM      8  C   UNL A   1      41.476  26.445  26.987  1.00  0.00     0.039 A 
ATOM      9  C   UNL A   1      42.173  27.643  27.162  1.00  0.00     0.014 A 
ATOM     10  C   UNL A   1      40.512  26.042  27.914  1.00  0.00     0.014 A 
ATOM     11  C   UNL A   1      42.012  28.364  28.337  1.00  0.00     0.010 A 
ATOM     12  C   UNL A   1      40.288  26.816  29.054  1.00  0.00     0.010 A 
ATOM     13  C   UNL A   1      41.057  27.967  29.288  1.00  0.00    -0.014 A 
BRANCH  13  14
ATOM     14  C   UNL A   1      40.825  28.826  30.473  1.00  0.00     0.031 A 
ATOM     15  C   UNL A   1      39.707  29.831  30.505  1.00  0.00     0.074 A 
ATOM     16  C   UNL A   1      41.636  28.667  31.537  1.00  0.00     0.049 A 
ATOM     17  N   UNL A   1      39.381  30.661  31.462  1.00  0.00    -0.248 NA
ATOM     18  C   UNL A   1      38.847  29.924  29.314  1.00  0.00     0.031 C 
ATOM     19  C   UNL A   1      42.765  27.733  31.600  1.00  0.00     0.029 A 
ATOM     20  N   UNL A   1      41.635  29.268  32.768  1.00  0.00    -0.354 N 
ATOM     21  C   UNL A   1      38.303  31.396  30.983  1.00  0.00     0.074 A 
ATOM     22  C   UNL A   1      38.029  30.916  29.645  1.00  0.00     0.031 C 
ATOM     23  C   UNL A   1      43.323  27.796  32.818  1.00  0.00     0.029 A 
ATOM     24  C   UNL A   1      42.635  28.817  33.597  1.00  0.00     0.049 A 
ATOM     25  H   UNL A   1      40.982  29.955  33.033  1.00  0.00     0.167 HD
ATOM     26  C   UNL A   1      37.611  32.378  31.609  1.00  0.00     0.037 A 
ATOM     27  C   UNL A   1      42.980  29.201  34.839  1.00  0.00     0.037 A 
ATOM     28  C   UNL A   1      37.874  32.818  32.956  1.00  0.00     0.049 A 
ATOM     29  C   UNL A   1      42.190  30.288  35.505  1.00  0.00     0.074 A 
ATOM     30  C   UNL A   1      37.187  33.760  33.702  1.00  0.00     0.029 A 
ATOM     31  N   UNL A   1      38.907  32.353  33.757  1.00  0.00    -0.354 N 
ATOM     32  N   UNL A   1      41.152  30.945  35.048  1.00  0.00    -0.248 NA
ATOM     33  C   UNL A   1      42.625  30.695  36.846  1.00  0.00     0.031 C 
ATOM     34  C   UNL A   1      37.825  33.892  34.940  1.00  0.00     0.029 A 
ATOM     35  C   UNL A   1      38.890  33.006  34.978  1.00  0.00     0.049 A 
ATOM     36  H   UNL A   1      39.556  31.660  33.496  1.00  0.00     0.167 HD
ATOM     37  C   UNL A   1      40.810  31.849  36.044  1.00  0.00     0.074 A 
ATOM     38  C   UNL A   1      41.734  31.632  37.140  1.00  0.00     0.031 C 
ATOM     39  C   UNL A   1      39.828  32.782  36.049  1.00  0.00     0.037 A 
BRANCH  26  40
ATOM     40  C   UNL A   1      36.504  33.062  30.857  1.00  0.00     0.058 A 
ATOM     41  C   UNL A   1      35.154  32.849  31.174  1.00  0.00     0.135 A 
ATOM     42  C   UNL A   1      36.803  34.021  29.875  1.00  0.00     0.135 A 
ATOM     43  F   UNL A   1      34.813  31.933  32.094  1.00  0.00    -0.206 F 
ATOM     44  C   UNL A   1      34.139  33.563  30.544  1.00  0.00     0.059 A 
ATOM     45  C   UNL A   1      35.806  34.759  29.245  1.00  0.00     0.059 A 
ATOM     46  F   UNL A   1      38.080  34.261  29.533  1.00  0.00    -0.206 F 
ATOM     47  C   UNL A   1      34.475  34.521  29.584  1.00  0.00     0.060 A 
BRANCH  47  48
ATOM     48  S   UNL A   1      33.150  35.474  28.811  1.00  0.00     0.124 S 
ATOM     49  O   UNL A   1      33.908  36.453  28.039  1.00  0.00    -0.237 OA
ATOM     50  O   UNL A   1      32.447  34.459  28.032  1.00  0.00    -0.237 OA
ATOM     51  O   UNL A   1      32.408  36.011  29.949  1.00  0.00    -0.744 OA
ENDBRANCH  47  48
ENDBRANCH  26  40
BRANCH  27  52
ATOM     52  C   UNL A   1      44.150  28.577  35.506  1.00  0.00     0.058 A 
ATOM     53  C   UNL A   1      44.000  27.467  36.346  1.00  0.00     0.135 A 
ATOM     54  C   UNL A   1      45.447  29.071  35.294  1.00  0.00     0.135 A 
ATOM     55  F   UNL A   1      42.778  26.961  36.579  1.00  0.00    -0.206 F 
ATOM     56  C   UNL A   1      45.093  26.874  36.969  1.00  0.00     0.059 A 
ATOM     57  C   UNL A   1      46.559  28.481  35.883  1.00  0.00     0.059 A 
ATOM     58  F   UNL A   1      45.643  30.120  34.480  1.00  0.00    -0.206 F 
ATOM     59  C   UNL A   1      46.369  27.391  36.731  1.00  0.00     0.060 A 
BRANCH  59  60
ATOM     60  S   UNL A   1      47.793  26.597  37.507  1.00  0.00     0.124 S 
ATOM     61  O   UNL A   1      48.901  27.297  36.868  1.00  0.00    -0.237 OA
ATOM     62  O   UNL A   1      47.584  26.891  38.922  1.00  0.00    -0.237 OA
ATOM     63  O   UNL A   1      47.632  25.193  37.138  1.00  0.00    -0.744 OA
ENDBRANCH  59  60
ENDBRANCH  27  52
BRANCH  39  64
ATOM     64  C   UNL A   1      39.712  33.635  37.277  1.00  0.00     0.058 A 
ATOM     65  C   UNL A   1      38.868  33.271  38.337  1.00  0.00     0.135 A 
ATOM     66  C   UNL A   1      40.463  34.814  37.403  1.00  0.00     0.135 A 
ATOM     67  F   UNL A   1      38.122  32.158  38.255  1.00  0.00    -0.206 F 
ATOM     68  C   UNL A   1      38.753  34.062  39.475  1.00  0.00     0.059 A 
ATOM     69  C   UNL A   1      40.380  35.607  38.542  1.00  0.00     0.059 A 
ATOM     70  F   UNL A   1      41.289  35.199  36.418  1.00  0.00    -0.206 F 
ATOM     71  C   UNL A   1      39.512  35.230  39.567  1.00  0.00     0.060 A 
BRANCH  71  72
ATOM     72  S   UNL A   1      39.372  36.241  41.055  1.00  0.00     0.124 S 
ATOM     73  O   UNL A   1      39.507  37.587  40.508  1.00  0.00    -0.237 OA
ATOM     74  O   UNL A   1      38.046  35.889  41.553  1.00  0.00    -0.237 OA
ATOM     75  O   UNL A   1      40.486  35.782  41.880  1.00  0.00    -0.744 OA
ENDBRANCH  71  72
ENDBRANCH  39  64
ENDBRANCH  13  14
ENDBRANCH   6   8
ENDBRANCH   3   4
ENDBRANCH   2   3
ENDBRANCH   1   2
BRANCH   1  76
ATOM     76  C   UNL A   1      37.364  22.556  25.554  1.00  0.00     0.116 C 
BRANCH  76  77
ATOM     77  N   UNL A   1      36.316  22.125  26.460  1.00  0.00    -0.354 N 
ATOM     78  C   UNL A   1      35.035  21.743  26.194  1.00  0.00     0.249 C 
ATOM     79  H   UNL A   1      36.569  22.106  27.411  1.00  0.00     0.163 HD
ATOM     80  O   UNL A   1      34.314  21.463  27.158  1.00  0.00    -0.272 OA
BRANCH  78  81
ATOM     81  C   UNL A   1      34.509  21.590  24.742  1.00  0.00     0.207 C 
ATOM     82  C   UNL A   1      33.677  20.313  24.592  1.00  0.00     0.045 C 
ATOM     83  O   UNL A   1      33.713  22.643  24.202  1.00  0.00    -0.363 OA
ATOM     84  C   UNL A   1      32.261  20.840  24.540  1.00  0.00     0.037 C 
ATOM     85  C   UNL A   1      32.455  22.116  23.747  1.00  0.00     0.138 C 
BRANCH  85  86
ATOM     86  C   UNL A   1      31.345  23.153  23.942  1.00  0.00     0.148 C 
BRANCH  86  87
ATOM     87  N   UNL A   1      30.758  23.043  25.270  1.00  0.00    -0.349 N 
ATOM     88  C   UNL A   1      30.614  23.973  26.259  1.00  0.00     0.251 C 
ATOM     89  H   UNL A   1      30.408  22.149  25.492  1.00  0.00     0.163 HD
ATOM     90  O   UNL A   1      29.969  23.713  27.269  1.00  0.00    -0.269 OA
BRANCH  88  91
ATOM     91  C   UNL A   1      31.332  25.254  26.145  1.00  0.00     0.039 A 
ATOM     92  C   UNL A   1      32.724  25.212  26.245  1.00  0.00     0.014 A 
ATOM     93  C   UNL A   1      30.674  26.459  25.892  1.00  0.00     0.014 A 
ATOM     94  C   UNL A   1      33.468  26.362  25.996  1.00  0.00     0.007 A 
ATOM     95  C   UNL A   1      31.423  27.610  25.639  1.00  0.00     0.007 A 
ATOM     96  C   UNL A   1      32.825  27.561  25.654  1.00  0.00    -0.023 A 
BRANCH  96  97
ATOM     97  C   UNL A   1      33.645  28.774  25.310  1.00  0.00     0.191 C 
BRANCH  97  98
ATOM     98  O   UNL A   1      34.204  28.661  24.011  1.00  0.00    -0.392 OA
ATOM     99  H   UNL A   1      34.787  27.886  23.977  1.00  0.00     0.211 HD
ENDBRANCH  97  98
ENDBRANCH  96  97
ENDBRANCH  88  91
ENDBRANCH  86  87
ENDBRANCH  85  86
ENDBRANCH  78  81
ENDBRANCH  76  77
ENDBRANCH   1  76
TORSDOF 19
ENDMDL
