MODEL 1
REMARK VINA RESULT:     -10.7      0.000      0.000
REMARK SMILES CC(=O)N[C@@H](C[NH2+]CCc1ccc(F)cc1C)C(=O)NCCCCNC(=O)c1ccc(-c2c3nc(c(-c4c(F)cc(S(=O)(=O)[O-])cc4F)c4ccc([nH]4)c(-c4c(F)cc(S(=O)(=O)[O-])cc4F)c4nc(c(-c5c(F)cc(S(=O)(=O)[O-])cc5F)c5ccc2[nH]5)C=C4)C=C3)cc1
REMARK SMILES IDX 21 1 20 2 18 3 19 4 5 6 4 7 1 8 2 9 3 10 6 12 7 13 8 16 9 17
REMARK SMILES IDX 10 18 11 19 16 20 12 21 15 22 17 23 13 24 14 25 22 26 23 27
REMARK SMILES IDX 24 28 25 29 26 30 27 32 28 33 29 34 93 35 30 36 92 37 31 38
REMARK SMILES IDX 32 39 33 40 86 41 34 42 91 43 85 44 87 45 35 46 90 47 84 48
REMARK SMILES IDX 83 49 36 51 70 52 49 53 69 54 50 55 53 56 68 57 88 58 51 59
REMARK SMILES IDX 52 60 67 62 89 63 54 64 37 65 38 66 47 67 39 68 40 69 46 70
REMARK SMILES IDX 48 71 41 72 42 73 43 74 44 75 45 76 71 77 72 78 81 79 73 80
REMARK SMILES IDX 74 81 80 82 82 83 75 84 76 85 77 86 78 87 79 88 55 89 56 90
REMARK SMILES IDX 65 91 57 92 58 93 64 94 66 95 59 96 60 97 61 98 62 99 63 100
REMARK H PARENT 20 5 4 11 7 14 7 15 25 31 87 50 53 61
REMARK Flexibility Score: inf
ROOT
ATOM      1  C   UNL A   1      34.334  22.056  24.648  1.00  0.00     0.116 C 
ENDROOT
BRANCH   1   2
ATOM      2  N   UNL A   1      33.333  21.440  23.799  1.00  0.00    -0.354 N 
ATOM      3  C   UNL A   1      32.374  22.007  23.012  1.00  0.00     0.248 C 
ATOM      4  O   UNL A   1      31.843  21.287  22.159  1.00  0.00    -0.272 OA
ATOM      5  H   UNL A   1      33.349  20.456  23.789  1.00  0.00     0.163 HD
BRANCH   3   6
ATOM      6  C   UNL A   1      31.999  23.504  23.090  1.00  0.00     0.226 C 
BRANCH   6   7
ATOM      7  N   UNL A   1      32.299  24.244  21.855  1.00  0.00    -0.340 N 
ATOM      8  C   UNL A   1      33.453  26.157  22.901  1.00  0.00     0.114 C 
ATOM      9  C   UNL A   1      33.004  25.393  21.690  1.00  0.00     0.217 C 
ATOM     10  O   UNL A   1      33.224  25.796  20.548  1.00  0.00    -0.275 OA
ATOM     11  H   UNL A   1      31.935  23.850  21.028  1.00  0.00     0.164 HD
ENDBRANCH   6   7
BRANCH   6  12
ATOM     12  C   UNL A   1      30.558  23.750  23.618  1.00  0.00     0.296 C 
BRANCH  12  13
ATOM     13  N   UNL A   1      30.457  23.981  25.063  1.00  0.00    -0.344 N 
ATOM     14  H   UNL A   1      30.778  23.141  25.543  1.00  0.00     0.346 HD
ATOM     15  H   UNL A   1      29.479  24.201  25.253  1.00  0.00     0.346 HD
BRANCH  13  16
ATOM     16  C   UNL A   1      31.243  25.118  25.555  1.00  0.00     0.265 C 
BRANCH  16  17
ATOM     17  C   UNL A   1      30.615  26.503  25.282  1.00  0.00     0.097 C 
BRANCH  17  18
ATOM     18  C   UNL A   1      31.477  27.677  25.718  1.00  0.00    -0.039 A 
ATOM     19  C   UNL A   1      32.328  27.498  26.830  1.00  0.00     0.007 A 
ATOM     20  C   UNL A   1      31.487  28.919  25.048  1.00  0.00    -0.045 A 
ATOM     21  C   UNL A   1      33.194  28.504  27.253  1.00  0.00     0.039 A 
ATOM     22  C   UNL A   1      32.332  29.943  25.520  1.00  0.00     0.043 A 
ATOM     23  C   UNL A   1      30.574  29.241  23.897  1.00  0.00     0.045 C 
ATOM     24  C   UNL A   1      33.180  29.723  26.599  1.00  0.00     0.123 A 
ATOM     25  F   UNL A   1      33.985  30.708  27.017  1.00  0.00    -0.207 F 
ENDBRANCH  17  18
ENDBRANCH  16  17
ENDBRANCH  13  16
ENDBRANCH  12  13
ENDBRANCH   6  12
ENDBRANCH   3   6
ENDBRANCH   1   2
BRANCH   1  26
ATOM     26  C   UNL A   1      35.487  22.675  23.870  1.00  0.00     0.023 C 
BRANCH  26  27
ATOM     27  C   UNL A   1      36.115  23.894  24.532  1.00  0.00     0.023 C 
BRANCH  27  28
ATOM     28  C   UNL A   1      36.584  23.680  25.965  1.00  0.00     0.116 C 
BRANCH  28  29
ATOM     29  N   UNL A   1      37.616  22.659  26.092  1.00  0.00    -0.352 N 
ATOM     30  C   UNL A   1      38.933  22.808  26.460  1.00  0.00     0.251 C 
ATOM     31  H   UNL A   1      37.333  21.740  25.886  1.00  0.00     0.163 HD
ATOM     32  O   UNL A   1      39.703  21.856  26.401  1.00  0.00    -0.269 OA
BRANCH  30  33
ATOM     33  C   UNL A   1      39.414  24.135  26.898  1.00  0.00     0.039 A 
ATOM     34  C   UNL A   1      39.349  24.468  28.252  1.00  0.00     0.014 A 
ATOM     35  C   UNL A   1      39.969  25.026  25.976  1.00  0.00     0.014 A 
ATOM     36  C   UNL A   1      39.897  25.676  28.688  1.00  0.00     0.010 A 
ATOM     37  C   UNL A   1      40.602  26.179  26.426  1.00  0.00     0.010 A 
ATOM     38  C   UNL A   1      40.556  26.528  27.784  1.00  0.00    -0.014 A 
BRANCH  38  39
ATOM     39  C   UNL A   1      41.162  27.807  28.233  1.00  0.00     0.031 A 
ATOM     40  C   UNL A   1      42.650  28.009  28.119  1.00  0.00     0.074 A 
ATOM     41  C   UNL A   1      40.387  28.763  28.783  1.00  0.00     0.049 A 
ATOM     42  N   UNL A   1      43.375  29.035  28.483  1.00  0.00    -0.248 NA
ATOM     43  C   UNL A   1      43.432  26.896  27.554  1.00  0.00     0.031 C 
ATOM     44  C   UNL A   1      38.943  28.660  29.009  1.00  0.00     0.029 A 
ATOM     45  N   UNL A   1      40.707  30.011  29.256  1.00  0.00    -0.354 N 
ATOM     46  C   UNL A   1      44.692  28.685  28.206  1.00  0.00     0.074 A 
ATOM     47  C   UNL A   1      44.674  27.327  27.711  1.00  0.00     0.031 C 
ATOM     48  C   UNL A   1      38.498  29.809  29.544  1.00  0.00     0.029 A 
ATOM     49  C   UNL A   1      39.625  30.718  29.728  1.00  0.00     0.049 A 
ATOM     50  H   UNL A   1      41.625  30.367  29.258  1.00  0.00     0.167 HD
ATOM     51  C   UNL A   1      45.813  29.438  28.318  1.00  0.00     0.037 A 
ATOM     52  C   UNL A   1      39.552  31.961  30.242  1.00  0.00     0.037 A 
ATOM     53  C   UNL A   1      45.819  30.801  28.776  1.00  0.00     0.049 A 
ATOM     54  C   UNL A   1      40.806  32.791  30.328  1.00  0.00     0.074 A 
ATOM     55  C   UNL A   1      46.890  31.672  28.875  1.00  0.00     0.029 A 
ATOM     56  N   UNL A   1      44.697  31.496  29.206  1.00  0.00    -0.354 N 
ATOM     57  N   UNL A   1      42.034  32.467  29.998  1.00  0.00    -0.248 NA
ATOM     58  C   UNL A   1      40.660  34.161  30.837  1.00  0.00     0.031 C 
ATOM     59  C   UNL A   1      46.423  32.882  29.401  1.00  0.00     0.029 A 
ATOM     60  C   UNL A   1      45.052  32.781  29.581  1.00  0.00     0.049 A 
ATOM     61  H   UNL A   1      43.785  31.129  29.240  1.00  0.00     0.167 HD
ATOM     62  C   UNL A   1      42.801  33.604  30.228  1.00  0.00     0.074 A 
ATOM     63  C   UNL A   1      41.895  34.626  30.713  1.00  0.00     0.031 C 
ATOM     64  C   UNL A   1      44.133  33.788  30.051  1.00  0.00     0.037 A 
BRANCH  51  65
ATOM     65  C   UNL A   1      47.119  28.802  27.925  1.00  0.00     0.058 A 
ATOM     66  C   UNL A   1      47.945  28.168  28.868  1.00  0.00     0.135 A 
ATOM     67  C   UNL A   1      47.545  28.811  26.587  1.00  0.00     0.135 A 
ATOM     68  F   UNL A   1      47.597  28.145  30.165  1.00  0.00    -0.206 F 
ATOM     69  C   UNL A   1      49.160  27.596  28.507  1.00  0.00     0.059 A 
ATOM     70  C   UNL A   1      48.742  28.219  26.197  1.00  0.00     0.059 A 
ATOM     71  F   UNL A   1      46.798  29.405  25.642  1.00  0.00    -0.206 F 
ATOM     72  C   UNL A   1      49.551  27.628  27.167  1.00  0.00     0.060 A 
BRANCH  72  73
ATOM     73  S   UNL A   1      51.131  26.881  26.714  1.00  0.00     0.124 S 
ATOM     74  O   UNL A   1      51.137  27.072  25.267  1.00  0.00    -0.237 OA
ATOM     75  O   UNL A   1      52.086  27.690  27.465  1.00  0.00    -0.237 OA
ATOM     76  O   UNL A   1      50.993  25.499  27.164  1.00  0.00    -0.744 OA
ENDBRANCH  72  73
ENDBRANCH  51  65
BRANCH  52  77
ATOM     77  C   UNL A   1      38.239  32.515  30.671  1.00  0.00     0.058 A 
ATOM     78  C   UNL A   1      37.802  32.394  31.998  1.00  0.00     0.135 A 
ATOM     79  C   UNL A   1      37.397  33.180  29.766  1.00  0.00     0.135 A 
ATOM     80  F   UNL A   1      38.570  31.763  32.900  1.00  0.00    -0.206 F 
ATOM     81  C   UNL A   1      36.570  32.892  32.411  1.00  0.00     0.059 A 
ATOM     82  C   UNL A   1      36.172  33.710  30.161  1.00  0.00     0.059 A 
ATOM     83  F   UNL A   1      37.775  33.340  28.488  1.00  0.00    -0.206 F 
ATOM     84  C   UNL A   1      35.762  33.550  31.483  1.00  0.00     0.060 A 
BRANCH  84  85
ATOM     85  S   UNL A   1      34.184  34.229  32.039  1.00  0.00     0.124 S 
ATOM     86  O   UNL A   1      33.527  34.524  30.771  1.00  0.00    -0.237 OA
ATOM     87  O   UNL A   1      33.625  33.118  32.805  1.00  0.00    -0.237 OA
ATOM     88  O   UNL A   1      34.578  35.390  32.831  1.00  0.00    -0.744 OA
ENDBRANCH  84  85
ENDBRANCH  52  77
BRANCH  64  89
ATOM     89  C   UNL A   1      44.684  35.159  30.334  1.00  0.00     0.058 A 
ATOM     90  C   UNL A   1      44.751  36.151  29.342  1.00  0.00     0.135 A 
ATOM     91  C   UNL A   1      45.124  35.492  31.624  1.00  0.00     0.135 A 
ATOM     92  F   UNL A   1      44.345  35.884  28.090  1.00  0.00    -0.206 F 
ATOM     93  C   UNL A   1      45.273  37.412  29.610  1.00  0.00     0.059 A 
ATOM     94  C   UNL A   1      45.621  36.757  31.924  1.00  0.00     0.059 A 
ATOM     95  F   UNL A   1      45.067  34.587  32.613  1.00  0.00    -0.206 F 
ATOM     96  C   UNL A   1      45.710  37.704  30.904  1.00  0.00     0.060 A 
BRANCH  96  97
ATOM     97  S   UNL A   1      46.381  39.345  31.243  1.00  0.00     0.124 S 
ATOM     98  O   UNL A   1      46.354  39.952  29.916  1.00  0.00    -0.237 OA
ATOM     99  O   UNL A   1      45.426  39.882  32.206  1.00  0.00    -0.237 OA
ATOM    100  O   UNL A   1      47.711  39.064  31.778  1.00  0.00    -0.744 OA
ENDBRANCH  96  97
ENDBRANCH  64  89
ENDBRANCH  38  39
ENDBRANCH  30  33
ENDBRANCH  28  29
ENDBRANCH  27  28
ENDBRANCH  26  27
ENDBRANCH   1  26
TORSDOF 20
ENDMDL
MODEL 2
REMARK VINA RESULT:     -10.4      1.115      2.314
REMARK SMILES CC(=O)N[C@@H](C[NH2+]CCc1ccc(F)cc1C)C(=O)NCCCCNC(=O)c1ccc(-c2c3nc(c(-c4c(F)cc(S(=O)(=O)[O-])cc4F)c4ccc([nH]4)c(-c4c(F)cc(S(=O)(=O)[O-])cc4F)c4nc(c(-c5c(F)cc(S(=O)(=O)[O-])cc5F)c5ccc2[nH]5)C=C4)C=C3)cc1
REMARK SMILES IDX 21 1 20 2 18 3 19 4 5 6 4 7 1 8 2 9 3 10 6 12 7 13 8 16 9 17
REMARK SMILES IDX 10 18 11 19 16 20 12 21 15 22 17 23 13 24 14 25 22 26 23 27
REMARK SMILES IDX 24 28 25 29 26 30 27 32 28 33 29 34 93 35 30 36 92 37 31 38
REMARK SMILES IDX 32 39 33 40 86 41 34 42 91 43 85 44 87 45 35 46 90 47 84 48
REMARK SMILES IDX 83 49 36 51 70 52 49 53 69 54 50 55 53 56 68 57 88 58 51 59
REMARK SMILES IDX 52 60 67 62 89 63 54 64 37 65 38 66 47 67 39 68 40 69 46 70
REMARK SMILES IDX 48 71 41 72 42 73 43 74 44 75 45 76 71 77 72 78 81 79 73 80
REMARK SMILES IDX 74 81 80 82 82 83 75 84 76 85 77 86 78 87 79 88 55 89 56 90
REMARK SMILES IDX 65 91 57 92 58 93 64 94 66 95 59 96 60 97 61 98 62 99 63 100
REMARK H PARENT 20 5 4 11 7 14 7 15 25 31 87 50 53 61
REMARK Flexibility Score: inf
ROOT
ATOM      1  C   UNL A   1      34.762  21.704  25.045  1.00  0.00     0.116 C 
ENDROOT
BRANCH   1   2
ATOM      2  N   UNL A   1      33.524  21.327  24.392  1.00  0.00    -0.354 N 
ATOM      3  C   UNL A   1      32.544  22.104  23.845  1.00  0.00     0.248 C 
ATOM      4  O   UNL A   1      31.740  21.549  23.087  1.00  0.00    -0.272 OA
ATOM      5  H   UNL A   1      33.365  20.358  24.334  1.00  0.00     0.163 HD
BRANCH   3   6
ATOM      6  C   UNL A   1      32.459  23.631  24.066  1.00  0.00     0.226 C 
BRANCH   6   7
ATOM      7  N   UNL A   1      32.763  24.412  22.858  1.00  0.00    -0.340 N 
ATOM      8  C   UNL A   1      33.869  26.312  23.976  1.00  0.00     0.114 C 
ATOM      9  C   UNL A   1      33.451  25.577  22.736  1.00  0.00     0.217 C 
ATOM     10  O   UNL A   1      33.680  26.017  21.611  1.00  0.00    -0.275 OA
ATOM     11  H   UNL A   1      32.418  24.036  22.015  1.00  0.00     0.164 HD
ENDBRANCH   6   7
BRANCH   6  12
ATOM     12  C   UNL A   1      31.148  24.077  24.771  1.00  0.00     0.296 C 
BRANCH  12  13
ATOM     13  N   UNL A   1      30.129  24.647  23.883  1.00  0.00    -0.344 N 
ATOM     14  H   UNL A   1      29.275  24.098  23.985  1.00  0.00     0.346 HD
ATOM     15  H   UNL A   1      30.515  24.615  22.940  1.00  0.00     0.346 HD
BRANCH  13  16
ATOM     16  C   UNL A   1      29.803  26.052  24.152  1.00  0.00     0.265 C 
BRANCH  16  17
ATOM     17  C   UNL A   1      30.173  27.029  23.015  1.00  0.00     0.097 C 
BRANCH  17  18
ATOM     18  C   UNL A   1      29.553  28.412  23.152  1.00  0.00    -0.039 A 
ATOM     19  C   UNL A   1      28.249  28.606  22.647  1.00  0.00     0.007 A 
ATOM     20  C   UNL A   1      30.206  29.493  23.781  1.00  0.00    -0.045 A 
ATOM     21  C   UNL A   1      27.588  29.824  22.788  1.00  0.00     0.039 A 
ATOM     22  C   UNL A   1      29.543  30.732  23.871  1.00  0.00     0.043 A 
ATOM     23  C   UNL A   1      31.619  29.416  24.293  1.00  0.00     0.045 C 
ATOM     24  C   UNL A   1      28.247  30.880  23.391  1.00  0.00     0.123 A 
ATOM     25  F   UNL A   1      27.633  32.066  23.503  1.00  0.00    -0.207 F 
ENDBRANCH  17  18
ENDBRANCH  16  17
ENDBRANCH  13  16
ENDBRANCH  12  13
ENDBRANCH   6  12
ENDBRANCH   3   6
ENDBRANCH   1   2
BRANCH   1  26
ATOM     26  C   UNL A   1      35.757  22.376  24.111  1.00  0.00     0.023 C 
BRANCH  26  27
ATOM     27  C   UNL A   1      36.355  23.670  24.646  1.00  0.00     0.023 C 
BRANCH  27  28
ATOM     28  C   UNL A   1      36.925  23.582  26.056  1.00  0.00     0.116 C 
BRANCH  28  29
ATOM     29  N   UNL A   1      37.966  22.573  26.200  1.00  0.00    -0.352 N 
ATOM     30  C   UNL A   1      39.274  22.736  26.590  1.00  0.00     0.251 C 
ATOM     31  H   UNL A   1      37.696  21.650  25.988  1.00  0.00     0.163 HD
ATOM     32  O   UNL A   1      40.056  21.792  26.544  1.00  0.00    -0.269 OA
BRANCH  30  33
ATOM     33  C   UNL A   1      39.732  24.068  27.038  1.00  0.00     0.039 A 
ATOM     34  C   UNL A   1      40.115  24.243  28.369  1.00  0.00     0.014 A 
ATOM     35  C   UNL A   1      39.826  25.125  26.129  1.00  0.00     0.014 A 
ATOM     36  C   UNL A   1      40.648  25.469  28.773  1.00  0.00     0.010 A 
ATOM     37  C   UNL A   1      40.449  26.308  26.509  1.00  0.00     0.010 A 
ATOM     38  C   UNL A   1      40.848  26.502  27.840  1.00  0.00    -0.014 A 
BRANCH  38  39
ATOM     39  C   UNL A   1      41.432  27.805  28.248  1.00  0.00     0.031 A 
ATOM     40  C   UNL A   1      42.913  28.038  28.106  1.00  0.00     0.074 A 
ATOM     41  C   UNL A   1      40.644  28.757  28.788  1.00  0.00     0.049 A 
ATOM     42  N   UNL A   1      43.621  29.088  28.433  1.00  0.00    -0.248 NA
ATOM     43  C   UNL A   1      43.712  26.929  27.555  1.00  0.00     0.031 C 
ATOM     44  C   UNL A   1      39.207  28.627  29.040  1.00  0.00     0.029 A 
ATOM     45  N   UNL A   1      40.943  30.023  29.225  1.00  0.00    -0.354 N 
ATOM     46  C   UNL A   1      44.940  28.761  28.143  1.00  0.00     0.074 A 
ATOM     47  C   UNL A   1      44.946  27.391  27.682  1.00  0.00     0.031 C 
ATOM     48  C   UNL A   1      38.745  29.779  29.554  1.00  0.00     0.029 A 
ATOM     49  C   UNL A   1      39.853  30.717  29.697  1.00  0.00     0.049 A 
ATOM     50  H   UNL A   1      41.853  30.399  29.204  1.00  0.00     0.167 HD
ATOM     51  C   UNL A   1      46.045  29.541  28.219  1.00  0.00     0.037 A 
ATOM     52  C   UNL A   1      39.760  31.970  30.182  1.00  0.00     0.037 A 
ATOM     53  C   UNL A   1      46.028  30.915  28.643  1.00  0.00     0.049 A 
ATOM     54  C   UNL A   1      40.995  32.829  30.227  1.00  0.00     0.074 A 
ATOM     55  C   UNL A   1      47.080  31.812  28.703  1.00  0.00     0.029 A 
ATOM     56  N   UNL A   1      44.897  31.596  29.074  1.00  0.00    -0.354 N 
ATOM     57  N   UNL A   1      42.225  32.526  29.886  1.00  0.00    -0.248 NA
ATOM     58  C   UNL A   1      40.826  34.208  30.706  1.00  0.00     0.031 C 
ATOM     59  C   UNL A   1      46.593  33.024  29.207  1.00  0.00     0.029 A 
ATOM     60  C   UNL A   1      45.228  32.897  29.412  1.00  0.00     0.049 A 
ATOM     61  H   UNL A   1      43.994  31.209  29.132  1.00  0.00     0.167 HD
ATOM     62  C   UNL A   1      42.970  33.684  30.076  1.00  0.00     0.074 A 
ATOM     63  C   UNL A   1      42.048  34.697  30.550  1.00  0.00     0.031 C 
ATOM     64  C   UNL A   1      44.295  33.894  29.873  1.00  0.00     0.037 A 
BRANCH  51  65
ATOM     65  C   UNL A   1      47.359  28.926  27.819  1.00  0.00     0.058 A 
ATOM     66  C   UNL A   1      47.736  28.800  26.471  1.00  0.00     0.135 A 
ATOM     67  C   UNL A   1      48.261  28.468  28.793  1.00  0.00     0.135 A 
ATOM     68  F   UNL A   1      46.905  29.203  25.496  1.00  0.00    -0.206 F 
ATOM     69  C   UNL A   1      48.942  28.215  26.102  1.00  0.00     0.059 A 
ATOM     70  C   UNL A   1      49.487  27.907  28.449  1.00  0.00     0.059 A 
ATOM     71  F   UNL A   1      47.953  28.560  30.097  1.00  0.00    -0.206 F 
ATOM     72  C   UNL A   1      49.811  27.770  27.099  1.00  0.00     0.060 A 
BRANCH  72  73
ATOM     73  S   UNL A   1      51.374  27.013  26.604  1.00  0.00     0.124 S 
ATOM     74  O   UNL A   1      51.394  25.817  27.439  1.00  0.00    -0.237 OA
ATOM     75  O   UNL A   1      51.172  26.786  25.177  1.00  0.00    -0.237 OA
ATOM     76  O   UNL A   1      52.365  28.030  26.941  1.00  0.00    -0.744 OA
ENDBRANCH  72  73
ENDBRANCH  51  65
BRANCH  52  77
ATOM     77  C   UNL A   1      38.441  32.505  30.619  1.00  0.00     0.058 A 
ATOM     78  C   UNL A   1      37.624  33.224  29.734  1.00  0.00     0.135 A 
ATOM     79  C   UNL A   1      37.969  32.304  31.925  1.00  0.00     0.135 A 
ATOM     80  F   UNL A   1      38.033  33.447  28.475  1.00  0.00    -0.206 F 
ATOM     81  C   UNL A   1      36.396  33.745  30.132  1.00  0.00     0.059 A 
ATOM     82  C   UNL A   1      36.733  32.792  32.339  1.00  0.00     0.059 A 
ATOM     83  F   UNL A   1      38.703  31.606  32.806  1.00  0.00    -0.206 F 
ATOM     84  C   UNL A   1      35.960  33.522  31.439  1.00  0.00     0.060 A 
BRANCH  84  85
ATOM     85  S   UNL A   1      34.346  34.167  31.932  1.00  0.00     0.124 S 
ATOM     86  O   UNL A   1      34.714  35.426  32.567  1.00  0.00    -0.237 OA
ATOM     87  O   UNL A   1      33.653  34.274  30.652  1.00  0.00    -0.237 OA
ATOM     88  O   UNL A   1      33.833  33.134  32.828  1.00  0.00    -0.744 OA
ENDBRANCH  84  85
ENDBRANCH  52  77
BRANCH  64  89
ATOM     89  C   UNL A   1      44.818  35.284  30.113  1.00  0.00     0.058 A 
ATOM     90  C   UNL A   1      45.315  35.685  31.363  1.00  0.00     0.135 A 
ATOM     91  C   UNL A   1      44.847  36.219  29.065  1.00  0.00     0.135 A 
ATOM     92  F   UNL A   1      45.308  34.830  32.398  1.00  0.00    -0.206 F 
ATOM     93  C   UNL A   1      45.785  36.976  31.577  1.00  0.00     0.059 A 
ATOM     94  C   UNL A   1      45.341  37.506  29.248  1.00  0.00     0.059 A 
ATOM     95  F   UNL A   1      44.398  35.883  27.846  1.00  0.00    -0.206 F 
ATOM     96  C   UNL A   1      45.790  37.881  30.514  1.00  0.00     0.060 A 
BRANCH  96  97
ATOM     97  S   UNL A   1      46.407  39.553  30.801  1.00  0.00     0.124 S 
ATOM     98  O   UNL A   1      47.773  39.290  31.241  1.00  0.00    -0.237 OA
ATOM     99  O   UNL A   1      46.271  40.168  29.485  1.00  0.00    -0.237 OA
ATOM    100  O   UNL A   1      45.507  40.076  31.826  1.00  0.00    -0.744 OA
ENDBRANCH  96  97
ENDBRANCH  64  89
ENDBRANCH  38  39
ENDBRANCH  30  33
ENDBRANCH  28  29
ENDBRANCH  27  28
ENDBRANCH  26  27
ENDBRANCH   1  26
TORSDOF 20
ENDMDL
MODEL 3
REMARK VINA RESULT:     -10.2      5.070      6.569
REMARK SMILES CC(=O)N[C@@H](C[NH2+]CCc1ccc(F)cc1C)C(=O)NCCCCNC(=O)c1ccc(-c2c3nc(c(-c4c(F)cc(S(=O)(=O)[O-])cc4F)c4ccc([nH]4)c(-c4c(F)cc(S(=O)(=O)[O-])cc4F)c4nc(c(-c5c(F)cc(S(=O)(=O)[O-])cc5F)c5ccc2[nH]5)C=C4)C=C3)cc1
REMARK SMILES IDX 21 1 20 2 18 3 19 4 5 6 4 7 1 8 2 9 3 10 6 12 7 13 8 16 9 17
REMARK SMILES IDX 10 18 11 19 16 20 12 21 15 22 17 23 13 24 14 25 22 26 23 27
REMARK SMILES IDX 24 28 25 29 26 30 27 32 28 33 29 34 93 35 30 36 92 37 31 38
REMARK SMILES IDX 32 39 33 40 86 41 34 42 91 43 85 44 87 45 35 46 90 47 84 48
REMARK SMILES IDX 83 49 36 51 70 52 49 53 69 54 50 55 53 56 68 57 88 58 51 59
REMARK SMILES IDX 52 60 67 62 89 63 54 64 37 65 38 66 47 67 39 68 40 69 46 70
REMARK SMILES IDX 48 71 41 72 42 73 43 74 44 75 45 76 71 77 72 78 81 79 73 80
REMARK SMILES IDX 74 81 80 82 82 83 75 84 76 85 77 86 78 87 79 88 55 89 56 90
REMARK SMILES IDX 65 91 57 92 58 93 64 94 66 95 59 96 60 97 61 98 62 99 63 100
REMARK H PARENT 20 5 4 11 7 14 7 15 25 31 87 50 53 61
REMARK Flexibility Score: inf
ROOT
ATOM      1  C   UNL A   1      35.976  22.059  25.893  1.00  0.00     0.116 C 
ENDROOT
BRANCH   1   2
ATOM      2  N   UNL A   1      34.951  22.391  26.864  1.00  0.00    -0.354 N 
ATOM      3  C   UNL A   1      33.642  22.011  26.927  1.00  0.00     0.248 C 
ATOM      4  O   UNL A   1      33.056  22.178  28.004  1.00  0.00    -0.272 OA
ATOM      5  H   UNL A   1      35.247  22.983  27.592  1.00  0.00     0.163 HD
BRANCH   3   6
ATOM      6  C   UNL A   1      32.908  21.319  25.757  1.00  0.00     0.226 C 
BRANCH   6   7
ATOM      7  N   UNL A   1      32.567  19.915  26.033  1.00  0.00    -0.340 N 
ATOM      8  C   UNL A   1      32.704  19.092  23.712  1.00  0.00     0.114 C 
ATOM      9  C   UNL A   1      32.528  18.856  25.184  1.00  0.00     0.217 C 
ATOM     10  O   UNL A   1      32.313  17.735  25.642  1.00  0.00    -0.275 OA
ATOM     11  H   UNL A   1      32.333  19.714  26.969  1.00  0.00     0.164 HD
ENDBRANCH   6   7
BRANCH   6  12
ATOM     12  C   UNL A   1      31.712  22.144  25.207  1.00  0.00     0.296 C 
BRANCH  12  13
ATOM     13  N   UNL A   1      32.017  22.981  24.043  1.00  0.00    -0.344 N 
ATOM     14  H   UNL A   1      31.942  22.403  23.206  1.00  0.00     0.346 HD
ATOM     15  H   UNL A   1      32.956  23.351  24.191  1.00  0.00     0.346 HD
BRANCH  13  16
ATOM     16  C   UNL A   1      31.134  24.141  23.878  1.00  0.00     0.265 C 
BRANCH  16  17
ATOM     17  C   UNL A   1      31.639  25.198  22.871  1.00  0.00     0.097 C 
BRANCH  17  18
ATOM     18  C   UNL A   1      31.325  26.634  23.262  1.00  0.00    -0.039 A 
ATOM     19  C   UNL A   1      29.989  27.075  23.148  1.00  0.00     0.007 A 
ATOM     20  C   UNL A   1      32.296  27.530  23.757  1.00  0.00    -0.045 A 
ATOM     21  C   UNL A   1      29.608  28.355  23.544  1.00  0.00     0.039 A 
ATOM     22  C   UNL A   1      31.904  28.837  24.106  1.00  0.00     0.043 A 
ATOM     23  C   UNL A   1      33.757  27.189  23.857  1.00  0.00     0.045 C 
ATOM     24  C   UNL A   1      30.574  29.229  24.010  1.00  0.00     0.123 A 
ATOM     25  F   UNL A   1      30.225  30.474  24.364  1.00  0.00    -0.207 F 
ENDBRANCH  17  18
ENDBRANCH  16  17
ENDBRANCH  13  16
ENDBRANCH  12  13
ENDBRANCH   6  12
ENDBRANCH   3   6
ENDBRANCH   1   2
BRANCH   1  26
ATOM     26  C   UNL A   1      36.908  23.219  25.579  1.00  0.00     0.023 C 
BRANCH  26  27
ATOM     27  C   UNL A   1      38.311  23.077  26.151  1.00  0.00     0.023 C 
BRANCH  27  28
ATOM     28  C   UNL A   1      39.001  24.390  26.501  1.00  0.00     0.116 C 
BRANCH  28  29
ATOM     29  N   UNL A   1      40.254  24.596  25.787  1.00  0.00    -0.352 N 
ATOM     30  C   UNL A   1      41.249  25.510  26.041  1.00  0.00     0.251 C 
ATOM     31  H   UNL A   1      40.407  24.002  25.018  1.00  0.00     0.163 HD
ATOM     32  O   UNL A   1      42.191  25.631  25.266  1.00  0.00    -0.269 OA
BRANCH  30  33
ATOM     33  C   UNL A   1      41.155  26.363  27.244  1.00  0.00     0.039 A 
ATOM     34  C   UNL A   1      41.758  27.622  27.235  1.00  0.00     0.014 A 
ATOM     35  C   UNL A   1      40.431  25.934  28.360  1.00  0.00     0.014 A 
ATOM     36  C   UNL A   1      41.584  28.474  28.327  1.00  0.00     0.010 A 
ATOM     37  C   UNL A   1      40.175  26.821  29.399  1.00  0.00     0.010 A 
ATOM     38  C   UNL A   1      40.766  28.093  29.405  1.00  0.00    -0.014 A 
BRANCH  38  39
ATOM     39  C   UNL A   1      40.553  28.995  30.566  1.00  0.00     0.031 A 
ATOM     40  C   UNL A   1      41.406  28.840  31.798  1.00  0.00     0.074 A 
ATOM     41  C   UNL A   1      39.569  29.916  30.533  1.00  0.00     0.049 A 
ATOM     42  N   UNL A   1      41.358  29.501  32.925  1.00  0.00    -0.248 NA
ATOM     43  C   UNL A   1      42.425  27.776  31.773  1.00  0.00     0.031 C 
ATOM     44  C   UNL A   1      38.633  30.118  29.424  1.00  0.00     0.029 A 
ATOM     45  N   UNL A   1      39.190  30.853  31.461  1.00  0.00    -0.354 N 
ATOM     46  C   UNL A   1      42.324  28.926  33.743  1.00  0.00     0.074 A 
ATOM     47  C   UNL A   1      42.893  27.817  33.012  1.00  0.00     0.031 C 
ATOM     48  C   UNL A   1      37.812  31.139  29.722  1.00  0.00     0.029 A 
ATOM     49  C   UNL A   1      38.141  31.644  31.052  1.00  0.00     0.049 A 
ATOM     50  H   UNL A   1      39.628  30.951  32.337  1.00  0.00     0.167 HD
ATOM     51  C   UNL A   1      42.728  29.308  34.979  1.00  0.00     0.037 A 
ATOM     52  C   UNL A   1      37.522  32.663  31.677  1.00  0.00     0.037 A 
ATOM     53  C   UNL A   1      42.183  30.436  35.687  1.00  0.00     0.049 A 
ATOM     54  C   UNL A   1      38.008  33.090  33.036  1.00  0.00     0.074 A 
ATOM     55  C   UNL A   1      42.559  30.943  36.918  1.00  0.00     0.029 A 
ATOM     56  N   UNL A   1      41.150  31.237  35.222  1.00  0.00    -0.354 N 
ATOM     57  N   UNL A   1      38.969  32.577  33.767  1.00  0.00    -0.248 NA
ATOM     58  C   UNL A   1      37.340  34.247  33.646  1.00  0.00     0.031 C 
ATOM     59  C   UNL A   1      41.726  32.028  37.216  1.00  0.00     0.029 A 
ATOM     60  C   UNL A   1      40.867  32.228  36.146  1.00  0.00     0.049 A 
ATOM     61  H   UNL A   1      40.686  31.118  34.362  1.00  0.00     0.167 HD
ATOM     62  C   UNL A   1      39.043  33.369  34.908  1.00  0.00     0.074 A 
ATOM     63  C   UNL A   1      38.037  34.402  34.763  1.00  0.00     0.031 C 
ATOM     64  C   UNL A   1      39.869  33.255  35.979  1.00  0.00     0.037 A 
BRANCH  51  65
ATOM     65  C   UNL A   1      43.820  28.505  35.631  1.00  0.00     0.058 A 
ATOM     66  C   UNL A   1      43.535  27.413  36.468  1.00  0.00     0.135 A 
ATOM     67  C   UNL A   1      45.170  28.818  35.407  1.00  0.00     0.135 A 
ATOM     68  F   UNL A   1      42.261  27.080  36.734  1.00  0.00    -0.206 F 
ATOM     69  C   UNL A   1      44.544  26.683  37.085  1.00  0.00     0.059 A 
ATOM     70  C   UNL A   1      46.198  28.082  35.989  1.00  0.00     0.059 A 
ATOM     71  F   UNL A   1      45.504  29.852  34.618  1.00  0.00    -0.206 F 
ATOM     72  C   UNL A   1      45.874  27.026  36.840  1.00  0.00     0.060 A 
BRANCH  72  73
ATOM     73  S   UNL A   1      47.173  26.067  37.648  1.00  0.00     0.124 S 
ATOM     74  O   UNL A   1      47.532  26.943  38.758  1.00  0.00    -0.237 OA
ATOM     75  O   UNL A   1      46.475  24.838  38.009  1.00  0.00    -0.237 OA
ATOM     76  O   UNL A   1      48.187  25.926  36.607  1.00  0.00    -0.744 OA
ENDBRANCH  72  73
ENDBRANCH  51  65
BRANCH  52  77
ATOM     77  C   UNL A   1      36.405  33.383  31.005  1.00  0.00     0.058 A 
ATOM     78  C   UNL A   1      36.650  34.265  29.942  1.00  0.00     0.135 A 
ATOM     79  C   UNL A   1      35.073  33.200  31.406  1.00  0.00     0.135 A 
ATOM     80  F   UNL A   1      37.907  34.477  29.523  1.00  0.00    -0.206 F 
ATOM     81  C   UNL A   1      35.619  34.957  29.314  1.00  0.00     0.059 A 
ATOM     82  C   UNL A   1      34.022  33.861  30.778  1.00  0.00     0.059 A 
ATOM     83  F   UNL A   1      34.782  32.353  32.407  1.00  0.00    -0.206 F 
ATOM     84  C   UNL A   1      34.306  34.746  29.740  1.00  0.00     0.060 A 
BRANCH  84  85
ATOM     85  S   UNL A   1      32.972  35.619  28.892  1.00  0.00     0.124 S 
ATOM     86  O   UNL A   1      32.385  34.552  28.091  1.00  0.00    -0.237 OA
ATOM     87  O   UNL A   1      32.162  36.101  30.008  1.00  0.00    -0.237 OA
ATOM     88  O   UNL A   1      33.674  36.658  28.144  1.00  0.00    -0.744 OA
ENDBRANCH  84  85
ENDBRANCH  52  77
BRANCH  64  89
ATOM     89  C   UNL A   1      39.757  34.303  37.051  1.00  0.00     0.058 A 
ATOM     90  C   UNL A   1      38.984  34.104  38.206  1.00  0.00     0.135 A 
ATOM     91  C   UNL A   1      40.458  35.514  36.932  1.00  0.00     0.135 A 
ATOM     92  F   UNL A   1      38.292  32.965  38.368  1.00  0.00    -0.206 F 
ATOM     93  C   UNL A   1      38.877  35.085  39.186  1.00  0.00     0.059 A 
ATOM     94  C   UNL A   1      40.391  36.497  37.915  1.00  0.00     0.059 A 
ATOM     95  F   UNL A   1      41.224  35.749  35.856  1.00  0.00    -0.206 F 
ATOM     96  C   UNL A   1      39.582  36.280  39.029  1.00  0.00     0.060 A 
BRANCH  96  97
ATOM     97  S   UNL A   1      39.440  37.545  40.310  1.00  0.00     0.124 S 
ATOM     98  O   UNL A   1      38.307  38.326  39.826  1.00  0.00    -0.237 OA
ATOM     99  O   UNL A   1      39.198  36.751  41.509  1.00  0.00    -0.237 OA
ATOM    100  O   UNL A   1      40.734  38.221  40.264  1.00  0.00    -0.744 OA
ENDBRANCH  96  97
ENDBRANCH  64  89
ENDBRANCH  38  39
ENDBRANCH  30  33
ENDBRANCH  28  29
ENDBRANCH  27  28
ENDBRANCH  26  27
ENDBRANCH   1  26
TORSDOF 20
ENDMDL
