MODEL 1
REMARK VINA RESULT:     -13.0      0.000      0.000
REMARK SMILES O=C(NCCCCNC(=O)c1ccccc1-c1ccccc1C(=O)N1CC[NH+](Cc2ccc3c(c2)OCO3)CC1)c1ccc(-c2c3nc(c(-c4c(F)cc(S(=O)(=O)[O-])cc4F)c4ccc([nH]4)c(-c4c(F)cc(S(=O)(=O)[O-])cc4F)c4nc(c(-c5c(F)cc(S(=O)(=O)[O-])cc5F)c5ccc2[nH]5)C=C4)C=C3)cc1
REMARK SMILES IDX 6 1 5 2 4 3 3 4 1 5 2 6 41 8 42 9 106 10 43 11 105 12 44 13
REMARK SMILES IDX 45 14 46 15 99 16 47 17 104 18 98 19 100 20 48 21 103 22
REMARK SMILES IDX 97 23 96 24 49 26 83 27 62 28 82 29 63 30 66 31 81 32 101 33
REMARK SMILES IDX 64 34 65 35 80 37 102 38 67 39 50 40 51 41 60 42 52 43 53 44
REMARK SMILES IDX 59 45 61 46 54 47 55 48 56 49 57 50 58 51 84 52 85 53 94 54
REMARK SMILES IDX 86 55 87 56 93 57 95 58 88 59 89 60 90 61 91 62 92 63 68 64
REMARK SMILES IDX 69 65 78 66 70 67 71 68 77 69 79 70 72 71 73 72 74 73 75 74
REMARK SMILES IDX 76 75 7 76 8 77 9 78 10 80 11 81 12 82 16 83 13 84 15 85
REMARK SMILES IDX 14 86 17 87 18 88 22 89 19 90 21 91 20 92 23 93 24 94 25 95
REMARK SMILES IDX 26 96 40 97 27 98 39 99 28 100 29 102 30 103 31 104 35 105
REMARK SMILES IDX 32 106 34 107 33 108 36 109 38 110 37 111
REMARK H PARENT 3 7 100 25 66 36 8 79 28 101
REMARK Flexibility Score: inf
ROOT
ATOM      1  C   UNL A   1      38.244  22.898  25.962  1.00  0.00     0.023 C 
ENDROOT
BRANCH   1   2
ATOM      2  C   UNL A   1      38.625  24.165  26.728  1.00  0.00     0.023 C 
BRANCH   2   3
ATOM      3  C   UNL A   1      39.689  25.011  26.041  1.00  0.00     0.116 C 
BRANCH   3   4
ATOM      4  N   UNL A   1      40.998  24.370  26.078  1.00  0.00    -0.352 N 
ATOM      5  O   UNL A   1      43.191  24.216  26.579  1.00  0.00    -0.269 OA
ATOM      6  C   UNL A   1      42.108  24.724  26.802  1.00  0.00     0.251 C 
ATOM      7  H   UNL A   1      41.099  23.575  25.506  1.00  0.00     0.163 HD
BRANCH   6   8
ATOM      8  C   UNL A   1      41.941  25.743  27.852  1.00  0.00     0.039 A 
ATOM      9  C   UNL A   1      40.955  25.564  28.826  1.00  0.00     0.014 A 
ATOM     10  C   UNL A   1      42.739  26.887  27.830  1.00  0.00     0.014 A 
ATOM     11  C   UNL A   1      40.687  26.588  29.718  1.00  0.00     0.010 A 
ATOM     12  C   UNL A   1      42.529  27.876  28.789  1.00  0.00     0.010 A 
ATOM     13  C   UNL A   1      41.499  27.733  29.732  1.00  0.00    -0.014 A 
BRANCH  13  14
ATOM     14  C   UNL A   1      41.351  28.698  30.844  1.00  0.00     0.031 A 
ATOM     15  C   UNL A   1      42.203  28.609  32.073  1.00  0.00     0.074 A 
ATOM     16  C   UNL A   1      40.401  29.643  30.715  1.00  0.00     0.049 A 
ATOM     17  N   UNL A   1      42.147  29.339  33.156  1.00  0.00    -0.248 NA
ATOM     18  C   UNL A   1      43.244  27.568  32.103  1.00  0.00     0.031 C 
ATOM     19  C   UNL A   1      39.508  29.787  29.558  1.00  0.00     0.029 A 
ATOM     20  N   UNL A   1      40.017  30.655  31.553  1.00  0.00    -0.354 N 
ATOM     21  C   UNL A   1      43.120  28.832  34.008  1.00  0.00     0.074 A 
ATOM     22  C   UNL A   1      43.753  27.729  33.319  1.00  0.00     0.031 C 
ATOM     23  C   UNL A   1      38.697  30.834  29.751  1.00  0.00     0.029 A 
ATOM     24  C   UNL A   1      38.957  31.388  31.072  1.00  0.00     0.049 A 
ATOM     25  H   UNL A   1      40.456  30.841  32.414  1.00  0.00     0.167 HD
ATOM     26  C   UNL A   1      43.441  29.260  35.251  1.00  0.00     0.037 A 
ATOM     27  C   UNL A   1      38.237  32.364  31.652  1.00  0.00     0.037 A 
ATOM     28  C   UNL A   1      42.811  30.383  35.899  1.00  0.00     0.049 A 
ATOM     29  C   UNL A   1      38.606  32.796  33.039  1.00  0.00     0.074 A 
ATOM     30  C   UNL A   1      43.126  30.956  37.119  1.00  0.00     0.029 A 
ATOM     31  N   UNL A   1      41.732  31.092  35.391  1.00  0.00    -0.354 N 
ATOM     32  N   UNL A   1      39.578  32.356  33.803  1.00  0.00    -0.248 NA
ATOM     33  C   UNL A   1      37.778  33.840  33.652  1.00  0.00     0.031 C 
ATOM     34  C   UNL A   1      42.201  31.973  37.375  1.00  0.00     0.029 A 
ATOM     35  C   UNL A   1      41.340  32.067  36.293  1.00  0.00     0.049 A 
ATOM     36  H   UNL A   1      41.309  30.927  34.517  1.00  0.00     0.167 HD
ATOM     37  C   UNL A   1      39.479  33.071  34.988  1.00  0.00     0.074 A 
ATOM     38  C   UNL A   1      38.372  33.992  34.828  1.00  0.00     0.031 C 
ATOM     39  C   UNL A   1      40.229  32.966  36.112  1.00  0.00     0.037 A 
BRANCH  26  40
ATOM     40  C   UNL A   1      44.499  28.518  36.017  1.00  0.00     0.058 A 
ATOM     41  C   UNL A   1      44.190  27.427  36.844  1.00  0.00     0.135 A 
ATOM     42  C   UNL A   1      45.856  28.833  35.829  1.00  0.00     0.135 A 
ATOM     43  F   UNL A   1      42.910  27.091  37.070  1.00  0.00    -0.206 F 
ATOM     44  C   UNL A   1      45.188  26.672  37.453  1.00  0.00     0.059 A 
ATOM     45  C   UNL A   1      46.870  28.079  36.412  1.00  0.00     0.059 A 
ATOM     46  F   UNL A   1      46.206  29.869  35.051  1.00  0.00    -0.206 F 
ATOM     47  C   UNL A   1      46.527  27.000  37.224  1.00  0.00     0.060 A 
BRANCH  47  48
ATOM     48  S   UNL A   1      47.810  25.973  37.974  1.00  0.00     0.124 S 
ATOM     49  O   UNL A   1      49.019  26.702  37.602  1.00  0.00    -0.237 OA
ATOM     50  O   UNL A   1      47.455  26.016  39.389  1.00  0.00    -0.237 OA
ATOM     51  O   UNL A   1      47.634  24.678  37.325  1.00  0.00    -0.744 OA
ENDBRANCH  47  48
ENDBRANCH  26  40
BRANCH  27  52
ATOM     52  C   UNL A   1      37.069  32.943  30.942  1.00  0.00     0.058 A 
ATOM     53  C   UNL A   1      35.761  32.543  31.247  1.00  0.00     0.135 A 
ATOM     54  C   UNL A   1      37.240  33.923  29.950  1.00  0.00     0.135 A 
ATOM     55  F   UNL A   1      35.547  31.611  32.188  1.00  0.00    -0.206 F 
ATOM     56  C   UNL A   1      34.664  33.072  30.575  1.00  0.00     0.059 A 
ATOM     57  C   UNL A   1      36.159  34.490  29.286  1.00  0.00     0.059 A 
ATOM     58  F   UNL A   1      38.471  34.358  29.638  1.00  0.00    -0.206 F 
ATOM     59  C   UNL A   1      34.875  34.043  29.593  1.00  0.00     0.060 A 
BRANCH  59  60
ATOM     60  S   UNL A   1      33.447  34.739  28.737  1.00  0.00     0.124 S 
ATOM     61  O   UNL A   1      32.525  34.962  29.845  1.00  0.00    -0.237 OA
ATOM     62  O   UNL A   1      34.008  35.937  28.121  1.00  0.00    -0.237 OA
ATOM     63  O   UNL A   1      33.069  33.682  27.804  1.00  0.00    -0.744 OA
ENDBRANCH  59  60
ENDBRANCH  27  52
BRANCH  39  64
ATOM     64  C   UNL A   1      39.870  33.871  37.253  1.00  0.00     0.058 A 
ATOM     65  C   UNL A   1      38.986  33.454  38.260  1.00  0.00     0.135 A 
ATOM     66  C   UNL A   1      40.454  35.141  37.370  1.00  0.00     0.135 A 
ATOM     67  F   UNL A   1      38.390  32.253  38.184  1.00  0.00    -0.206 F 
ATOM     68  C   UNL A   1      38.684  34.272  39.342  1.00  0.00     0.059 A 
ATOM     69  C   UNL A   1      40.187  35.965  38.458  1.00  0.00     0.059 A 
ATOM     70  F   UNL A   1      41.310  35.582  36.434  1.00  0.00    -0.206 F 
ATOM     71  C   UNL A   1      39.295  35.525  39.435  1.00  0.00     0.060 A 
BRANCH  71  72
ATOM     72  S   UNL A   1      38.934  36.556  40.871  1.00  0.00     0.124 S 
ATOM     73  O   UNL A   1      38.489  37.795  40.239  1.00  0.00    -0.237 OA
ATOM     74  O   UNL A   1      37.899  35.787  41.555  1.00  0.00    -0.237 OA
ATOM     75  O   UNL A   1      40.214  36.630  41.567  1.00  0.00    -0.744 OA
ENDBRANCH  71  72
ENDBRANCH  39  64
ENDBRANCH  13  14
ENDBRANCH   6   8
ENDBRANCH   3   4
ENDBRANCH   2   3
ENDBRANCH   1   2
BRANCH   1  76
ATOM     76  C   UNL A   1      37.160  23.120  24.916  1.00  0.00     0.116 C 
BRANCH  76  77
ATOM     77  N   UNL A   1      36.680  21.852  24.426  1.00  0.00    -0.352 N 
ATOM     78  C   UNL A   1      35.784  21.051  25.065  1.00  0.00     0.251 C 
ATOM     79  H   UNL A   1      37.030  21.539  23.561  1.00  0.00     0.163 HD
ATOM     80  O   UNL A   1      35.935  19.834  25.024  1.00  0.00    -0.269 OA
BRANCH  78  81
ATOM     81  C   UNL A   1      34.650  21.656  25.816  1.00  0.00     0.047 A 
ATOM     82  C   UNL A   1      34.907  21.886  27.180  1.00  0.00     0.014 A 
ATOM     83  C   UNL A   1      33.370  21.926  25.270  1.00  0.00    -0.005 A 
ATOM     84  C   UNL A   1      33.926  22.413  28.014  1.00  0.00     0.001 A 
ATOM     85  C   UNL A   1      32.400  22.467  26.149  1.00  0.00     0.009 A 
ATOM     86  C   UNL A   1      32.673  22.710  27.497  1.00  0.00     0.001 A 
BRANCH  83  87
ATOM     87  C   UNL A   1      32.962  21.726  23.854  1.00  0.00    -0.005 A 
ATOM     88  C   UNL A   1      32.356  20.476  23.546  1.00  0.00     0.009 A 
ATOM     89  C   UNL A   1      33.068  22.668  22.805  1.00  0.00     0.047 A 
ATOM     90  C   UNL A   1      31.828  20.186  22.286  1.00  0.00     0.001 A 
ATOM     91  C   UNL A   1      32.534  22.352  21.531  1.00  0.00     0.014 A 
ATOM     92  C   UNL A   1      31.913  21.129  21.277  1.00  0.00     0.001 A 
BRANCH  89  93
ATOM     93  C   UNL A   1      33.526  24.084  22.951  1.00  0.00     0.254 C 
ATOM     94  O   UNL A   1      34.743  24.286  22.968  1.00  0.00    -0.269 OA
ATOM     95  N   UNL A   1      32.618  25.137  22.980  1.00  0.00    -0.327 N 
ATOM     96  C   UNL A   1      33.125  26.442  22.579  1.00  0.00     0.181 C 
ATOM     97  C   UNL A   1      31.470  25.186  23.876  1.00  0.00     0.181 C 
ATOM     98  C   UNL A   1      32.018  27.377  22.048  1.00  0.00     0.284 C 
ATOM     99  C   UNL A   1      30.381  26.199  23.433  1.00  0.00     0.284 C 
ATOM    100  N   UNL A   1      30.800  27.492  22.872  1.00  0.00    -0.328 N 
ATOM    101  H   UNL A   1      30.048  27.738  22.229  1.00  0.00     0.348 HD
BRANCH 100 102
ATOM    102  C   UNL A   1      30.748  28.656  23.763  1.00  0.00     0.299 C 
BRANCH 102 103
ATOM    103  C   UNL A   1      29.642  29.631  23.437  1.00  0.00     0.010 A 
ATOM    104  C   UNL A   1      29.541  30.840  24.163  1.00  0.00     0.013 A 
ATOM    105  C   UNL A   1      28.901  29.451  22.258  1.00  0.00     0.060 A 
ATOM    106  C   UNL A   1      28.876  31.939  23.617  1.00  0.00     0.051 A 
ATOM    107  C   UNL A   1      28.319  30.570  21.716  1.00  0.00     0.166 A 
ATOM    108  C   UNL A   1      28.343  31.787  22.357  1.00  0.00     0.165 A 
ATOM    109  O   UNL A   1      27.863  30.670  20.435  1.00  0.00    -0.454 OA
ATOM    110  O   UNL A   1      27.913  32.795  21.547  1.00  0.00    -0.454 OA
ATOM    111  C   UNL A   1      27.918  32.103  20.277  1.00  0.00     0.468 C 
ENDBRANCH 102 103
ENDBRANCH 100 102
ENDBRANCH  89  93
ENDBRANCH  83  87
ENDBRANCH  78  81
ENDBRANCH  76  77
ENDBRANCH   1  76
TORSDOF 18
ENDMDL
MODEL 2
REMARK VINA RESULT:     -13.0      6.240     12.112
REMARK SMILES O=C(NCCCCNC(=O)c1ccccc1-c1ccccc1C(=O)N1CC[NH+](Cc2ccc3c(c2)OCO3)CC1)c1ccc(-c2c3nc(c(-c4c(F)cc(S(=O)(=O)[O-])cc4F)c4ccc([nH]4)c(-c4c(F)cc(S(=O)(=O)[O-])cc4F)c4nc(c(-c5c(F)cc(S(=O)(=O)[O-])cc5F)c5ccc2[nH]5)C=C4)C=C3)cc1
REMARK SMILES IDX 6 1 5 2 4 3 3 4 1 5 2 6 41 8 42 9 106 10 43 11 105 12 44 13
REMARK SMILES IDX 45 14 46 15 99 16 47 17 104 18 98 19 100 20 48 21 103 22
REMARK SMILES IDX 97 23 96 24 49 26 83 27 62 28 82 29 63 30 66 31 81 32 101 33
REMARK SMILES IDX 64 34 65 35 80 37 102 38 67 39 50 40 51 41 60 42 52 43 53 44
REMARK SMILES IDX 59 45 61 46 54 47 55 48 56 49 57 50 58 51 84 52 85 53 94 54
REMARK SMILES IDX 86 55 87 56 93 57 95 58 88 59 89 60 90 61 91 62 92 63 68 64
REMARK SMILES IDX 69 65 78 66 70 67 71 68 77 69 79 70 72 71 73 72 74 73 75 74
REMARK SMILES IDX 76 75 7 76 8 77 9 78 10 80 11 81 12 82 16 83 13 84 15 85
REMARK SMILES IDX 14 86 17 87 18 88 22 89 19 90 21 91 20 92 23 93 24 94 25 95
REMARK SMILES IDX 26 96 40 97 27 98 39 99 28 100 29 102 30 103 31 104 35 105
REMARK SMILES IDX 32 106 34 107 33 108 36 109 38 110 37 111
REMARK H PARENT 3 7 100 25 66 36 8 79 28 101
REMARK Flexibility Score: inf
ROOT
ATOM      1  C   UNL A   1      34.694  29.427  26.968  1.00  0.00     0.023 C 
ENDROOT
BRANCH   1   2
ATOM      2  C   UNL A   1      34.522  30.788  27.644  1.00  0.00     0.023 C 
BRANCH   2   3
ATOM      3  C   UNL A   1      35.719  31.225  28.477  1.00  0.00     0.116 C 
BRANCH   3   4
ATOM      4  N   UNL A   1      35.530  30.934  29.893  1.00  0.00    -0.352 N 
ATOM      5  O   UNL A   1      35.997  29.937  31.861  1.00  0.00    -0.269 OA
ATOM      6  C   UNL A   1      36.375  30.284  30.757  1.00  0.00     0.251 C 
ATOM      7  H   UNL A   1      34.681  31.247  30.282  1.00  0.00     0.163 HD
BRANCH   6   8
ATOM      8  C   UNL A   1      37.747  30.019  30.298  1.00  0.00     0.039 A 
ATOM      9  C   UNL A   1      38.781  29.954  31.237  1.00  0.00     0.014 A 
ATOM     10  C   UNL A   1      38.000  29.880  28.933  1.00  0.00     0.014 A 
ATOM     11  C   UNL A   1      40.091  29.863  30.801  1.00  0.00     0.010 A 
ATOM     12  C   UNL A   1      39.312  29.694  28.503  1.00  0.00     0.010 A 
ATOM     13  C   UNL A   1      40.363  29.691  29.434  1.00  0.00    -0.014 A 
BRANCH  13  14
ATOM     14  C   UNL A   1      41.741  29.353  29.019  1.00  0.00     0.031 A 
ATOM     15  C   UNL A   1      42.812  30.396  28.940  1.00  0.00     0.074 A 
ATOM     16  C   UNL A   1      41.986  28.069  28.690  1.00  0.00     0.049 A 
ATOM     17  N   UNL A   1      44.047  30.266  28.532  1.00  0.00    -0.248 NA
ATOM     18  C   UNL A   1      42.460  31.763  29.362  1.00  0.00     0.031 C 
ATOM     19  C   UNL A   1      40.991  26.990  28.714  1.00  0.00     0.029 A 
ATOM     20  N   UNL A   1      43.131  27.450  28.266  1.00  0.00    -0.354 N 
ATOM     21  C   UNL A   1      44.613  31.533  28.618  1.00  0.00     0.074 A 
ATOM     22  C   UNL A   1      43.586  32.422  29.115  1.00  0.00     0.031 C 
ATOM     23  C   UNL A   1      41.573  25.843  28.343  1.00  0.00     0.029 A 
ATOM     24  C   UNL A   1      42.956  26.117  27.981  1.00  0.00     0.049 A 
ATOM     25  H   UNL A   1      43.995  27.913  28.175  1.00  0.00     0.167 HD
ATOM     26  C   UNL A   1      45.876  31.902  28.303  1.00  0.00     0.037 A 
ATOM     27  C   UNL A   1      43.800  25.222  27.437  1.00  0.00     0.037 A 
ATOM     28  C   UNL A   1      46.887  30.984  27.838  1.00  0.00     0.049 A 
ATOM     29  C   UNL A   1      45.183  25.674  27.079  1.00  0.00     0.074 A 
ATOM     30  C   UNL A   1      48.222  31.239  27.580  1.00  0.00     0.029 A 
ATOM     31  N   UNL A   1      46.671  29.645  27.546  1.00  0.00    -0.354 N 
ATOM     32  N   UNL A   1      45.726  26.857  27.236  1.00  0.00    -0.248 NA
ATOM     33  C   UNL A   1      46.066  24.680  26.457  1.00  0.00     0.031 C 
ATOM     34  C   UNL A   1      48.800  30.069  27.078  1.00  0.00     0.029 A 
ATOM     35  C   UNL A   1      47.837  29.072  27.067  1.00  0.00     0.049 A 
ATOM     36  H   UNL A   1      45.815  29.172  27.663  1.00  0.00     0.167 HD
ATOM     37  C   UNL A   1      47.015  26.751  26.732  1.00  0.00     0.074 A 
ATOM     38  C   UNL A   1      47.179  25.380  26.294  1.00  0.00     0.031 C 
ATOM     39  C   UNL A   1      47.972  27.705  26.631  1.00  0.00     0.037 A 
BRANCH  26  40
ATOM     40  C   UNL A   1      46.254  33.351  28.423  1.00  0.00     0.058 A 
ATOM     41  C   UNL A   1      46.790  33.883  29.606  1.00  0.00     0.135 A 
ATOM     42  C   UNL A   1      46.186  34.192  27.299  1.00  0.00     0.135 A 
ATOM     43  F   UNL A   1      46.866  33.128  30.713  1.00  0.00    -0.206 F 
ATOM     44  C   UNL A   1      47.249  35.196  29.669  1.00  0.00     0.059 A 
ATOM     45  C   UNL A   1      46.657  35.501  27.334  1.00  0.00     0.059 A 
ATOM     46  F   UNL A   1      45.678  33.734  26.144  1.00  0.00    -0.206 F 
ATOM     47  C   UNL A   1      47.187  35.995  28.525  1.00  0.00     0.060 A 
BRANCH  47  48
ATOM     48  S   UNL A   1      47.842  37.676  28.607  1.00  0.00     0.124 S 
ATOM     49  O   UNL A   1      48.854  37.543  29.651  1.00  0.00    -0.237 OA
ATOM     50  O   UNL A   1      48.350  37.879  27.254  1.00  0.00    -0.237 OA
ATOM     51  O   UNL A   1      46.676  38.480  28.963  1.00  0.00    -0.744 OA
ENDBRANCH  47  48
ENDBRANCH  26  40
BRANCH  27  52
ATOM     52  C   UNL A   1      43.331  23.844  27.148  1.00  0.00     0.058 A 
ATOM     53  C   UNL A   1      43.191  22.894  28.168  1.00  0.00     0.135 A 
ATOM     54  C   UNL A   1      43.001  23.454  25.839  1.00  0.00     0.135 A 
ATOM     55  F   UNL A   1      43.494  23.219  29.434  1.00  0.00    -0.206 F 
ATOM     56  C   UNL A   1      42.766  21.597  27.899  1.00  0.00     0.059 A 
ATOM     57  C   UNL A   1      42.545  22.174  25.550  1.00  0.00     0.059 A 
ATOM     58  F   UNL A   1      43.094  24.335  24.830  1.00  0.00    -0.206 F 
ATOM     59  C   UNL A   1      42.449  21.246  26.585  1.00  0.00     0.060 A 
BRANCH  59  60
ATOM     60  S   UNL A   1      41.882  19.567  26.245  1.00  0.00     0.124 S 
ATOM     61  O   UNL A   1      42.336  18.860  27.438  1.00  0.00    -0.237 OA
ATOM     62  O   UNL A   1      40.439  19.746  26.119  1.00  0.00    -0.237 OA
ATOM     63  O   UNL A   1      42.573  19.225  25.006  1.00  0.00    -0.744 OA
ENDBRANCH  59  60
ENDBRANCH  27  52
BRANCH  39  64
ATOM     64  C   UNL A   1      49.278  27.294  26.020  1.00  0.00     0.058 A 
ATOM     65  C   UNL A   1      50.332  26.813  26.812  1.00  0.00     0.135 A 
ATOM     66  C   UNL A   1      49.461  27.331  24.629  1.00  0.00     0.135 A 
ATOM     67  F   UNL A   1      50.210  26.773  28.149  1.00  0.00    -0.206 F 
ATOM     68  C   UNL A   1      51.529  26.391  26.246  1.00  0.00     0.059 A 
ATOM     69  C   UNL A   1      50.640  26.889  24.039  1.00  0.00     0.059 A 
ATOM     70  F   UNL A   1      48.479  27.779  23.829  1.00  0.00    -0.206 F 
ATOM     71  C   UNL A   1      51.671  26.427  24.857  1.00  0.00     0.060 A 
BRANCH  71  72
ATOM     72  S   UNL A   1      53.211  25.828  24.132  1.00  0.00     0.124 S 
ATOM     73  O   UNL A   1      54.183  26.760  24.696  1.00  0.00    -0.237 OA
ATOM     74  O   UNL A   1      53.280  24.459  24.633  1.00  0.00    -0.237 OA
ATOM     75  O   UNL A   1      52.981  25.953  22.696  1.00  0.00    -0.744 OA
ENDBRANCH  71  72
ENDBRANCH  39  64
ENDBRANCH  13  14
ENDBRANCH   6   8
ENDBRANCH   3   4
ENDBRANCH   2   3
ENDBRANCH   1   2
BRANCH   1  76
ATOM     76  C   UNL A   1      33.500  28.500  27.152  1.00  0.00     0.116 C 
BRANCH  76  77
ATOM     77  N   UNL A   1      32.287  29.173  26.760  1.00  0.00    -0.352 N 
ATOM     78  C   UNL A   1      32.031  29.672  25.519  1.00  0.00     0.251 C 
ATOM     79  H   UNL A   1      31.589  29.283  27.445  1.00  0.00     0.163 HD
ATOM     80  O   UNL A   1      31.425  30.734  25.417  1.00  0.00    -0.269 OA
BRANCH  78  81
ATOM     81  C   UNL A   1      32.501  28.940  24.312  1.00  0.00     0.047 A 
ATOM     82  C   UNL A   1      33.848  29.168  23.977  1.00  0.00     0.014 A 
ATOM     83  C   UNL A   1      31.682  28.129  23.487  1.00  0.00    -0.005 A 
ATOM     84  C   UNL A   1      34.415  28.579  22.851  1.00  0.00     0.001 A 
ATOM     85  C   UNL A   1      32.296  27.541  22.353  1.00  0.00     0.009 A 
ATOM     86  C   UNL A   1      33.640  27.759  22.042  1.00  0.00     0.001 A 
BRANCH  83  87
ATOM     87  C   UNL A   1      30.248  27.810  23.720  1.00  0.00    -0.005 A 
ATOM     88  C   UNL A   1      29.313  28.473  22.877  1.00  0.00     0.009 A 
ATOM     89  C   UNL A   1      29.731  26.882  24.653  1.00  0.00     0.047 A 
ATOM     90  C   UNL A   1      27.944  28.196  22.907  1.00  0.00     0.001 A 
ATOM     91  C   UNL A   1      28.338  26.621  24.674  1.00  0.00     0.014 A 
ATOM     92  C   UNL A   1      27.456  27.264  23.805  1.00  0.00     0.001 A 
BRANCH  89  93
ATOM     93  C   UNL A   1      30.546  25.972  25.517  1.00  0.00     0.254 C 
ATOM     94  O   UNL A   1      30.867  26.390  26.632  1.00  0.00    -0.269 OA
ATOM     95  N   UNL A   1      30.854  24.678  25.113  1.00  0.00    -0.327 N 
ATOM     96  C   UNL A   1      31.145  23.720  26.172  1.00  0.00     0.181 C 
ATOM     97  C   UNL A   1      31.462  24.358  23.828  1.00  0.00     0.181 C 
ATOM     98  C   UNL A   1      30.871  22.262  25.751  1.00  0.00     0.284 C 
ATOM     99  C   UNL A   1      31.302  22.870  23.420  1.00  0.00     0.284 C 
ATOM    100  N   UNL A   1      31.429  21.833  24.455  1.00  0.00    -0.328 N 
ATOM    101  H   UNL A   1      30.827  21.079  24.125  1.00  0.00     0.348 HD
BRANCH 100 102
ATOM    102  C   UNL A   1      32.705  21.112  24.525  1.00  0.00     0.299 C 
BRANCH 102 103
ATOM    103  C   UNL A   1      32.583  19.623  24.304  1.00  0.00     0.010 A 
ATOM    104  C   UNL A   1      32.528  19.115  22.985  1.00  0.00     0.013 A 
ATOM    105  C   UNL A   1      32.791  18.755  25.387  1.00  0.00     0.060 A 
ATOM    106  C   UNL A   1      32.884  17.791  22.722  1.00  0.00     0.051 A 
ATOM    107  C   UNL A   1      33.207  17.480  25.089  1.00  0.00     0.166 A 
ATOM    108  C   UNL A   1      33.292  17.027  23.793  1.00  0.00     0.165 A 
ATOM    109  O   UNL A   1      33.778  16.618  25.976  1.00  0.00    -0.454 OA
ATOM    110  O   UNL A   1      33.935  15.828  23.716  1.00  0.00    -0.454 OA
ATOM    111  C   UNL A   1      34.486  15.763  25.053  1.00  0.00     0.468 C 
ENDBRANCH 102 103
ENDBRANCH 100 102
ENDBRANCH  89  93
ENDBRANCH  83  87
ENDBRANCH  78  81
ENDBRANCH  76  77
ENDBRANCH   1  76
TORSDOF 18
ENDMDL
MODEL 3
REMARK VINA RESULT:     -12.5      5.979     11.608
REMARK SMILES O=C(NCCCCNC(=O)c1ccccc1-c1ccccc1C(=O)N1CC[NH+](Cc2ccc3c(c2)OCO3)CC1)c1ccc(-c2c3nc(c(-c4c(F)cc(S(=O)(=O)[O-])cc4F)c4ccc([nH]4)c(-c4c(F)cc(S(=O)(=O)[O-])cc4F)c4nc(c(-c5c(F)cc(S(=O)(=O)[O-])cc5F)c5ccc2[nH]5)C=C4)C=C3)cc1
REMARK SMILES IDX 6 1 5 2 4 3 3 4 1 5 2 6 41 8 42 9 106 10 43 11 105 12 44 13
REMARK SMILES IDX 45 14 46 15 99 16 47 17 104 18 98 19 100 20 48 21 103 22
REMARK SMILES IDX 97 23 96 24 49 26 83 27 62 28 82 29 63 30 66 31 81 32 101 33
REMARK SMILES IDX 64 34 65 35 80 37 102 38 67 39 50 40 51 41 60 42 52 43 53 44
REMARK SMILES IDX 59 45 61 46 54 47 55 48 56 49 57 50 58 51 84 52 85 53 94 54
REMARK SMILES IDX 86 55 87 56 93 57 95 58 88 59 89 60 90 61 91 62 92 63 68 64
REMARK SMILES IDX 69 65 78 66 70 67 71 68 77 69 79 70 72 71 73 72 74 73 75 74
REMARK SMILES IDX 76 75 7 76 8 77 9 78 10 80 11 81 12 82 16 83 13 84 15 85
REMARK SMILES IDX 14 86 17 87 18 88 22 89 19 90 21 91 20 92 23 93 24 94 25 95
REMARK SMILES IDX 26 96 40 97 27 98 39 99 28 100 29 102 30 103 31 104 35 105
REMARK SMILES IDX 32 106 34 107 33 108 36 109 38 110 37 111
REMARK H PARENT 3 7 100 25 66 36 8 79 28 101
REMARK Flexibility Score: inf
ROOT
ATOM      1  C   UNL A   1      34.703  29.583  27.101  1.00  0.00     0.023 C 
ENDROOT
BRANCH   1   2
ATOM      2  C   UNL A   1      34.379  30.860  27.878  1.00  0.00     0.023 C 
BRANCH   2   3
ATOM      3  C   UNL A   1      35.565  31.448  28.631  1.00  0.00     0.116 C 
BRANCH   3   4
ATOM      4  N   UNL A   1      35.420  31.297  30.074  1.00  0.00    -0.352 N 
ATOM      5  O   UNL A   1      35.904  30.445  32.105  1.00  0.00    -0.269 OA
ATOM      6  C   UNL A   1      36.255  30.666  30.960  1.00  0.00     0.251 C 
ATOM      7  H   UNL A   1      34.614  31.705  30.465  1.00  0.00     0.163 HD
BRANCH   6   8
ATOM      8  C   UNL A   1      37.584  30.261  30.474  1.00  0.00     0.039 A 
ATOM      9  C   UNL A   1      37.898  30.430  29.123  1.00  0.00     0.014 A 
ATOM     10  C   UNL A   1      38.490  29.676  31.360  1.00  0.00     0.014 A 
ATOM     11  C   UNL A   1      39.081  29.909  28.629  1.00  0.00     0.010 A 
ATOM     12  C   UNL A   1      39.720  29.235  30.877  1.00  0.00     0.010 A 
ATOM     13  C   UNL A   1      40.018  29.345  29.510  1.00  0.00    -0.014 A 
BRANCH  13  14
ATOM     14  C   UNL A   1      41.368  29.019  29.000  1.00  0.00     0.031 A 
ATOM     15  C   UNL A   1      41.692  27.660  28.460  1.00  0.00     0.074 A 
ATOM     16  C   UNL A   1      42.300  29.989  29.067  1.00  0.00     0.049 A 
ATOM     17  N   UNL A   1      42.843  27.205  28.039  1.00  0.00    -0.248 NA
ATOM     18  C   UNL A   1      40.596  26.680  28.387  1.00  0.00     0.031 C 
ATOM     19  C   UNL A   1      42.075  31.337  29.604  1.00  0.00     0.029 A 
ATOM     20  N   UNL A   1      43.618  30.000  28.695  1.00  0.00    -0.354 N 
ATOM     21  C   UNL A   1      42.622  25.882  27.679  1.00  0.00     0.074 A 
ATOM     22  C   UNL A   1      41.225  25.603  27.933  1.00  0.00     0.031 C 
ATOM     23  C   UNL A   1      43.206  32.047  29.507  1.00  0.00     0.029 A 
ATOM     24  C   UNL A   1      44.253  31.186  28.977  1.00  0.00     0.049 A 
ATOM     25  H   UNL A   1      44.065  29.235  28.266  1.00  0.00     0.167 HD
ATOM     26  C   UNL A   1      43.516  24.993  27.186  1.00  0.00     0.037 A 
ATOM     27  C   UNL A   1      45.549  31.528  28.870  1.00  0.00     0.037 A 
ATOM     28  C   UNL A   1      44.895  25.312  26.916  1.00  0.00     0.049 A 
ATOM     29  C   UNL A   1      46.515  30.511  28.342  1.00  0.00     0.074 A 
ATOM     30  C   UNL A   1      45.860  24.512  26.329  1.00  0.00     0.029 A 
ATOM     31  N   UNL A   1      45.509  26.517  27.227  1.00  0.00    -0.354 N 
ATOM     32  N   UNL A   1      46.275  29.287  27.936  1.00  0.00    -0.248 NA
ATOM     33  C   UNL A   1      47.925  30.908  28.271  1.00  0.00     0.031 C 
ATOM     34  C   UNL A   1      47.071  25.212  26.339  1.00  0.00     0.029 A 
ATOM     35  C   UNL A   1      46.851  26.466  26.887  1.00  0.00     0.049 A 
ATOM     36  H   UNL A   1      45.057  27.294  27.629  1.00  0.00     0.167 HD
ATOM     37  C   UNL A   1      47.505  28.766  27.560  1.00  0.00     0.074 A 
ATOM     38  C   UNL A   1      48.481  29.819  27.759  1.00  0.00     0.031 C 
ATOM     39  C   UNL A   1      47.803  27.526  27.103  1.00  0.00     0.037 A 
BRANCH  26  40
ATOM     40  C   UNL A   1      43.061  23.587  26.918  1.00  0.00     0.058 A 
ATOM     41  C   UNL A   1      42.901  23.093  25.614  1.00  0.00     0.135 A 
ATOM     42  C   UNL A   1      42.894  22.686  27.984  1.00  0.00     0.135 A 
ATOM     43  F   UNL A   1      43.035  23.914  24.560  1.00  0.00    -0.206 F 
ATOM     44  C   UNL A   1      42.597  21.756  25.376  1.00  0.00     0.059 A 
ATOM     45  C   UNL A   1      42.609  21.341  27.768  1.00  0.00     0.059 A 
ATOM     46  F   UNL A   1      43.032  23.107  29.251  1.00  0.00    -0.206 F 
ATOM     47  C   UNL A   1      42.462  20.885  26.460  1.00  0.00     0.060 A 
BRANCH  47  48
ATOM     48  S   UNL A   1      42.127  19.141  26.130  1.00  0.00     0.124 S 
ATOM     49  O   UNL A   1      43.028  18.877  25.013  1.00  0.00    -0.237 OA
ATOM     50  O   UNL A   1      42.487  18.510  27.397  1.00  0.00    -0.237 OA
ATOM     51  O   UNL A   1      40.704  19.121  25.806  1.00  0.00    -0.744 OA
ENDBRANCH  47  48
ENDBRANCH  26  40
BRANCH  27  52
ATOM     52  C   UNL A   1      46.002  32.865  29.330  1.00  0.00     0.058 A 
ATOM     53  C   UNL A   1      46.424  33.076  30.649  1.00  0.00     0.135 A 
ATOM     54  C   UNL A   1      46.033  33.959  28.448  1.00  0.00     0.135 A 
ATOM     55  F   UNL A   1      46.413  32.062  31.527  1.00  0.00    -0.206 F 
ATOM     56  C   UNL A   1      46.836  34.330  31.088  1.00  0.00     0.059 A 
ATOM     57  C   UNL A   1      46.470  35.214  28.855  1.00  0.00     0.059 A 
ATOM     58  F   UNL A   1      45.662  33.803  27.168  1.00  0.00    -0.206 F 
ATOM     59  C   UNL A   1      46.851  35.393  30.183  1.00  0.00     0.060 A 
BRANCH  59  60
ATOM     60  S   UNL A   1      47.403  37.014  30.754  1.00  0.00     0.124 S 
ATOM     61  O   UNL A   1      47.677  37.689  29.490  1.00  0.00    -0.237 OA
ATOM     62  O   UNL A   1      46.241  37.494  31.496  1.00  0.00    -0.237 OA
ATOM     63  O   UNL A   1      48.572  36.702  31.570  1.00  0.00    -0.744 OA
ENDBRANCH  59  60
ENDBRANCH  27  52
BRANCH  39  64
ATOM     64  C   UNL A   1      49.242  27.244  26.791  1.00  0.00     0.058 A 
ATOM     65  C   UNL A   1      49.758  27.440  25.500  1.00  0.00     0.135 A 
ATOM     66  C   UNL A   1      50.125  26.827  27.798  1.00  0.00     0.135 A 
ATOM     67  F   UNL A   1      48.949  27.824  24.499  1.00  0.00    -0.206 F 
ATOM     68  C   UNL A   1      51.100  27.221  25.216  1.00  0.00     0.059 A 
ATOM     69  C   UNL A   1      51.477  26.628  27.543  1.00  0.00     0.059 A 
ATOM     70  F   UNL A   1      49.678  26.630  29.050  1.00  0.00    -0.206 F 
ATOM     71  C   UNL A   1      51.954  26.820  26.247  1.00  0.00     0.060 A 
BRANCH  71  72
ATOM     72  S   UNL A   1      53.704  26.589  25.876  1.00  0.00     0.124 S 
ATOM     73  O   UNL A   1      53.673  25.394  25.040  1.00  0.00    -0.237 OA
ATOM     74  O   UNL A   1      54.045  27.833  25.192  1.00  0.00    -0.237 OA
ATOM     75  O   UNL A   1      54.311  26.420  27.193  1.00  0.00    -0.744 OA
ENDBRANCH  71  72
ENDBRANCH  39  64
ENDBRANCH  13  14
ENDBRANCH   6   8
ENDBRANCH   3   4
ENDBRANCH   2   3
ENDBRANCH   1   2
BRANCH   1  76
ATOM     76  C   UNL A   1      33.572  28.563  27.106  1.00  0.00     0.116 C 
BRANCH  76  77
ATOM     77  N   UNL A   1      32.334  29.197  26.726  1.00  0.00    -0.352 N 
ATOM     78  C   UNL A   1      32.044  29.672  25.484  1.00  0.00     0.251 C 
ATOM     79  H   UNL A   1      31.645  29.297  27.421  1.00  0.00     0.163 HD
ATOM     80  O   UNL A   1      31.406  30.715  25.378  1.00  0.00    -0.269 OA
BRANCH  78  81
ATOM     81  C   UNL A   1      32.514  28.937  24.279  1.00  0.00     0.047 A 
ATOM     82  C   UNL A   1      33.859  29.171  23.938  1.00  0.00     0.014 A 
ATOM     83  C   UNL A   1      31.697  28.118  23.459  1.00  0.00    -0.005 A 
ATOM     84  C   UNL A   1      34.425  28.580  22.813  1.00  0.00     0.001 A 
ATOM     85  C   UNL A   1      32.311  27.529  22.326  1.00  0.00     0.009 A 
ATOM     86  C   UNL A   1      33.652  27.752  22.010  1.00  0.00     0.001 A 
BRANCH  83  87
ATOM     87  C   UNL A   1      30.265  27.793  23.698  1.00  0.00    -0.005 A 
ATOM     88  C   UNL A   1      29.323  28.450  22.857  1.00  0.00     0.009 A 
ATOM     89  C   UNL A   1      29.756  26.864  24.634  1.00  0.00     0.047 A 
ATOM     90  C   UNL A   1      27.956  28.167  22.893  1.00  0.00     0.001 A 
ATOM     91  C   UNL A   1      28.365  26.596  24.660  1.00  0.00     0.014 A 
ATOM     92  C   UNL A   1      27.476  27.234  23.794  1.00  0.00     0.001 A 
BRANCH  89  93
ATOM     93  C   UNL A   1      30.578  25.960  25.497  1.00  0.00     0.254 C 
ATOM     94  O   UNL A   1      30.902  26.381  26.610  1.00  0.00    -0.269 OA
ATOM     95  N   UNL A   1      30.890  24.666  25.094  1.00  0.00    -0.327 N 
ATOM     96  C   UNL A   1      31.190  23.712  26.153  1.00  0.00     0.181 C 
ATOM     97  C   UNL A   1      31.495  24.347  23.807  1.00  0.00     0.181 C 
ATOM     98  C   UNL A   1      30.921  22.252  25.736  1.00  0.00     0.284 C 
ATOM     99  C   UNL A   1      31.340  22.857  23.402  1.00  0.00     0.284 C 
ATOM    100  N   UNL A   1      31.477  21.822  24.439  1.00  0.00    -0.328 N 
ATOM    101  H   UNL A   1      30.877  21.065  24.112  1.00  0.00     0.348 HD
BRANCH 100 102
ATOM    102  C   UNL A   1      32.756  21.107  24.505  1.00  0.00     0.299 C 
BRANCH 102 103
ATOM    103  C   UNL A   1      32.638  19.616  24.303  1.00  0.00     0.010 A 
ATOM    104  C   UNL A   1      32.528  19.094  22.993  1.00  0.00     0.013 A 
ATOM    105  C   UNL A   1      32.903  18.759  25.384  1.00  0.00     0.060 A 
ATOM    106  C   UNL A   1      32.885  17.772  22.727  1.00  0.00     0.051 A 
ATOM    107  C   UNL A   1      33.317  17.486  25.078  1.00  0.00     0.166 A 
ATOM    108  C   UNL A   1      33.348  17.021  23.784  1.00  0.00     0.165 A 
ATOM    109  O   UNL A   1      33.935  16.637  25.947  1.00  0.00    -0.454 OA
ATOM    110  O   UNL A   1      33.998  15.828  23.690  1.00  0.00    -0.454 OA
ATOM    111  C   UNL A   1      34.608  15.780  25.000  1.00  0.00     0.468 C 
ENDBRANCH 102 103
ENDBRANCH 100 102
ENDBRANCH  89  93
ENDBRANCH  83  87
ENDBRANCH  78  81
ENDBRANCH  76  77
ENDBRANCH   1  76
TORSDOF 18
ENDMDL
