MODEL 1
REMARK VINA RESULT:     -12.1      0.000      0.000
REMARK SMILES Cc1cnc(NC(=O)[C@H]2[C@H]3CC[C@H](CC3)[C@H]2C(=O)NCCCCNC(=O)c2ccc(-c3c4nc(c(-c5c(F)cc(S(=O)(=O)[O-])cc5F)c5ccc([nH]5)c(-c5c(F)cc(S(=O)(=O)[O-])cc5F)c5nc(c(-c6c(F)cc(S(=O)(=O)[O-])cc6F)c6ccc3[nH]6)C=C5)C=C4)cc2)s1
REMARK SMILES IDX 22 1 21 2 20 3 19 4 17 5 18 6 16 8 9 9 10 10 15 11 11 12
REMARK SMILES IDX 13 13 14 14 12 15 7 16 6 17 8 19 5 20 1 21 2 22 3 23 93 24
REMARK SMILES IDX 4 25 23 26 24 27 25 28 26 30 27 31 28 32 92 33 29 34 91 35
REMARK SMILES IDX 30 36 31 37 32 38 85 39 33 40 90 41 84 42 86 43 34 44 89 45
REMARK SMILES IDX 83 46 82 47 35 49 69 50 48 51 68 52 49 53 52 54 67 55 87 56
REMARK SMILES IDX 50 57 51 58 66 60 88 61 53 62 36 63 37 64 46 65 38 66 39 67
REMARK SMILES IDX 45 68 47 69 40 70 41 71 42 72 43 73 44 74 70 75 71 76 80 77
REMARK SMILES IDX 72 78 73 79 79 80 81 81 74 82 75 83 76 84 77 85 78 86 54 87
REMARK SMILES IDX 55 88 64 89 56 90 57 91 63 92 65 93 58 94 59 95 60 96 61 97
REMARK SMILES IDX 62 98
REMARK H PARENT 19 7 6 18 24 29 86 48 52 59
REMARK Flexibility Score: inf
ROOT
ATOM      1  C   UNL A   1      32.556  28.185  26.093  1.00  0.00     0.023 C 
ENDROOT
BRANCH   1   2
ATOM      2  C   UNL A   1      31.709  26.954  26.365  1.00  0.00     0.023 C 
BRANCH   2   3
ATOM      3  C   UNL A   1      31.725  25.878  25.292  1.00  0.00     0.116 C 
BRANCH   3   4
ATOM      4  N   UNL A   1      32.750  25.996  24.288  1.00  0.00    -0.356 N 
ATOM      5  C   UNL A   1      33.733  25.118  23.953  1.00  0.00     0.224 C 
ATOM      6  O   UNL A   1      34.282  25.297  22.859  1.00  0.00    -0.275 OA
ATOM      7  H   UNL A   1      32.738  26.832  23.770  1.00  0.00     0.163 HD
BRANCH   5   8
ATOM      8  C   UNL A   1      34.190  23.929  24.824  1.00  0.00     0.094 C 
ATOM      9  C   UNL A   1      33.879  22.462  24.435  1.00  0.00     0.094 C 
ATOM     10  C   UNL A   1      35.214  21.638  24.426  1.00  0.00     0.002 C 
ATOM     11  C   UNL A   1      36.415  22.312  23.722  1.00  0.00     0.005 C 
ATOM     12  C   UNL A   1      35.650  21.539  25.908  1.00  0.00     0.005 C 
ATOM     13  C   UNL A   1      35.634  24.032  25.375  1.00  0.00     0.002 C 
ATOM     14  C   UNL A   1      36.660  23.718  24.284  1.00  0.00     0.005 C 
ATOM     15  C   UNL A   1      35.799  22.959  26.489  1.00  0.00     0.005 C 
BRANCH   9  16
ATOM     16  C   UNL A   1      32.896  22.223  23.284  1.00  0.00     0.230 C 
ATOM     17  N   UNL A   1      32.207  21.046  23.161  1.00  0.00    -0.302 N 
ATOM     18  H   UNL A   1      31.492  21.054  22.484  1.00  0.00     0.172 HD
ATOM     19  O   UNL A   1      32.676  23.118  22.462  1.00  0.00    -0.274 OA
BRANCH  17  20
ATOM     20  C   UNL A   1      32.357  19.860  23.828  1.00  0.00     0.189 A 
ATOM     21  C   UNL A   1      33.640  16.298  24.495  1.00  0.00     0.058 C 
ATOM     22  C   UNL A   1      33.008  17.641  24.481  1.00  0.00     0.023 A 
ATOM     23  C   UNL A   1      32.719  18.508  25.515  1.00  0.00     0.128 A 
ATOM     24  S   UNL A   1      32.541  18.375  23.008  1.00  0.00    -0.102 S 
ATOM     25  N   UNL A   1      32.252  19.756  25.132  1.00  0.00    -0.228 NA
ENDBRANCH  17  20
ENDBRANCH   9  16
ENDBRANCH   5   8
ENDBRANCH   3   4
ENDBRANCH   2   3
ENDBRANCH   1   2
BRANCH   1  26
ATOM     26  C   UNL A   1      33.619  28.502  27.133  1.00  0.00     0.116 C 
BRANCH  26  27
ATOM     27  N   UNL A   1      33.556  29.854  27.673  1.00  0.00    -0.352 N 
ATOM     28  C   UNL A   1      34.565  30.597  28.248  1.00  0.00     0.251 C 
ATOM     29  H   UNL A   1      32.676  30.295  27.620  1.00  0.00     0.163 HD
ATOM     30  O   UNL A   1      34.348  31.719  28.681  1.00  0.00    -0.269 OA
BRANCH  28  31
ATOM     31  C   UNL A   1      35.902  29.981  28.381  1.00  0.00     0.039 A 
ATOM     32  C   UNL A   1      36.796  30.071  27.313  1.00  0.00     0.014 A 
ATOM     33  C   UNL A   1      36.301  29.423  29.597  1.00  0.00     0.014 A 
ATOM     34  C   UNL A   1      38.123  29.678  27.496  1.00  0.00     0.010 A 
ATOM     35  C   UNL A   1      37.642  29.137  29.808  1.00  0.00     0.010 A 
ATOM     36  C   UNL A   1      38.566  29.251  28.758  1.00  0.00    -0.014 A 
BRANCH  36  37
ATOM     37  C   UNL A   1      39.984  28.881  29.002  1.00  0.00     0.031 A 
ATOM     38  C   UNL A   1      40.924  29.903  29.585  1.00  0.00     0.074 A 
ATOM     39  C   UNL A   1      40.444  27.670  28.631  1.00  0.00     0.049 A 
ATOM     40  N   UNL A   1      42.213  29.825  29.783  1.00  0.00    -0.248 NA
ATOM     41  C   UNL A   1      40.340  31.206  29.948  1.00  0.00     0.031 C 
ATOM     42  C   UNL A   1      39.651  26.617  27.989  1.00  0.00     0.029 A 
ATOM     43  N   UNL A   1      41.698  27.122  28.731  1.00  0.00    -0.354 N 
ATOM     44  C   UNL A   1      42.597  31.074  30.256  1.00  0.00     0.074 A 
ATOM     45  C   UNL A   1      41.418  31.910  30.254  1.00  0.00     0.031 C 
ATOM     46  C   UNL A   1      40.430  25.542  27.783  1.00  0.00     0.029 A 
ATOM     47  C   UNL A   1      41.782  25.837  28.248  1.00  0.00     0.049 A 
ATOM     48  H   UNL A   1      42.467  27.603  29.113  1.00  0.00     0.167 HD
ATOM     49  C   UNL A   1      43.814  31.481  30.687  1.00  0.00     0.037 A 
ATOM     50  C   UNL A   1      42.830  24.991  28.196  1.00  0.00     0.037 A 
ATOM     51  C   UNL A   1      44.969  30.626  30.744  1.00  0.00     0.049 A 
ATOM     52  C   UNL A   1      44.155  25.437  28.751  1.00  0.00     0.074 A 
ATOM     53  C   UNL A   1      46.233  30.915  31.225  1.00  0.00     0.029 A 
ATOM     54  N   UNL A   1      44.992  29.306  30.319  1.00  0.00    -0.354 N 
ATOM     55  N   UNL A   1      44.489  26.605  29.249  1.00  0.00    -0.248 NA
ATOM     56  C   UNL A   1      45.241  24.447  28.755  1.00  0.00     0.031 C 
ATOM     57  C   UNL A   1      47.029  29.772  31.071  1.00  0.00     0.029 A 
ATOM     58  C   UNL A   1      46.248  28.764  30.529  1.00  0.00     0.049 A 
ATOM     59  H   UNL A   1      44.229  28.826  29.925  1.00  0.00     0.167 HD
ATOM     60  C   UNL A   1      45.812  26.479  29.659  1.00  0.00     0.074 A 
ATOM     61  C   UNL A   1      46.216  25.121  29.352  1.00  0.00     0.031 C 
ATOM     62  C   UNL A   1      46.620  27.402  30.236  1.00  0.00     0.037 A 
BRANCH  49  63
ATOM     63  C   UNL A   1      43.941  32.908  31.144  1.00  0.00     0.058 A 
ATOM     64  C   UNL A   1      43.826  33.261  32.500  1.00  0.00     0.135 A 
ATOM     65  C   UNL A   1      44.165  33.939  30.218  1.00  0.00     0.135 A 
ATOM     66  F   UNL A   1      43.591  32.317  33.426  1.00  0.00    -0.206 F 
ATOM     67  C   UNL A   1      43.882  34.586  32.914  1.00  0.00     0.059 A 
ATOM     68  C   UNL A   1      44.256  35.270  30.615  1.00  0.00     0.059 A 
ATOM     69  F   UNL A   1      44.283  33.659  28.911  1.00  0.00    -0.206 F 
ATOM     70  C   UNL A   1      44.090  35.585  31.963  1.00  0.00     0.060 A 
BRANCH  70  71
ATOM     71  S   UNL A   1      44.140  37.304  32.512  1.00  0.00     0.124 S 
ATOM     72  O   UNL A   1      45.481  37.387  33.082  1.00  0.00    -0.237 OA
ATOM     73  O   UNL A   1      43.936  38.038  31.266  1.00  0.00    -0.237 OA
ATOM     74  O   UNL A   1      43.044  37.386  33.471  1.00  0.00    -0.744 OA
ENDBRANCH  70  71
ENDBRANCH  49  63
BRANCH  50  75
ATOM     75  C   UNL A   1      42.650  23.618  27.653  1.00  0.00     0.058 A 
ATOM     76  C   UNL A   1      42.741  23.374  26.274  1.00  0.00     0.135 A 
ATOM     77  C   UNL A   1      42.409  22.522  28.496  1.00  0.00     0.135 A 
ATOM     78  F   UNL A   1      42.967  24.390  25.428  1.00  0.00    -0.206 F 
ATOM     79  C   UNL A   1      42.584  22.096  25.748  1.00  0.00     0.059 A 
ATOM     80  C   UNL A   1      42.269  21.232  27.995  1.00  0.00     0.059 A 
ATOM     81  F   UNL A   1      42.332  22.701  29.823  1.00  0.00    -0.206 F 
ATOM     82  C   UNL A   1      42.350  21.029  26.616  1.00  0.00     0.060 A 
BRANCH  82  83
ATOM     83  S   UNL A   1      42.203  19.366  25.927  1.00  0.00     0.124 S 
ATOM     84  O   UNL A   1      43.039  19.466  24.737  1.00  0.00    -0.237 OA
ATOM     85  O   UNL A   1      42.727  18.538  27.010  1.00  0.00    -0.237 OA
ATOM     86  O   UNL A   1      40.770  19.231  25.684  1.00  0.00    -0.744 OA
ENDBRANCH  82  83
ENDBRANCH  50  75
BRANCH  62  87
ATOM     87  C   UNL A   1      48.001  26.960  30.629  1.00  0.00     0.058 A 
ATOM     88  C   UNL A   1      49.106  27.150  29.787  1.00  0.00     0.135 A 
ATOM     89  C   UNL A   1      48.223  26.379  31.888  1.00  0.00     0.135 A 
ATOM     90  F   UNL A   1      48.944  27.699  28.573  1.00  0.00    -0.206 F 
ATOM     91  C   UNL A   1      50.384  26.754  30.168  1.00  0.00     0.059 A 
ATOM     92  C   UNL A   1      49.496  25.997  32.299  1.00  0.00     0.059 A 
ATOM     93  F   UNL A   1      47.200  26.187  32.736  1.00  0.00    -0.206 F 
ATOM     94  C   UNL A   1      50.568  26.175  31.425  1.00  0.00     0.060 A 
BRANCH  94  95
ATOM     95  S   UNL A   1      52.233  25.683  31.921  1.00  0.00     0.124 S 
ATOM     96  O   UNL A   1      52.469  26.561  33.062  1.00  0.00    -0.237 OA
ATOM     97  O   UNL A   1      52.063  24.267  32.234  1.00  0.00    -0.237 OA
ATOM     98  O   UNL A   1      53.036  25.964  30.734  1.00  0.00    -0.744 OA
ENDBRANCH  94  95
ENDBRANCH  62  87
ENDBRANCH  36  37
ENDBRANCH  28  31
ENDBRANCH  26  27
ENDBRANCH   1  26
TORSDOF 16
ENDMDL
MODEL 2
REMARK VINA RESULT:     -12.0      4.789     10.278
REMARK SMILES Cc1cnc(NC(=O)[C@H]2[C@H]3CC[C@H](CC3)[C@H]2C(=O)NCCCCNC(=O)c2ccc(-c3c4nc(c(-c5c(F)cc(S(=O)(=O)[O-])cc5F)c5ccc([nH]5)c(-c5c(F)cc(S(=O)(=O)[O-])cc5F)c5nc(c(-c6c(F)cc(S(=O)(=O)[O-])cc6F)c6ccc3[nH]6)C=C5)C=C4)cc2)s1
REMARK SMILES IDX 22 1 21 2 20 3 19 4 17 5 18 6 16 8 9 9 10 10 15 11 11 12
REMARK SMILES IDX 13 13 14 14 12 15 7 16 6 17 8 19 5 20 1 21 2 22 3 23 93 24
REMARK SMILES IDX 4 25 23 26 24 27 25 28 26 30 27 31 28 32 92 33 29 34 91 35
REMARK SMILES IDX 30 36 31 37 32 38 85 39 33 40 90 41 84 42 86 43 34 44 89 45
REMARK SMILES IDX 83 46 82 47 35 49 69 50 48 51 68 52 49 53 52 54 67 55 87 56
REMARK SMILES IDX 50 57 51 58 66 60 88 61 53 62 36 63 37 64 46 65 38 66 39 67
REMARK SMILES IDX 45 68 47 69 40 70 41 71 42 72 43 73 44 74 70 75 71 76 80 77
REMARK SMILES IDX 72 78 73 79 79 80 81 81 74 82 75 83 76 84 77 85 78 86 54 87
REMARK SMILES IDX 55 88 64 89 56 90 57 91 63 92 65 93 58 94 59 95 60 96 61 97
REMARK SMILES IDX 62 98
REMARK H PARENT 19 7 6 18 24 29 86 48 52 59
REMARK Flexibility Score: inf
ROOT
ATOM      1  C   UNL A   1      38.010  23.782  26.371  1.00  0.00     0.023 C 
ENDROOT
BRANCH   1   2
ATOM      2  C   UNL A   1      37.801  22.578  25.469  1.00  0.00     0.023 C 
BRANCH   2   3
ATOM      3  C   UNL A   1      36.509  21.803  25.676  1.00  0.00     0.116 C 
BRANCH   3   4
ATOM      4  N   UNL A   1      35.651  22.266  26.734  1.00  0.00    -0.356 N 
ATOM      5  C   UNL A   1      34.450  22.899  26.654  1.00  0.00     0.224 C 
ATOM      6  O   UNL A   1      33.762  22.907  27.683  1.00  0.00    -0.275 OA
ATOM      7  H   UNL A   1      35.980  22.101  27.647  1.00  0.00     0.163 HD
BRANCH   5   8
ATOM      8  C   UNL A   1      33.895  23.585  25.388  1.00  0.00     0.094 C 
ATOM      9  C   UNL A   1      32.379  23.618  25.074  1.00  0.00     0.094 C 
ATOM     10  C   UNL A   1      31.939  25.103  24.820  1.00  0.00     0.002 C 
ATOM     11  C   UNL A   1      32.469  26.143  25.834  1.00  0.00     0.005 C 
ATOM     12  C   UNL A   1      32.598  25.508  23.480  1.00  0.00     0.005 C 
ATOM     13  C   UNL A   1      34.534  24.953  25.044  1.00  0.00     0.002 C 
ATOM     14  C   UNL A   1      33.996  26.055  25.961  1.00  0.00     0.005 C 
ATOM     15  C   UNL A   1      34.125  25.321  23.589  1.00  0.00     0.005 C 
BRANCH   9  16
ATOM     16  C   UNL A   1      31.454  22.746  25.929  1.00  0.00     0.230 C 
ATOM     17  N   UNL A   1      31.476  21.380  25.848  1.00  0.00    -0.302 N 
ATOM     18  H   UNL A   1      30.960  20.915  26.546  1.00  0.00     0.172 HD
ATOM     19  O   UNL A   1      30.691  23.271  26.747  1.00  0.00    -0.274 OA
BRANCH  17  20
ATOM     20  C   UNL A   1      32.103  20.557  24.950  1.00  0.00     0.189 A 
ATOM     21  C   UNL A   1      33.679  17.323  23.596  1.00  0.00     0.058 C 
ATOM     22  C   UNL A   1      33.139  18.678  23.869  1.00  0.00     0.023 A 
ATOM     23  C   UNL A   1      32.514  19.580  23.032  1.00  0.00     0.128 A 
ATOM     24  S   UNL A   1      33.202  19.348  25.442  1.00  0.00    -0.102 S 
ATOM     25  N   UNL A   1      32.002  20.710  23.651  1.00  0.00    -0.228 NA
ENDBRANCH  17  20
ENDBRANCH   9  16
ENDBRANCH   5   8
ENDBRANCH   3   4
ENDBRANCH   2   3
ENDBRANCH   1   2
BRANCH   1  26
ATOM     26  C   UNL A   1      39.418  23.970  26.911  1.00  0.00     0.116 C 
BRANCH  26  27
ATOM     27  N   UNL A   1      40.387  24.444  25.930  1.00  0.00    -0.352 N 
ATOM     28  C   UNL A   1      41.276  25.492  26.038  1.00  0.00     0.251 C 
ATOM     29  H   UNL A   1      40.409  23.951  25.078  1.00  0.00     0.163 HD
ATOM     30  O   UNL A   1      42.014  25.786  25.110  1.00  0.00    -0.269 OA
BRANCH  28  31
ATOM     31  C   UNL A   1      41.273  26.290  27.283  1.00  0.00     0.039 A 
ATOM     32  C   UNL A   1      42.069  27.435  27.352  1.00  0.00     0.014 A 
ATOM     33  C   UNL A   1      40.402  25.965  28.324  1.00  0.00     0.014 A 
ATOM     34  C   UNL A   1      41.923  28.305  28.434  1.00  0.00     0.010 A 
ATOM     35  C   UNL A   1      40.182  26.885  29.340  1.00  0.00     0.010 A 
ATOM     36  C   UNL A   1      40.946  28.060  29.412  1.00  0.00    -0.014 A 
BRANCH  36  37
ATOM     37  C   UNL A   1      40.725  28.995  30.545  1.00  0.00     0.031 A 
ATOM     38  C   UNL A   1      41.567  28.862  31.786  1.00  0.00     0.074 A 
ATOM     39  C   UNL A   1      39.728  29.899  30.496  1.00  0.00     0.049 A 
ATOM     40  N   UNL A   1      41.475  29.501  32.922  1.00  0.00    -0.248 NA
ATOM     41  C   UNL A   1      42.625  27.837  31.760  1.00  0.00     0.031 C 
ATOM     42  C   UNL A   1      38.795  30.079  29.379  1.00  0.00     0.029 A 
ATOM     43  N   UNL A   1      39.325  30.836  31.414  1.00  0.00    -0.354 N 
ATOM     44  C   UNL A   1      42.433  28.932  33.752  1.00  0.00     0.074 A 
ATOM     45  C   UNL A   1      43.050  27.855  33.014  1.00  0.00     0.031 C 
ATOM     46  C   UNL A   1      37.951  31.084  29.668  1.00  0.00     0.029 A 
ATOM     47  C   UNL A   1      38.260  31.600  30.997  1.00  0.00     0.049 A 
ATOM     48  H   UNL A   1      39.757  30.949  32.291  1.00  0.00     0.167 HD
ATOM     49  C   UNL A   1      42.792  29.295  35.007  1.00  0.00     0.037 A 
ATOM     50  C   UNL A   1      37.614  32.608  31.616  1.00  0.00     0.037 A 
ATOM     51  C   UNL A   1      42.216  30.406  35.714  1.00  0.00     0.049 A 
ATOM     52  C   UNL A   1      38.081  33.046  32.978  1.00  0.00     0.074 A 
ATOM     53  C   UNL A   1      42.551  30.903  36.960  1.00  0.00     0.029 A 
ATOM     54  N   UNL A   1      41.194  31.206  35.224  1.00  0.00    -0.354 N 
ATOM     55  N   UNL A   1      39.028  32.534  33.729  1.00  0.00    -0.248 NA
ATOM     56  C   UNL A   1      37.404  34.208  33.570  1.00  0.00     0.031 C 
ATOM     57  C   UNL A   1      41.715  31.993  37.233  1.00  0.00     0.029 A 
ATOM     58  C   UNL A   1      40.887  32.195  36.141  1.00  0.00     0.049 A 
ATOM     59  H   UNL A   1      40.752  31.086  34.353  1.00  0.00     0.167 HD
ATOM     60  C   UNL A   1      39.085  33.332  34.865  1.00  0.00     0.074 A 
ATOM     61  C   UNL A   1      38.080  34.363  34.702  1.00  0.00     0.031 C 
ATOM     62  C   UNL A   1      39.896  33.225  35.946  1.00  0.00     0.037 A 
BRANCH  49  63
ATOM     63  C   UNL A   1      43.869  28.485  35.675  1.00  0.00     0.058 A 
ATOM     64  C   UNL A   1      45.232  28.758  35.468  1.00  0.00     0.135 A 
ATOM     65  C   UNL A   1      43.539  27.414  36.521  1.00  0.00     0.135 A 
ATOM     66  F   UNL A   1      45.605  29.758  34.653  1.00  0.00    -0.206 F 
ATOM     67  C   UNL A   1      46.227  27.972  36.037  1.00  0.00     0.059 A 
ATOM     68  C   UNL A   1      44.519  26.633  37.126  1.00  0.00     0.059 A 
ATOM     69  F   UNL A   1      42.253  27.109  36.754  1.00  0.00    -0.206 F 
ATOM     70  C   UNL A   1      45.860  26.906  36.859  1.00  0.00     0.060 A 
BRANCH  70  71
ATOM     71  S   UNL A   1      47.161  25.879  37.576  1.00  0.00     0.124 S 
ATOM     72  O   UNL A   1      48.357  26.636  37.217  1.00  0.00    -0.237 OA
ATOM     73  O   UNL A   1      46.815  25.878  38.994  1.00  0.00    -0.237 OA
ATOM     74  O   UNL A   1      46.998  24.601  36.893  1.00  0.00    -0.744 OA
ENDBRANCH  70  71
ENDBRANCH  49  63
BRANCH  50  75
ATOM     75  C   UNL A   1      36.500  33.312  30.925  1.00  0.00     0.058 A 
ATOM     76  C   UNL A   1      35.177  33.165  31.367  1.00  0.00     0.135 A 
ATOM     77  C   UNL A   1      36.734  34.159  29.831  1.00  0.00     0.135 A 
ATOM     78  F   UNL A   1      34.902  32.363  32.406  1.00  0.00    -0.206 F 
ATOM     79  C   UNL A   1      34.122  33.820  30.739  1.00  0.00     0.059 A 
ATOM     80  C   UNL A   1      35.699  34.841  29.201  1.00  0.00     0.059 A 
ATOM     81  F   UNL A   1      37.985  34.347  29.383  1.00  0.00    -0.206 F 
ATOM     82  C   UNL A   1      34.393  34.659  29.657  1.00  0.00     0.060 A 
BRANCH  82  83
ATOM     83  S   UNL A   1      33.023  35.548  28.886  1.00  0.00     0.124 S 
ATOM     84  O   UNL A   1      33.728  36.579  28.134  1.00  0.00    -0.237 OA
ATOM     85  O   UNL A   1      32.385  34.502  28.092  1.00  0.00    -0.237 OA
ATOM     86  O   UNL A   1      32.244  36.019  30.027  1.00  0.00    -0.744 OA
ENDBRANCH  82  83
ENDBRANCH  50  75
BRANCH  62  87
ATOM     87  C   UNL A   1      39.773  34.279  37.009  1.00  0.00     0.058 A 
ATOM     88  C   UNL A   1      39.060  34.053  38.196  1.00  0.00     0.135 A 
ATOM     89  C   UNL A   1      40.417  35.516  36.852  1.00  0.00     0.135 A 
ATOM     90  F   UNL A   1      38.425  32.887  38.391  1.00  0.00    -0.206 F 
ATOM     91  C   UNL A   1      38.968  35.029  39.182  1.00  0.00     0.059 A 
ATOM     92  C   UNL A   1      40.358  36.498  37.835  1.00  0.00     0.059 A 
ATOM     93  F   UNL A   1      41.123  35.776  35.740  1.00  0.00    -0.206 F 
ATOM     94  C   UNL A   1      39.617  36.251  38.991  1.00  0.00     0.060 A 
BRANCH  94  95
ATOM     95  S   UNL A   1      39.510  37.505  40.285  1.00  0.00     0.124 S 
ATOM     96  O   UNL A   1      40.917  37.831  40.492  1.00  0.00    -0.237 OA
ATOM     97  O   UNL A   1      38.705  38.545  39.650  1.00  0.00    -0.237 OA
ATOM     98  O   UNL A   1      38.858  36.801  41.385  1.00  0.00    -0.744 OA
ENDBRANCH  94  95
ENDBRANCH  62  87
ENDBRANCH  36  37
ENDBRANCH  28  31
ENDBRANCH  26  27
ENDBRANCH   1  26
TORSDOF 16
ENDMDL
MODEL 3
REMARK VINA RESULT:     -11.8      3.424      9.568
REMARK SMILES Cc1cnc(NC(=O)[C@H]2[C@H]3CC[C@H](CC3)[C@H]2C(=O)NCCCCNC(=O)c2ccc(-c3c4nc(c(-c5c(F)cc(S(=O)(=O)[O-])cc5F)c5ccc([nH]5)c(-c5c(F)cc(S(=O)(=O)[O-])cc5F)c5nc(c(-c6c(F)cc(S(=O)(=O)[O-])cc6F)c6ccc3[nH]6)C=C5)C=C4)cc2)s1
REMARK SMILES IDX 22 1 21 2 20 3 19 4 17 5 18 6 16 8 9 9 10 10 15 11 11 12
REMARK SMILES IDX 13 13 14 14 12 15 7 16 6 17 8 19 5 20 1 21 2 22 3 23 93 24
REMARK SMILES IDX 4 25 23 26 24 27 25 28 26 30 27 31 28 32 92 33 29 34 91 35
REMARK SMILES IDX 30 36 31 37 32 38 85 39 33 40 90 41 84 42 86 43 34 44 89 45
REMARK SMILES IDX 83 46 82 47 35 49 69 50 48 51 68 52 49 53 52 54 67 55 87 56
REMARK SMILES IDX 50 57 51 58 66 60 88 61 53 62 36 63 37 64 46 65 38 66 39 67
REMARK SMILES IDX 45 68 47 69 40 70 41 71 42 72 43 73 44 74 70 75 71 76 80 77
REMARK SMILES IDX 72 78 73 79 79 80 81 81 74 82 75 83 76 84 77 85 78 86 54 87
REMARK SMILES IDX 55 88 64 89 56 90 57 91 63 92 65 93 58 94 59 95 60 96 61 97
REMARK SMILES IDX 62 98
REMARK H PARENT 19 7 6 18 24 29 86 48 52 59
REMARK Flexibility Score: inf
ROOT
ATOM      1  C   UNL A   1      35.610  23.009  24.731  1.00  0.00     0.023 C 
ENDROOT
BRANCH   1   2
ATOM      2  C   UNL A   1      35.036  23.542  23.430  1.00  0.00     0.023 C 
BRANCH   2   3
ATOM      3  C   UNL A   1      33.829  24.459  23.556  1.00  0.00     0.116 C 
BRANCH   3   4
ATOM      4  N   UNL A   1      33.744  25.534  22.603  1.00  0.00    -0.356 N 
ATOM      5  C   UNL A   1      33.488  26.853  22.813  1.00  0.00     0.224 C 
ATOM      6  O   UNL A   1      33.783  27.624  21.891  1.00  0.00    -0.275 OA
ATOM      7  H   UNL A   1      33.891  25.277  21.665  1.00  0.00     0.163 HD
BRANCH   5   8
ATOM      8  C   UNL A   1      32.879  27.441  24.102  1.00  0.00     0.094 C 
ATOM      9  C   UNL A   1      31.456  27.062  24.582  1.00  0.00     0.094 C 
ATOM     10  C   UNL A   1      31.529  26.568  26.070  1.00  0.00     0.002 C 
ATOM     11  C   UNL A   1      32.668  25.573  26.392  1.00  0.00     0.005 C 
ATOM     12  C   UNL A   1      31.874  27.824  26.906  1.00  0.00     0.005 C 
ATOM     13  C   UNL A   1      33.840  27.514  25.314  1.00  0.00     0.002 C 
ATOM     14  C   UNL A   1      34.027  26.134  25.949  1.00  0.00     0.005 C 
ATOM     15  C   UNL A   1      33.192  28.434  26.386  1.00  0.00     0.005 C 
BRANCH   9  16
ATOM     16  C   UNL A   1      30.567  26.266  23.620  1.00  0.00     0.230 C 
ATOM     17  N   UNL A   1      29.747  26.889  22.718  1.00  0.00    -0.302 N 
ATOM     18  H   UNL A   1      29.341  26.294  22.047  1.00  0.00     0.172 HD
ATOM     19  O   UNL A   1      30.610  25.032  23.616  1.00  0.00    -0.274 OA
BRANCH  17  20
ATOM     20  C   UNL A   1      29.401  28.209  22.602  1.00  0.00     0.189 A 
ATOM     21  C   UNL A   1      27.691  31.526  23.524  1.00  0.00     0.058 C 
ATOM     22  C   UNL A   1      28.454  30.390  22.951  1.00  0.00     0.023 A 
ATOM     23  C   UNL A   1      29.674  30.363  22.305  1.00  0.00     0.128 A 
ATOM     24  S   UNL A   1      27.865  28.788  23.068  1.00  0.00    -0.102 S 
ATOM     25  N   UNL A   1      30.169  29.100  22.020  1.00  0.00    -0.228 NA
ENDBRANCH  17  20
ENDBRANCH   9  16
ENDBRANCH   5   8
ENDBRANCH   3   4
ENDBRANCH   2   3
ENDBRANCH   1   2
BRANCH   1  26
ATOM     26  C   UNL A   1      36.866  23.703  25.235  1.00  0.00     0.116 C 
BRANCH  26  27
ATOM     27  N   UNL A   1      38.033  22.839  25.349  1.00  0.00    -0.352 N 
ATOM     28  C   UNL A   1      39.203  23.061  26.045  1.00  0.00     0.251 C 
ATOM     29  H   UNL A   1      37.980  21.982  24.864  1.00  0.00     0.163 HD
ATOM     30  O   UNL A   1      40.110  22.244  26.023  1.00  0.00    -0.269 OA
BRANCH  28  31
ATOM     31  C   UNL A   1      39.355  24.340  26.771  1.00  0.00     0.039 A 
ATOM     32  C   UNL A   1      38.881  24.433  28.081  1.00  0.00     0.014 A 
ATOM     33  C   UNL A   1      40.065  25.395  26.195  1.00  0.00     0.014 A 
ATOM     34  C   UNL A   1      39.197  25.558  28.845  1.00  0.00     0.010 A 
ATOM     35  C   UNL A   1      40.469  26.458  26.990  1.00  0.00     0.010 A 
ATOM     36  C   UNL A   1      40.033  26.557  28.320  1.00  0.00    -0.014 A 
BRANCH  36  37
ATOM     37  C   UNL A   1      40.436  27.738  29.126  1.00  0.00     0.031 A 
ATOM     38  C   UNL A   1      41.763  27.727  29.837  1.00  0.00     0.074 A 
ATOM     39  C   UNL A   1      39.590  28.774  29.284  1.00  0.00     0.049 A 
ATOM     40  N   UNL A   1      42.264  28.602  30.669  1.00  0.00    -0.248 NA
ATOM     41  C   UNL A   1      42.620  26.548  29.620  1.00  0.00     0.031 C 
ATOM     42  C   UNL A   1      38.246  28.874  28.707  1.00  0.00     0.029 A 
ATOM     43  N   UNL A   1      39.731  29.943  29.989  1.00  0.00    -0.354 N 
ATOM     44  C   UNL A   1      43.471  28.062  31.099  1.00  0.00     0.074 A 
ATOM     45  C   UNL A   1      43.596  26.759  30.489  1.00  0.00     0.031 C 
ATOM     46  C   UNL A   1      37.702  30.051  29.056  1.00  0.00     0.029 A 
ATOM     47  C   UNL A   1      38.641  30.778  29.904  1.00  0.00     0.049 A 
ATOM     48  H   UNL A   1      40.538  30.164  30.509  1.00  0.00     0.167 HD
ATOM     49  C   UNL A   1      44.409  28.616  31.903  1.00  0.00     0.037 A 
ATOM     50  C   UNL A   1      38.430  31.994  30.444  1.00  0.00     0.037 A 
ATOM     51  C   UNL A   1      44.307  29.938  32.458  1.00  0.00     0.049 A 
ATOM     52  C   UNL A   1      39.517  32.624  31.272  1.00  0.00     0.074 A 
ATOM     53  C   UNL A   1      45.227  30.624  33.230  1.00  0.00     0.029 A 
ATOM     54  N   UNL A   1      43.221  30.784  32.283  1.00  0.00    -0.354 N 
ATOM     55  N   UNL A   1      40.679  32.124  31.624  1.00  0.00    -0.248 NA
ATOM     56  C   UNL A   1      39.275  33.988  31.760  1.00  0.00     0.031 C 
ATOM     57  C   UNL A   1      44.687  31.879  33.540  1.00  0.00     0.029 A 
ATOM     58  C   UNL A   1      43.448  31.986  32.929  1.00  0.00     0.049 A 
ATOM     59  H   UNL A   1      42.408  30.560  31.775  1.00  0.00     0.167 HD
ATOM     60  C   UNL A   1      41.320  33.126  32.344  1.00  0.00     0.074 A 
ATOM     61  C   UNL A   1      40.419  34.260  32.375  1.00  0.00     0.031 C 
ATOM     62  C   UNL A   1      42.545  33.110  32.927  1.00  0.00     0.037 A 
BRANCH  49  63
ATOM     63  C   UNL A   1      45.629  27.790  32.209  1.00  0.00     0.058 A 
ATOM     64  C   UNL A   1      45.708  26.994  33.364  1.00  0.00     0.135 A 
ATOM     65  C   UNL A   1      46.737  27.804  31.348  1.00  0.00     0.135 A 
ATOM     66  F   UNL A   1      44.685  26.959  34.233  1.00  0.00    -0.206 F 
ATOM     67  C   UNL A   1      46.858  26.279  33.677  1.00  0.00     0.059 A 
ATOM     68  C   UNL A   1      47.887  27.072  31.626  1.00  0.00     0.059 A 
ATOM     69  F   UNL A   1      46.715  28.548  30.230  1.00  0.00    -0.206 F 
ATOM     70  C   UNL A   1      47.946  26.330  32.805  1.00  0.00     0.060 A 
BRANCH  70  71
ATOM     71  S   UNL A   1      49.441  25.414  33.233  1.00  0.00     0.124 S 
ATOM     72  O   UNL A   1      50.285  26.474  33.776  1.00  0.00    -0.237 OA
ATOM     73  O   UNL A   1      48.947  24.440  34.203  1.00  0.00    -0.237 OA
ATOM     74  O   UNL A   1      49.874  24.858  31.956  1.00  0.00    -0.744 OA
ENDBRANCH  70  71
ENDBRANCH  49  63
BRANCH  50  75
ATOM     75  C   UNL A   1      37.161  32.721  30.166  1.00  0.00     0.058 A 
ATOM     76  C   UNL A   1      37.070  33.617  29.091  1.00  0.00     0.135 A 
ATOM     77  C   UNL A   1      36.015  32.520  30.950  1.00  0.00     0.135 A 
ATOM     78  F   UNL A   1      38.140  33.845  28.316  1.00  0.00    -0.206 F 
ATOM     79  C   UNL A   1      35.891  34.301  28.811  1.00  0.00     0.059 A 
ATOM     80  C   UNL A   1      34.819  33.175  30.676  1.00  0.00     0.059 A 
ATOM     81  F   UNL A   1      36.047  31.658  31.978  1.00  0.00    -0.206 F 
ATOM     82  C   UNL A   1      34.769  34.072  29.608  1.00  0.00     0.060 A 
BRANCH  82  83
ATOM     83  S   UNL A   1      33.228  34.922  29.200  1.00  0.00     0.124 S 
ATOM     84  O   UNL A   1      33.720  36.207  28.719  1.00  0.00    -0.237 OA
ATOM     85  O   UNL A   1      32.648  34.041  28.191  1.00  0.00    -0.237 OA
ATOM     86  O   UNL A   1      32.517  34.954  30.475  1.00  0.00    -0.744 OA
ENDBRANCH  82  83
ENDBRANCH  50  75
BRANCH  62  87
ATOM     87  C   UNL A   1      43.006  34.372  33.596  1.00  0.00     0.058 A 
ATOM     88  C   UNL A   1      42.816  34.595  34.968  1.00  0.00     0.135 A 
ATOM     89  C   UNL A   1      43.689  35.352  32.858  1.00  0.00     0.135 A 
ATOM     90  F   UNL A   1      42.167  33.689  35.716  1.00  0.00    -0.206 F 
ATOM     91  C   UNL A   1      43.264  35.760  35.581  1.00  0.00     0.059 A 
ATOM     92  C   UNL A   1      44.167  36.514  33.455  1.00  0.00     0.059 A 
ATOM     93  F   UNL A   1      43.908  35.180  31.544  1.00  0.00    -0.206 F 
ATOM     94  C   UNL A   1      43.936  36.715  34.816  1.00  0.00     0.060 A 
BRANCH  94  95
ATOM     95  S   UNL A   1      44.533  38.215  35.624  1.00  0.00     0.124 S 
ATOM     96  O   UNL A   1      44.165  39.238  34.651  1.00  0.00    -0.237 OA
ATOM     97  O   UNL A   1      43.773  38.225  36.872  1.00  0.00    -0.237 OA
ATOM     98  O   UNL A   1      45.964  37.972  35.773  1.00  0.00    -0.744 OA
ENDBRANCH  94  95
ENDBRANCH  62  87
ENDBRANCH  36  37
ENDBRANCH  28  31
ENDBRANCH  26  27
ENDBRANCH   1  26
TORSDOF 16
ENDMDL
