MODEL 1
REMARK VINA RESULT:     -13.9      0.000      0.000
REMARK SMILES Cc1ccc(-c2nn(-c3ccccc3)cc2[C@@H]2[NH2+][C@H](C(=O)NCCCCNC(=O)c3ccc(-c4c5nc(c(-c6c(F)cc(S(=O)(=O)[O-])cc6F)c6ccc([nH]6)c(-c6c(F)cc(S(=O)(=O)[O-])cc6F)c6nc(c(-c7c(F)cc(S(=O)(=O)[O-])cc7F)c7ccc4[nH]7)C=C6)C=C5)cc3)CS2)cc1
REMARK SMILES IDX 25 1 24 2 23 3 22 4 20 5 21 6 19 8 17 9 18 10 97 11 96 14
REMARK SMILES IDX 16 15 6 16 7 17 8 18 15 19 5 20 1 21 2 22 3 23 99 24 4 25
REMARK SMILES IDX 98 26 9 27 10 28 14 29 11 30 13 31 12 32 26 33 27 34 28 35
REMARK SMILES IDX 29 37 30 38 31 39 95 40 32 41 94 42 33 43 34 44 35 45 88 46
REMARK SMILES IDX 36 47 93 48 87 49 89 50 37 51 92 52 86 53 85 54 38 56 72 57
REMARK SMILES IDX 51 58 71 59 52 60 55 61 70 62 90 63 53 64 54 65 69 67 91 68
REMARK SMILES IDX 56 69 39 70 40 71 49 72 41 73 42 74 48 75 50 76 43 77 44 78
REMARK SMILES IDX 45 79 46 80 47 81 73 82 74 83 83 84 75 85 76 86 82 87 84 88
REMARK SMILES IDX 77 89 78 90 79 91 80 92 81 93 57 94 58 95 67 96 59 97 60 98
REMARK SMILES IDX 66 99 68 100 61 101 62 102 63 103 64 104 65 105
REMARK H PARENT 22 7 18 12 18 13 27 36 89 55 55 66
REMARK Flexibility Score: inf
ROOT
ATOM      1  C   UNL A   1      32.313  28.976  26.107  1.00  0.00     0.023 C 
ENDROOT
BRANCH   1   2
ATOM      2  C   UNL A   1      32.803  27.654  26.799  1.00  0.00     0.023 C 
BRANCH   2   3
ATOM      3  C   UNL A   1      33.078  26.379  25.980  1.00  0.00     0.116 C 
BRANCH   3   4
ATOM      4  N   UNL A   1      32.297  25.198  26.350  1.00  0.00    -0.351 N 
ATOM      5  C   UNL A   1      32.664  24.030  26.961  1.00  0.00     0.279 C 
ATOM      6  O   UNL A   1      31.749  23.452  27.575  1.00  0.00    -0.268 OA
ATOM      7  H   UNL A   1      31.342  25.254  26.119  1.00  0.00     0.163 HD
BRANCH   5   8
ATOM      8  C   UNL A   1      34.029  23.293  26.882  1.00  0.00     0.283 C 
ATOM      9  C   UNL A   1      34.895  21.597  25.364  1.00  0.00     0.278 C 
ATOM     10  N   UNL A   1      34.023  21.850  26.531  1.00  0.00    -0.320 N 
ATOM     11  S   UNL A   1      36.224  22.813  25.504  1.00  0.00    -0.087 SA
ATOM     12  H   UNL A   1      34.363  21.309  27.326  1.00  0.00     0.348 HD
ATOM     13  H   UNL A   1      33.070  21.571  26.297  1.00  0.00     0.348 HD
ATOM     14  C   UNL A   1      35.069  24.085  26.080  1.00  0.00     0.151 C 
BRANCH   9  15
ATOM     15  C   UNL A   1      34.042  21.750  24.153  1.00  0.00     0.067 A 
ATOM     16  C   UNL A   1      33.024  20.859  23.686  1.00  0.00     0.103 A 
ATOM     17  N   UNL A   1      32.154  21.553  22.914  1.00  0.00    -0.167 NA
ATOM     18  N   UNL A   1      32.675  22.822  22.843  1.00  0.00    -0.240 N 
ATOM     19  C   UNL A   1      33.988  22.805  23.258  1.00  0.00     0.126 A 
BRANCH  16  20
ATOM     20  C   UNL A   1      32.858  19.434  24.070  1.00  0.00     0.003 A 
ATOM     21  C   UNL A   1      32.952  15.247  25.272  1.00  0.00     0.044 C 
ATOM     22  C   UNL A   1      32.903  16.683  24.844  1.00  0.00    -0.051 A 
ATOM     23  C   UNL A   1      32.536  17.670  25.755  1.00  0.00     0.004 A 
ATOM     24  C   UNL A   1      33.204  17.071  23.536  1.00  0.00     0.004 A 
ATOM     25  C   UNL A   1      32.527  19.019  25.372  1.00  0.00     0.011 A 
ATOM     26  C   UNL A   1      33.176  18.426  23.159  1.00  0.00     0.011 A 
ENDBRANCH  16  20
BRANCH  18  27
ATOM     27  C   UNL A   1      31.906  24.037  22.756  1.00  0.00     0.065 A 
ATOM     28  C   UNL A   1      30.667  24.136  23.380  1.00  0.00     0.028 A 
ATOM     29  C   UNL A   1      32.441  25.203  22.194  1.00  0.00     0.028 A 
ATOM     30  C   UNL A   1      30.021  25.370  23.537  1.00  0.00     0.002 A 
ATOM     31  C   UNL A   1      31.739  26.417  22.242  1.00  0.00     0.002 A 
ATOM     32  C   UNL A   1      30.537  26.508  22.932  1.00  0.00     0.000 A 
ENDBRANCH  18  27
ENDBRANCH   9  15
ENDBRANCH   5   8
ENDBRANCH   3   4
ENDBRANCH   2   3
ENDBRANCH   1   2
BRANCH   1  33
ATOM     33  C   UNL A   1      32.524  30.381  26.727  1.00  0.00     0.116 C 
BRANCH  33  34
ATOM     34  N   UNL A   1      33.893  30.898  26.727  1.00  0.00    -0.352 N 
ATOM     35  C   UNL A   1      34.549  31.302  27.883  1.00  0.00     0.251 C 
ATOM     36  H   UNL A   1      34.371  30.962  25.869  1.00  0.00     0.163 HD
ATOM     37  O   UNL A   1      34.313  32.339  28.502  1.00  0.00    -0.269 OA
BRANCH  35  38
ATOM     38  C   UNL A   1      35.521  30.320  28.412  1.00  0.00     0.039 A 
ATOM     39  C   UNL A   1      35.707  30.106  29.785  1.00  0.00     0.014 A 
ATOM     40  C   UNL A   1      36.352  29.703  27.485  1.00  0.00     0.014 A 
ATOM     41  C   UNL A   1      36.877  29.474  30.225  1.00  0.00     0.010 A 
ATOM     42  C   UNL A   1      37.511  29.101  27.918  1.00  0.00     0.010 A 
ATOM     43  C   UNL A   1      37.826  29.089  29.277  1.00  0.00    -0.014 A 
BRANCH  43  44
ATOM     44  C   UNL A   1      39.249  28.895  29.543  1.00  0.00     0.031 A 
ATOM     45  C   UNL A   1      39.925  27.639  29.180  1.00  0.00     0.074 A 
ATOM     46  C   UNL A   1      39.969  29.997  29.854  1.00  0.00     0.049 A 
ATOM     47  N   UNL A   1      41.107  27.297  29.561  1.00  0.00    -0.248 NA
ATOM     48  C   UNL A   1      39.279  26.626  28.359  1.00  0.00     0.031 C 
ATOM     49  C   UNL A   1      41.420  30.169  29.834  1.00  0.00     0.029 A 
ATOM     50  N   UNL A   1      39.506  31.191  30.408  1.00  0.00    -0.354 N 
ATOM     51  C   UNL A   1      41.500  26.211  28.807  1.00  0.00     0.074 A 
ATOM     52  C   UNL A   1      40.281  25.761  28.185  1.00  0.00     0.031 C 
ATOM     53  C   UNL A   1      41.739  31.226  30.601  1.00  0.00     0.029 A 
ATOM     54  C   UNL A   1      40.511  31.663  31.252  1.00  0.00     0.049 A 
ATOM     55  H   UNL A   1      38.636  31.618  30.237  1.00  0.00     0.167 HD
ATOM     56  C   UNL A   1      42.838  25.938  28.706  1.00  0.00     0.037 A 
ATOM     57  C   UNL A   1      40.338  31.733  32.602  1.00  0.00     0.037 A 
ATOM     58  C   UNL A   1      43.589  26.773  29.668  1.00  0.00     0.049 A 
ATOM     59  C   UNL A   1      41.253  30.740  33.289  1.00  0.00     0.074 A 
ATOM     60  C   UNL A   1      44.391  27.894  29.528  1.00  0.00     0.029 A 
ATOM     61  N   UNL A   1      43.285  26.691  31.034  1.00  0.00    -0.354 N 
ATOM     62  N   UNL A   1      41.769  29.696  32.690  1.00  0.00    -0.248 NA
ATOM     63  C   UNL A   1      41.733  30.887  34.657  1.00  0.00     0.031 C 
ATOM     64  C   UNL A   1      44.425  28.568  30.785  1.00  0.00     0.029 A 
ATOM     65  C   UNL A   1      43.687  27.837  31.704  1.00  0.00     0.049 A 
ATOM     66  H   UNL A   1      42.844  25.922  31.462  1.00  0.00     0.167 HD
ATOM     67  C   UNL A   1      42.668  29.086  33.514  1.00  0.00     0.074 A 
ATOM     68  C   UNL A   1      42.591  29.854  34.748  1.00  0.00     0.031 C 
ATOM     69  C   UNL A   1      43.434  28.017  33.136  1.00  0.00     0.037 A 
BRANCH  56  70
ATOM     70  C   UNL A   1      43.494  25.128  27.573  1.00  0.00     0.058 A 
ATOM     71  C   UNL A   1      43.444  23.712  27.566  1.00  0.00     0.135 A 
ATOM     72  C   UNL A   1      44.257  25.659  26.507  1.00  0.00     0.135 A 
ATOM     73  F   UNL A   1      42.728  23.037  28.476  1.00  0.00    -0.206 F 
ATOM     74  C   UNL A   1      44.132  22.914  26.632  1.00  0.00     0.059 A 
ATOM     75  C   UNL A   1      44.962  24.888  25.576  1.00  0.00     0.059 A 
ATOM     76  F   UNL A   1      44.361  26.965  26.273  1.00  0.00    -0.206 F 
ATOM     77  C   UNL A   1      44.905  23.512  25.647  1.00  0.00     0.060 A 
BRANCH  77  78
ATOM     78  S   UNL A   1      45.805  22.502  24.455  1.00  0.00     0.124 S 
ATOM     79  O   UNL A   1      46.733  23.466  23.875  1.00  0.00    -0.237 OA
ATOM     80  O   UNL A   1      46.397  21.476  25.307  1.00  0.00    -0.237 OA
ATOM     81  O   UNL A   1      44.760  22.028  23.549  1.00  0.00    -0.744 OA
ENDBRANCH  77  78
ENDBRANCH  56  70
BRANCH  57  82
ATOM     82  C   UNL A   1      38.975  32.184  33.005  1.00  0.00     0.058 A 
ATOM     83  C   UNL A   1      38.669  33.544  32.789  1.00  0.00     0.135 A 
ATOM     84  C   UNL A   1      37.890  31.304  33.137  1.00  0.00     0.135 A 
ATOM     85  F   UNL A   1      39.663  34.440  32.669  1.00  0.00    -0.206 F 
ATOM     86  C   UNL A   1      37.367  33.987  32.573  1.00  0.00     0.059 A 
ATOM     87  C   UNL A   1      36.573  31.730  32.919  1.00  0.00     0.059 A 
ATOM     88  F   UNL A   1      38.104  29.993  33.312  1.00  0.00    -0.206 F 
ATOM     89  C   UNL A   1      36.328  33.061  32.575  1.00  0.00     0.060 A 
BRANCH  89  90
ATOM     90  S   UNL A   1      34.672  33.597  32.065  1.00  0.00     0.124 S 
ATOM     91  O   UNL A   1      34.966  34.463  30.927  1.00  0.00    -0.237 OA
ATOM     92  O   UNL A   1      34.028  32.328  31.745  1.00  0.00    -0.237 OA
ATOM     93  O   UNL A   1      34.167  34.278  33.253  1.00  0.00    -0.744 OA
ENDBRANCH  89  90
ENDBRANCH  57  82
BRANCH  69  94
ATOM     94  C   UNL A   1      44.110  27.110  34.130  1.00  0.00     0.058 A 
ATOM     95  C   UNL A   1      45.474  27.224  34.460  1.00  0.00     0.135 A 
ATOM     96  C   UNL A   1      43.365  26.194  34.906  1.00  0.00     0.135 A 
ATOM     97  F   UNL A   1      46.258  28.147  33.885  1.00  0.00    -0.206 F 
ATOM     98  C   UNL A   1      46.079  26.421  35.422  1.00  0.00     0.059 A 
ATOM     99  C   UNL A   1      43.938  25.426  35.916  1.00  0.00     0.059 A 
ATOM    100  F   UNL A   1      42.047  26.029  34.719  1.00  0.00    -0.206 F 
ATOM    101  C   UNL A   1      45.303  25.522  36.143  1.00  0.00     0.060 A 
BRANCH 101 102
ATOM    102  S   UNL A   1      46.079  24.514  37.415  1.00  0.00     0.124 S 
ATOM    103  O   UNL A   1      45.033  24.481  38.433  1.00  0.00    -0.237 OA
ATOM    104  O   UNL A   1      46.324  23.252  36.724  1.00  0.00    -0.237 OA
ATOM    105  O   UNL A   1      47.275  25.273  37.760  1.00  0.00    -0.744 OA
ENDBRANCH 101 102
ENDBRANCH  69  94
ENDBRANCH  43  44
ENDBRANCH  35  38
ENDBRANCH  33  34
ENDBRANCH   1  33
TORSDOF 17
ENDMDL
MODEL 2
REMARK VINA RESULT:     -13.3      2.401      3.698
REMARK SMILES Cc1ccc(-c2nn(-c3ccccc3)cc2[C@@H]2[NH2+][C@H](C(=O)NCCCCNC(=O)c3ccc(-c4c5nc(c(-c6c(F)cc(S(=O)(=O)[O-])cc6F)c6ccc([nH]6)c(-c6c(F)cc(S(=O)(=O)[O-])cc6F)c6nc(c(-c7c(F)cc(S(=O)(=O)[O-])cc7F)c7ccc4[nH]7)C=C6)C=C5)cc3)CS2)cc1
REMARK SMILES IDX 25 1 24 2 23 3 22 4 20 5 21 6 19 8 17 9 18 10 97 11 96 14
REMARK SMILES IDX 16 15 6 16 7 17 8 18 15 19 5 20 1 21 2 22 3 23 99 24 4 25
REMARK SMILES IDX 98 26 9 27 10 28 14 29 11 30 13 31 12 32 26 33 27 34 28 35
REMARK SMILES IDX 29 37 30 38 31 39 95 40 32 41 94 42 33 43 34 44 35 45 88 46
REMARK SMILES IDX 36 47 93 48 87 49 89 50 37 51 92 52 86 53 85 54 38 56 72 57
REMARK SMILES IDX 51 58 71 59 52 60 55 61 70 62 90 63 53 64 54 65 69 67 91 68
REMARK SMILES IDX 56 69 39 70 40 71 49 72 41 73 42 74 48 75 50 76 43 77 44 78
REMARK SMILES IDX 45 79 46 80 47 81 73 82 74 83 83 84 75 85 76 86 82 87 84 88
REMARK SMILES IDX 77 89 78 90 79 91 80 92 81 93 57 94 58 95 67 96 59 97 60 98
REMARK SMILES IDX 66 99 68 100 61 101 62 102 63 103 64 104 65 105
REMARK H PARENT 22 7 18 12 18 13 27 36 89 55 55 66
REMARK Flexibility Score: inf
ROOT
ATOM      1  C   UNL A   1      34.879  32.926  27.760  1.00  0.00     0.023 C 
ENDROOT
BRANCH   1   2
ATOM      2  C   UNL A   1      33.669  31.927  27.681  1.00  0.00     0.023 C 
BRANCH   2   3
ATOM      3  C   UNL A   1      33.891  30.417  27.477  1.00  0.00     0.116 C 
BRANCH   3   4
ATOM      4  N   UNL A   1      32.739  29.659  26.987  1.00  0.00    -0.351 N 
ATOM      5  C   UNL A   1      32.663  28.558  26.178  1.00  0.00     0.279 C 
ATOM      6  O   UNL A   1      31.642  27.864  26.336  1.00  0.00    -0.268 OA
ATOM      7  H   UNL A   1      31.868  30.000  27.294  1.00  0.00     0.163 HD
BRANCH   5   8
ATOM      8  C   UNL A   1      33.619  28.145  25.026  1.00  0.00     0.283 C 
ATOM      9  C   UNL A   1      33.314  26.731  23.066  1.00  0.00     0.278 C 
ATOM     10  N   UNL A   1      33.546  26.748  24.526  1.00  0.00    -0.320 N 
ATOM     11  S   UNL A   1      34.151  28.207  22.445  1.00  0.00    -0.087 SA
ATOM     12  H   UNL A   1      34.424  26.272  24.731  1.00  0.00     0.348 HD
ATOM     13  H   UNL A   1      32.771  26.272  24.988  1.00  0.00     0.348 HD
ATOM     14  C   UNL A   1      33.630  29.173  23.887  1.00  0.00     0.151 C 
BRANCH   9  15
ATOM     15  C   UNL A   1      31.838  26.729  22.868  1.00  0.00     0.067 A 
ATOM     16  C   UNL A   1      30.888  25.811  23.415  1.00  0.00     0.103 A 
ATOM     17  N   UNL A   1      29.673  26.408  23.456  1.00  0.00    -0.167 NA
ATOM     18  N   UNL A   1      29.861  27.637  22.870  1.00  0.00    -0.240 N 
ATOM     19  C   UNL A   1      31.053  27.641  22.182  1.00  0.00     0.126 A 
BRANCH  16  20
ATOM     20  C   UNL A   1      31.182  24.464  23.968  1.00  0.00     0.003 A 
ATOM     21  C   UNL A   1      32.612  20.672  25.570  1.00  0.00     0.044 C 
ATOM     22  C   UNL A   1      32.103  21.966  25.008  1.00  0.00    -0.051 A 
ATOM     23  C   UNL A   1      31.590  22.941  25.858  1.00  0.00     0.004 A 
ATOM     24  C   UNL A   1      32.113  22.225  23.635  1.00  0.00     0.004 A 
ATOM     25  C   UNL A   1      31.150  24.170  25.342  1.00  0.00     0.011 A 
ATOM     26  C   UNL A   1      31.655  23.454  23.128  1.00  0.00     0.011 A 
ENDBRANCH  16  20
BRANCH  18  27
ATOM     27  C   UNL A   1      29.168  28.848  23.229  1.00  0.00     0.065 A 
ATOM     28  C   UNL A   1      29.855  29.910  23.808  1.00  0.00     0.028 A 
ATOM     29  C   UNL A   1      27.836  29.066  22.859  1.00  0.00     0.028 A 
ATOM     30  C   UNL A   1      29.277  31.181  23.926  1.00  0.00     0.002 A 
ATOM     31  C   UNL A   1      27.215  30.303  23.087  1.00  0.00     0.002 A 
ATOM     32  C   UNL A   1      27.941  31.370  23.602  1.00  0.00     0.000 A 
ENDBRANCH  18  27
ENDBRANCH   9  15
ENDBRANCH   5   8
ENDBRANCH   3   4
ENDBRANCH   2   3
ENDBRANCH   1   2
BRANCH   1  33
ATOM     33  C   UNL A   1      35.044  33.963  28.899  1.00  0.00     0.116 C 
BRANCH  33  34
ATOM     34  N   UNL A   1      35.878  33.564  30.033  1.00  0.00    -0.352 N 
ATOM     35  C   UNL A   1      35.656  32.403  30.764  1.00  0.00     0.251 C 
ATOM     36  H   UNL A   1      36.630  34.145  30.290  1.00  0.00     0.163 HD
ATOM     37  O   UNL A   1      34.739  32.240  31.568  1.00  0.00    -0.269 OA
BRANCH  35  38
ATOM     38  C   UNL A   1      36.564  31.285  30.428  1.00  0.00     0.039 A 
ATOM     39  C   UNL A   1      36.553  30.068  31.124  1.00  0.00     0.014 A 
ATOM     40  C   UNL A   1      37.537  31.537  29.469  1.00  0.00     0.014 A 
ATOM     41  C   UNL A   1      37.661  29.217  31.029  1.00  0.00     0.010 A 
ATOM     42  C   UNL A   1      38.636  30.711  29.392  1.00  0.00     0.010 A 
ATOM     43  C   UNL A   1      38.747  29.618  30.252  1.00  0.00    -0.014 A 
BRANCH  43  44
ATOM     44  C   UNL A   1      40.121  29.149  30.421  1.00  0.00     0.031 A 
ATOM     45  C   UNL A   1      40.564  27.870  29.842  1.00  0.00     0.074 A 
ATOM     46  C   UNL A   1      41.026  30.054  30.861  1.00  0.00     0.049 A 
ATOM     47  N   UNL A   1      41.676  27.281  30.113  1.00  0.00    -0.248 NA
ATOM     48  C   UNL A   1      39.737  27.121  28.908  1.00  0.00     0.031 C 
ATOM     49  C   UNL A   1      42.484  29.981  30.802  1.00  0.00     0.029 A 
ATOM     50  N   UNL A   1      40.785  31.206  31.610  1.00  0.00    -0.354 N 
ATOM     51  C   UNL A   1      41.862  26.276  29.187  1.00  0.00     0.074 A 
ATOM     52  C   UNL A   1      40.572  26.138  28.561  1.00  0.00     0.031 C 
ATOM     53  C   UNL A   1      42.994  30.837  31.705  1.00  0.00     0.029 A 
ATOM     54  C   UNL A   1      41.873  31.366  32.469  1.00  0.00     0.049 A 
ATOM     55  H   UNL A   1      39.999  31.794  31.545  1.00  0.00     0.167 HD
ATOM     56  C   UNL A   1      43.131  25.802  28.986  1.00  0.00     0.037 A 
ATOM     57  C   UNL A   1      41.739  31.252  33.821  1.00  0.00     0.037 A 
ATOM     58  C   UNL A   1      44.032  26.339  30.028  1.00  0.00     0.049 A 
ATOM     59  C   UNL A   1      42.483  30.025  34.308  1.00  0.00     0.074 A 
ATOM     60  C   UNL A   1      45.013  27.317  30.022  1.00  0.00     0.029 A 
ATOM     61  N   UNL A   1      43.745  26.096  31.378  1.00  0.00    -0.354 N 
ATOM     62  N   UNL A   1      42.800  29.016  33.536  1.00  0.00    -0.248 NA
ATOM     63  C   UNL A   1      43.007  29.874  35.659  1.00  0.00     0.031 C 
ATOM     64  C   UNL A   1      45.186  27.771  31.364  1.00  0.00     0.029 A 
ATOM     65  C   UNL A   1      44.351  27.040  32.195  1.00  0.00     0.049 A 
ATOM     66  H   UNL A   1      43.186  25.354  31.704  1.00  0.00     0.167 HD
ATOM     67  C   UNL A   1      43.596  28.142  34.216  1.00  0.00     0.074 A 
ATOM     68  C   UNL A   1      43.675  28.710  35.555  1.00  0.00     0.031 C 
ATOM     69  C   UNL A   1      44.159  27.033  33.647  1.00  0.00     0.037 A 
BRANCH  56  70
ATOM     70  C   UNL A   1      43.615  25.081  27.715  1.00  0.00     0.058 A 
ATOM     71  C   UNL A   1      43.325  23.711  27.497  1.00  0.00     0.135 A 
ATOM     72  C   UNL A   1      44.437  25.638  26.707  1.00  0.00     0.135 A 
ATOM     73  F   UNL A   1      42.523  23.031  28.328  1.00  0.00    -0.206 F 
ATOM     74  C   UNL A   1      43.847  22.965  26.424  1.00  0.00     0.059 A 
ATOM     75  C   UNL A   1      44.981  24.915  25.639  1.00  0.00     0.059 A 
ATOM     76  F   UNL A   1      44.757  26.929  26.666  1.00  0.00    -0.206 F 
ATOM     77  C   UNL A   1      44.691  23.573  25.505  1.00  0.00     0.060 A 
BRANCH  77  78
ATOM     78  S   UNL A   1      45.381  22.627  24.135  1.00  0.00     0.124 S 
ATOM     79  O   UNL A   1      46.458  23.496  23.673  1.00  0.00    -0.237 OA
ATOM     80  O   UNL A   1      45.795  21.391  24.792  1.00  0.00    -0.237 OA
ATOM     81  O   UNL A   1      44.257  22.491  23.211  1.00  0.00    -0.744 OA
ENDBRANCH  77  78
ENDBRANCH  56  70
BRANCH  57  82
ATOM     82  C   UNL A   1      40.483  31.855  34.348  1.00  0.00     0.058 A 
ATOM     83  C   UNL A   1      39.425  30.966  34.633  1.00  0.00     0.135 A 
ATOM     84  C   UNL A   1      40.447  33.106  34.982  1.00  0.00     0.135 A 
ATOM     85  F   UNL A   1      39.393  29.759  34.046  1.00  0.00    -0.206 F 
ATOM     86  C   UNL A   1      38.462  31.244  35.601  1.00  0.00     0.059 A 
ATOM     87  C   UNL A   1      39.489  33.402  35.962  1.00  0.00     0.059 A 
ATOM     88  F   UNL A   1      41.434  33.990  34.784  1.00  0.00    -0.206 F 
ATOM     89  C   UNL A   1      38.539  32.440  36.308  1.00  0.00     0.060 A 
BRANCH  89  90
ATOM     90  S   UNL A   1      37.431  32.697  37.721  1.00  0.00     0.124 S 
ATOM     91  O   UNL A   1      36.296  33.376  37.102  1.00  0.00    -0.237 OA
ATOM     92  O   UNL A   1      37.184  31.329  38.165  1.00  0.00    -0.237 OA
ATOM     93  O   UNL A   1      38.233  33.517  38.622  1.00  0.00    -0.744 OA
ENDBRANCH  89  90
ENDBRANCH  57  82
BRANCH  69  94
ATOM     94  C   UNL A   1      44.687  25.881  34.461  1.00  0.00     0.058 A 
ATOM     95  C   UNL A   1      46.036  25.781  34.853  1.00  0.00     0.135 A 
ATOM     96  C   UNL A   1      43.814  24.917  35.012  1.00  0.00     0.135 A 
ATOM     97  F   UNL A   1      46.937  26.710  34.503  1.00  0.00    -0.206 F 
ATOM     98  C   UNL A   1      46.505  24.746  35.655  1.00  0.00     0.059 A 
ATOM     99  C   UNL A   1      44.253  23.909  35.866  1.00  0.00     0.059 A 
ATOM    100  F   UNL A   1      42.499  24.933  34.751  1.00  0.00    -0.206 F 
ATOM    101  C   UNL A   1      45.606  23.811  36.154  1.00  0.00     0.060 A 
BRANCH 101 102
ATOM    102  S   UNL A   1      46.209  22.496  37.224  1.00  0.00     0.124 S 
ATOM    103  O   UNL A   1      45.666  21.315  36.560  1.00  0.00    -0.237 OA
ATOM    104  O   UNL A   1      47.658  22.653  37.145  1.00  0.00    -0.237 OA
ATOM    105  O   UNL A   1      45.620  22.822  38.518  1.00  0.00    -0.744 OA
ENDBRANCH 101 102
ENDBRANCH  69  94
ENDBRANCH  43  44
ENDBRANCH  35  38
ENDBRANCH  33  34
ENDBRANCH   1  33
TORSDOF 17
ENDMDL
MODEL 3
REMARK VINA RESULT:     -13.2      3.986     10.362
REMARK SMILES Cc1ccc(-c2nn(-c3ccccc3)cc2[C@@H]2[NH2+][C@H](C(=O)NCCCCNC(=O)c3ccc(-c4c5nc(c(-c6c(F)cc(S(=O)(=O)[O-])cc6F)c6ccc([nH]6)c(-c6c(F)cc(S(=O)(=O)[O-])cc6F)c6nc(c(-c7c(F)cc(S(=O)(=O)[O-])cc7F)c7ccc4[nH]7)C=C6)C=C5)cc3)CS2)cc1
REMARK SMILES IDX 25 1 24 2 23 3 22 4 20 5 21 6 19 8 17 9 18 10 97 11 96 14
REMARK SMILES IDX 16 15 6 16 7 17 8 18 15 19 5 20 1 21 2 22 3 23 99 24 4 25
REMARK SMILES IDX 98 26 9 27 10 28 14 29 11 30 13 31 12 32 26 33 27 34 28 35
REMARK SMILES IDX 29 37 30 38 31 39 95 40 32 41 94 42 33 43 34 44 35 45 88 46
REMARK SMILES IDX 36 47 93 48 87 49 89 50 37 51 92 52 86 53 85 54 38 56 72 57
REMARK SMILES IDX 51 58 71 59 52 60 55 61 70 62 90 63 53 64 54 65 69 67 91 68
REMARK SMILES IDX 56 69 39 70 40 71 49 72 41 73 42 74 48 75 50 76 43 77 44 78
REMARK SMILES IDX 45 79 46 80 47 81 73 82 74 83 83 84 75 85 76 86 82 87 84 88
REMARK SMILES IDX 77 89 78 90 79 91 80 92 81 93 57 94 58 95 67 96 59 97 60 98
REMARK SMILES IDX 66 99 68 100 61 101 62 102 63 103 64 104 65 105
REMARK H PARENT 22 7 18 12 18 13 27 36 89 55 55 66
REMARK Flexibility Score: inf
ROOT
ATOM      1  C   UNL A   1      39.697  21.638  26.555  1.00  0.00     0.023 C 
ENDROOT
BRANCH   1   2
ATOM      2  C   UNL A   1      38.840  22.946  26.712  1.00  0.00     0.023 C 
BRANCH   2   3
ATOM      3  C   UNL A   1      38.241  23.660  25.487  1.00  0.00     0.116 C 
BRANCH   3   4
ATOM      4  N   UNL A   1      37.209  22.924  24.756  1.00  0.00    -0.351 N 
ATOM      5  C   UNL A   1      35.843  22.981  24.823  1.00  0.00     0.279 C 
ATOM      6  O   UNL A   1      35.255  22.631  23.783  1.00  0.00    -0.268 OA
ATOM      7  H   UNL A   1      37.558  22.276  24.102  1.00  0.00     0.163 HD
BRANCH   5   8
ATOM      8  C   UNL A   1      34.954  23.308  26.054  1.00  0.00     0.283 C 
ATOM      9  C   UNL A   1      32.541  23.316  26.381  1.00  0.00     0.278 C 
ATOM     10  N   UNL A   1      33.692  24.056  25.823  1.00  0.00    -0.320 N 
ATOM     11  S   UNL A   1      33.200  22.450  27.823  1.00  0.00    -0.087 SA
ATOM     12  H   UNL A   1      33.756  24.968  26.277  1.00  0.00     0.348 HD
ATOM     13  H   UNL A   1      33.555  24.172  24.819  1.00  0.00     0.348 HD
ATOM     14  C   UNL A   1      34.753  22.089  26.962  1.00  0.00     0.151 C 
BRANCH   9  15
ATOM     15  C   UNL A   1      32.043  22.423  25.299  1.00  0.00     0.067 A 
ATOM     16  C   UNL A   1      31.749  22.778  23.944  1.00  0.00     0.103 A 
ATOM     17  N   UNL A   1      31.835  21.669  23.172  1.00  0.00    -0.167 NA
ATOM     18  N   UNL A   1      32.096  20.643  24.049  1.00  0.00    -0.240 N 
ATOM     19  C   UNL A   1      31.824  21.057  25.333  1.00  0.00     0.126 A 
BRANCH  16  20
ATOM     20  C   UNL A   1      31.507  24.148  23.425  1.00  0.00     0.003 A 
ATOM     21  C   UNL A   1      31.066  28.358  22.391  1.00  0.00     0.044 C 
ATOM     22  C   UNL A   1      31.197  26.905  22.737  1.00  0.00    -0.051 A 
ATOM     23  C   UNL A   1      32.210  26.141  22.164  1.00  0.00     0.004 A 
ATOM     24  C   UNL A   1      30.315  26.277  23.619  1.00  0.00     0.004 A 
ATOM     25  C   UNL A   1      32.364  24.791  22.515  1.00  0.00     0.011 A 
ATOM     26  C   UNL A   1      30.468  24.919  23.951  1.00  0.00     0.011 A 
ENDBRANCH  16  20
BRANCH  18  27
ATOM     27  C   UNL A   1      32.898  19.482  23.761  1.00  0.00     0.065 A 
ATOM     28  C   UNL A   1      34.067  19.236  24.474  1.00  0.00     0.028 A 
ATOM     29  C   UNL A   1      32.452  18.482  22.888  1.00  0.00     0.028 A 
ATOM     30  C   UNL A   1      34.723  18.000  24.405  1.00  0.00     0.002 A 
ATOM     31  C   UNL A   1      33.174  17.290  22.725  1.00  0.00     0.002 A 
ATOM     32  C   UNL A   1      34.299  17.037  23.499  1.00  0.00     0.000 A 
ENDBRANCH  18  27
ENDBRANCH   9  15
ENDBRANCH   5   8
ENDBRANCH   3   4
ENDBRANCH   2   3
ENDBRANCH   1   2
BRANCH   1  33
ATOM     33  C   UNL A   1      41.160  21.644  26.047  1.00  0.00     0.116 C 
BRANCH  33  34
ATOM     34  N   UNL A   1      42.059  22.632  26.647  1.00  0.00    -0.352 N 
ATOM     35  C   UNL A   1      42.438  23.801  26.001  1.00  0.00     0.251 C 
ATOM     36  H   UNL A   1      42.409  22.459  27.551  1.00  0.00     0.163 HD
ATOM     37  O   UNL A   1      43.234  23.863  25.064  1.00  0.00    -0.269 OA
BRANCH  35  38
ATOM     38  C   UNL A   1      41.720  25.013  26.453  1.00  0.00     0.039 A 
ATOM     39  C   UNL A   1      41.517  26.124  25.623  1.00  0.00     0.014 A 
ATOM     40  C   UNL A   1      41.366  25.063  27.795  1.00  0.00     0.014 A 
ATOM     41  C   UNL A   1      41.191  27.358  26.201  1.00  0.00     0.010 A 
ATOM     42  C   UNL A   1      41.066  26.279  28.366  1.00  0.00     0.010 A 
ATOM     43  C   UNL A   1      41.091  27.439  27.591  1.00  0.00    -0.014 A 
BRANCH  43  44
ATOM     44  C   UNL A   1      41.258  28.660  28.376  1.00  0.00     0.031 A 
ATOM     45  C   UNL A   1      40.160  29.631  28.513  1.00  0.00     0.074 A 
ATOM     46  C   UNL A   1      42.333  28.717  29.196  1.00  0.00     0.049 A 
ATOM     47  N   UNL A   1      40.278  30.817  28.998  1.00  0.00    -0.248 NA
ATOM     48  C   UNL A   1      38.808  29.332  28.065  1.00  0.00     0.031 C 
ATOM     49  C   UNL A   1      42.572  29.624  30.316  1.00  0.00     0.029 A 
ATOM     50  N   UNL A   1      43.535  28.020  29.077  1.00  0.00    -0.354 N 
ATOM     51  C   UNL A   1      39.011  31.314  29.223  1.00  0.00     0.074 A 
ATOM     52  C   UNL A   1      38.152  30.410  28.500  1.00  0.00     0.031 C 
ATOM     53  C   UNL A   1      43.890  29.645  30.580  1.00  0.00     0.029 A 
ATOM     54  C   UNL A   1      44.543  28.868  29.535  1.00  0.00     0.049 A 
ATOM     55  H   UNL A   1      43.650  27.104  28.736  1.00  0.00     0.167 HD
ATOM     56  C   UNL A   1      38.862  32.342  30.115  1.00  0.00     0.037 A 
ATOM     57  C   UNL A   1      45.502  29.356  28.698  1.00  0.00     0.037 A 
ATOM     58  C   UNL A   1      40.191  32.876  30.482  1.00  0.00     0.049 A 
ATOM     59  C   UNL A   1      45.335  30.853  28.542  1.00  0.00     0.074 A 
ATOM     60  C   UNL A   1      40.977  32.765  31.618  1.00  0.00     0.029 A 
ATOM     61  N   UNL A   1      41.040  33.362  29.478  1.00  0.00    -0.354 N 
ATOM     62  N   UNL A   1      44.215  31.487  28.787  1.00  0.00    -0.248 NA
ATOM     63  C   UNL A   1      46.420  31.762  28.195  1.00  0.00     0.031 C 
ATOM     64  C   UNL A   1      42.329  33.028  31.242  1.00  0.00     0.029 A 
ATOM     65  C   UNL A   1      42.364  33.347  29.893  1.00  0.00     0.049 A 
ATOM     66  H   UNL A   1      40.737  33.672  28.594  1.00  0.00     0.167 HD
ATOM     67  C   UNL A   1      44.416  32.833  28.711  1.00  0.00     0.074 A 
ATOM     68  C   UNL A   1      45.810  32.957  28.309  1.00  0.00     0.031 C 
ATOM     69  C   UNL A   1      43.451  33.758  29.001  1.00  0.00     0.037 A 
BRANCH  56  70
ATOM     70  C   UNL A   1      37.558  32.691  30.855  1.00  0.00     0.058 A 
ATOM     71  C   UNL A   1      36.526  33.417  30.211  1.00  0.00     0.135 A 
ATOM     72  C   UNL A   1      37.279  32.423  32.215  1.00  0.00     0.135 A 
ATOM     73  F   UNL A   1      36.599  33.721  28.908  1.00  0.00    -0.206 F 
ATOM     74  C   UNL A   1      35.370  33.878  30.870  1.00  0.00     0.059 A 
ATOM     75  C   UNL A   1      36.147  32.882  32.897  1.00  0.00     0.059 A 
ATOM     76  F   UNL A   1      38.071  31.677  32.983  1.00  0.00    -0.206 F 
ATOM     77  C   UNL A   1      35.196  33.619  32.221  1.00  0.00     0.060 A 
BRANCH  77  78
ATOM     78  S   UNL A   1      33.729  34.216  33.083  1.00  0.00     0.124 S 
ATOM     79  O   UNL A   1      34.308  34.968  34.191  1.00  0.00    -0.237 OA
ATOM     80  O   UNL A   1      33.067  35.007  32.051  1.00  0.00    -0.237 OA
ATOM     81  O   UNL A   1      33.032  32.990  33.465  1.00  0.00    -0.744 OA
ENDBRANCH  77  78
ENDBRANCH  56  70
BRANCH  57  82
ATOM     82  C   UNL A   1      45.984  28.359  27.700  1.00  0.00     0.058 A 
ATOM     83  C   UNL A   1      45.341  28.360  26.444  1.00  0.00     0.135 A 
ATOM     84  C   UNL A   1      47.260  27.780  27.757  1.00  0.00     0.135 A 
ATOM     85  F   UNL A   1      44.111  28.886  26.326  1.00  0.00    -0.206 F 
ATOM     86  C   UNL A   1      45.983  27.941  25.281  1.00  0.00     0.059 A 
ATOM     87  C   UNL A   1      47.924  27.357  26.597  1.00  0.00     0.059 A 
ATOM     88  F   UNL A   1      47.945  27.772  28.909  1.00  0.00    -0.206 F 
ATOM     89  C   UNL A   1      47.301  27.500  25.357  1.00  0.00     0.060 A 
BRANCH  89  90
ATOM     90  S   UNL A   1      48.208  27.177  23.820  1.00  0.00     0.124 S 
ATOM     91  O   UNL A   1      49.539  27.690  24.135  1.00  0.00    -0.237 OA
ATOM     92  O   UNL A   1      48.100  25.727  23.703  1.00  0.00    -0.237 OA
ATOM     93  O   UNL A   1      47.462  27.947  22.830  1.00  0.00    -0.744 OA
ENDBRANCH  89  90
ENDBRANCH  57  82
BRANCH  69  94
ATOM     94  C   UNL A   1      43.534  35.191  28.543  1.00  0.00     0.058 A 
ATOM     95  C   UNL A   1      43.892  36.246  29.404  1.00  0.00     0.135 A 
ATOM     96  C   UNL A   1      43.412  35.527  27.177  1.00  0.00     0.135 A 
ATOM     97  F   UNL A   1      44.163  36.031  30.699  1.00  0.00    -0.206 F 
ATOM     98  C   UNL A   1      44.024  37.558  28.961  1.00  0.00     0.059 A 
ATOM     99  C   UNL A   1      43.601  36.822  26.703  1.00  0.00     0.059 A 
ATOM    100  F   UNL A   1      43.120  34.601  26.251  1.00  0.00    -0.206 F 
ATOM    101  C   UNL A   1      43.873  37.838  27.608  1.00  0.00     0.060 A 
BRANCH 101 102
ATOM    102  S   UNL A   1      44.085  39.528  27.030  1.00  0.00     0.124 S 
ATOM    103  O   UNL A   1      45.243  39.389  26.153  1.00  0.00    -0.237 OA
ATOM    104  O   UNL A   1      42.817  39.803  26.361  1.00  0.00    -0.237 OA
ATOM    105  O   UNL A   1      44.310  40.277  28.262  1.00  0.00    -0.744 OA
ENDBRANCH 101 102
ENDBRANCH  69  94
ENDBRANCH  43  44
ENDBRANCH  35  38
ENDBRANCH  33  34
ENDBRANCH   1  33
TORSDOF 17
ENDMDL
