MODEL 1
REMARK VINA RESULT:     -10.7      0.000      0.000
REMARK SMILES CCN(C(=O)[C@H]1C=C[C@@H]([NH3+])C1)[C@H](C)CC(=O)NCCCCNC(=O)c1ccc(-c2c3nc(c(-c4c(F)cc(S(=O)(=O)[O-])cc4F)c4ccc([nH]4)c(-c4c(F)cc(S(=O)(=O)[O-])cc4F)c4nc(c(-c5c(F)cc(S(=O)(=O)[O-])cc5F)c5ccc2[nH]5)C=C4)C=C3)cc1
REMARK SMILES IDX 18 1 17 2 15 3 16 4 14 6 12 7 13 8 3 9 2 10 1 11 4 12 5 13
REMARK SMILES IDX 6 14 7 15 11 16 8 17 9 18 10 19 19 23 20 24 21 25 22 26
REMARK SMILES IDX 23 27 24 29 25 30 26 31 90 32 27 33 89 34 28 35 29 36 30 37
REMARK SMILES IDX 83 38 31 39 88 40 82 41 84 42 32 43 87 44 81 45 80 46 33 48
REMARK SMILES IDX 67 49 46 50 66 51 47 52 50 53 65 54 85 55 48 56 49 57 64 59
REMARK SMILES IDX 86 60 51 61 34 62 35 63 44 64 36 65 37 66 43 67 45 68 38 69
REMARK SMILES IDX 39 70 40 71 41 72 42 73 68 74 69 75 78 76 70 77 71 78 77 79
REMARK SMILES IDX 79 80 72 81 73 82 74 83 75 84 76 85 52 86 53 87 62 88 54 89
REMARK SMILES IDX 55 90 61 91 63 92 56 93 57 94 58 95 59 96 60 97
REMARK H PARENT 17 5 10 20 10 21 10 22 22 28 84 47 50 58
REMARK Flexibility Score: inf
ROOT
ATOM      1  C   UNL A   1      33.736  30.418  27.070  1.00  0.00     0.116 C 
ENDROOT
BRANCH   1   2
ATOM      2  N   UNL A   1      32.815  29.504  27.725  1.00  0.00    -0.356 N 
ATOM      3  C   UNL A   1      32.143  28.431  27.214  1.00  0.00     0.222 C 
ATOM      4  O   UNL A   1      31.303  27.870  27.920  1.00  0.00    -0.275 OA
ATOM      5  H   UNL A   1      32.651  29.687  28.677  1.00  0.00     0.163 HD
BRANCH   3   6
ATOM      6  C   UNL A   1      32.439  27.936  25.814  1.00  0.00     0.124 C 
BRANCH   6   7
ATOM      7  C   UNL A   1      31.758  26.588  25.489  1.00  0.00     0.091 C 
ATOM      8  C   UNL A   1      30.460  26.736  24.697  1.00  0.00     0.031 C 
BRANCH   7   9
ATOM      9  N   UNL A   1      32.591  25.568  24.788  1.00  0.00    -0.339 N 
BRANCH   9  10
ATOM     10  C   UNL A   1      33.541  26.155  23.836  1.00  0.00     0.116 C 
ATOM     11  C   UNL A   1      33.552  25.447  22.492  1.00  0.00     0.027 C 
ENDBRANCH   9  10
BRANCH   9  12
ATOM     12  C   UNL A   1      32.606  24.268  25.282  1.00  0.00     0.229 C 
ATOM     13  O   UNL A   1      31.852  23.412  24.792  1.00  0.00    -0.274 OA
BRANCH  12  14
ATOM     14  C   UNL A   1      33.529  23.743  26.410  1.00  0.00     0.107 C 
ATOM     15  C   UNL A   1      33.182  22.697  27.414  1.00  0.00    -0.012 C 
ATOM     16  C   UNL A   1      34.764  23.120  25.701  1.00  0.00     0.087 C 
ATOM     17  C   UNL A   1      34.055  21.683  27.440  1.00  0.00     0.033 C 
ATOM     18  C   UNL A   1      35.195  21.895  26.509  1.00  0.00     0.205 C 
BRANCH  18  19
ATOM     19  N   UNL A   1      35.443  20.744  25.662  1.00  0.00    -0.352 N 
ATOM     20  H   UNL A   1      36.404  20.776  25.321  1.00  0.00     0.345 HD
ATOM     21  H   UNL A   1      34.801  20.760  24.871  1.00  0.00     0.345 HD
ATOM     22  H   UNL A   1      35.302  19.890  26.199  1.00  0.00     0.345 HD
ENDBRANCH  18  19
ENDBRANCH  12  14
ENDBRANCH   9  12
ENDBRANCH   7   9
ENDBRANCH   6   7
ENDBRANCH   3   6
ENDBRANCH   1   2
BRANCH   1  23
ATOM     23  C   UNL A   1      33.999  31.644  27.947  1.00  0.00     0.023 C 
BRANCH  23  24
ATOM     24  C   UNL A   1      35.391  32.236  27.823  1.00  0.00     0.023 C 
BRANCH  24  25
ATOM     25  C   UNL A   1      36.112  32.412  29.143  1.00  0.00     0.116 C 
BRANCH  25  26
ATOM     26  N   UNL A   1      35.727  31.429  30.149  1.00  0.00    -0.352 N 
ATOM     27  C   UNL A   1      36.460  30.366  30.624  1.00  0.00     0.251 C 
ATOM     28  H   UNL A   1      34.830  31.540  30.538  1.00  0.00     0.163 HD
ATOM     29  O   UNL A   1      35.958  29.552  31.392  1.00  0.00    -0.269 OA
BRANCH  27  30
ATOM     30  C   UNL A   1      37.850  30.207  30.155  1.00  0.00     0.039 A 
ATOM     31  C   UNL A   1      38.888  30.180  31.087  1.00  0.00     0.014 A 
ATOM     32  C   UNL A   1      38.103  29.976  28.800  1.00  0.00     0.014 A 
ATOM     33  C   UNL A   1      40.173  29.843  30.665  1.00  0.00     0.010 A 
ATOM     34  C   UNL A   1      39.352  29.525  28.407  1.00  0.00     0.010 A 
ATOM     35  C   UNL A   1      40.407  29.470  29.331  1.00  0.00    -0.014 A 
BRANCH  35  36
ATOM     36  C   UNL A   1      41.751  29.059  28.859  1.00  0.00     0.031 A 
ATOM     37  C   UNL A   1      42.850  30.086  28.781  1.00  0.00     0.074 A 
ATOM     38  C   UNL A   1      41.961  27.797  28.435  1.00  0.00     0.049 A 
ATOM     39  N   UNL A   1      44.067  29.961  28.317  1.00  0.00    -0.248 NA
ATOM     40  C   UNL A   1      42.524  31.446  29.242  1.00  0.00     0.031 C 
ATOM     41  C   UNL A   1      40.953  26.735  28.394  1.00  0.00     0.029 A 
ATOM     42  N   UNL A   1      43.094  27.195  27.949  1.00  0.00    -0.354 N 
ATOM     43  C   UNL A   1      44.635  31.225  28.406  1.00  0.00     0.074 A 
ATOM     44  C   UNL A   1      43.612  32.119  28.899  1.00  0.00     0.031 C 
ATOM     45  C   UNL A   1      41.521  25.605  27.942  1.00  0.00     0.029 A 
ATOM     46  C   UNL A   1      42.922  25.868  27.630  1.00  0.00     0.049 A 
ATOM     47  H   UNL A   1      43.950  27.668  27.839  1.00  0.00     0.167 HD
ATOM     48  C   UNL A   1      45.905  31.604  28.138  1.00  0.00     0.037 A 
ATOM     49  C   UNL A   1      43.800  24.969  27.145  1.00  0.00     0.037 A 
ATOM     50  C   UNL A   1      46.931  30.697  27.702  1.00  0.00     0.049 A 
ATOM     51  C   UNL A   1      45.221  25.399  26.901  1.00  0.00     0.074 A 
ATOM     52  C   UNL A   1      48.270  30.955  27.471  1.00  0.00     0.029 A 
ATOM     53  N   UNL A   1      46.732  29.348  27.442  1.00  0.00    -0.354 N 
ATOM     54  N   UNL A   1      45.761  26.586  27.056  1.00  0.00    -0.248 NA
ATOM     55  C   UNL A   1      46.156  24.369  26.430  1.00  0.00     0.031 C 
ATOM     56  C   UNL A   1      48.875  29.770  27.042  1.00  0.00     0.029 A 
ATOM     57  C   UNL A   1      47.921  28.763  27.045  1.00  0.00     0.049 A 
ATOM     58  H   UNL A   1      45.872  28.878  27.528  1.00  0.00     0.167 HD
ATOM     59  C   UNL A   1      47.102  26.438  26.726  1.00  0.00     0.074 A 
ATOM     60  C   UNL A   1      47.295  25.046  26.375  1.00  0.00     0.031 C 
ATOM     61  C   UNL A   1      48.088  27.370  26.713  1.00  0.00     0.037 A 
BRANCH  48  62
ATOM     62  C   UNL A   1      46.254  33.054  28.333  1.00  0.00     0.058 A 
ATOM     63  C   UNL A   1      46.139  33.985  27.288  1.00  0.00     0.135 A 
ATOM     64  C   UNL A   1      46.700  33.520  29.580  1.00  0.00     0.135 A 
ATOM     65  F   UNL A   1      45.738  33.590  26.071  1.00  0.00    -0.206 F 
ATOM     66  C   UNL A   1      46.487  35.321  27.463  1.00  0.00     0.059 A 
ATOM     67  C   UNL A   1      47.024  34.858  29.785  1.00  0.00     0.059 A 
ATOM     68  F   UNL A   1      46.833  32.672  30.612  1.00  0.00    -0.206 F 
ATOM     69  C   UNL A   1      46.931  35.747  28.715  1.00  0.00     0.060 A 
BRANCH  69  70
ATOM     70  S   UNL A   1      47.375  37.484  28.926  1.00  0.00     0.124 S 
ATOM     71  O   UNL A   1      46.688  38.098  27.794  1.00  0.00    -0.237 OA
ATOM     72  O   UNL A   1      46.824  37.790  30.242  1.00  0.00    -0.237 OA
ATOM     73  O   UNL A   1      48.831  37.474  28.846  1.00  0.00    -0.744 OA
ENDBRANCH  69  70
ENDBRANCH  48  62
BRANCH  49  74
ATOM     74  C   UNL A   1      43.371  23.565  26.903  1.00  0.00     0.058 A 
ATOM     75  C   UNL A   1      43.239  23.067  25.598  1.00  0.00     0.135 A 
ATOM     76  C   UNL A   1      43.099  22.689  27.965  1.00  0.00     0.135 A 
ATOM     77  F   UNL A   1      43.485  23.866  24.548  1.00  0.00    -0.206 F 
ATOM     78  C   UNL A   1      42.838  21.759  25.351  1.00  0.00     0.059 A 
ATOM     79  C   UNL A   1      42.718  21.368  27.745  1.00  0.00     0.059 A 
ATOM     80  F   UNL A   1      43.227  23.110  29.233  1.00  0.00    -0.206 F 
ATOM     81  C   UNL A   1      42.581  20.915  26.434  1.00  0.00     0.060 A 
BRANCH  81  82
ATOM     82  S   UNL A   1      42.107  19.203  26.105  1.00  0.00     0.124 S 
ATOM     83  O   UNL A   1      42.511  18.544  27.342  1.00  0.00    -0.237 OA
ATOM     84  O   UNL A   1      40.670  19.318  25.881  1.00  0.00    -0.237 OA
ATOM     85  O   UNL A   1      42.892  18.862  24.922  1.00  0.00    -0.744 OA
ENDBRANCH  81  82
ENDBRANCH  49  74
BRANCH  61  86
ATOM     86  C   UNL A   1      49.467  26.907  26.342  1.00  0.00     0.058 A 
ATOM     87  C   UNL A   1      50.284  26.222  27.253  1.00  0.00     0.135 A 
ATOM     88  C   UNL A   1      49.954  27.105  25.040  1.00  0.00     0.135 A 
ATOM     89  F   UNL A   1      49.865  26.012  28.511  1.00  0.00    -0.206 F 
ATOM     90  C   UNL A   1      51.550  25.770  26.894  1.00  0.00     0.059 A 
ATOM     91  C   UNL A   1      51.206  26.638  24.652  1.00  0.00     0.059 A 
ATOM     92  F   UNL A   1      49.206  27.744  24.127  1.00  0.00    -0.206 F 
ATOM     93  C   UNL A   1      52.001  25.983  25.591  1.00  0.00     0.060 A 
BRANCH  93  94
ATOM     94  S   UNL A   1      53.632  25.366  25.128  1.00  0.00     0.124 S 
ATOM     95  O   UNL A   1      53.536  23.962  25.514  1.00  0.00    -0.237 OA
ATOM     96  O   UNL A   1      53.671  25.627  23.693  1.00  0.00    -0.237 OA
ATOM     97  O   UNL A   1      54.543  26.178  25.931  1.00  0.00    -0.744 OA
ENDBRANCH  93  94
ENDBRANCH  61  86
ENDBRANCH  35  36
ENDBRANCH  27  30
ENDBRANCH  25  26
ENDBRANCH  24  25
ENDBRANCH  23  24
ENDBRANCH   1  23
TORSDOF 20
ENDMDL
MODEL 2
REMARK VINA RESULT:     -10.6      6.505     11.287
REMARK SMILES CCN(C(=O)[C@H]1C=C[C@@H]([NH3+])C1)[C@H](C)CC(=O)NCCCCNC(=O)c1ccc(-c2c3nc(c(-c4c(F)cc(S(=O)(=O)[O-])cc4F)c4ccc([nH]4)c(-c4c(F)cc(S(=O)(=O)[O-])cc4F)c4nc(c(-c5c(F)cc(S(=O)(=O)[O-])cc5F)c5ccc2[nH]5)C=C4)C=C3)cc1
REMARK SMILES IDX 18 1 17 2 15 3 16 4 14 6 12 7 13 8 3 9 2 10 1 11 4 12 5 13
REMARK SMILES IDX 6 14 7 15 11 16 8 17 9 18 10 19 19 23 20 24 21 25 22 26
REMARK SMILES IDX 23 27 24 29 25 30 26 31 90 32 27 33 89 34 28 35 29 36 30 37
REMARK SMILES IDX 83 38 31 39 88 40 82 41 84 42 32 43 87 44 81 45 80 46 33 48
REMARK SMILES IDX 67 49 46 50 66 51 47 52 50 53 65 54 85 55 48 56 49 57 64 59
REMARK SMILES IDX 86 60 51 61 34 62 35 63 44 64 36 65 37 66 43 67 45 68 38 69
REMARK SMILES IDX 39 70 40 71 41 72 42 73 68 74 69 75 78 76 70 77 71 78 77 79
REMARK SMILES IDX 79 80 72 81 73 82 74 83 75 84 76 85 52 86 53 87 62 88 54 89
REMARK SMILES IDX 55 90 61 91 63 92 56 93 57 94 58 95 59 96 60 97
REMARK H PARENT 17 5 10 20 10 21 10 22 22 28 84 47 50 58
REMARK Flexibility Score: inf
ROOT
ATOM      1  C   UNL A   1      34.408  29.208  27.307  1.00  0.00     0.116 C 
ENDROOT
BRANCH   1   2
ATOM      2  N   UNL A   1      33.145  28.830  27.918  1.00  0.00    -0.356 N 
ATOM      3  C   UNL A   1      32.081  28.167  27.379  1.00  0.00     0.222 C 
ATOM      4  O   UNL A   1      31.048  28.067  28.044  1.00  0.00    -0.275 OA
ATOM      5  H   UNL A   1      33.042  29.091  28.861  1.00  0.00     0.163 HD
BRANCH   3   6
ATOM      6  C   UNL A   1      32.178  27.556  25.997  1.00  0.00     0.124 C 
BRANCH   6   7
ATOM      7  C   UNL A   1      31.551  28.440  24.896  1.00  0.00     0.091 C 
ATOM      8  C   UNL A   1      32.582  29.078  23.965  1.00  0.00     0.031 C 
BRANCH   7   9
ATOM      9  N   UNL A   1      30.512  27.803  24.035  1.00  0.00    -0.339 N 
BRANCH   9  10
ATOM     10  C   UNL A   1      30.012  26.534  24.578  1.00  0.00     0.116 C 
ATOM     11  C   UNL A   1      30.182  25.369  23.618  1.00  0.00     0.027 C 
ENDBRANCH   9  10
BRANCH   9  12
ATOM     12  C   UNL A   1      29.931  28.560  23.024  1.00  0.00     0.229 C 
ATOM     13  O   UNL A   1      30.239  28.351  21.840  1.00  0.00    -0.274 OA
BRANCH  12  14
ATOM     14  C   UNL A   1      28.865  29.668  23.226  1.00  0.00     0.107 C 
ATOM     15  C   UNL A   1      29.120  31.053  23.716  1.00  0.00    -0.012 C 
ATOM     16  C   UNL A   1      28.239  29.925  21.827  1.00  0.00     0.087 C 
ATOM     17  C   UNL A   1      28.659  31.997  22.886  1.00  0.00     0.033 C 
ATOM     18  C   UNL A   1      27.941  31.421  21.718  1.00  0.00     0.205 C 
BRANCH  18  19
ATOM     19  N   UNL A   1      28.393  31.976  20.458  1.00  0.00    -0.352 N 
ATOM     20  H   UNL A   1      28.692  31.219  19.842  1.00  0.00     0.345 HD
ATOM     21  H   UNL A   1      29.176  32.607  20.626  1.00  0.00     0.345 HD
ATOM     22  H   UNL A   1      27.630  32.489  20.019  1.00  0.00     0.345 HD
ENDBRANCH  18  19
ENDBRANCH  12  14
ENDBRANCH   9  12
ENDBRANCH   7   9
ENDBRANCH   6   7
ENDBRANCH   3   6
ENDBRANCH   1   2
BRANCH   1  23
ATOM     23  C   UNL A   1      34.804  30.629  27.715  1.00  0.00     0.023 C 
BRANCH  23  24
ATOM     24  C   UNL A   1      33.669  31.637  27.711  1.00  0.00     0.023 C 
BRANCH  24  25
ATOM     25  C   UNL A   1      34.101  33.058  27.415  1.00  0.00     0.116 C 
BRANCH  25  26
ATOM     26  N   UNL A   1      33.241  34.065  28.025  1.00  0.00    -0.352 N 
ATOM     27  C   UNL A   1      33.302  34.574  29.302  1.00  0.00     0.251 C 
ATOM     28  H   UNL A   1      32.528  34.426  27.453  1.00  0.00     0.163 HD
ATOM     29  O   UNL A   1      32.434  35.337  29.715  1.00  0.00    -0.269 OA
BRANCH  27  30
ATOM     30  C   UNL A   1      34.412  34.147  30.177  1.00  0.00     0.039 A 
ATOM     31  C   UNL A   1      34.162  33.238  31.204  1.00  0.00     0.014 A 
ATOM     32  C   UNL A   1      35.714  34.572  29.901  1.00  0.00     0.014 A 
ATOM     33  C   UNL A   1      35.235  32.692  31.907  1.00  0.00     0.010 A 
ATOM     34  C   UNL A   1      36.781  33.939  30.518  1.00  0.00     0.010 A 
ATOM     35  C   UNL A   1      36.555  33.005  31.540  1.00  0.00    -0.014 A 
BRANCH  35  36
ATOM     36  C   UNL A   1      37.721  32.407  32.234  1.00  0.00     0.031 A 
ATOM     37  C   UNL A   1      38.481  31.290  31.569  1.00  0.00     0.074 A 
ATOM     38  C   UNL A   1      38.046  32.811  33.479  1.00  0.00     0.049 A 
ATOM     39  N   UNL A   1      39.470  30.572  32.034  1.00  0.00    -0.248 NA
ATOM     40  C   UNL A   1      38.041  30.897  30.219  1.00  0.00     0.031 C 
ATOM     41  C   UNL A   1      37.336  33.832  34.254  1.00  0.00     0.029 A 
ATOM     42  N   UNL A   1      39.053  32.403  34.316  1.00  0.00    -0.354 N 
ATOM     43  C   UNL A   1      39.747  29.632  31.050  1.00  0.00     0.074 A 
ATOM     44  C   UNL A   1      38.780  29.822  29.994  1.00  0.00     0.031 C 
ATOM     45  C   UNL A   1      37.951  33.994  35.437  1.00  0.00     0.029 A 
ATOM     46  C   UNL A   1      39.076  33.068  35.519  1.00  0.00     0.049 A 
ATOM     47  H   UNL A   1      39.700  31.700  34.077  1.00  0.00     0.167 HD
ATOM     48  C   UNL A   1      40.742  28.716  31.009  1.00  0.00     0.037 A 
ATOM     49  C   UNL A   1      39.914  32.945  36.566  1.00  0.00     0.037 A 
ATOM     50  C   UNL A   1      41.735  28.572  32.039  1.00  0.00     0.049 A 
ATOM     51  C   UNL A   1      41.044  31.955  36.479  1.00  0.00     0.074 A 
ATOM     52  C   UNL A   1      42.831  27.729  32.068  1.00  0.00     0.029 A 
ATOM     53  N   UNL A   1      41.757  29.302  33.219  1.00  0.00    -0.354 N 
ATOM     54  N   UNL A   1      41.335  31.119  35.509  1.00  0.00    -0.248 NA
ATOM     55  C   UNL A   1      41.969  31.898  37.620  1.00  0.00     0.031 C 
ATOM     56  C   UNL A   1      43.499  27.927  33.281  1.00  0.00     0.029 A 
ATOM     57  C   UNL A   1      42.843  28.923  33.988  1.00  0.00     0.049 A 
ATOM     58  H   UNL A   1      41.098  29.988  33.471  1.00  0.00     0.167 HD
ATOM     59  C   UNL A   1      42.488  30.456  35.912  1.00  0.00     0.074 A 
ATOM     60  C   UNL A   1      42.849  30.997  37.206  1.00  0.00     0.031 C 
ATOM     61  C   UNL A   1      43.187  29.486  35.270  1.00  0.00     0.037 A 
BRANCH  48  62
ATOM     62  C   UNL A   1      40.814  27.821  29.803  1.00  0.00     0.058 A 
ATOM     63  C   UNL A   1      41.781  28.011  28.802  1.00  0.00     0.135 A 
ATOM     64  C   UNL A   1      39.911  26.758  29.647  1.00  0.00     0.135 A 
ATOM     65  F   UNL A   1      42.655  29.026  28.889  1.00  0.00    -0.206 F 
ATOM     66  C   UNL A   1      41.830  27.199  27.674  1.00  0.00     0.059 A 
ATOM     67  C   UNL A   1      39.962  25.914  28.541  1.00  0.00     0.059 A 
ATOM     68  F   UNL A   1      38.964  26.533  30.571  1.00  0.00    -0.206 F 
ATOM     69  C   UNL A   1      40.914  26.154  27.551  1.00  0.00     0.060 A 
BRANCH  69  70
ATOM     70  S   UNL A   1      40.992  25.108  26.082  1.00  0.00     0.124 S 
ATOM     71  O   UNL A   1      39.587  24.757  25.902  1.00  0.00    -0.237 OA
ATOM     72  O   UNL A   1      41.552  26.012  25.083  1.00  0.00    -0.237 OA
ATOM     73  O   UNL A   1      41.865  24.013  26.492  1.00  0.00    -0.744 OA
ENDBRANCH  69  70
ENDBRANCH  48  62
BRANCH  49  74
ATOM     74  C   UNL A   1      39.744  33.811  37.764  1.00  0.00     0.058 A 
ATOM     75  C   UNL A   1      38.911  33.419  38.822  1.00  0.00     0.135 A 
ATOM     76  C   UNL A   1      40.418  35.035  37.883  1.00  0.00     0.135 A 
ATOM     77  F   UNL A   1      38.241  32.258  38.755  1.00  0.00    -0.206 F 
ATOM     78  C   UNL A   1      38.737  34.216  39.949  1.00  0.00     0.059 A 
ATOM     79  C   UNL A   1      40.280  35.840  39.010  1.00  0.00     0.059 A 
ATOM     80  F   UNL A   1      41.242  35.448  36.906  1.00  0.00    -0.206 F 
ATOM     81  C   UNL A   1      39.429  35.426  40.034  1.00  0.00     0.060 A 
BRANCH  81  82
ATOM     82  S   UNL A   1      39.235  36.431  41.523  1.00  0.00     0.124 S 
ATOM     83  O   UNL A   1      40.535  36.261  42.163  1.00  0.00    -0.237 OA
ATOM     84  O   UNL A   1      38.964  37.754  40.969  1.00  0.00    -0.237 OA
ATOM     85  O   UNL A   1      38.108  35.803  42.206  1.00  0.00    -0.744 OA
ENDBRANCH  81  82
ENDBRANCH  49  74
BRANCH  61  86
ATOM     86  C   UNL A   1      44.429  28.975  35.940  1.00  0.00     0.058 A 
ATOM     87  C   UNL A   1      44.401  27.862  36.793  1.00  0.00     0.135 A 
ATOM     88  C   UNL A   1      45.672  29.576  35.680  1.00  0.00     0.135 A 
ATOM     89  F   UNL A   1      43.237  27.256  37.076  1.00  0.00    -0.206 F 
ATOM     90  C   UNL A   1      45.561  27.376  37.388  1.00  0.00     0.059 A 
ATOM     91  C   UNL A   1      46.847  29.089  36.243  1.00  0.00     0.059 A 
ATOM     92  F   UNL A   1      45.753  30.636  34.861  1.00  0.00    -0.206 F 
ATOM     93  C   UNL A   1      46.779  27.996  37.106  1.00  0.00     0.060 A 
BRANCH  93  94
ATOM     94  S   UNL A   1      48.280  27.339  37.860  1.00  0.00     0.124 S 
ATOM     95  O   UNL A   1      47.785  26.116  38.482  1.00  0.00    -0.237 OA
ATOM     96  O   UNL A   1      49.155  27.153  36.706  1.00  0.00    -0.237 OA
ATOM     97  O   UNL A   1      48.687  28.395  38.783  1.00  0.00    -0.744 OA
ENDBRANCH  93  94
ENDBRANCH  61  86
ENDBRANCH  35  36
ENDBRANCH  27  30
ENDBRANCH  25  26
ENDBRANCH  24  25
ENDBRANCH  23  24
ENDBRANCH   1  23
TORSDOF 20
ENDMDL
MODEL 3
REMARK VINA RESULT:     -10.6      6.764     12.381
REMARK SMILES CCN(C(=O)[C@H]1C=C[C@@H]([NH3+])C1)[C@H](C)CC(=O)NCCCCNC(=O)c1ccc(-c2c3nc(c(-c4c(F)cc(S(=O)(=O)[O-])cc4F)c4ccc([nH]4)c(-c4c(F)cc(S(=O)(=O)[O-])cc4F)c4nc(c(-c5c(F)cc(S(=O)(=O)[O-])cc5F)c5ccc2[nH]5)C=C4)C=C3)cc1
REMARK SMILES IDX 18 1 17 2 15 3 16 4 14 6 12 7 13 8 3 9 2 10 1 11 4 12 5 13
REMARK SMILES IDX 6 14 7 15 11 16 8 17 9 18 10 19 19 23 20 24 21 25 22 26
REMARK SMILES IDX 23 27 24 29 25 30 26 31 90 32 27 33 89 34 28 35 29 36 30 37
REMARK SMILES IDX 83 38 31 39 88 40 82 41 84 42 32 43 87 44 81 45 80 46 33 48
REMARK SMILES IDX 67 49 46 50 66 51 47 52 50 53 65 54 85 55 48 56 49 57 64 59
REMARK SMILES IDX 86 60 51 61 34 62 35 63 44 64 36 65 37 66 43 67 45 68 38 69
REMARK SMILES IDX 39 70 40 71 41 72 42 73 68 74 69 75 78 76 70 77 71 78 77 79
REMARK SMILES IDX 79 80 72 81 73 82 74 83 75 84 76 85 52 86 53 87 62 88 54 89
REMARK SMILES IDX 55 90 61 91 63 92 56 93 57 94 58 95 59 96 60 97
REMARK H PARENT 17 5 10 20 10 21 10 22 22 28 84 47 50 58
REMARK Flexibility Score: inf
ROOT
ATOM      1  C   UNL A   1      35.221  23.091  24.550  1.00  0.00     0.116 C 
ENDROOT
BRANCH   1   2
ATOM      2  N   UNL A   1      34.985  23.984  23.428  1.00  0.00    -0.356 N 
ATOM      3  C   UNL A   1      33.985  24.892  23.233  1.00  0.00     0.222 C 
ATOM      4  O   UNL A   1      33.902  25.454  22.139  1.00  0.00    -0.275 OA
ATOM      5  H   UNL A   1      35.644  23.922  22.699  1.00  0.00     0.163 HD
BRANCH   3   6
ATOM      6  C   UNL A   1      33.011  25.211  24.348  1.00  0.00     0.124 C 
BRANCH   6   7
ATOM      7  C   UNL A   1      31.727  25.912  23.851  1.00  0.00     0.091 C 
ATOM      8  C   UNL A   1      30.441  25.240  24.331  1.00  0.00     0.031 C 
BRANCH   7   9
ATOM      9  N   UNL A   1      31.601  27.369  24.146  1.00  0.00    -0.339 N 
BRANCH   9  10
ATOM     10  C   UNL A   1      32.110  27.735  25.474  1.00  0.00     0.116 C 
ATOM     11  C   UNL A   1      31.718  29.140  25.895  1.00  0.00     0.027 C 
ENDBRANCH   9  10
BRANCH   9  12
ATOM     12  C   UNL A   1      31.316  28.237  23.098  1.00  0.00     0.229 C 
ATOM     13  O   UNL A   1      32.224  28.916  22.594  1.00  0.00    -0.274 OA
BRANCH  12  14
ATOM     14  C   UNL A   1      29.925  28.431  22.441  1.00  0.00     0.107 C 
ATOM     15  C   UNL A   1      28.606  28.309  23.125  1.00  0.00    -0.012 C 
ATOM     16  C   UNL A   1      29.892  29.897  21.926  1.00  0.00     0.087 C 
ATOM     17  C   UNL A   1      27.839  29.396  22.987  1.00  0.00     0.033 C 
ATOM     18  C   UNL A   1      28.470  30.426  22.120  1.00  0.00     0.205 C 
BRANCH  18  19
ATOM     19  N   UNL A   1      28.458  31.745  22.722  1.00  0.00    -0.352 N 
ATOM     20  H   UNL A   1      29.253  32.283  22.377  1.00  0.00     0.345 HD
ATOM     21  H   UNL A   1      28.523  31.656  23.736  1.00  0.00     0.345 HD
ATOM     22  H   UNL A   1      27.592  32.223  22.476  1.00  0.00     0.345 HD
ENDBRANCH  18  19
ENDBRANCH  12  14
ENDBRANCH   9  12
ENDBRANCH   7   9
ENDBRANCH   6   7
ENDBRANCH   3   6
ENDBRANCH   1   2
BRANCH   1  23
ATOM     23  C   UNL A   1      36.095  23.771  25.608  1.00  0.00     0.023 C 
BRANCH  23  24
ATOM     24  C   UNL A   1      37.566  23.398  25.561  1.00  0.00     0.023 C 
BRANCH  24  25
ATOM     25  C   UNL A   1      38.443  24.213  26.488  1.00  0.00     0.116 C 
BRANCH  25  26
ATOM     26  N   UNL A   1      39.867  24.082  26.205  1.00  0.00    -0.352 N 
ATOM     27  C   UNL A   1      40.899  24.873  26.653  1.00  0.00     0.251 C 
ATOM     28  H   UNL A   1      40.122  23.333  25.620  1.00  0.00     0.163 HD
ATOM     29  O   UNL A   1      42.041  24.709  26.235  1.00  0.00    -0.269 OA
BRANCH  27  30
ATOM     30  C   UNL A   1      40.593  25.950  27.614  1.00  0.00     0.039 A 
ATOM     31  C   UNL A   1      39.639  25.729  28.607  1.00  0.00     0.014 A 
ATOM     32  C   UNL A   1      41.333  27.135  27.588  1.00  0.00     0.014 A 
ATOM     33  C   UNL A   1      39.485  26.670  29.625  1.00  0.00     0.010 A 
ATOM     34  C   UNL A   1      41.263  28.006  28.662  1.00  0.00     0.010 A 
ATOM     35  C   UNL A   1      40.325  27.794  29.684  1.00  0.00    -0.014 A 
BRANCH  35  36
ATOM     36  C   UNL A   1      40.221  28.790  30.778  1.00  0.00     0.031 A 
ATOM     37  C   UNL A   1      41.105  28.650  31.989  1.00  0.00     0.074 A 
ATOM     38  C   UNL A   1      39.290  29.764  30.717  1.00  0.00     0.049 A 
ATOM     39  N   UNL A   1      41.115  29.355  33.090  1.00  0.00    -0.248 NA
ATOM     40  C   UNL A   1      42.075  27.542  31.980  1.00  0.00     0.031 C 
ATOM     41  C   UNL A   1      38.328  29.954  29.629  1.00  0.00     0.029 A 
ATOM     42  N   UNL A   1      38.996  30.774  31.598  1.00  0.00    -0.354 N 
ATOM     43  C   UNL A   1      42.067  28.760  33.908  1.00  0.00     0.074 A 
ATOM     44  C   UNL A   1      42.563  27.596  33.209  1.00  0.00     0.031 C 
ATOM     45  C   UNL A   1      37.574  31.035  29.891  1.00  0.00     0.029 A 
ATOM     46  C   UNL A   1      37.975  31.594  31.178  1.00  0.00     0.049 A 
ATOM     47  H   UNL A   1      39.471  30.899  32.451  1.00  0.00     0.167 HD
ATOM     48  C   UNL A   1      42.518  29.165  35.118  1.00  0.00     0.037 A 
ATOM     49  C   UNL A   1      37.431  32.677  31.765  1.00  0.00     0.037 A 
ATOM     50  C   UNL A   1      42.059  30.355  35.780  1.00  0.00     0.049 A 
ATOM     51  C   UNL A   1      37.982  33.140  33.087  1.00  0.00     0.074 A 
ATOM     52  C   UNL A   1      42.498  30.902  36.972  1.00  0.00     0.029 A 
ATOM     53  N   UNL A   1      41.062  31.191  35.297  1.00  0.00    -0.354 N 
ATOM     54  N   UNL A   1      38.932  32.604  33.817  1.00  0.00    -0.248 NA
ATOM     55  C   UNL A   1      37.398  34.360  33.661  1.00  0.00     0.031 C 
ATOM     56  C   UNL A   1      41.745  32.053  37.226  1.00  0.00     0.029 A 
ATOM     57  C   UNL A   1      40.866  32.245  36.171  1.00  0.00     0.049 A 
ATOM     58  H   UNL A   1      40.568  31.054  34.457  1.00  0.00     0.167 HD
ATOM     59  C   UNL A   1      39.076  33.434  34.922  1.00  0.00     0.074 A 
ATOM     60  C   UNL A   1      38.126  34.515  34.758  1.00  0.00     0.031 C 
ATOM     61  C   UNL A   1      39.919  33.315  35.978  1.00  0.00     0.037 A 
BRANCH  48  62
ATOM     62  C   UNL A   1      43.573  28.325  35.783  1.00  0.00     0.058 A 
ATOM     63  C   UNL A   1      43.237  27.251  36.624  1.00  0.00     0.135 A 
ATOM     64  C   UNL A   1      44.935  28.590  35.572  1.00  0.00     0.135 A 
ATOM     65  F   UNL A   1      41.950  26.967  36.877  1.00  0.00    -0.206 F 
ATOM     66  C   UNL A   1      44.213  26.492  37.260  1.00  0.00     0.059 A 
ATOM     67  C   UNL A   1      45.929  27.823  36.174  1.00  0.00     0.059 A 
ATOM     68  F   UNL A   1      45.313  29.607  34.781  1.00  0.00    -0.206 F 
ATOM     69  C   UNL A   1      45.557  26.787  37.030  1.00  0.00     0.060 A 
BRANCH  69  70
ATOM     70  S   UNL A   1      46.813  25.790  37.860  1.00  0.00     0.124 S 
ATOM     71  O   UNL A   1      46.001  24.720  38.431  1.00  0.00    -0.237 OA
ATOM     72  O   UNL A   1      47.684  25.402  36.755  1.00  0.00    -0.237 OA
ATOM     73  O   UNL A   1      47.400  26.715  38.823  1.00  0.00    -0.744 OA
ENDBRANCH  69  70
ENDBRANCH  48  62
BRANCH  49  74
ATOM     74  C   UNL A   1      36.337  33.422  31.087  1.00  0.00     0.058 A 
ATOM     75  C   UNL A   1      36.589  34.185  29.938  1.00  0.00     0.135 A 
ATOM     76  C   UNL A   1      35.017  33.375  31.562  1.00  0.00     0.135 A 
ATOM     77  F   UNL A   1      37.835  34.264  29.446  1.00  0.00    -0.206 F 
ATOM     78  C   UNL A   1      35.579  34.889  29.291  1.00  0.00     0.059 A 
ATOM     79  C   UNL A   1      33.984  34.052  30.919  1.00  0.00     0.059 A 
ATOM     80  F   UNL A   1      34.718  32.644  32.648  1.00  0.00    -0.206 F 
ATOM     81  C   UNL A   1      34.277  34.815  29.790  1.00  0.00     0.060 A 
BRANCH  81  82
ATOM     82  S   UNL A   1      32.962  35.693  28.915  1.00  0.00     0.124 S 
ATOM     83  O   UNL A   1      32.150  36.184  30.023  1.00  0.00    -0.237 OA
ATOM     84  O   UNL A   1      33.709  36.704  28.173  1.00  0.00    -0.237 OA
ATOM     85  O   UNL A   1      32.351  34.650  28.097  1.00  0.00    -0.744 OA
ENDBRANCH  81  82
ENDBRANCH  49  74
BRANCH  61  86
ATOM     86  C   UNL A   1      39.876  34.397  37.018  1.00  0.00     0.058 A 
ATOM     87  C   UNL A   1      38.979  34.348  38.096  1.00  0.00     0.135 A 
ATOM     88  C   UNL A   1      40.782  35.469  36.963  1.00  0.00     0.135 A 
ATOM     89  F   UNL A   1      38.091  33.346  38.191  1.00  0.00    -0.206 F 
ATOM     90  C   UNL A   1      38.964  35.339  39.072  1.00  0.00     0.059 A 
ATOM     91  C   UNL A   1      40.802  36.456  37.943  1.00  0.00     0.059 A 
ATOM     92  F   UNL A   1      41.669  35.555  35.959  1.00  0.00    -0.206 F 
ATOM     93  C   UNL A   1      39.880  36.389  38.987  1.00  0.00     0.060 A 
BRANCH  93  94
ATOM     94  S   UNL A   1      39.871  37.652  40.274  1.00  0.00     0.124 S 
ATOM     95  O   UNL A   1      41.285  38.003  40.352  1.00  0.00    -0.237 OA
ATOM     96  O   UNL A   1      38.995  38.673  39.707  1.00  0.00    -0.237 OA
ATOM     97  O   UNL A   1      39.333  36.949  41.436  1.00  0.00    -0.744 OA
ENDBRANCH  93  94
ENDBRANCH  61  86
ENDBRANCH  35  36
ENDBRANCH  27  30
ENDBRANCH  25  26
ENDBRANCH  24  25
ENDBRANCH  23  24
ENDBRANCH   1  23
TORSDOF 20
ENDMDL
