MODEL 1
REMARK VINA RESULT:     -12.4      0.000      0.000
REMARK SMILES O=C(Cn1c2c(sc1=O)C[C@H](c1ccccc1)CC2)NCCCCNC(=O)c1ccc(-c2c3nc(c(-c4c(F)cc(S(=O)(=O)[O-])cc4F)c4ccc([nH]4)c(-c4c(F)cc(S(=O)(=O)[O-])cc4F)c4nc(c(-c5c(F)cc(S(=O)(=O)[O-])cc5F)c5ccc2[nH]5)C=C4)C=C3)cc1
REMARK SMILES IDX 23 1 22 2 21 3 20 4 1 5 2 6 3 8 4 9 5 10 8 11 6 12 19 13
REMARK SMILES IDX 7 14 9 15 10 16 18 17 11 18 12 19 13 20 17 21 14 22 16 23
REMARK SMILES IDX 15 24 24 25 25 26 26 27 27 29 28 30 29 31 93 32 30 33 92 34
REMARK SMILES IDX 31 35 32 36 33 37 86 38 34 39 91 40 85 41 87 42 35 43 90 44
REMARK SMILES IDX 84 45 83 46 36 48 70 49 49 50 69 51 50 52 53 53 68 54 88 55
REMARK SMILES IDX 51 56 52 57 67 59 89 60 54 61 37 62 38 63 47 64 39 65 40 66
REMARK SMILES IDX 46 67 48 68 41 69 42 70 43 71 44 72 45 73 71 74 72 75 81 76
REMARK SMILES IDX 73 77 74 78 80 79 82 80 75 81 76 82 77 83 78 84 79 85 55 86
REMARK SMILES IDX 56 87 65 88 57 89 58 90 64 91 66 92 59 93 60 94 61 95 62 96
REMARK SMILES IDX 63 97
REMARK H PARENT 20 7 25 28 87 47 53 58
REMARK Flexibility Score: inf
ROOT
ATOM      1  C   UNL A   1      40.826  20.072  26.179  1.00  0.00     0.023 C 
ENDROOT
BRANCH   1   2
ATOM      2  C   UNL A   1      40.153  21.348  26.711  1.00  0.00     0.023 C 
BRANCH   2   3
ATOM      3  C   UNL A   1      39.154  22.033  25.770  1.00  0.00     0.116 C 
BRANCH   3   4
ATOM      4  N   UNL A   1      37.782  21.784  26.154  1.00  0.00    -0.355 N 
ATOM      5  O   UNL A   1      36.773  23.424  24.902  1.00  0.00    -0.273 OA
ATOM      6  C   UNL A   1      36.691  22.493  25.701  1.00  0.00     0.240 C 
ATOM      7  H   UNL A   1      37.614  21.050  26.790  1.00  0.00     0.163 HD
BRANCH   6   8
ATOM      8  C   UNL A   1      35.360  22.109  26.384  1.00  0.00     0.226 C 
BRANCH   8   9
ATOM      9  N   UNL A   1      34.201  21.987  25.510  1.00  0.00    -0.293 N 
ATOM     10  C   UNL A   1      33.134  22.875  25.494  1.00  0.00     0.036 A 
ATOM     11  C   UNL A   1      33.992  20.836  24.749  1.00  0.00     0.308 A 
ATOM     12  C   UNL A   1      32.167  22.545  24.623  1.00  0.00     0.030 A 
ATOM     13  C   UNL A   1      33.022  24.052  26.412  1.00  0.00     0.056 C 
ATOM     14  S   UNL A   1      32.500  21.043  23.826  1.00  0.00    -0.079 S 
ATOM     15  O   UNL A   1      34.685  19.837  24.719  1.00  0.00    -0.257 OA
ATOM     16  C   UNL A   1      30.936  23.357  24.371  1.00  0.00     0.057 C 
ATOM     17  C   UNL A   1      31.666  24.783  26.296  1.00  0.00     0.015 C 
ATOM     18  C   UNL A   1      31.111  24.830  24.850  1.00  0.00     0.025 C 
BRANCH  18  19
ATOM     19  C   UNL A   1      31.920  25.682  23.865  1.00  0.00    -0.045 A 
ATOM     20  C   UNL A   1      31.968  25.312  22.511  1.00  0.00     0.004 A 
ATOM     21  C   UNL A   1      32.629  26.835  24.243  1.00  0.00     0.004 A 
ATOM     22  C   UNL A   1      32.786  25.991  21.604  1.00  0.00     0.000 A 
ATOM     23  C   UNL A   1      33.461  27.503  23.343  1.00  0.00     0.000 A 
ATOM     24  C   UNL A   1      33.556  27.069  22.027  1.00  0.00     0.000 A 
ENDBRANCH  18  19
ENDBRANCH   8   9
ENDBRANCH   6   8
ENDBRANCH   3   4
ENDBRANCH   2   3
ENDBRANCH   1   2
BRANCH   1  25
ATOM     25  C   UNL A   1      42.165  19.735  26.823  1.00  0.00     0.116 C 
BRANCH  25  26
ATOM     26  N   UNL A   1      43.230  19.523  25.847  1.00  0.00    -0.352 N 
ATOM     27  C   UNL A   1      43.906  20.479  25.112  1.00  0.00     0.251 C 
ATOM     28  H   UNL A   1      43.500  18.589  25.695  1.00  0.00     0.163 HD
ATOM     29  O   UNL A   1      44.485  20.168  24.075  1.00  0.00    -0.269 OA
BRANCH  27  30
ATOM     30  C   UNL A   1      43.922  21.879  25.583  1.00  0.00     0.039 A 
ATOM     31  C   UNL A   1      43.081  22.841  25.015  1.00  0.00     0.014 A 
ATOM     32  C   UNL A   1      44.791  22.225  26.616  1.00  0.00     0.014 A 
ATOM     33  C   UNL A   1      43.061  24.128  25.554  1.00  0.00     0.010 A 
ATOM     34  C   UNL A   1      44.681  23.452  27.227  1.00  0.00     0.010 A 
ATOM     35  C   UNL A   1      43.845  24.424  26.681  1.00  0.00    -0.014 A 
BRANCH  35  36
ATOM     36  C   UNL A   1      43.655  25.680  27.416  1.00  0.00     0.031 A 
ATOM     37  C   UNL A   1      44.707  26.702  27.124  1.00  0.00     0.074 A 
ATOM     38  C   UNL A   1      42.511  25.987  28.072  1.00  0.00     0.049 A 
ATOM     39  N   UNL A   1      45.562  27.225  27.939  1.00  0.00    -0.248 NA
ATOM     40  C   UNL A   1      44.944  27.064  25.712  1.00  0.00     0.031 C 
ATOM     41  C   UNL A   1      41.287  25.179  28.152  1.00  0.00     0.029 A 
ATOM     42  N   UNL A   1      42.138  27.136  28.706  1.00  0.00    -0.354 N 
ATOM     43  C   UNL A   1      46.264  28.172  27.195  1.00  0.00     0.074 A 
ATOM     44  C   UNL A   1      46.004  27.869  25.815  1.00  0.00     0.031 C 
ATOM     45  C   UNL A   1      40.255  25.951  28.557  1.00  0.00     0.029 A 
ATOM     46  C   UNL A   1      40.762  27.258  28.925  1.00  0.00     0.049 A 
ATOM     47  H   UNL A   1      42.785  27.823  28.987  1.00  0.00     0.167 HD
ATOM     48  C   UNL A   1      46.761  29.297  27.781  1.00  0.00     0.037 A 
ATOM     49  C   UNL A   1      40.085  28.361  29.345  1.00  0.00     0.037 A 
ATOM     50  C   UNL A   1      46.826  29.138  29.214  1.00  0.00     0.049 A 
ATOM     51  C   UNL A   1      41.083  29.268  29.960  1.00  0.00     0.074 A 
ATOM     52  C   UNL A   1      47.454  28.262  30.078  1.00  0.00     0.029 A 
ATOM     53  N   UNL A   1      45.847  29.757  29.949  1.00  0.00    -0.354 N 
ATOM     54  N   UNL A   1      41.721  29.010  31.066  1.00  0.00    -0.248 NA
ATOM     55  C   UNL A   1      41.687  30.283  29.113  1.00  0.00     0.031 C 
ATOM     56  C   UNL A   1      46.530  28.069  31.147  1.00  0.00     0.029 A 
ATOM     57  C   UNL A   1      45.426  28.893  30.923  1.00  0.00     0.049 A 
ATOM     58  H   UNL A   1      45.505  30.668  29.801  1.00  0.00     0.167 HD
ATOM     59  C   UNL A   1      43.008  29.474  30.843  1.00  0.00     0.074 A 
ATOM     60  C   UNL A   1      42.896  30.347  29.676  1.00  0.00     0.031 C 
ATOM     61  C   UNL A   1      44.078  28.874  31.445  1.00  0.00     0.037 A 
BRANCH  48  62
ATOM     62  C   UNL A   1      46.770  30.672  27.132  1.00  0.00     0.058 A 
ATOM     63  C   UNL A   1      47.960  31.434  27.156  1.00  0.00     0.135 A 
ATOM     64  C   UNL A   1      45.610  31.390  26.761  1.00  0.00     0.135 A 
ATOM     65  F   UNL A   1      49.129  30.865  27.493  1.00  0.00    -0.206 F 
ATOM     66  C   UNL A   1      47.978  32.811  26.925  1.00  0.00     0.059 A 
ATOM     67  C   UNL A   1      45.615  32.750  26.473  1.00  0.00     0.059 A 
ATOM     68  F   UNL A   1      44.392  30.838  26.745  1.00  0.00    -0.206 F 
ATOM     69  C   UNL A   1      46.794  33.463  26.599  1.00  0.00     0.060 A 
BRANCH  69  70
ATOM     70  S   UNL A   1      46.793  35.250  26.380  1.00  0.00     0.124 S 
ATOM     71  O   UNL A   1      45.409  35.495  25.993  1.00  0.00    -0.237 OA
ATOM     72  O   UNL A   1      47.179  35.715  27.708  1.00  0.00    -0.237 OA
ATOM     73  O   UNL A   1      47.790  35.459  25.334  1.00  0.00    -0.744 OA
ENDBRANCH  69  70
ENDBRANCH  48  62
BRANCH  49  74
ATOM     74  C   UNL A   1      38.710  28.834  29.008  1.00  0.00     0.058 A 
ATOM     75  C   UNL A   1      37.734  28.998  30.013  1.00  0.00     0.135 A 
ATOM     76  C   UNL A   1      38.418  29.428  27.766  1.00  0.00     0.135 A 
ATOM     77  F   UNL A   1      37.924  28.471  31.232  1.00  0.00    -0.206 F 
ATOM     78  C   UNL A   1      36.581  29.772  29.823  1.00  0.00     0.059 A 
ATOM     79  C   UNL A   1      37.271  30.195  27.549  1.00  0.00     0.059 A 
ATOM     80  F   UNL A   1      39.289  29.365  26.748  1.00  0.00    -0.206 F 
ATOM     81  C   UNL A   1      36.373  30.393  28.593  1.00  0.00     0.060 A 
BRANCH  81  82
ATOM     82  S   UNL A   1      35.010  31.568  28.404  1.00  0.00     0.124 S 
ATOM     83  O   UNL A   1      35.604  32.590  27.550  1.00  0.00    -0.237 OA
ATOM     84  O   UNL A   1      33.972  30.747  27.790  1.00  0.00    -0.237 OA
ATOM     85  O   UNL A   1      34.732  31.987  29.777  1.00  0.00    -0.744 OA
ENDBRANCH  81  82
ENDBRANCH  49  74
BRANCH  61  86
ATOM     86  C   UNL A   1      43.814  27.985  32.635  1.00  0.00     0.058 A 
ATOM     87  C   UNL A   1      43.728  26.581  32.603  1.00  0.00     0.135 A 
ATOM     88  C   UNL A   1      43.750  28.599  33.895  1.00  0.00     0.135 A 
ATOM     89  F   UNL A   1      43.884  25.903  31.457  1.00  0.00    -0.206 F 
ATOM     90  C   UNL A   1      43.526  25.831  33.765  1.00  0.00     0.059 A 
ATOM     91  C   UNL A   1      43.588  27.870  35.068  1.00  0.00     0.059 A 
ATOM     92  F   UNL A   1      43.885  29.931  34.003  1.00  0.00    -0.206 F 
ATOM     93  C   UNL A   1      43.455  26.487  34.994  1.00  0.00     0.060 A 
BRANCH  93  94
ATOM     94  S   UNL A   1      43.229  25.521  36.502  1.00  0.00     0.124 S 
ATOM     95  O   UNL A   1      42.748  26.528  37.443  1.00  0.00    -0.237 OA
ATOM     96  O   UNL A   1      42.252  24.516  36.094  1.00  0.00    -0.237 OA
ATOM     97  O   UNL A   1      44.567  25.001  36.778  1.00  0.00    -0.744 OA
ENDBRANCH  93  94
ENDBRANCH  61  86
ENDBRANCH  35  36
ENDBRANCH  27  30
ENDBRANCH  25  26
ENDBRANCH   1  25
TORSDOF 16
ENDMDL
MODEL 2
REMARK VINA RESULT:     -12.4      0.904      1.509
REMARK SMILES O=C(Cn1c2c(sc1=O)C[C@H](c1ccccc1)CC2)NCCCCNC(=O)c1ccc(-c2c3nc(c(-c4c(F)cc(S(=O)(=O)[O-])cc4F)c4ccc([nH]4)c(-c4c(F)cc(S(=O)(=O)[O-])cc4F)c4nc(c(-c5c(F)cc(S(=O)(=O)[O-])cc5F)c5ccc2[nH]5)C=C4)C=C3)cc1
REMARK SMILES IDX 23 1 22 2 21 3 20 4 1 5 2 6 3 8 4 9 5 10 8 11 6 12 19 13
REMARK SMILES IDX 7 14 9 15 10 16 18 17 11 18 12 19 13 20 17 21 14 22 16 23
REMARK SMILES IDX 15 24 24 25 25 26 26 27 27 29 28 30 29 31 93 32 30 33 92 34
REMARK SMILES IDX 31 35 32 36 33 37 86 38 34 39 91 40 85 41 87 42 35 43 90 44
REMARK SMILES IDX 84 45 83 46 36 48 70 49 49 50 69 51 50 52 53 53 68 54 88 55
REMARK SMILES IDX 51 56 52 57 67 59 89 60 54 61 37 62 38 63 47 64 39 65 40 66
REMARK SMILES IDX 46 67 48 68 41 69 42 70 43 71 44 72 45 73 71 74 72 75 81 76
REMARK SMILES IDX 73 77 74 78 80 79 82 80 75 81 76 82 77 83 78 84 79 85 55 86
REMARK SMILES IDX 56 87 65 88 57 89 58 90 64 91 66 92 59 93 60 94 61 95 62 96
REMARK SMILES IDX 63 97
REMARK H PARENT 20 7 25 28 87 47 53 58
REMARK Flexibility Score: inf
ROOT
ATOM      1  C   UNL A   1      40.620  20.809  26.442  1.00  0.00     0.023 C 
ENDROOT
BRANCH   1   2
ATOM      2  C   UNL A   1      40.054  22.134  26.980  1.00  0.00     0.023 C 
BRANCH   2   3
ATOM      3  C   UNL A   1      38.958  22.798  26.137  1.00  0.00     0.116 C 
BRANCH   3   4
ATOM      4  N   UNL A   1      37.663  22.186  26.341  1.00  0.00    -0.355 N 
ATOM      5  O   UNL A   1      36.390  23.668  25.136  1.00  0.00    -0.273 OA
ATOM      6  C   UNL A   1      36.473  22.660  25.835  1.00  0.00     0.240 C 
ATOM      7  H   UNL A   1      37.630  21.365  26.886  1.00  0.00     0.163 HD
BRANCH   6   8
ATOM      8  C   UNL A   1      35.227  21.893  26.329  1.00  0.00     0.226 C 
BRANCH   8   9
ATOM      9  N   UNL A   1      34.076  21.897  25.436  1.00  0.00    -0.293 N 
ATOM     10  C   UNL A   1      33.090  22.875  25.431  1.00  0.00     0.036 A 
ATOM     11  C   UNL A   1      33.779  20.789  24.640  1.00  0.00     0.308 A 
ATOM     12  C   UNL A   1      32.112  22.655  24.538  1.00  0.00     0.030 A 
ATOM     13  C   UNL A   1      33.068  24.033  26.379  1.00  0.00     0.056 C 
ATOM     14  S   UNL A   1      32.325  21.151  23.704  1.00  0.00    -0.079 S 
ATOM     15  O   UNL A   1      34.382  19.735  24.591  1.00  0.00    -0.257 OA
ATOM     16  C   UNL A   1      30.960  23.578  24.293  1.00  0.00     0.057 C 
ATOM     17  C   UNL A   1      31.783  24.882  26.266  1.00  0.00     0.015 C 
ATOM     18  C   UNL A   1      31.256  25.017  24.815  1.00  0.00     0.025 C 
BRANCH  18  19
ATOM     19  C   UNL A   1      32.152  25.821  23.865  1.00  0.00    -0.045 A 
ATOM     20  C   UNL A   1      32.879  26.915  24.363  1.00  0.00     0.004 A 
ATOM     21  C   UNL A   1      32.295  25.522  22.500  1.00  0.00     0.004 A 
ATOM     22  C   UNL A   1      33.614  27.744  23.512  1.00  0.00     0.000 A 
ATOM     23  C   UNL A   1      33.014  26.359  21.644  1.00  0.00     0.000 A 
ATOM     24  C   UNL A   1      33.657  27.483  22.147  1.00  0.00     0.000 A 
ENDBRANCH  18  19
ENDBRANCH   8   9
ENDBRANCH   6   8
ENDBRANCH   3   4
ENDBRANCH   2   3
ENDBRANCH   1   2
BRANCH   1  25
ATOM     25  C   UNL A   1      41.895  20.331  27.124  1.00  0.00     0.116 C 
BRANCH  25  26
ATOM     26  N   UNL A   1      43.015  20.177  26.198  1.00  0.00    -0.352 N 
ATOM     27  C   UNL A   1      43.724  21.174  25.556  1.00  0.00     0.251 C 
ATOM     28  H   UNL A   1      43.297  19.253  26.010  1.00  0.00     0.163 HD
ATOM     29  O   UNL A   1      44.362  20.923  24.538  1.00  0.00    -0.269 OA
BRANCH  27  30
ATOM     30  C   UNL A   1      43.706  22.546  26.105  1.00  0.00     0.039 A 
ATOM     31  C   UNL A   1      43.006  23.571  25.462  1.00  0.00     0.014 A 
ATOM     32  C   UNL A   1      44.399  22.800  27.287  1.00  0.00     0.014 A 
ATOM     33  C   UNL A   1      42.937  24.828  26.065  1.00  0.00     0.010 A 
ATOM     34  C   UNL A   1      44.227  23.998  27.942  1.00  0.00     0.010 A 
ATOM     35  C   UNL A   1      43.529  25.031  27.322  1.00  0.00    -0.014 A 
BRANCH  35  36
ATOM     36  C   UNL A   1      43.258  26.254  28.087  1.00  0.00     0.031 A 
ATOM     37  C   UNL A   1      44.319  27.295  27.933  1.00  0.00     0.074 A 
ATOM     38  C   UNL A   1      42.056  26.524  28.650  1.00  0.00     0.049 A 
ATOM     39  N   UNL A   1      45.092  27.792  28.842  1.00  0.00    -0.248 NA
ATOM     40  C   UNL A   1      44.678  27.718  26.564  1.00  0.00     0.031 C 
ATOM     41  C   UNL A   1      40.840  25.703  28.585  1.00  0.00     0.029 A 
ATOM     42  N   UNL A   1      41.614  27.642  29.293  1.00  0.00    -0.354 N 
ATOM     43  C   UNL A   1      45.847  28.775  28.203  1.00  0.00     0.074 A 
ATOM     44  C   UNL A   1      45.715  28.527  26.794  1.00  0.00     0.031 C 
ATOM     45  C   UNL A   1      39.766  26.449  28.927  1.00  0.00     0.029 A 
ATOM     46  C   UNL A   1      40.223  27.744  29.392  1.00  0.00     0.049 A 
ATOM     47  H   UNL A   1      42.225  28.323  29.659  1.00  0.00     0.167 HD
ATOM     48  C   UNL A   1      46.275  29.879  28.878  1.00  0.00     0.037 A 
ATOM     49  C   UNL A   1      39.497  28.822  29.794  1.00  0.00     0.037 A 
ATOM     50  C   UNL A   1      46.213  29.661  30.303  1.00  0.00     0.049 A 
ATOM     51  C   UNL A   1      40.425  29.712  30.532  1.00  0.00     0.074 A 
ATOM     52  C   UNL A   1      46.771  28.755  31.183  1.00  0.00     0.029 A 
ATOM     53  N   UNL A   1      45.165  30.240  30.971  1.00  0.00    -0.354 N 
ATOM     54  N   UNL A   1      40.964  29.414  31.680  1.00  0.00    -0.248 NA
ATOM     55  C   UNL A   1      41.091  30.766  29.785  1.00  0.00     0.031 C 
ATOM     56  C   UNL A   1      45.758  28.510  32.156  1.00  0.00     0.029 A 
ATOM     57  C   UNL A   1      44.668  29.333  31.867  1.00  0.00     0.049 A 
ATOM     58  H   UNL A   1      44.826  31.154  30.830  1.00  0.00     0.167 HD
ATOM     59  C   UNL A   1      42.261  29.897  31.593  1.00  0.00     0.074 A 
ATOM     60  C   UNL A   1      42.243  30.817  30.457  1.00  0.00     0.031 C 
ATOM     61  C   UNL A   1      43.279  29.282  32.265  1.00  0.00     0.037 A 
BRANCH  48  62
ATOM     62  C   UNL A   1      46.325  31.279  28.287  1.00  0.00     0.058 A 
ATOM     63  C   UNL A   1      45.166  31.806  27.675  1.00  0.00     0.135 A 
ATOM     64  C   UNL A   1      47.515  31.997  28.029  1.00  0.00     0.135 A 
ATOM     65  F   UNL A   1      43.973  31.214  27.846  1.00  0.00    -0.206 F 
ATOM     66  C   UNL A   1      45.203  32.897  26.804  1.00  0.00     0.059 A 
ATOM     67  C   UNL A   1      47.565  33.118  27.208  1.00  0.00     0.059 A 
ATOM     68  F   UNL A   1      48.711  31.602  28.480  1.00  0.00    -0.206 F 
ATOM     69  C   UNL A   1      46.414  33.537  26.565  1.00  0.00     0.060 A 
BRANCH  69  70
ATOM     70  S   UNL A   1      46.487  34.891  25.380  1.00  0.00     0.124 S 
ATOM     71  O   UNL A   1      46.093  36.024  26.209  1.00  0.00    -0.237 OA
ATOM     72  O   UNL A   1      47.885  34.854  24.967  1.00  0.00    -0.237 OA
ATOM     73  O   UNL A   1      45.526  34.490  24.356  1.00  0.00    -0.744 OA
ENDBRANCH  69  70
ENDBRANCH  48  62
BRANCH  49  74
ATOM     74  C   UNL A   1      38.153  29.297  29.354  1.00  0.00     0.058 A 
ATOM     75  C   UNL A   1      37.123  29.528  30.290  1.00  0.00     0.135 A 
ATOM     76  C   UNL A   1      37.943  29.831  28.067  1.00  0.00     0.135 A 
ATOM     77  F   UNL A   1      37.234  29.061  31.544  1.00  0.00    -0.206 F 
ATOM     78  C   UNL A   1      35.997  30.307  29.994  1.00  0.00     0.059 A 
ATOM     79  C   UNL A   1      36.824  30.603  27.746  1.00  0.00     0.059 A 
ATOM     80  F   UNL A   1      38.870  29.703  27.107  1.00  0.00    -0.206 F 
ATOM     81  C   UNL A   1      35.871  30.867  28.724  1.00  0.00     0.060 A 
BRANCH  81  82
ATOM     82  S   UNL A   1      34.542  32.051  28.397  1.00  0.00     0.124 S 
ATOM     83  O   UNL A   1      34.145  32.444  29.744  1.00  0.00    -0.237 OA
ATOM     84  O   UNL A   1      35.221  33.073  27.608  1.00  0.00    -0.237 OA
ATOM     85  O   UNL A   1      33.556  31.259  27.663  1.00  0.00    -0.744 OA
ENDBRANCH  81  82
ENDBRANCH  49  74
BRANCH  61  86
ATOM     86  C   UNL A   1      42.921  28.342  33.388  1.00  0.00     0.058 A 
ATOM     87  C   UNL A   1      42.974  26.937  33.328  1.00  0.00     0.135 A 
ATOM     88  C   UNL A   1      42.603  28.914  34.629  1.00  0.00     0.135 A 
ATOM     89  F   UNL A   1      43.370  26.306  32.213  1.00  0.00    -0.206 F 
ATOM     90  C   UNL A   1      42.668  26.142  34.436  1.00  0.00     0.059 A 
ATOM     91  C   UNL A   1      42.332  28.144  35.754  1.00  0.00     0.059 A 
ATOM     92  F   UNL A   1      42.593  30.250  34.771  1.00  0.00    -0.206 F 
ATOM     93  C   UNL A   1      42.345  26.756  35.646  1.00  0.00     0.060 A 
BRANCH  93  94
ATOM     94  S   UNL A   1      41.981  25.736  37.089  1.00  0.00     0.124 S 
ATOM     95  O   UNL A   1      40.574  26.037  37.332  1.00  0.00    -0.237 OA
ATOM     96  O   UNL A   1      42.268  24.388  36.607  1.00  0.00    -0.237 OA
ATOM     97  O   UNL A   1      42.908  26.235  38.103  1.00  0.00    -0.744 OA
ENDBRANCH  93  94
ENDBRANCH  61  86
ENDBRANCH  35  36
ENDBRANCH  27  30
ENDBRANCH  25  26
ENDBRANCH   1  25
TORSDOF 16
ENDMDL
MODEL 3
REMARK VINA RESULT:     -12.3      1.329      2.092
REMARK SMILES O=C(Cn1c2c(sc1=O)C[C@H](c1ccccc1)CC2)NCCCCNC(=O)c1ccc(-c2c3nc(c(-c4c(F)cc(S(=O)(=O)[O-])cc4F)c4ccc([nH]4)c(-c4c(F)cc(S(=O)(=O)[O-])cc4F)c4nc(c(-c5c(F)cc(S(=O)(=O)[O-])cc5F)c5ccc2[nH]5)C=C4)C=C3)cc1
REMARK SMILES IDX 23 1 22 2 21 3 20 4 1 5 2 6 3 8 4 9 5 10 8 11 6 12 19 13
REMARK SMILES IDX 7 14 9 15 10 16 18 17 11 18 12 19 13 20 17 21 14 22 16 23
REMARK SMILES IDX 15 24 24 25 25 26 26 27 27 29 28 30 29 31 93 32 30 33 92 34
REMARK SMILES IDX 31 35 32 36 33 37 86 38 34 39 91 40 85 41 87 42 35 43 90 44
REMARK SMILES IDX 84 45 83 46 36 48 70 49 49 50 69 51 50 52 53 53 68 54 88 55
REMARK SMILES IDX 51 56 52 57 67 59 89 60 54 61 37 62 38 63 47 64 39 65 40 66
REMARK SMILES IDX 46 67 48 68 41 69 42 70 43 71 44 72 45 73 71 74 72 75 81 76
REMARK SMILES IDX 73 77 74 78 80 79 82 80 75 81 76 82 77 83 78 84 79 85 55 86
REMARK SMILES IDX 56 87 65 88 57 89 58 90 64 91 66 92 59 93 60 94 61 95 62 96
REMARK SMILES IDX 63 97
REMARK H PARENT 20 7 25 28 87 47 53 58
REMARK Flexibility Score: inf
ROOT
ATOM      1  C   UNL A   1      40.568  20.168  26.552  1.00  0.00     0.023 C 
ENDROOT
BRANCH   1   2
ATOM      2  C   UNL A   1      39.838  21.467  26.169  1.00  0.00     0.023 C 
BRANCH   2   3
ATOM      3  C   UNL A   1      38.524  21.306  25.394  1.00  0.00     0.116 C 
BRANCH   3   4
ATOM      4  N   UNL A   1      37.744  22.525  25.380  1.00  0.00    -0.355 N 
ATOM      5  O   UNL A   1      35.762  21.671  26.165  1.00  0.00    -0.273 OA
ATOM      6  C   UNL A   1      36.424  22.625  25.759  1.00  0.00     0.240 C 
ATOM      7  H   UNL A   1      38.193  23.347  25.075  1.00  0.00     0.163 HD
BRANCH   6   8
ATOM      8  C   UNL A   1      35.799  24.014  25.508  1.00  0.00     0.226 C 
BRANCH   8   9
ATOM      9  N   UNL A   1      34.661  24.052  24.599  1.00  0.00    -0.293 N 
ATOM     10  C   UNL A   1      33.352  24.298  24.990  1.00  0.00     0.036 A 
ATOM     11  C   UNL A   1      34.788  23.644  23.270  1.00  0.00     0.308 A 
ATOM     12  C   UNL A   1      32.468  24.259  23.980  1.00  0.00     0.030 A 
ATOM     13  C   UNL A   1      32.939  24.513  26.412  1.00  0.00     0.056 C 
ATOM     14  S   UNL A   1      33.218  23.822  22.480  1.00  0.00    -0.079 S 
ATOM     15  O   UNL A   1      35.786  23.215  22.724  1.00  0.00    -0.257 OA
ATOM     16  C   UNL A   1      31.004  24.537  24.119  1.00  0.00     0.057 C 
ATOM     17  C   UNL A   1      31.408  24.606  26.590  1.00  0.00     0.015 C 
ATOM     18  C   UNL A   1      30.693  25.334  25.423  1.00  0.00     0.025 C 
BRANCH  18  19
ATOM     19  C   UNL A   1      31.005  26.829  25.295  1.00  0.00    -0.045 A 
ATOM     20  C   UNL A   1      31.574  27.511  26.383  1.00  0.00     0.004 A 
ATOM     21  C   UNL A   1      30.752  27.573  24.130  1.00  0.00     0.004 A 
ATOM     22  C   UNL A   1      31.766  28.895  26.350  1.00  0.00     0.000 A 
ATOM     23  C   UNL A   1      30.926  28.958  24.101  1.00  0.00     0.000 A 
ATOM     24  C   UNL A   1      31.413  29.623  25.219  1.00  0.00     0.000 A 
ENDBRANCH  18  19
ENDBRANCH   8   9
ENDBRANCH   6   8
ENDBRANCH   3   4
ENDBRANCH   2   3
ENDBRANCH   1   2
BRANCH   1  25
ATOM     25  C   UNL A   1      41.913  20.365  27.240  1.00  0.00     0.116 C 
BRANCH  25  26
ATOM     26  N   UNL A   1      43.047  20.201  26.334  1.00  0.00    -0.352 N 
ATOM     27  C   UNL A   1      43.755  21.190  25.677  1.00  0.00     0.251 C 
ATOM     28  H   UNL A   1      43.341  19.276  26.171  1.00  0.00     0.163 HD
ATOM     29  O   UNL A   1      44.409  20.921  24.674  1.00  0.00    -0.269 OA
BRANCH  27  30
ATOM     30  C   UNL A   1      43.715  22.574  26.192  1.00  0.00     0.039 A 
ATOM     31  C   UNL A   1      42.846  23.523  25.644  1.00  0.00     0.014 A 
ATOM     32  C   UNL A   1      44.559  22.918  27.246  1.00  0.00     0.014 A 
ATOM     33  C   UNL A   1      42.774  24.791  26.222  1.00  0.00     0.010 A 
ATOM     34  C   UNL A   1      44.397  24.121  27.893  1.00  0.00     0.010 A 
ATOM     35  C   UNL A   1      43.534  25.079  27.367  1.00  0.00    -0.014 A 
BRANCH  35  36
ATOM     36  C   UNL A   1      43.290  26.304  28.138  1.00  0.00     0.031 A 
ATOM     37  C   UNL A   1      44.360  27.333  27.969  1.00  0.00     0.074 A 
ATOM     38  C   UNL A   1      42.101  26.586  28.721  1.00  0.00     0.049 A 
ATOM     39  N   UNL A   1      45.153  27.819  28.866  1.00  0.00    -0.248 NA
ATOM     40  C   UNL A   1      44.702  27.754  26.595  1.00  0.00     0.031 C 
ATOM     41  C   UNL A   1      40.874  25.780  28.675  1.00  0.00     0.029 A 
ATOM     42  N   UNL A   1      41.681  27.709  29.373  1.00  0.00    -0.354 N 
ATOM     43  C   UNL A   1      45.909  28.794  28.216  1.00  0.00     0.074 A 
ATOM     44  C   UNL A   1      45.751  28.550  26.809  1.00  0.00     0.031 C 
ATOM     45  C   UNL A   1      39.815  26.537  29.035  1.00  0.00     0.029 A 
ATOM     46  C   UNL A   1      40.294  27.827  29.495  1.00  0.00     0.049 A 
ATOM     47  H   UNL A   1      42.306  28.382  29.730  1.00  0.00     0.167 HD
ATOM     48  C   UNL A   1      46.361  29.892  28.885  1.00  0.00     0.037 A 
ATOM     49  C   UNL A   1      39.587  28.912  29.910  1.00  0.00     0.037 A 
ATOM     50  C   UNL A   1      46.320  29.672  30.311  1.00  0.00     0.049 A 
ATOM     51  C   UNL A   1      40.537  29.790  30.634  1.00  0.00     0.074 A 
ATOM     52  C   UNL A   1      46.882  28.759  31.181  1.00  0.00     0.029 A 
ATOM     53  N   UNL A   1      45.289  30.263  30.997  1.00  0.00    -0.354 N 
ATOM     54  N   UNL A   1      41.092  29.484  31.773  1.00  0.00    -0.248 NA
ATOM     55  C   UNL A   1      41.203  30.837  29.878  1.00  0.00     0.031 C 
ATOM     56  C   UNL A   1      45.881  28.524  32.169  1.00  0.00     0.029 A 
ATOM     57  C   UNL A   1      44.797  29.360  31.899  1.00  0.00     0.049 A 
ATOM     58  H   UNL A   1      44.959  31.181  30.863  1.00  0.00     0.167 HD
ATOM     59  C   UNL A   1      42.392  29.952  31.666  1.00  0.00     0.074 A 
ATOM     60  C   UNL A   1      42.366  30.874  30.531  1.00  0.00     0.031 C 
ATOM     61  C   UNL A   1      43.414  29.324  32.320  1.00  0.00     0.037 A 
BRANCH  48  62
ATOM     62  C   UNL A   1      46.418  31.293  28.296  1.00  0.00     0.058 A 
ATOM     63  C   UNL A   1      45.242  31.854  27.750  1.00  0.00     0.135 A 
ATOM     64  C   UNL A   1      47.611  31.978  27.974  1.00  0.00     0.135 A 
ATOM     65  F   UNL A   1      44.044  31.294  27.984  1.00  0.00    -0.206 F 
ATOM     66  C   UNL A   1      45.262  32.946  26.880  1.00  0.00     0.059 A 
ATOM     67  C   UNL A   1      47.648  33.101  27.154  1.00  0.00     0.059 A 
ATOM     68  F   UNL A   1      48.819  31.549  28.358  1.00  0.00    -0.206 F 
ATOM     69  C   UNL A   1      46.475  33.554  26.577  1.00  0.00     0.060 A 
BRANCH  69  70
ATOM     70  S   UNL A   1      46.521  34.909  25.393  1.00  0.00     0.124 S 
ATOM     71  O   UNL A   1      47.909  34.863  24.951  1.00  0.00    -0.237 OA
ATOM     72  O   UNL A   1      45.522  34.490  24.416  1.00  0.00    -0.237 OA
ATOM     73  O   UNL A   1      46.152  36.069  26.199  1.00  0.00    -0.744 OA
ENDBRANCH  69  70
ENDBRANCH  48  62
BRANCH  49  74
ATOM     74  C   UNL A   1      38.241  29.404  29.492  1.00  0.00     0.058 A 
ATOM     75  C   UNL A   1      37.264  29.743  30.451  1.00  0.00     0.135 A 
ATOM     76  C   UNL A   1      37.992  29.846  28.179  1.00  0.00     0.135 A 
ATOM     77  F   UNL A   1      37.415  29.369  31.731  1.00  0.00    -0.206 F 
ATOM     78  C   UNL A   1      36.154  30.540  30.144  1.00  0.00     0.059 A 
ATOM     79  C   UNL A   1      36.887  30.634  27.847  1.00  0.00     0.059 A 
ATOM     80  F   UNL A   1      38.869  29.611  27.193  1.00  0.00    -0.206 F 
ATOM     81  C   UNL A   1      35.989  31.007  28.842  1.00  0.00     0.060 A 
BRANCH  81  82
ATOM     82  S   UNL A   1      34.688  32.213  28.481  1.00  0.00     0.124 S 
ATOM     83  O   UNL A   1      35.363  33.125  27.566  1.00  0.00    -0.237 OA
ATOM     84  O   UNL A   1      33.644  31.379  27.897  1.00  0.00    -0.237 OA
ATOM     85  O   UNL A   1      34.370  32.769  29.796  1.00  0.00    -0.744 OA
ENDBRANCH  81  82
ENDBRANCH  49  74
BRANCH  61  86
ATOM     86  C   UNL A   1      43.063  28.386  33.447  1.00  0.00     0.058 A 
ATOM     87  C   UNL A   1      42.662  28.774  34.739  1.00  0.00     0.135 A 
ATOM     88  C   UNL A   1      43.035  27.014  33.157  1.00  0.00     0.135 A 
ATOM     89  F   UNL A   1      42.558  30.069  35.073  1.00  0.00    -0.206 F 
ATOM     90  C   UNL A   1      42.310  27.835  35.712  1.00  0.00     0.059 A 
ATOM     91  C   UNL A   1      42.652  26.064  34.098  1.00  0.00     0.059 A 
ATOM     92  F   UNL A   1      43.349  26.579  31.925  1.00  0.00    -0.206 F 
ATOM     93  C   UNL A   1      42.311  26.480  35.381  1.00  0.00     0.060 A 
BRANCH  93  94
ATOM     94  S   UNL A   1      41.823  25.264  36.623  1.00  0.00     0.124 S 
ATOM     95  O   UNL A   1      43.023  25.172  37.450  1.00  0.00    -0.237 OA
ATOM     96  O   UNL A   1      40.666  25.896  37.251  1.00  0.00    -0.237 OA
ATOM     97  O   UNL A   1      41.519  24.072  35.834  1.00  0.00    -0.744 OA
ENDBRANCH  93  94
ENDBRANCH  61  86
ENDBRANCH  35  36
ENDBRANCH  27  30
ENDBRANCH  25  26
ENDBRANCH   1  25
TORSDOF 16
ENDMDL
