MODEL 1
REMARK VINA RESULT:     -11.3      0.000      0.000
REMARK SMILES [NH3+][C@]1(C(=O)NCCCCNC(=O)c2ccc(-c3c4nc(c(-c5c(F)cc(S(=O)(=O)[O-])cc5F)c5ccc([nH]5)c(-c5c(F)cc(S(=O)(=O)[O-])cc5F)c5nc(c(-c6c(F)cc(S(=O)(=O)[O-])cc6F)c6ccc3[nH]6)C=C5)C=C4)cc2)CC[C@H](Oc2ccccc2[N+](=O)[O-])C1
REMARK SMILES IDX 7 1 6 2 5 3 3 4 4 5 2 7 79 8 92 9 80 10 81 11 1 12 82 16
REMARK SMILES IDX 83 17 84 18 88 19 85 20 87 21 86 22 89 23 90 24 91 25 8 26
REMARK SMILES IDX 9 27 10 28 11 29 12 31 13 32 14 33 78 34 15 35 77 36 16 37
REMARK SMILES IDX 17 38 18 39 71 40 19 41 76 42 70 43 72 44 20 45 75 46 69 47
REMARK SMILES IDX 68 48 21 50 55 51 34 52 54 53 35 54 38 55 53 56 73 57 36 58
REMARK SMILES IDX 37 59 52 61 74 62 39 63 22 64 23 65 32 66 24 67 25 68 31 69
REMARK SMILES IDX 33 70 26 71 27 72 28 73 29 74 30 75 56 76 57 77 66 78 58 79
REMARK SMILES IDX 59 80 65 81 67 82 60 83 61 84 62 85 63 86 64 87 40 88 41 89
REMARK SMILES IDX 50 90 42 91 43 92 49 93 51 94 44 95 45 96 46 97 47 98 48 99
REMARK H PARENT 5 6 1 13 1 14 1 15 10 30 72 49 38 60
REMARK Flexibility Score: inf
ROOT
ATOM      1  C   UNL A   1      31.798  27.799  25.421  1.00  0.00     0.023 C 
ENDROOT
BRANCH   1   2
ATOM      2  C   UNL A   1      30.642  26.890  25.019  1.00  0.00     0.116 C 
BRANCH   2   3
ATOM      3  N   UNL A   1      30.261  25.974  26.080  1.00  0.00    -0.351 N 
ATOM      4  C   UNL A   1      30.529  24.637  26.192  1.00  0.00     0.281 C 
ATOM      5  O   UNL A   1      30.237  24.074  27.249  1.00  0.00    -0.268 OA
ATOM      6  H   UNL A   1      29.742  26.368  26.817  1.00  0.00     0.163 HD
BRANCH   4   7
ATOM      7  C   UNL A   1      31.149  23.863  25.001  1.00  0.00     0.177 C 
ATOM      8  C   UNL A   1      30.710  24.445  23.651  1.00  0.00     0.083 C 
ATOM      9  C   UNL A   1      32.672  24.081  24.928  1.00  0.00     0.124 C 
ATOM     10  C   UNL A   1      31.745  23.913  22.670  1.00  0.00     0.052 C 
ATOM     11  C   UNL A   1      33.065  23.859  23.456  1.00  0.00     0.180 C 
BRANCH   7  12
ATOM     12  N   UNL A   1      30.763  22.436  25.061  1.00  0.00    -0.345 N 
ATOM     13  H   UNL A   1      31.488  21.908  25.546  1.00  0.00     0.345 HD
ATOM     14  H   UNL A   1      30.655  22.073  24.113  1.00  0.00     0.345 HD
ATOM     15  H   UNL A   1      29.880  22.342  25.563  1.00  0.00     0.345 HD
ENDBRANCH   7  12
BRANCH  11  16
ATOM     16  O   UNL A   1      33.685  22.571  23.385  1.00  0.00    -0.483 OA
BRANCH  16  17
ATOM     17  C   UNL A   1      34.885  22.336  23.988  1.00  0.00     0.197 A 
ATOM     18  C   UNL A   1      35.998  23.173  23.843  1.00  0.00     0.054 A 
ATOM     19  C   UNL A   1      35.048  21.138  24.707  1.00  0.00     0.310 A 
ATOM     20  C   UNL A   1      37.256  22.787  24.317  1.00  0.00     0.004 A 
ATOM     21  C   UNL A   1      36.315  20.750  25.182  1.00  0.00     0.090 A 
ATOM     22  C   UNL A   1      37.421  21.568  24.966  1.00  0.00     0.007 A 
BRANCH  19  23
ATOM     23  N   UNL A   1      33.910  20.261  25.016  1.00  0.00     0.066 N 
ATOM     24  O   UNL A   1      33.915  19.128  24.506  1.00  0.00    -0.258 OA
ATOM     25  O   UNL A   1      33.042  20.660  25.804  1.00  0.00    -0.258 OA
ENDBRANCH  19  23
ENDBRANCH  16  17
ENDBRANCH  11  16
ENDBRANCH   4   7
ENDBRANCH   2   3
ENDBRANCH   1   2
BRANCH   1  26
ATOM     26  C   UNL A   1      32.097  27.842  26.917  1.00  0.00     0.023 C 
BRANCH  26  27
ATOM     27  C   UNL A   1      33.460  28.413  27.296  1.00  0.00     0.116 C 
BRANCH  27  28
ATOM     28  N   UNL A   1      33.416  29.829  27.631  1.00  0.00    -0.352 N 
ATOM     29  C   UNL A   1      34.399  30.625  28.169  1.00  0.00     0.251 C 
ATOM     30  H   UNL A   1      32.561  30.281  27.446  1.00  0.00     0.163 HD
ATOM     31  O   UNL A   1      34.143  31.780  28.502  1.00  0.00    -0.269 OA
BRANCH  29  32
ATOM     32  C   UNL A   1      35.755  30.075  28.377  1.00  0.00     0.039 A 
ATOM     33  C   UNL A   1      36.658  30.081  27.310  1.00  0.00     0.014 A 
ATOM     34  C   UNL A   1      36.146  29.585  29.626  1.00  0.00     0.014 A 
ATOM     35  C   UNL A   1      37.976  29.668  27.518  1.00  0.00     0.010 A 
ATOM     36  C   UNL A   1      37.477  29.245  29.849  1.00  0.00     0.010 A 
ATOM     37  C   UNL A   1      38.407  29.287  28.799  1.00  0.00    -0.014 A 
BRANCH  37  38
ATOM     38  C   UNL A   1      39.828  28.941  29.064  1.00  0.00     0.031 A 
ATOM     39  C   UNL A   1      40.760  29.971  29.643  1.00  0.00     0.074 A 
ATOM     40  C   UNL A   1      40.295  27.725  28.714  1.00  0.00     0.049 A 
ATOM     41  N   UNL A   1      42.046  29.886  29.869  1.00  0.00    -0.248 NA
ATOM     42  C   UNL A   1      40.177  31.278  29.989  1.00  0.00     0.031 C 
ATOM     43  C   UNL A   1      39.504  26.658  28.098  1.00  0.00     0.029 A 
ATOM     44  N   UNL A   1      41.552  27.184  28.817  1.00  0.00    -0.354 N 
ATOM     45  C   UNL A   1      42.428  31.129  30.360  1.00  0.00     0.074 A 
ATOM     46  C   UNL A   1      41.248  31.966  30.360  1.00  0.00     0.031 C 
ATOM     47  C   UNL A   1      40.287  25.585  27.899  1.00  0.00     0.029 A 
ATOM     48  C   UNL A   1      41.644  25.898  28.336  1.00  0.00     0.049 A 
ATOM     49  H   UNL A   1      42.318  27.671  29.198  1.00  0.00     0.167 HD
ATOM     50  C   UNL A   1      43.648  31.530  30.792  1.00  0.00     0.037 A 
ATOM     51  C   UNL A   1      42.702  25.068  28.250  1.00  0.00     0.037 A 
ATOM     52  C   UNL A   1      44.810  30.680  30.829  1.00  0.00     0.049 A 
ATOM     53  C   UNL A   1      44.043  25.537  28.746  1.00  0.00     0.074 A 
ATOM     54  C   UNL A   1      46.070  30.971  31.322  1.00  0.00     0.029 A 
ATOM     55  N   UNL A   1      44.855  29.377  30.358  1.00  0.00    -0.354 N 
ATOM     56  N   UNL A   1      44.370  26.693  29.274  1.00  0.00    -0.248 NA
ATOM     57  C   UNL A   1      45.161  24.588  28.640  1.00  0.00     0.031 C 
ATOM     58  C   UNL A   1      46.889  29.857  31.111  1.00  0.00     0.029 A 
ATOM     59  C   UNL A   1      46.126  28.856  30.530  1.00  0.00     0.049 A 
ATOM     60  H   UNL A   1      44.095  28.893  29.961  1.00  0.00     0.167 HD
ATOM     61  C   UNL A   1      45.720  26.597  29.592  1.00  0.00     0.074 A 
ATOM     62  C   UNL A   1      46.148  25.269  29.206  1.00  0.00     0.031 C 
ATOM     63  C   UNL A   1      46.532  27.525  30.154  1.00  0.00     0.037 A 
BRANCH  50  64
ATOM     64  C   UNL A   1      43.793  32.948  31.269  1.00  0.00     0.058 A 
ATOM     65  C   UNL A   1      44.236  33.972  30.416  1.00  0.00     0.135 A 
ATOM     66  C   UNL A   1      43.429  33.299  32.580  1.00  0.00     0.135 A 
ATOM     67  F   UNL A   1      44.612  33.688  29.159  1.00  0.00    -0.206 F 
ATOM     68  C   UNL A   1      44.331  35.290  30.850  1.00  0.00     0.059 A 
ATOM     69  C   UNL A   1      43.490  34.616  33.027  1.00  0.00     0.059 A 
ATOM     70  F   UNL A   1      43.001  32.361  33.437  1.00  0.00    -0.206 F 
ATOM     71  C   UNL A   1      43.953  35.603  32.157  1.00  0.00     0.060 A 
BRANCH  71  72
ATOM     72  S   UNL A   1      44.057  37.323  32.695  1.00  0.00     0.124 S 
ATOM     73  O   UNL A   1      45.430  37.391  33.187  1.00  0.00    -0.237 OA
ATOM     74  O   UNL A   1      43.790  38.053  31.460  1.00  0.00    -0.237 OA
ATOM     75  O   UNL A   1      43.019  37.423  33.716  1.00  0.00    -0.744 OA
ENDBRANCH  71  72
ENDBRANCH  50  64
BRANCH  51  76
ATOM     76  C   UNL A   1      42.539  23.700  27.690  1.00  0.00     0.058 A 
ATOM     77  C   UNL A   1      42.396  22.590  28.537  1.00  0.00     0.135 A 
ATOM     78  C   UNL A   1      42.536  23.469  26.307  1.00  0.00     0.135 A 
ATOM     79  F   UNL A   1      42.398  22.758  29.868  1.00  0.00    -0.206 F 
ATOM     80  C   UNL A   1      42.284  21.298  28.034  1.00  0.00     0.059 A 
ATOM     81  C   UNL A   1      42.400  22.189  25.778  1.00  0.00     0.059 A 
ATOM     82  F   UNL A   1      42.652  24.499  25.453  1.00  0.00    -0.206 F 
ATOM     83  C   UNL A   1      42.290  21.107  26.651  1.00  0.00     0.060 A 
BRANCH  83  84
ATOM     84  S   UNL A   1      42.121  19.429  26.006  1.00  0.00     0.124 S 
ATOM     85  O   UNL A   1      40.684  19.347  25.774  1.00  0.00    -0.237 OA
ATOM     86  O   UNL A   1      42.959  19.473  24.811  1.00  0.00    -0.237 OA
ATOM     87  O   UNL A   1      42.635  18.600  27.092  1.00  0.00    -0.744 OA
ENDBRANCH  83  84
ENDBRANCH  51  76
BRANCH  63  88
ATOM     88  C   UNL A   1      47.956  27.126  30.429  1.00  0.00     0.058 A 
ATOM     89  C   UNL A   1      48.958  27.252  29.456  1.00  0.00     0.135 A 
ATOM     90  C   UNL A   1      48.329  26.663  31.702  1.00  0.00     0.135 A 
ATOM     91  F   UNL A   1      48.652  27.683  28.222  1.00  0.00    -0.206 F 
ATOM     92  C   UNL A   1      50.279  26.911  29.727  1.00  0.00     0.059 A 
ATOM     93  C   UNL A   1      49.649  26.343  32.002  1.00  0.00     0.059 A 
ATOM     94  F   UNL A   1      47.410  26.536  32.671  1.00  0.00    -0.206 F 
ATOM     95  C   UNL A   1      50.615  26.459  31.004  1.00  0.00     0.060 A 
BRANCH  95  96
ATOM     96  S   UNL A   1      52.340  26.054  31.355  1.00  0.00     0.124 S 
ATOM     97  O   UNL A   1      52.680  27.064  32.352  1.00  0.00    -0.237 OA
ATOM     98  O   UNL A   1      52.246  24.683  31.847  1.00  0.00    -0.237 OA
ATOM     99  O   UNL A   1      52.995  26.206  30.059  1.00  0.00    -0.744 OA
ENDBRANCH  95  96
ENDBRANCH  63  88
ENDBRANCH  37  38
ENDBRANCH  29  32
ENDBRANCH  27  28
ENDBRANCH  26  27
ENDBRANCH   1  26
TORSDOF 18
ENDMDL
MODEL 2
REMARK VINA RESULT:     -10.8      4.140     10.866
REMARK SMILES [NH3+][C@]1(C(=O)NCCCCNC(=O)c2ccc(-c3c4nc(c(-c5c(F)cc(S(=O)(=O)[O-])cc5F)c5ccc([nH]5)c(-c5c(F)cc(S(=O)(=O)[O-])cc5F)c5nc(c(-c6c(F)cc(S(=O)(=O)[O-])cc6F)c6ccc3[nH]6)C=C5)C=C4)cc2)CC[C@H](Oc2ccccc2[N+](=O)[O-])C1
REMARK SMILES IDX 7 1 6 2 5 3 3 4 4 5 2 7 79 8 92 9 80 10 81 11 1 12 82 16
REMARK SMILES IDX 83 17 84 18 88 19 85 20 87 21 86 22 89 23 90 24 91 25 8 26
REMARK SMILES IDX 9 27 10 28 11 29 12 31 13 32 14 33 78 34 15 35 77 36 16 37
REMARK SMILES IDX 17 38 18 39 71 40 19 41 76 42 70 43 72 44 20 45 75 46 69 47
REMARK SMILES IDX 68 48 21 50 55 51 34 52 54 53 35 54 38 55 53 56 73 57 36 58
REMARK SMILES IDX 37 59 52 61 74 62 39 63 22 64 23 65 32 66 24 67 25 68 31 69
REMARK SMILES IDX 33 70 26 71 27 72 28 73 29 74 30 75 56 76 57 77 66 78 58 79
REMARK SMILES IDX 59 80 65 81 67 82 60 83 61 84 62 85 63 86 64 87 40 88 41 89
REMARK SMILES IDX 50 90 42 91 43 92 49 93 51 94 44 95 45 96 46 97 47 98 48 99
REMARK H PARENT 5 6 1 13 1 14 1 15 10 30 72 49 38 60
REMARK Flexibility Score: inf
ROOT
ATOM      1  C   UNL A   1      42.202  19.536  27.190  1.00  0.00     0.023 C 
ENDROOT
BRANCH   1   2
ATOM      2  C   UNL A   1      42.608  19.574  25.720  1.00  0.00     0.116 C 
BRANCH   2   3
ATOM      3  N   UNL A   1      43.794  18.779  25.451  1.00  0.00    -0.351 N 
ATOM      4  C   UNL A   1      45.045  19.204  25.098  1.00  0.00     0.281 C 
ATOM      5  O   UNL A   1      45.951  18.368  25.058  1.00  0.00    -0.268 OA
ATOM      6  H   UNL A   1      43.682  17.805  25.535  1.00  0.00     0.163 HD
BRANCH   4   7
ATOM      7  C   UNL A   1      45.289  20.689  24.728  1.00  0.00     0.177 C 
ATOM      8  C   UNL A   1      44.415  21.136  23.549  1.00  0.00     0.083 C 
ATOM      9  C   UNL A   1      44.781  21.629  25.837  1.00  0.00     0.124 C 
ATOM     10  C   UNL A   1      44.421  22.654  23.645  1.00  0.00     0.052 C 
ATOM     11  C   UNL A   1      44.466  22.970  25.148  1.00  0.00     0.180 C 
BRANCH   7  12
ATOM     12  N   UNL A   1      46.712  20.904  24.384  1.00  0.00    -0.345 N 
ATOM     13  H   UNL A   1      47.242  20.056  24.582  1.00  0.00     0.345 HD
ATOM     14  H   UNL A   1      47.084  21.674  24.941  1.00  0.00     0.345 HD
ATOM     15  H   UNL A   1      46.793  21.132  23.393  1.00  0.00     0.345 HD
ENDBRANCH   7  12
BRANCH  11  16
ATOM     16  O   UNL A   1      45.532  23.864  25.482  1.00  0.00    -0.483 OA
BRANCH  16  17
ATOM     17  C   UNL A   1      45.277  25.145  25.877  1.00  0.00     0.197 A 
ATOM     18  C   UNL A   1      44.312  25.960  25.274  1.00  0.00     0.054 A 
ATOM     19  C   UNL A   1      46.094  25.712  26.871  1.00  0.00     0.310 A 
ATOM     20  C   UNL A   1      44.226  27.322  25.582  1.00  0.00     0.004 A 
ATOM     21  C   UNL A   1      46.008  27.083  27.179  1.00  0.00     0.090 A 
ATOM     22  C   UNL A   1      45.086  27.889  26.516  1.00  0.00     0.007 A 
BRANCH  19  23
ATOM     23  N   UNL A   1      47.047  24.902  27.645  1.00  0.00     0.066 N 
ATOM     24  O   UNL A   1      48.108  24.588  27.082  1.00  0.00    -0.258 OA
ATOM     25  O   UNL A   1      46.780  24.625  28.821  1.00  0.00    -0.258 OA
ENDBRANCH  19  23
ENDBRANCH  16  17
ENDBRANCH  11  16
ENDBRANCH   4   7
ENDBRANCH   2   3
ENDBRANCH   1   2
BRANCH   1  26
ATOM     26  C   UNL A   1      41.172  20.584  27.602  1.00  0.00     0.023 C 
BRANCH  26  27
ATOM     27  C   UNL A   1      41.103  21.821  26.713  1.00  0.00     0.116 C 
BRANCH  27  28
ATOM     28  N   UNL A   1      39.853  21.929  25.975  1.00  0.00    -0.352 N 
ATOM     29  C   UNL A   1      38.954  22.969  25.936  1.00  0.00     0.251 C 
ATOM     30  H   UNL A   1      39.616  21.146  25.427  1.00  0.00     0.163 HD
ATOM     31  O   UNL A   1      37.882  22.835  25.351  1.00  0.00    -0.269 OA
BRANCH  29  32
ATOM     32  C   UNL A   1      39.269  24.235  26.630  1.00  0.00     0.039 A 
ATOM     33  C   UNL A   1      38.781  24.436  27.924  1.00  0.00     0.014 A 
ATOM     34  C   UNL A   1      40.067  25.207  26.021  1.00  0.00     0.014 A 
ATOM     35  C   UNL A   1      39.159  25.577  28.636  1.00  0.00     0.010 A 
ATOM     36  C   UNL A   1      40.502  26.305  26.758  1.00  0.00     0.010 A 
ATOM     37  C   UNL A   1      40.057  26.500  28.074  1.00  0.00    -0.014 A 
BRANCH  37  38
ATOM     38  C   UNL A   1      40.552  27.667  28.849  1.00  0.00     0.031 A 
ATOM     39  C   UNL A   1      41.920  27.633  29.474  1.00  0.00     0.074 A 
ATOM     40  C   UNL A   1      39.741  28.725  29.053  1.00  0.00     0.049 A 
ATOM     41  N   UNL A   1      42.495  28.514  30.252  1.00  0.00    -0.248 NA
ATOM     42  C   UNL A   1      42.742  26.438  29.215  1.00  0.00     0.031 C 
ATOM     43  C   UNL A   1      38.373  28.856  28.543  1.00  0.00     0.029 A 
ATOM     44  N   UNL A   1      39.942  29.889  29.753  1.00  0.00    -0.354 N 
ATOM     45  C   UNL A   1      43.730  27.974  30.591  1.00  0.00     0.074 A 
ATOM     46  C   UNL A   1      43.806  26.669  29.971  1.00  0.00     0.031 C 
ATOM     47  C   UNL A   1      37.870  30.041  28.926  1.00  0.00     0.029 A 
ATOM     48  C   UNL A   1      38.860  30.738  29.742  1.00  0.00     0.049 A 
ATOM     49  H   UNL A   1      40.784  30.096  30.220  1.00  0.00     0.167 HD
ATOM     50  C   UNL A   1      44.719  28.525  31.334  1.00  0.00     0.037 A 
ATOM     51  C   UNL A   1      38.682  31.938  30.327  1.00  0.00     0.037 A 
ATOM     52  C   UNL A   1      44.655  29.841  31.914  1.00  0.00     0.049 A 
ATOM     53  C   UNL A   1      39.802  32.530  31.140  1.00  0.00     0.074 A 
ATOM     54  C   UNL A   1      45.636  30.517  32.618  1.00  0.00     0.029 A 
ATOM     55  N   UNL A   1      43.552  30.679  31.858  1.00  0.00    -0.354 N 
ATOM     56  N   UNL A   1      40.991  32.035  31.390  1.00  0.00    -0.248 NA
ATOM     57  C   UNL A   1      39.560  33.847  31.747  1.00  0.00     0.031 C 
ATOM     58  C   UNL A   1      45.113  31.749  33.022  1.00  0.00     0.029 A 
ATOM     59  C   UNL A   1      43.821  31.859  32.531  1.00  0.00     0.049 A 
ATOM     60  H   UNL A   1      42.704  30.469  31.406  1.00  0.00     0.167 HD
ATOM     61  C   UNL A   1      41.649  32.993  32.154  1.00  0.00     0.074 A 
ATOM     62  C   UNL A   1      40.729  34.100  32.319  1.00  0.00     0.031 C 
ATOM     63  C   UNL A   1      42.901  32.959  32.672  1.00  0.00     0.037 A 
BRANCH  50  64
ATOM     64  C   UNL A   1      45.964  27.712  31.559  1.00  0.00     0.058 A 
ATOM     65  C   UNL A   1      47.110  27.884  30.767  1.00  0.00     0.135 A 
ATOM     66  C   UNL A   1      46.032  26.792  32.618  1.00  0.00     0.135 A 
ATOM     67  F   UNL A   1      47.094  28.739  29.732  1.00  0.00    -0.206 F 
ATOM     68  C   UNL A   1      48.273  27.159  31.003  1.00  0.00     0.059 A 
ATOM     69  C   UNL A   1      47.194  26.075  32.890  1.00  0.00     0.059 A 
ATOM     70  F   UNL A   1      44.965  26.587  33.406  1.00  0.00    -0.206 F 
ATOM     71  C   UNL A   1      48.306  26.258  32.070  1.00  0.00     0.060 A 
BRANCH  71  72
ATOM     72  S   UNL A   1      49.832  25.345  32.379  1.00  0.00     0.124 S 
ATOM     73  O   UNL A   1      50.694  26.394  32.916  1.00  0.00    -0.237 OA
ATOM     74  O   UNL A   1      49.401  24.330  33.335  1.00  0.00    -0.237 OA
ATOM     75  O   UNL A   1      50.203  24.843  31.060  1.00  0.00    -0.744 OA
ENDBRANCH  71  72
ENDBRANCH  50  64
BRANCH  51  76
ATOM     76  C   UNL A   1      37.402  32.675  30.154  1.00  0.00     0.058 A 
ATOM     77  C   UNL A   1      36.321  32.449  31.020  1.00  0.00     0.135 A 
ATOM     78  C   UNL A   1      37.225  33.605  29.119  1.00  0.00     0.135 A 
ATOM     79  F   UNL A   1      36.438  31.565  32.022  1.00  0.00    -0.206 F 
ATOM     80  C   UNL A   1      35.102  33.097  30.849  1.00  0.00     0.059 A 
ATOM     81  C   UNL A   1      36.024  34.285  28.944  1.00  0.00     0.059 A 
ATOM     82  F   UNL A   1      38.234  33.871  28.275  1.00  0.00    -0.206 F 
ATOM     83  C   UNL A   1      34.962  34.013  29.805  1.00  0.00     0.060 A 
BRANCH  83  84
ATOM     84  S   UNL A   1      33.383  34.867  29.605  1.00  0.00     0.124 S 
ATOM     85  O   UNL A   1      32.865  34.848  30.968  1.00  0.00    -0.237 OA
ATOM     86  O   UNL A   1      33.801  36.171  29.099  1.00  0.00    -0.237 OA
ATOM     87  O   UNL A   1      32.670  34.030  28.645  1.00  0.00    -0.744 OA
ENDBRANCH  83  84
ENDBRANCH  51  76
BRANCH  63  88
ATOM     88  C   UNL A   1      43.370  34.171  33.429  1.00  0.00     0.058 A 
ATOM     89  C   UNL A   1      43.247  34.264  34.823  1.00  0.00     0.135 A 
ATOM     90  C   UNL A   1      44.003  35.228  32.752  1.00  0.00     0.135 A 
ATOM     91  F   UNL A   1      42.645  33.284  35.515  1.00  0.00    -0.206 F 
ATOM     92  C   UNL A   1      43.714  35.374  35.520  1.00  0.00     0.059 A 
ATOM     93  C   UNL A   1      44.501  36.334  33.433  1.00  0.00     0.059 A 
ATOM     94  F   UNL A   1      44.156  35.181  31.420  1.00  0.00    -0.206 F 
ATOM     95  C   UNL A   1      44.341  36.403  34.816  1.00  0.00     0.060 A 
BRANCH  95  96
ATOM     96  S   UNL A   1      44.975  37.822  35.736  1.00  0.00     0.124 S 
ATOM     97  O   UNL A   1      43.970  37.965  36.783  1.00  0.00    -0.237 OA
ATOM     98  O   UNL A   1      46.286  37.350  36.173  1.00  0.00    -0.237 OA
ATOM     99  O   UNL A   1      45.000  38.888  34.739  1.00  0.00    -0.744 OA
ENDBRANCH  95  96
ENDBRANCH  63  88
ENDBRANCH  37  38
ENDBRANCH  29  32
ENDBRANCH  27  28
ENDBRANCH  26  27
ENDBRANCH   1  26
TORSDOF 18
ENDMDL
MODEL 3
REMARK VINA RESULT:     -10.7      3.308      9.216
REMARK SMILES [NH3+][C@]1(C(=O)NCCCCNC(=O)c2ccc(-c3c4nc(c(-c5c(F)cc(S(=O)(=O)[O-])cc5F)c5ccc([nH]5)c(-c5c(F)cc(S(=O)(=O)[O-])cc5F)c5nc(c(-c6c(F)cc(S(=O)(=O)[O-])cc6F)c6ccc3[nH]6)C=C5)C=C4)cc2)CC[C@H](Oc2ccccc2[N+](=O)[O-])C1
REMARK SMILES IDX 7 1 6 2 5 3 3 4 4 5 2 7 79 8 92 9 80 10 81 11 1 12 82 16
REMARK SMILES IDX 83 17 84 18 88 19 85 20 87 21 86 22 89 23 90 24 91 25 8 26
REMARK SMILES IDX 9 27 10 28 11 29 12 31 13 32 14 33 78 34 15 35 77 36 16 37
REMARK SMILES IDX 17 38 18 39 71 40 19 41 76 42 70 43 72 44 20 45 75 46 69 47
REMARK SMILES IDX 68 48 21 50 55 51 34 52 54 53 35 54 38 55 53 56 73 57 36 58
REMARK SMILES IDX 37 59 52 61 74 62 39 63 22 64 23 65 32 66 24 67 25 68 31 69
REMARK SMILES IDX 33 70 26 71 27 72 28 73 29 74 30 75 56 76 57 77 66 78 58 79
REMARK SMILES IDX 59 80 65 81 67 82 60 83 61 84 62 85 63 86 64 87 40 88 41 89
REMARK SMILES IDX 50 90 42 91 43 92 49 93 51 94 44 95 45 96 46 97 47 98 48 99
REMARK H PARENT 5 6 1 13 1 14 1 15 10 30 72 49 38 60
REMARK Flexibility Score: inf
ROOT
ATOM      1  C   UNL A   1      37.422  21.569  24.574  1.00  0.00     0.023 C 
ENDROOT
BRANCH   1   2
ATOM      2  C   UNL A   1      35.898  21.505  24.618  1.00  0.00     0.116 C 
BRANCH   2   3
ATOM      3  N   UNL A   1      35.392  21.222  25.950  1.00  0.00    -0.351 N 
ATOM      4  C   UNL A   1      34.303  21.757  26.581  1.00  0.00     0.281 C 
ATOM      5  O   UNL A   1      33.963  21.269  27.662  1.00  0.00    -0.268 OA
ATOM      6  H   UNL A   1      35.901  20.556  26.466  1.00  0.00     0.163 HD
BRANCH   4   7
ATOM      7  C   UNL A   1      33.554  22.962  25.959  1.00  0.00     0.177 C 
ATOM      8  C   UNL A   1      32.417  23.457  26.862  1.00  0.00     0.083 C 
ATOM      9  C   UNL A   1      34.452  24.212  25.914  1.00  0.00     0.124 C 
ATOM     10  C   UNL A   1      32.136  24.864  26.358  1.00  0.00     0.052 C 
ATOM     11  C   UNL A   1      33.499  25.422  25.919  1.00  0.00     0.180 C 
BRANCH   7  12
ATOM     12  N   UNL A   1      32.998  22.593  24.638  1.00  0.00    -0.345 N 
ATOM     13  H   UNL A   1      32.519  21.695  24.710  1.00  0.00     0.345 HD
ATOM     14  H   UNL A   1      33.755  22.522  23.958  1.00  0.00     0.345 HD
ATOM     15  H   UNL A   1      32.335  23.307  24.336  1.00  0.00     0.345 HD
ENDBRANCH   7  12
BRANCH  11  16
ATOM     16  O   UNL A   1      33.472  25.930  24.582  1.00  0.00    -0.483 OA
BRANCH  16  17
ATOM     17  C   UNL A   1      32.525  26.830  24.191  1.00  0.00     0.197 A 
ATOM     18  C   UNL A   1      32.451  28.136  24.689  1.00  0.00     0.054 A 
ATOM     19  C   UNL A   1      31.508  26.395  23.322  1.00  0.00     0.310 A 
ATOM     20  C   UNL A   1      31.350  28.953  24.408  1.00  0.00     0.004 A 
ATOM     21  C   UNL A   1      30.400  27.218  23.041  1.00  0.00     0.090 A 
ATOM     22  C   UNL A   1      30.316  28.488  23.604  1.00  0.00     0.007 A 
BRANCH  19  23
ATOM     23  N   UNL A   1      31.570  25.088  22.653  1.00  0.00     0.066 N 
ATOM     24  O   UNL A   1      30.820  24.197  23.084  1.00  0.00    -0.258 OA
ATOM     25  O   UNL A   1      32.309  24.953  21.669  1.00  0.00    -0.258 OA
ENDBRANCH  19  23
ENDBRANCH  16  17
ENDBRANCH  11  16
ENDBRANCH   4   7
ENDBRANCH   2   3
ENDBRANCH   1   2
BRANCH   1  26
ATOM     26  C   UNL A   1      38.136  20.337  25.124  1.00  0.00     0.023 C 
BRANCH  26  27
ATOM     27  C   UNL A   1      39.351  20.622  26.001  1.00  0.00     0.116 C 
BRANCH  27  28
ATOM     28  N   UNL A   1      40.313  19.530  26.020  1.00  0.00    -0.352 N 
ATOM     29  C   UNL A   1      41.683  19.581  26.131  1.00  0.00     0.251 C 
ATOM     30  H   UNL A   1      39.930  18.626  25.940  1.00  0.00     0.163 HD
ATOM     31  O   UNL A   1      42.350  18.557  26.004  1.00  0.00    -0.269 OA
BRANCH  29  32
ATOM     32  C   UNL A   1      42.351  20.877  26.372  1.00  0.00     0.039 A 
ATOM     33  C   UNL A   1      42.704  21.669  25.276  1.00  0.00     0.014 A 
ATOM     34  C   UNL A   1      42.599  21.325  27.672  1.00  0.00     0.014 A 
ATOM     35  C   UNL A   1      43.235  22.944  25.487  1.00  0.00     0.010 A 
ATOM     36  C   UNL A   1      43.058  22.623  27.880  1.00  0.00     0.010 A 
ATOM     37  C   UNL A   1      43.376  23.447  26.790  1.00  0.00    -0.014 A 
BRANCH  37  38
ATOM     38  C   UNL A   1      43.843  24.837  27.035  1.00  0.00     0.031 A 
ATOM     39  C   UNL A   1      45.295  25.188  26.856  1.00  0.00     0.074 A 
ATOM     40  C   UNL A   1      42.974  25.762  27.491  1.00  0.00     0.049 A 
ATOM     41  N   UNL A   1      45.907  26.319  27.099  1.00  0.00    -0.248 NA
ATOM     42  C   UNL A   1      46.184  24.120  26.366  1.00  0.00     0.031 C 
ATOM     43  C   UNL A   1      41.551  25.532  27.755  1.00  0.00     0.029 A 
ATOM     44  N   UNL A   1      43.160  27.080  27.825  1.00  0.00    -0.354 N 
ATOM     45  C   UNL A   1      47.248  26.094  26.813  1.00  0.00     0.074 A 
ATOM     46  C   UNL A   1      47.371  24.706  26.420  1.00  0.00     0.031 C 
ATOM     47  C   UNL A   1      40.991  26.675  28.186  1.00  0.00     0.029 A 
ATOM     48  C   UNL A   1      42.019  27.708  28.268  1.00  0.00     0.049 A 
ATOM     49  H   UNL A   1      44.031  27.535  27.755  1.00  0.00     0.167 HD
ATOM     50  C   UNL A   1      48.281  26.969  26.855  1.00  0.00     0.037 A 
ATOM     51  C   UNL A   1      41.823  28.970  28.698  1.00  0.00     0.037 A 
ATOM     52  C   UNL A   1      48.147  28.359  27.206  1.00  0.00     0.049 A 
ATOM     53  C   UNL A   1      42.987  29.924  28.725  1.00  0.00     0.074 A 
ATOM     54  C   UNL A   1      49.120  29.343  27.201  1.00  0.00     0.029 A 
ATOM     55  N   UNL A   1      46.970  28.961  27.622  1.00  0.00    -0.354 N 
ATOM     56  N   UNL A   1      44.236  29.711  28.382  1.00  0.00    -0.248 NA
ATOM     57  C   UNL A   1      42.716  31.291  29.192  1.00  0.00     0.031 C 
ATOM     58  C   UNL A   1      48.541  30.532  27.654  1.00  0.00     0.029 A 
ATOM     59  C   UNL A   1      47.196  30.299  27.897  1.00  0.00     0.049 A 
ATOM     60  H   UNL A   1      46.101  28.506  27.709  1.00  0.00     0.167 HD
ATOM     61  C   UNL A   1      44.890  30.925  28.560  1.00  0.00     0.074 A 
ATOM     62  C   UNL A   1      43.899  31.869  29.033  1.00  0.00     0.031 C 
ATOM     63  C   UNL A   1      46.194  31.231  28.351  1.00  0.00     0.037 A 
BRANCH  50  64
ATOM     64  C   UNL A   1      49.651  26.457  26.503  1.00  0.00     0.058 A 
ATOM     65  C   UNL A   1      50.500  25.899  27.471  1.00  0.00     0.135 A 
ATOM     66  C   UNL A   1      50.096  26.471  25.170  1.00  0.00     0.135 A 
ATOM     67  F   UNL A   1      50.131  25.876  28.762  1.00  0.00    -0.206 F 
ATOM     68  C   UNL A   1      51.751  25.391  27.136  1.00  0.00     0.059 A 
ATOM     69  C   UNL A   1      51.332  25.943  24.808  1.00  0.00     0.059 A 
ATOM     70  F   UNL A   1      49.324  26.994  24.205  1.00  0.00    -0.206 F 
ATOM     71  C   UNL A   1      52.157  25.415  25.800  1.00  0.00     0.060 A 
BRANCH  71  72
ATOM     72  S   UNL A   1      53.771  24.726  25.377  1.00  0.00     0.124 S 
ATOM     73  O   UNL A   1      53.416  23.360  25.006  1.00  0.00    -0.237 OA
ATOM     74  O   UNL A   1      54.201  25.588  24.281  1.00  0.00    -0.237 OA
ATOM     75  O   UNL A   1      54.533  24.862  26.614  1.00  0.00    -0.744 OA
ENDBRANCH  71  72
ENDBRANCH  50  64
BRANCH  51  76
ATOM     76  C   UNL A   1      40.469  29.417  29.122  1.00  0.00     0.058 A 
ATOM     77  C   UNL A   1      39.467  29.670  28.173  1.00  0.00     0.135 A 
ATOM     78  C   UNL A   1      40.152  29.613  30.474  1.00  0.00     0.135 A 
ATOM     79  F   UNL A   1      39.723  29.503  26.866  1.00  0.00    -0.206 F 
ATOM     80  C   UNL A   1      38.208  30.129  28.546  1.00  0.00     0.059 A 
ATOM     81  C   UNL A   1      38.892  30.046  30.874  1.00  0.00     0.059 A 
ATOM     82  F   UNL A   1      41.069  29.368  31.422  1.00  0.00    -0.206 F 
ATOM     83  C   UNL A   1      37.930  30.317  29.901  1.00  0.00     0.060 A 
BRANCH  83  84
ATOM     84  S   UNL A   1      36.286  30.891  30.378  1.00  0.00     0.124 S 
ATOM     85  O   UNL A   1      35.953  29.965  31.455  1.00  0.00    -0.237 OA
ATOM     86  O   UNL A   1      36.546  32.270  30.780  1.00  0.00    -0.237 OA
ATOM     87  O   UNL A   1      35.510  30.740  29.151  1.00  0.00    -0.744 OA
ENDBRANCH  83  84
ENDBRANCH  51  76
BRANCH  63  88
ATOM     88  C   UNL A   1      46.619  32.654  28.588  1.00  0.00     0.058 A 
ATOM     89  C   UNL A   1      46.578  33.615  27.568  1.00  0.00     0.135 A 
ATOM     90  C   UNL A   1      47.020  33.070  29.869  1.00  0.00     0.135 A 
ATOM     91  F   UNL A   1      46.209  33.267  26.325  1.00  0.00    -0.206 F 
ATOM     92  C   UNL A   1      46.942  34.937  27.802  1.00  0.00     0.059 A 
ATOM     93  C   UNL A   1      47.361  34.392  30.131  1.00  0.00     0.059 A 
ATOM     94  F   UNL A   1      47.064  32.191  30.882  1.00  0.00    -0.206 F 
ATOM     95  C   UNL A   1      47.330  35.317  29.088  1.00  0.00     0.060 A 
BRANCH  95  96
ATOM     96  S   UNL A   1      47.765  37.044  29.389  1.00  0.00     0.124 S 
ATOM     97  O   UNL A   1      49.043  37.150  28.693  1.00  0.00    -0.237 OA
ATOM     98  O   UNL A   1      46.648  37.758  28.778  1.00  0.00    -0.237 OA
ATOM     99  O   UNL A   1      47.833  37.127  30.845  1.00  0.00    -0.744 OA
ENDBRANCH  95  96
ENDBRANCH  63  88
ENDBRANCH  37  38
ENDBRANCH  29  32
ENDBRANCH  27  28
ENDBRANCH  26  27
ENDBRANCH   1  26
TORSDOF 18
ENDMDL
