MODEL 1
REMARK VINA RESULT:     -12.0      0.000      0.000
REMARK SMILES C[C@@H](NC(=O)[C@@H]1CC[C@@H]2CCCC[C@@H]2[NH2+]1)C(=O)NCCCCNC(=O)c1ccc(-c2c3nc(c(-c4c(F)cc(S(=O)(=O)[O-])cc4F)c4ccc([nH]4)c(-c4c(F)cc(S(=O)(=O)[O-])cc4F)c4nc(c(-c5c(F)cc(S(=O)(=O)[O-])cc5F)c5ccc2[nH]5)C=C4)C=C3)cc1
REMARK SMILES IDX 21 1 20 2 19 3 18 4 16 5 17 6 2 8 1 9 3 10 4 11 5 13 6 14
REMARK SMILES IDX 7 15 15 16 8 17 14 18 9 21 13 22 10 23 12 24 11 25 22 26
REMARK SMILES IDX 23 27 24 28 25 30 26 31 27 32 91 33 28 34 90 35 29 36 30 37
REMARK SMILES IDX 31 38 84 39 32 40 89 41 83 42 85 43 33 44 88 45 82 46 81 47
REMARK SMILES IDX 34 49 68 50 47 51 67 52 48 53 51 54 66 55 86 56 49 57 50 58
REMARK SMILES IDX 65 60 87 61 52 62 35 63 36 64 45 65 37 66 38 67 44 68 46 69
REMARK SMILES IDX 39 70 40 71 41 72 42 73 43 74 69 75 70 76 79 77 71 78 72 79
REMARK SMILES IDX 78 80 80 81 73 82 74 83 75 84 76 85 77 86 53 87 54 88 63 89
REMARK SMILES IDX 55 90 56 91 62 92 64 93 57 94 58 95 59 96 60 97 61 98
REMARK H PARENT 18 7 3 12 15 19 15 20 23 29 85 48 51 59
REMARK Flexibility Score: inf
ROOT
ATOM      1  C   UNL A   1      37.536  23.499  25.508  1.00  0.00     0.023 C 
ENDROOT
BRANCH   1   2
ATOM      2  C   UNL A   1      37.851  22.007  25.459  1.00  0.00     0.023 C 
BRANCH   2   3
ATOM      3  C   UNL A   1      36.650  21.186  25.019  1.00  0.00     0.116 C 
BRANCH   3   4
ATOM      4  N   UNL A   1      35.693  21.161  26.099  1.00  0.00    -0.354 N 
ATOM      5  C   UNL A   1      34.341  21.086  25.978  1.00  0.00     0.242 C 
ATOM      6  O   UNL A   1      33.643  21.492  26.907  1.00  0.00    -0.273 OA
ATOM      7  H   UNL A   1      36.055  21.203  27.014  1.00  0.00     0.163 HD
BRANCH   5   8
ATOM      8  C   UNL A   1      33.734  20.534  24.693  1.00  0.00     0.168 C 
ATOM      9  C   UNL A   1      32.523  19.670  25.061  1.00  0.00     0.041 C 
BRANCH   8  10
ATOM     10  N   UNL A   1      33.416  21.525  23.634  1.00  0.00    -0.339 N 
ATOM     11  C   UNL A   1      32.809  22.759  23.664  1.00  0.00     0.278 C 
ATOM     12  H   UNL A   1      33.695  21.243  22.732  1.00  0.00     0.164 HD
ATOM     13  O   UNL A   1      33.307  23.580  22.878  1.00  0.00    -0.268 OA
BRANCH  11  14
ATOM     14  C   UNL A   1      31.466  23.104  24.394  1.00  0.00     0.272 C 
ATOM     15  C   UNL A   1      30.668  24.262  23.741  1.00  0.00     0.076 C 
ATOM     16  N   UNL A   1      31.504  23.322  25.834  1.00  0.00    -0.333 N 
ATOM     17  C   UNL A   1      31.049  25.667  24.237  1.00  0.00     0.016 C 
ATOM     18  C   UNL A   1      31.988  24.604  26.320  1.00  0.00     0.186 C 
ATOM     19  H   UNL A   1      32.104  22.600  26.234  1.00  0.00     0.347 HD
ATOM     20  H   UNL A   1      30.525  23.295  26.121  1.00  0.00     0.347 HD
ATOM     21  C   UNL A   1      31.115  25.725  25.771  1.00  0.00     0.048 C 
ATOM     22  C   UNL A   1      33.485  24.846  26.104  1.00  0.00     0.065 C 
ATOM     23  C   UNL A   1      31.628  27.046  26.352  1.00  0.00     0.010 C 
ATOM     24  C   UNL A   1      33.961  26.221  25.664  1.00  0.00     0.006 C 
ATOM     25  C   UNL A   1      33.051  27.401  25.946  1.00  0.00     0.001 C 
ENDBRANCH  11  14
ENDBRANCH   8  10
ENDBRANCH   5   8
ENDBRANCH   3   4
ENDBRANCH   2   3
ENDBRANCH   1   2
BRANCH   1  26
ATOM     26  C   UNL A   1      38.386  24.249  26.527  1.00  0.00     0.116 C 
BRANCH  26  27
ATOM     27  N   UNL A   1      39.809  24.052  26.269  1.00  0.00    -0.352 N 
ATOM     28  C   UNL A   1      40.840  24.907  26.567  1.00  0.00     0.251 C 
ATOM     29  H   UNL A   1      40.058  23.206  25.831  1.00  0.00     0.163 HD
ATOM     30  O   UNL A   1      41.928  24.806  26.025  1.00  0.00    -0.269 OA
BRANCH  28  31
ATOM     31  C   UNL A   1      40.569  25.943  27.573  1.00  0.00     0.039 A 
ATOM     32  C   UNL A   1      39.648  25.699  28.589  1.00  0.00     0.014 A 
ATOM     33  C   UNL A   1      41.334  27.114  27.544  1.00  0.00     0.014 A 
ATOM     34  C   UNL A   1      39.526  26.630  29.618  1.00  0.00     0.010 A 
ATOM     35  C   UNL A   1      41.280  27.984  28.617  1.00  0.00     0.010 A 
ATOM     36  C   UNL A   1      40.361  27.762  29.651  1.00  0.00    -0.014 A 
BRANCH  36  37
ATOM     37  C   UNL A   1      40.266  28.755  30.743  1.00  0.00     0.031 A 
ATOM     38  C   UNL A   1      41.150  28.605  31.950  1.00  0.00     0.074 A 
ATOM     39  C   UNL A   1      39.347  29.737  30.675  1.00  0.00     0.049 A 
ATOM     40  N   UNL A   1      41.183  29.321  33.041  1.00  0.00    -0.248 NA
ATOM     41  C   UNL A   1      42.099  27.477  31.945  1.00  0.00     0.031 C 
ATOM     42  C   UNL A   1      38.397  29.935  29.577  1.00  0.00     0.029 A 
ATOM     43  N   UNL A   1      39.056  30.749  31.552  1.00  0.00    -0.354 N 
ATOM     44  C   UNL A   1      42.140  28.725  33.853  1.00  0.00     0.074 A 
ATOM     45  C   UNL A   1      42.615  27.549  33.161  1.00  0.00     0.031 C 
ATOM     46  C   UNL A   1      37.650  31.021  29.833  1.00  0.00     0.029 A 
ATOM     47  C   UNL A   1      38.040  31.572  31.128  1.00  0.00     0.049 A 
ATOM     48  H   UNL A   1      39.530  30.875  32.405  1.00  0.00     0.167 HD
ATOM     49  C   UNL A   1      42.605  29.140  35.054  1.00  0.00     0.037 A 
ATOM     50  C   UNL A   1      37.487  32.647  31.721  1.00  0.00     0.037 A 
ATOM     51  C   UNL A   1      42.143  30.331  35.716  1.00  0.00     0.049 A 
ATOM     52  C   UNL A   1      38.026  33.094  33.053  1.00  0.00     0.074 A 
ATOM     53  C   UNL A   1      42.587  30.881  36.904  1.00  0.00     0.029 A 
ATOM     54  N   UNL A   1      41.132  31.155  35.243  1.00  0.00    -0.354 N 
ATOM     55  N   UNL A   1      38.984  32.562  33.776  1.00  0.00    -0.248 NA
ATOM     56  C   UNL A   1      37.417  34.292  33.648  1.00  0.00     0.031 C 
ATOM     57  C   UNL A   1      41.809  32.011  37.175  1.00  0.00     0.029 A 
ATOM     58  C   UNL A   1      40.921  32.198  36.128  1.00  0.00     0.049 A 
ATOM     59  H   UNL A   1      40.636  31.018  34.403  1.00  0.00     0.167 HD
ATOM     60  C   UNL A   1      39.111  33.375  34.897  1.00  0.00     0.074 A 
ATOM     61  C   UNL A   1      38.141  34.442  34.748  1.00  0.00     0.031 C 
ATOM     62  C   UNL A   1      39.953  33.253  35.952  1.00  0.00     0.037 A 
BRANCH  49  63
ATOM     63  C   UNL A   1      43.667  28.308  35.716  1.00  0.00     0.058 A 
ATOM     64  C   UNL A   1      45.033  28.511  35.457  1.00  0.00     0.135 A 
ATOM     65  C   UNL A   1      43.320  27.310  36.641  1.00  0.00     0.135 A 
ATOM     66  F   UNL A   1      45.422  29.439  34.567  1.00  0.00    -0.206 F 
ATOM     67  C   UNL A   1      46.013  27.738  36.068  1.00  0.00     0.059 A 
ATOM     68  C   UNL A   1      44.286  26.545  37.287  1.00  0.00     0.059 A 
ATOM     69  F   UNL A   1      42.029  27.068  36.922  1.00  0.00    -0.206 F 
ATOM     70  C   UNL A   1      45.630  26.758  36.985  1.00  0.00     0.060 A 
BRANCH  70  71
ATOM     71  S   UNL A   1      46.917  25.773  37.779  1.00  0.00     0.124 S 
ATOM     72  O   UNL A   1      47.118  24.711  36.797  1.00  0.00    -0.237 OA
ATOM     73  O   UNL A   1      48.008  26.733  37.908  1.00  0.00    -0.237 OA
ATOM     74  O   UNL A   1      46.300  25.357  39.034  1.00  0.00    -0.744 OA
ENDBRANCH  70  71
ENDBRANCH  49  63
BRANCH  50  75
ATOM     75  C   UNL A   1      36.387  33.386  31.047  1.00  0.00     0.058 A 
ATOM     76  C   UNL A   1      36.632  34.160  29.903  1.00  0.00     0.135 A 
ATOM     77  C   UNL A   1      35.067  33.322  31.521  1.00  0.00     0.135 A 
ATOM     78  F   UNL A   1      37.877  34.255  29.411  1.00  0.00    -0.206 F 
ATOM     79  C   UNL A   1      35.613  34.859  29.263  1.00  0.00     0.059 A 
ATOM     80  C   UNL A   1      34.027  33.991  30.883  1.00  0.00     0.059 A 
ATOM     81  F   UNL A   1      34.776  32.579  32.600  1.00  0.00    -0.206 F 
ATOM     82  C   UNL A   1      34.313  34.767  29.761  1.00  0.00     0.060 A 
BRANCH  82  83
ATOM     83  S   UNL A   1      32.991  35.644  28.897  1.00  0.00     0.124 S 
ATOM     84  O   UNL A   1      33.741  36.659  28.166  1.00  0.00    -0.237 OA
ATOM     85  O   UNL A   1      32.398  34.583  28.088  1.00  0.00    -0.237 OA
ATOM     86  O   UNL A   1      32.152  36.138  29.983  1.00  0.00    -0.744 OA
ENDBRANCH  82  83
ENDBRANCH  50  75
BRANCH  62  87
ATOM     87  C   UNL A   1      39.890  34.317  37.014  1.00  0.00     0.058 A 
ATOM     88  C   UNL A   1      40.578  35.532  36.883  1.00  0.00     0.135 A 
ATOM     89  C   UNL A   1      39.080  34.137  38.148  1.00  0.00     0.135 A 
ATOM     90  F   UNL A   1      41.370  35.751  35.821  1.00  0.00    -0.206 F 
ATOM     91  C   UNL A   1      40.486  36.525  37.852  1.00  0.00     0.059 A 
ATOM     92  C   UNL A   1      38.949  35.128  39.114  1.00  0.00     0.059 A 
ATOM     93  F   UNL A   1      38.391  32.998  38.313  1.00  0.00    -0.206 F 
ATOM     94  C   UNL A   1      39.666  36.315  38.963  1.00  0.00     0.060 A 
BRANCH  94  95
ATOM     95  S   UNL A   1      39.527  37.626  40.196  1.00  0.00     0.124 S 
ATOM     96  O   UNL A   1      39.060  36.884  41.362  1.00  0.00    -0.237 OA
ATOM     97  O   UNL A   1      40.896  38.129  40.269  1.00  0.00    -0.237 OA
ATOM     98  O   UNL A   1      38.560  38.546  39.606  1.00  0.00    -0.744 OA
ENDBRANCH  94  95
ENDBRANCH  62  87
ENDBRANCH  36  37
ENDBRANCH  28  31
ENDBRANCH  26  27
ENDBRANCH   1  26
TORSDOF 16
ENDMDL
MODEL 2
REMARK VINA RESULT:     -11.8      4.054      7.010
REMARK SMILES C[C@@H](NC(=O)[C@@H]1CC[C@@H]2CCCC[C@@H]2[NH2+]1)C(=O)NCCCCNC(=O)c1ccc(-c2c3nc(c(-c4c(F)cc(S(=O)(=O)[O-])cc4F)c4ccc([nH]4)c(-c4c(F)cc(S(=O)(=O)[O-])cc4F)c4nc(c(-c5c(F)cc(S(=O)(=O)[O-])cc5F)c5ccc2[nH]5)C=C4)C=C3)cc1
REMARK SMILES IDX 21 1 20 2 19 3 18 4 16 5 17 6 2 8 1 9 3 10 4 11 5 13 6 14
REMARK SMILES IDX 7 15 15 16 8 17 14 18 9 21 13 22 10 23 12 24 11 25 22 26
REMARK SMILES IDX 23 27 24 28 25 30 26 31 27 32 91 33 28 34 90 35 29 36 30 37
REMARK SMILES IDX 31 38 84 39 32 40 89 41 83 42 85 43 33 44 88 45 82 46 81 47
REMARK SMILES IDX 34 49 68 50 47 51 67 52 48 53 51 54 66 55 86 56 49 57 50 58
REMARK SMILES IDX 65 60 87 61 52 62 35 63 36 64 45 65 37 66 38 67 44 68 46 69
REMARK SMILES IDX 39 70 40 71 41 72 42 73 43 74 69 75 70 76 79 77 71 78 72 79
REMARK SMILES IDX 78 80 80 81 73 82 74 83 75 84 76 85 77 86 53 87 54 88 63 89
REMARK SMILES IDX 55 90 56 91 62 92 64 93 57 94 58 95 59 96 60 97 61 98
REMARK H PARENT 18 7 3 12 15 19 15 20 23 29 85 48 51 59
REMARK Flexibility Score: inf
ROOT
ATOM      1  C   UNL A   1      40.621  20.348  26.797  1.00  0.00     0.023 C 
ENDROOT
BRANCH   1   2
ATOM      2  C   UNL A   1      41.776  19.542  26.212  1.00  0.00     0.023 C 
BRANCH   2   3
ATOM      3  C   UNL A   1      42.949  20.427  25.823  1.00  0.00     0.116 C 
BRANCH   3   4
ATOM      4  N   UNL A   1      44.061  19.580  25.463  1.00  0.00    -0.354 N 
ATOM      5  C   UNL A   1      45.258  19.987  24.966  1.00  0.00     0.242 C 
ATOM      6  O   UNL A   1      45.933  19.184  24.320  1.00  0.00    -0.273 OA
ATOM      7  H   UNL A   1      43.940  18.611  25.591  1.00  0.00     0.163 HD
BRANCH   5   8
ATOM      8  C   UNL A   1      45.714  21.425  25.193  1.00  0.00     0.168 C 
ATOM      9  C   UNL A   1      45.154  22.295  24.063  1.00  0.00     0.041 C 
BRANCH   8  10
ATOM     10  N   UNL A   1      45.440  22.000  26.534  1.00  0.00    -0.339 N 
ATOM     11  C   UNL A   1      45.587  23.265  27.053  1.00  0.00     0.278 C 
ATOM     12  H   UNL A   1      45.082  21.347  27.179  1.00  0.00     0.164 HD
ATOM     13  O   UNL A   1      44.682  23.591  27.837  1.00  0.00    -0.268 OA
BRANCH  11  14
ATOM     14  C   UNL A   1      46.860  24.169  26.923  1.00  0.00     0.272 C 
ATOM     15  C   UNL A   1      47.079  25.134  28.116  1.00  0.00     0.076 C 
ATOM     16  N   UNL A   1      47.051  24.912  25.685  1.00  0.00    -0.333 N 
ATOM     17  C   UNL A   1      46.366  26.491  27.985  1.00  0.00     0.016 C 
ATOM     18  C   UNL A   1      46.282  26.132  25.492  1.00  0.00     0.186 C 
ATOM     19  H   UNL A   1      46.819  24.284  24.915  1.00  0.00     0.347 HD
ATOM     20  H   UNL A   1      48.020  25.227  25.724  1.00  0.00     0.347 HD
ATOM     21  C   UNL A   1      46.602  27.122  26.605  1.00  0.00     0.048 C 
ATOM     22  C   UNL A   1      44.778  25.914  25.295  1.00  0.00     0.065 C 
ATOM     23  C   UNL A   1      45.813  28.406  26.330  1.00  0.00     0.010 C 
ATOM     24  C   UNL A   1      43.795  26.860  25.966  1.00  0.00     0.006 C 
ATOM     25  C   UNL A   1      44.302  28.234  26.361  1.00  0.00     0.001 C 
ENDBRANCH  11  14
ENDBRANCH   8  10
ENDBRANCH   5   8
ENDBRANCH   3   4
ENDBRANCH   2   3
ENDBRANCH   1   2
BRANCH   1  26
ATOM     26  C   UNL A   1      40.695  21.829  26.443  1.00  0.00     0.116 C 
BRANCH  26  27
ATOM     27  N   UNL A   1      39.511  22.250  25.699  1.00  0.00    -0.352 N 
ATOM     28  C   UNL A   1      38.729  23.354  25.927  1.00  0.00     0.251 C 
ATOM     29  H   UNL A   1      39.243  21.675  24.946  1.00  0.00     0.163 HD
ATOM     30  O   UNL A   1      37.599  23.438  25.476  1.00  0.00    -0.269 OA
BRANCH  28  31
ATOM     31  C   UNL A   1      39.323  24.430  26.733  1.00  0.00     0.039 A 
ATOM     32  C   UNL A   1      40.100  25.409  26.119  1.00  0.00     0.014 A 
ATOM     33  C   UNL A   1      38.997  24.500  28.092  1.00  0.00     0.014 A 
ATOM     34  C   UNL A   1      40.518  26.501  26.875  1.00  0.00     0.010 A 
ATOM     35  C   UNL A   1      39.330  25.633  28.810  1.00  0.00     0.010 A 
ATOM     36  C   UNL A   1      40.112  26.632  28.215  1.00  0.00    -0.014 A 
BRANCH  36  37
ATOM     37  C   UNL A   1      40.526  27.793  29.034  1.00  0.00     0.031 A 
ATOM     38  C   UNL A   1      41.856  27.760  29.734  1.00  0.00     0.074 A 
ATOM     39  C   UNL A   1      39.682  28.829  29.197  1.00  0.00     0.049 A 
ATOM     40  N   UNL A   1      42.380  28.637  30.547  1.00  0.00    -0.248 NA
ATOM     41  C   UNL A   1      42.692  26.565  29.520  1.00  0.00     0.031 C 
ATOM     42  C   UNL A   1      38.342  28.932  28.613  1.00  0.00     0.029 A 
ATOM     43  N   UNL A   1      39.823  29.991  29.910  1.00  0.00    -0.354 N 
ATOM     44  C   UNL A   1      43.595  28.096  30.950  1.00  0.00     0.074 A 
ATOM     45  C   UNL A   1      43.700  26.786  30.349  1.00  0.00     0.031 C 
ATOM     46  C   UNL A   1      37.798  30.108  28.967  1.00  0.00     0.029 A 
ATOM     47  C   UNL A   1      38.731  30.823  29.832  1.00  0.00     0.049 A 
ATOM     48  H   UNL A   1      40.630  30.209  30.429  1.00  0.00     0.167 HD
ATOM     49  C   UNL A   1      44.553  28.656  31.724  1.00  0.00     0.037 A 
ATOM     50  C   UNL A   1      38.512  32.024  30.398  1.00  0.00     0.037 A 
ATOM     51  C   UNL A   1      44.446  29.974  32.290  1.00  0.00     0.049 A 
ATOM     52  C   UNL A   1      39.595  32.630  31.250  1.00  0.00     0.074 A 
ATOM     53  C   UNL A   1      45.381  30.666  33.039  1.00  0.00     0.029 A 
ATOM     54  N   UNL A   1      43.337  30.798  32.168  1.00  0.00    -0.354 N 
ATOM     55  N   UNL A   1      40.771  32.138  31.563  1.00  0.00    -0.248 NA
ATOM     56  C   UNL A   1      39.326  33.958  31.821  1.00  0.00     0.031 C 
ATOM     57  C   UNL A   1      44.817  31.890  33.411  1.00  0.00     0.029 A 
ATOM     58  C   UNL A   1      43.554  31.985  32.846  1.00  0.00     0.049 A 
ATOM     59  H   UNL A   1      42.517  30.573  31.672  1.00  0.00     0.167 HD
ATOM     60  C   UNL A   1      41.394  33.105  32.343  1.00  0.00     0.074 A 
ATOM     61  C   UNL A   1      40.469  34.217  32.442  1.00  0.00     0.031 C 
ATOM     62  C   UNL A   1      42.619  33.081  32.923  1.00  0.00     0.037 A 
BRANCH  49  63
ATOM     63  C   UNL A   1      45.793  27.849  31.993  1.00  0.00     0.058 A 
ATOM     64  C   UNL A   1      46.949  27.988  31.207  1.00  0.00     0.135 A 
ATOM     65  C   UNL A   1      45.837  26.943  33.064  1.00  0.00     0.135 A 
ATOM     66  F   UNL A   1      46.957  28.826  30.157  1.00  0.00    -0.206 F 
ATOM     67  C   UNL A   1      48.093  27.239  31.455  1.00  0.00     0.059 A 
ATOM     68  C   UNL A   1      46.982  26.205  33.349  1.00  0.00     0.059 A 
ATOM     69  F   UNL A   1      44.759  26.764  33.844  1.00  0.00    -0.206 F 
ATOM     70  C   UNL A   1      48.101  26.350  32.531  1.00  0.00     0.060 A 
BRANCH  70  71
ATOM     71  S   UNL A   1      49.599  25.395  32.847  1.00  0.00     0.124 S 
ATOM     72  O   UNL A   1      49.081  24.300  33.661  1.00  0.00    -0.237 OA
ATOM     73  O   UNL A   1      50.028  25.035  31.499  1.00  0.00    -0.237 OA
ATOM     74  O   UNL A   1      50.464  26.341  33.545  1.00  0.00    -0.744 OA
ENDBRANCH  70  71
ENDBRANCH  49  63
BRANCH  50  75
ATOM     75  C   UNL A   1      37.232  32.741  30.154  1.00  0.00     0.058 A 
ATOM     76  C   UNL A   1      36.123  32.542  30.990  1.00  0.00     0.135 A 
ATOM     77  C   UNL A   1      37.096  33.650  29.093  1.00  0.00     0.135 A 
ATOM     78  F   UNL A   1      36.202  31.682  32.016  1.00  0.00    -0.206 F 
ATOM     79  C   UNL A   1      34.918  33.203  30.771  1.00  0.00     0.059 A 
ATOM     80  C   UNL A   1      35.909  34.343  28.870  1.00  0.00     0.059 A 
ATOM     81  F   UNL A   1      38.134  33.892  28.277  1.00  0.00    -0.206 F 
ATOM     82  C   UNL A   1      34.822  34.104  29.710  1.00  0.00     0.060 A 
BRANCH  82  83
ATOM     83  S   UNL A   1      33.267  34.989  29.463  1.00  0.00     0.124 S 
ATOM     84  O   UNL A   1      32.621  34.169  28.445  1.00  0.00    -0.237 OA
ATOM     85  O   UNL A   1      32.673  34.939  30.795  1.00  0.00    -0.237 OA
ATOM     86  O   UNL A   1      33.701  36.312  29.028  1.00  0.00    -0.744 OA
ENDBRANCH  82  83
ENDBRANCH  50  75
BRANCH  62  87
ATOM     87  C   UNL A   1      43.047  34.303  33.688  1.00  0.00     0.058 A 
ATOM     88  C   UNL A   1      42.904  34.391  35.080  1.00  0.00     0.135 A 
ATOM     89  C   UNL A   1      43.664  35.374  33.020  1.00  0.00     0.135 A 
ATOM     90  F   UNL A   1      42.316  33.395  35.764  1.00  0.00    -0.206 F 
ATOM     91  C   UNL A   1      43.335  35.509  35.784  1.00  0.00     0.059 A 
ATOM     92  C   UNL A   1      44.131  36.489  33.707  1.00  0.00     0.059 A 
ATOM     93  F   UNL A   1      43.836  35.334  31.690  1.00  0.00    -0.206 F 
ATOM     94  C   UNL A   1      43.951  36.553  35.089  1.00  0.00     0.060 A 
BRANCH  94  95
ATOM     95  S   UNL A   1      44.538  37.984  36.019  1.00  0.00     0.124 S 
ATOM     96  O   UNL A   1      44.358  39.058  35.049  1.00  0.00    -0.237 OA
ATOM     97  O   UNL A   1      43.632  38.003  37.163  1.00  0.00    -0.237 OA
ATOM     98  O   UNL A   1      45.922  37.642  36.330  1.00  0.00    -0.744 OA
ENDBRANCH  94  95
ENDBRANCH  62  87
ENDBRANCH  36  37
ENDBRANCH  28  31
ENDBRANCH  26  27
ENDBRANCH   1  26
TORSDOF 16
ENDMDL
MODEL 3
REMARK VINA RESULT:     -11.8      4.947     10.504
REMARK SMILES C[C@@H](NC(=O)[C@@H]1CC[C@@H]2CCCC[C@@H]2[NH2+]1)C(=O)NCCCCNC(=O)c1ccc(-c2c3nc(c(-c4c(F)cc(S(=O)(=O)[O-])cc4F)c4ccc([nH]4)c(-c4c(F)cc(S(=O)(=O)[O-])cc4F)c4nc(c(-c5c(F)cc(S(=O)(=O)[O-])cc5F)c5ccc2[nH]5)C=C4)C=C3)cc1
REMARK SMILES IDX 21 1 20 2 19 3 18 4 16 5 17 6 2 8 1 9 3 10 4 11 5 13 6 14
REMARK SMILES IDX 7 15 15 16 8 17 14 18 9 21 13 22 10 23 12 24 11 25 22 26
REMARK SMILES IDX 23 27 24 28 25 30 26 31 27 32 91 33 28 34 90 35 29 36 30 37
REMARK SMILES IDX 31 38 84 39 32 40 89 41 83 42 85 43 33 44 88 45 82 46 81 47
REMARK SMILES IDX 34 49 68 50 47 51 67 52 48 53 51 54 66 55 86 56 49 57 50 58
REMARK SMILES IDX 65 60 87 61 52 62 35 63 36 64 45 65 37 66 38 67 44 68 46 69
REMARK SMILES IDX 39 70 40 71 41 72 42 73 43 74 69 75 70 76 79 77 71 78 72 79
REMARK SMILES IDX 78 80 80 81 73 82 74 83 75 84 76 85 77 86 53 87 54 88 63 89
REMARK SMILES IDX 55 90 56 91 62 92 64 93 57 94 58 95 59 96 60 97 61 98
REMARK H PARENT 18 7 3 12 15 19 15 20 23 29 85 48 51 59
REMARK Flexibility Score: inf
ROOT
ATOM      1  C   UNL A   1      33.890  28.446  25.698  1.00  0.00     0.023 C 
ENDROOT
BRANCH   1   2
ATOM      2  C   UNL A   1      32.755  29.167  24.977  1.00  0.00     0.023 C 
BRANCH   2   3
ATOM      3  C   UNL A   1      31.407  28.516  25.242  1.00  0.00     0.116 C 
BRANCH   3   4
ATOM      4  N   UNL A   1      30.711  28.381  23.985  1.00  0.00    -0.354 N 
ATOM      5  C   UNL A   1      30.860  27.375  23.084  1.00  0.00     0.242 C 
ATOM      6  O   UNL A   1      30.551  27.583  21.911  1.00  0.00    -0.273 OA
ATOM      7  H   UNL A   1      30.063  29.087  23.759  1.00  0.00     0.163 HD
BRANCH   5   8
ATOM      8  C   UNL A   1      31.433  26.038  23.542  1.00  0.00     0.168 C 
ATOM      9  C   UNL A   1      30.414  24.939  23.219  1.00  0.00     0.041 C 
BRANCH   8  10
ATOM     10  N   UNL A   1      32.795  25.701  23.058  1.00  0.00    -0.339 N 
ATOM     11  C   UNL A   1      33.826  24.975  23.606  1.00  0.00     0.278 C 
ATOM     12  H   UNL A   1      33.001  26.071  22.169  1.00  0.00     0.164 HD
ATOM     13  O   UNL A   1      34.456  24.299  22.778  1.00  0.00    -0.268 OA
BRANCH  11  14
ATOM     14  C   UNL A   1      34.378  25.119  25.065  1.00  0.00     0.272 C 
ATOM     15  C   UNL A   1      35.673  24.311  25.338  1.00  0.00     0.076 C 
ATOM     16  N   UNL A   1      33.456  24.906  26.173  1.00  0.00    -0.333 N 
ATOM     17  C   UNL A   1      35.441  22.862  25.800  1.00  0.00     0.016 C 
ATOM     18  C   UNL A   1      33.127  23.537  26.535  1.00  0.00     0.186 C 
ATOM     19  H   UNL A   1      32.582  25.375  25.934  1.00  0.00     0.347 HD
ATOM     20  H   UNL A   1      33.948  25.273  26.988  1.00  0.00     0.347 HD
ATOM     21  C   UNL A   1      34.396  22.788  26.923  1.00  0.00     0.048 C 
ATOM     22  C   UNL A   1      32.279  22.788  25.502  1.00  0.00     0.065 C 
ATOM     23  C   UNL A   1      33.993  21.373  27.348  1.00  0.00     0.010 C 
ATOM     24  C   UNL A   1      32.592  21.332  25.196  1.00  0.00     0.006 C 
ATOM     25  C   UNL A   1      33.352  20.543  26.245  1.00  0.00     0.001 C 
ENDBRANCH  11  14
ENDBRANCH   8  10
ENDBRANCH   5   8
ENDBRANCH   3   4
ENDBRANCH   2   3
ENDBRANCH   1   2
BRANCH   1  26
ATOM     26  C   UNL A   1      33.802  28.573  27.214  1.00  0.00     0.116 C 
BRANCH  26  27
ATOM     27  N   UNL A   1      33.691  29.972  27.618  1.00  0.00    -0.352 N 
ATOM     28  C   UNL A   1      34.571  30.694  28.383  1.00  0.00     0.251 C 
ATOM     29  H   UNL A   1      32.891  30.452  27.305  1.00  0.00     0.163 HD
ATOM     30  O   UNL A   1      34.237  31.731  28.932  1.00  0.00    -0.269 OA
BRANCH  28  31
ATOM     31  C   UNL A   1      35.936  30.161  28.499  1.00  0.00     0.039 A 
ATOM     32  C   UNL A   1      36.813  30.256  27.421  1.00  0.00     0.014 A 
ATOM     33  C   UNL A   1      36.353  29.668  29.740  1.00  0.00     0.014 A 
ATOM     34  C   UNL A   1      38.143  29.889  27.608  1.00  0.00     0.010 A 
ATOM     35  C   UNL A   1      37.694  29.400  29.947  1.00  0.00     0.010 A 
ATOM     36  C   UNL A   1      38.595  29.487  28.878  1.00  0.00    -0.014 A 
BRANCH  36  37
ATOM     37  C   UNL A   1      40.008  29.112  29.108  1.00  0.00     0.031 A 
ATOM     38  C   UNL A   1      40.956  30.134  29.670  1.00  0.00     0.074 A 
ATOM     39  C   UNL A   1      40.441  27.888  28.750  1.00  0.00     0.049 A 
ATOM     40  N   UNL A   1      42.239  30.036  29.888  1.00  0.00    -0.248 NA
ATOM     41  C   UNL A   1      40.392  31.457  29.999  1.00  0.00     0.031 C 
ATOM     42  C   UNL A   1      39.617  26.842  28.137  1.00  0.00     0.029 A 
ATOM     43  N   UNL A   1      41.684  27.320  28.841  1.00  0.00    -0.354 N 
ATOM     44  C   UNL A   1      42.636  31.280  30.362  1.00  0.00     0.074 A 
ATOM     45  C   UNL A   1      41.475  32.138  30.335  1.00  0.00     0.031 C 
ATOM     46  C   UNL A   1      40.372  25.750  27.937  1.00  0.00     0.029 A 
ATOM     47  C   UNL A   1      41.738  26.030  28.370  1.00  0.00     0.049 A 
ATOM     48  H   UNL A   1      42.466  27.791  29.211  1.00  0.00     0.167 HD
ATOM     49  C   UNL A   1      43.854  31.662  30.812  1.00  0.00     0.037 A 
ATOM     50  C   UNL A   1      42.775  25.174  28.294  1.00  0.00     0.037 A 
ATOM     51  C   UNL A   1      44.993  30.786  30.861  1.00  0.00     0.049 A 
ATOM     52  C   UNL A   1      44.118  25.619  28.807  1.00  0.00     0.074 A 
ATOM     53  C   UNL A   1      46.259  31.048  31.353  1.00  0.00     0.029 A 
ATOM     54  N   UNL A   1      45.004  29.478  30.399  1.00  0.00    -0.354 N 
ATOM     55  N   UNL A   1      44.462  26.777  29.322  1.00  0.00    -0.248 NA
ATOM     56  C   UNL A   1      45.213  24.642  28.737  1.00  0.00     0.031 C 
ATOM     57  C   UNL A   1      47.048  29.912  31.145  1.00  0.00     0.029 A 
ATOM     58  C   UNL A   1      46.260  28.925  30.576  1.00  0.00     0.049 A 
ATOM     59  H   UNL A   1      44.231  29.011  30.004  1.00  0.00     0.167 HD
ATOM     60  C   UNL A   1      45.804  26.658  29.663  1.00  0.00     0.074 A 
ATOM     61  C   UNL A   1      46.205  25.311  29.308  1.00  0.00     0.031 C 
ATOM     62  C   UNL A   1      46.632  27.577  30.220  1.00  0.00     0.037 A 
BRANCH  49  63
ATOM     63  C   UNL A   1      44.008  33.079  31.291  1.00  0.00     0.058 A 
ATOM     64  C   UNL A   1      43.779  33.434  32.631  1.00  0.00     0.135 A 
ATOM     65  C   UNL A   1      44.411  34.092  30.407  1.00  0.00     0.135 A 
ATOM     66  F   UNL A   1      43.372  32.510  33.516  1.00  0.00    -0.206 F 
ATOM     67  C   UNL A   1      43.918  34.745  33.070  1.00  0.00     0.059 A 
ATOM     68  C   UNL A   1      44.587  35.405  30.832  1.00  0.00     0.059 A 
ATOM     69  F   UNL A   1      44.637  33.811  29.113  1.00  0.00    -0.206 F 
ATOM     70  C   UNL A   1      44.325  35.725  32.164  1.00  0.00     0.060 A 
BRANCH  70  71
ATOM     71  S   UNL A   1      44.514  37.420  32.755  1.00  0.00     0.124 S 
ATOM     72  O   UNL A   1      45.837  37.367  33.371  1.00  0.00    -0.237 OA
ATOM     73  O   UNL A   1      44.420  38.192  31.520  1.00  0.00    -0.237 OA
ATOM     74  O   UNL A   1      43.398  37.583  33.680  1.00  0.00    -0.744 OA
ENDBRANCH  70  71
ENDBRANCH  49  63
BRANCH  50  75
ATOM     75  C   UNL A   1      42.575  23.809  27.741  1.00  0.00     0.058 A 
ATOM     76  C   UNL A   1      42.403  22.704  28.590  1.00  0.00     0.135 A 
ATOM     77  C   UNL A   1      42.535  23.581  26.357  1.00  0.00     0.135 A 
ATOM     78  F   UNL A   1      42.434  22.870  29.920  1.00  0.00    -0.206 F 
ATOM     79  C   UNL A   1      42.218  21.421  28.086  1.00  0.00     0.059 A 
ATOM     80  C   UNL A   1      42.326  22.309  25.830  1.00  0.00     0.059 A 
ATOM     81  F   UNL A   1      42.675  24.606  25.502  1.00  0.00    -0.206 F 
ATOM     82  C   UNL A   1      42.179  21.234  26.704  1.00  0.00     0.060 A 
BRANCH  82  83
ATOM     83  S   UNL A   1      41.895  19.569  26.063  1.00  0.00     0.124 S 
ATOM     84  O   UNL A   1      40.469  19.610  25.760  1.00  0.00    -0.237 OA
ATOM     85  O   UNL A   1      42.791  19.528  24.912  1.00  0.00    -0.237 OA
ATOM     86  O   UNL A   1      42.280  18.711  27.179  1.00  0.00    -0.744 OA
ENDBRANCH  82  83
ENDBRANCH  50  75
BRANCH  62  87
ATOM     87  C   UNL A   1      48.043  27.148  30.514  1.00  0.00     0.058 A 
ATOM     88  C   UNL A   1      49.080  27.339  29.590  1.00  0.00     0.135 A 
ATOM     89  C   UNL A   1      48.368  26.593  31.763  1.00  0.00     0.135 A 
ATOM     90  F   UNL A   1      48.821  27.861  28.380  1.00  0.00    -0.206 F 
ATOM     91  C   UNL A   1      50.389  26.974  29.884  1.00  0.00     0.059 A 
ATOM     92  C   UNL A   1      49.674  26.249  32.090  1.00  0.00     0.059 A 
ATOM     93  F   UNL A   1      47.413  26.402  32.687  1.00  0.00    -0.206 F 
ATOM     94  C   UNL A   1      50.677  26.431  31.139  1.00  0.00     0.060 A 
BRANCH  94  95
ATOM     95  S   UNL A   1      52.385  25.993  31.520  1.00  0.00     0.124 S 
ATOM     96  O   UNL A   1      53.019  26.117  30.212  1.00  0.00    -0.237 OA
ATOM     97  O   UNL A   1      52.755  27.007  32.503  1.00  0.00    -0.237 OA
ATOM     98  O   UNL A   1      52.279  24.634  32.041  1.00  0.00    -0.744 OA
ENDBRANCH  94  95
ENDBRANCH  62  87
ENDBRANCH  36  37
ENDBRANCH  28  31
ENDBRANCH  26  27
ENDBRANCH   1  26
TORSDOF 16
ENDMDL
