MODEL 1
REMARK VINA RESULT:     -13.4      0.000      0.000
REMARK SMILES Cc1cc(C(=O)N[C@@H]2C(=O)N3C(C(=O)NCCCCNC(=O)c4ccc(-c5c6nc(c(-c7c(F)cc(S(=O)(=O)[O-])cc7F)c7ccc([nH]7)c(-c7c(F)cc(S(=O)(=O)[O-])cc7F)c7nc(c(-c8c(F)cc(S(=O)(=O)[O-])cc8F)c8ccc5[nH]8)C=C7)C=C6)cc4)=C(CSc4nnc(C)s4)CS[C@H]23)n(C)n1
REMARK SMILES IDX 17 1 16 2 15 3 13 4 14 5 12 7 8 8 9 9 100 10 10 11 11 12
REMARK SMILES IDX 99 13 98 14 89 15 7 16 5 17 6 18 4 20 1 21 2 22 3 23 103 24
REMARK SMILES IDX 101 25 102 26 90 27 91 28 92 29 93 30 97 31 94 32 95 33
REMARK SMILES IDX 96 34 18 35 19 36 20 37 21 38 22 40 23 41 24 42 88 43 25 44
REMARK SMILES IDX 87 45 26 46 27 47 28 48 81 49 29 50 86 51 80 52 82 53 30 54
REMARK SMILES IDX 85 55 79 56 78 57 31 59 65 60 44 61 64 62 45 63 48 64 63 65
REMARK SMILES IDX 83 66 46 67 47 68 62 70 84 71 49 72 32 73 33 74 42 75 34 76
REMARK SMILES IDX 35 77 41 78 43 79 36 80 37 81 38 82 39 83 40 84 66 85 67 86
REMARK SMILES IDX 76 87 68 88 69 89 75 90 77 91 70 92 71 93 72 94 73 95 74 96
REMARK SMILES IDX 50 97 51 98 60 99 52 100 53 101 59 102 61 103 54 104 55 105
REMARK SMILES IDX 56 106 57 107 58 108
REMARK H PARENT 15 6 7 19 20 39 82 58 48 69
REMARK Flexibility Score: inf
ROOT
ATOM      1  C   UNL A   1      38.563  23.980  26.316  1.00  0.00     0.023 C 
ENDROOT
BRANCH   1   2
ATOM      2  C   UNL A   1      37.060  23.681  26.351  1.00  0.00     0.116 C 
BRANCH   2   3
ATOM      3  N   UNL A   1      36.789  22.358  25.832  1.00  0.00    -0.351 N 
ATOM      4  C   UNL A   1      35.716  21.660  25.391  1.00  0.00     0.268 C 
ATOM      5  O   UNL A   1      36.035  20.601  24.835  1.00  0.00    -0.268 OA
ATOM      6  H   UNL A   1      37.610  21.816  25.787  1.00  0.00     0.163 HD
BRANCH   4   7
ATOM      7  C   UNL A   1      34.248  22.126  25.336  1.00  0.00     0.111 C 
ATOM      8  C   UNL A   1      33.566  24.891  23.391  1.00  0.00     0.206 C 
ATOM      9  C   UNL A   1      34.540  23.680  23.394  1.00  0.00     0.253 C 
ATOM     10  C   UNL A   1      32.911  24.127  24.575  1.00  0.00     0.181 C 
ATOM     11  O   UNL A   1      35.260  23.177  22.553  1.00  0.00    -0.272 OA
ATOM     12  N   UNL A   1      34.121  23.332  24.653  1.00  0.00    -0.290 N 
ATOM     13  S   UNL A   1      31.503  23.044  24.178  1.00  0.00    -0.129 SA
ATOM     14  C   UNL A   1      31.745  22.178  25.729  1.00  0.00     0.106 C 
ATOM     15  C   UNL A   1      33.092  21.480  25.690  1.00  0.00    -0.020 C 
BRANCH   8  16
ATOM     16  N   UNL A   1      32.794  25.157  22.147  1.00  0.00    -0.336 N 
ATOM     17  C   UNL A   1      32.016  26.247  21.803  1.00  0.00     0.270 C 
ATOM     18  O   UNL A   1      31.500  26.253  20.687  1.00  0.00    -0.268 OA
ATOM     19  H   UNL A   1      32.844  24.449  21.464  1.00  0.00     0.164 HD
BRANCH  17  20
ATOM     20  C   UNL A   1      31.784  27.280  22.788  1.00  0.00     0.126 A 
ATOM     21  C   UNL A   1      32.924  29.630  25.321  1.00  0.00     0.069 C 
ATOM     22  C   UNL A   1      32.157  28.769  24.388  1.00  0.00     0.060 A 
ATOM     23  C   UNL A   1      32.449  28.472  23.039  1.00  0.00     0.059 A 
ATOM     24  N   UNL A   1      31.114  28.060  24.820  1.00  0.00    -0.178 NA
ATOM     25  N   UNL A   1      30.841  27.221  23.794  1.00  0.00    -0.263 N 
ATOM     26  C   UNL A   1      29.698  26.350  23.931  1.00  0.00     0.174 C 
ENDBRANCH  17  20
ENDBRANCH   8  16
BRANCH  15  27
ATOM     27  C   UNL A   1      32.884  19.983  25.701  1.00  0.00     0.111 C 
BRANCH  27  28
ATOM     28  S   UNL A   1      32.500  19.499  24.017  1.00  0.00    -0.089 SA
BRANCH  28  29
ATOM     29  C   UNL A   1      32.779  17.803  23.949  1.00  0.00     0.174 A 
ATOM     30  N   UNL A   1      33.251  17.204  22.879  1.00  0.00    -0.132 NA
ATOM     31  S   UNL A   1      33.030  16.938  25.405  1.00  0.00    -0.091 S 
ATOM     32  N   UNL A   1      34.189  16.248  23.241  1.00  0.00    -0.143 NA
ATOM     33  C   UNL A   1      34.315  16.182  24.554  1.00  0.00     0.115 A 
ATOM     34  C   UNL A   1      35.495  15.682  25.292  1.00  0.00     0.081 C 
ENDBRANCH  28  29
ENDBRANCH  27  28
ENDBRANCH  15  27
ENDBRANCH   4   7
ENDBRANCH   2   3
ENDBRANCH   1   2
BRANCH   1  35
ATOM     35  C   UNL A   1      39.489  22.924  26.884  1.00  0.00     0.023 C 
BRANCH  35  36
ATOM     36  C   UNL A   1      40.940  23.339  26.961  1.00  0.00     0.116 C 
BRANCH  36  37
ATOM     37  N   UNL A   1      41.374  24.231  25.892  1.00  0.00    -0.352 N 
ATOM     38  C   UNL A   1      41.726  25.561  26.013  1.00  0.00     0.251 C 
ATOM     39  H   UNL A   1      41.421  23.845  24.988  1.00  0.00     0.163 HD
ATOM     40  O   UNL A   1      42.027  26.229  25.032  1.00  0.00    -0.269 OA
BRANCH  38  41
ATOM     41  C   UNL A   1      41.664  26.160  27.362  1.00  0.00     0.039 A 
ATOM     42  C   UNL A   1      42.730  26.945  27.804  1.00  0.00     0.014 A 
ATOM     43  C   UNL A   1      40.468  26.106  28.081  1.00  0.00     0.014 A 
ATOM     44  C   UNL A   1      42.555  27.759  28.923  1.00  0.00     0.010 A 
ATOM     45  C   UNL A   1      40.258  27.010  29.110  1.00  0.00     0.010 A 
ATOM     46  C   UNL A   1      41.298  27.843  29.549  1.00  0.00    -0.014 A 
BRANCH  46  47
ATOM     47  C   UNL A   1      41.047  28.782  30.673  1.00  0.00     0.031 A 
ATOM     48  C   UNL A   1      41.871  28.670  31.929  1.00  0.00     0.074 A 
ATOM     49  C   UNL A   1      40.039  29.677  30.598  1.00  0.00     0.049 A 
ATOM     50  N   UNL A   1      41.760  29.330  33.052  1.00  0.00    -0.248 NA
ATOM     51  C   UNL A   1      42.932  27.648  31.939  1.00  0.00     0.031 C 
ATOM     52  C   UNL A   1      39.124  29.837  29.465  1.00  0.00     0.029 A 
ATOM     53  N   UNL A   1      39.610  30.619  31.500  1.00  0.00    -0.354 N 
ATOM     54  C   UNL A   1      42.719  28.790  33.901  1.00  0.00     0.074 A 
ATOM     55  C   UNL A   1      43.348  27.698  33.194  1.00  0.00     0.031 C 
ATOM     56  C   UNL A   1      38.270  30.840  29.725  1.00  0.00     0.029 A 
ATOM     57  C   UNL A   1      38.546  31.370  31.057  1.00  0.00     0.049 A 
ATOM     58  H   UNL A   1      40.026  30.747  32.384  1.00  0.00     0.167 HD
ATOM     59  C   UNL A   1      43.071  29.190  35.144  1.00  0.00     0.037 A 
ATOM     60  C   UNL A   1      37.868  32.369  31.656  1.00  0.00     0.037 A 
ATOM     61  C   UNL A   1      42.472  30.306  35.823  1.00  0.00     0.049 A 
ATOM     62  C   UNL A   1      38.290  32.811  33.033  1.00  0.00     0.074 A 
ATOM     63  C   UNL A   1      42.801  30.839  37.056  1.00  0.00     0.029 A 
ATOM     64  N   UNL A   1      41.421  31.063  35.325  1.00  0.00    -0.354 N 
ATOM     65  N   UNL A   1      39.248  32.336  33.792  1.00  0.00    -0.248 NA
ATOM     66  C   UNL A   1      37.548  33.929  33.631  1.00  0.00     0.031 C 
ATOM     67  C   UNL A   1      41.919  31.891  37.324  1.00  0.00     0.029 A 
ATOM     68  C   UNL A   1      41.077  32.048  36.234  1.00  0.00     0.049 A 
ATOM     69  H   UNL A   1      40.986  30.921  34.454  1.00  0.00     0.167 HD
ATOM     70  C   UNL A   1      39.244  33.116  34.944  1.00  0.00     0.074 A 
ATOM     71  C   UNL A   1      38.195  34.100  34.776  1.00  0.00     0.031 C 
ATOM     72  C   UNL A   1      40.038  33.028  36.041  1.00  0.00     0.037 A 
BRANCH  59  73
ATOM     73  C   UNL A   1      44.167  28.427  35.837  1.00  0.00     0.058 A 
ATOM     74  C   UNL A   1      45.520  28.766  35.674  1.00  0.00     0.135 A 
ATOM     75  C   UNL A   1      43.860  27.355  36.690  1.00  0.00     0.135 A 
ATOM     76  F   UNL A   1      45.873  29.769  34.854  1.00  0.00    -0.206 F 
ATOM     77  C   UNL A   1      46.531  28.050  36.304  1.00  0.00     0.059 A 
ATOM     78  C   UNL A   1      44.854  26.646  37.357  1.00  0.00     0.059 A 
ATOM     79  F   UNL A   1      42.584  26.984  36.879  1.00  0.00    -0.206 F 
ATOM     80  C   UNL A   1      46.188  26.991  37.146  1.00  0.00     0.060 A 
BRANCH  80  81
ATOM     81  S   UNL A   1      47.513  26.077  37.961  1.00  0.00     0.124 S 
ATOM     82  O   UNL A   1      46.780  25.383  39.016  1.00  0.00    -0.237 OA
ATOM     83  O   UNL A   1      48.019  25.234  36.883  1.00  0.00    -0.237 OA
ATOM     84  O   UNL A   1      48.421  27.125  38.414  1.00  0.00    -0.744 OA
ENDBRANCH  80  81
ENDBRANCH  59  73
BRANCH  60  85
ATOM     85  C   UNL A   1      36.744  33.043  30.949  1.00  0.00     0.058 A 
ATOM     86  C   UNL A   1      36.987  33.949  29.905  1.00  0.00     0.135 A 
ATOM     87  C   UNL A   1      35.407  32.789  31.293  1.00  0.00     0.135 A 
ATOM     88  F   UNL A   1      38.248  34.230  29.541  1.00  0.00    -0.206 F 
ATOM     89  C   UNL A   1      35.948  34.594  29.241  1.00  0.00     0.059 A 
ATOM     90  C   UNL A   1      34.350  33.402  30.625  1.00  0.00     0.059 A 
ATOM     91  F   UNL A   1      35.118  31.918  32.271  1.00  0.00    -0.206 F 
ATOM     92  C   UNL A   1      34.632  34.312  29.607  1.00  0.00     0.060 A 
BRANCH  92  93
ATOM     93  S   UNL A   1      33.290  35.119  28.705  1.00  0.00     0.124 S 
ATOM     94  O   UNL A   1      32.735  34.005  27.947  1.00  0.00    -0.237 OA
ATOM     95  O   UNL A   1      32.458  35.632  29.791  1.00  0.00    -0.237 OA
ATOM     96  O   UNL A   1      33.979  36.138  27.920  1.00  0.00    -0.744 OA
ENDBRANCH  92  93
ENDBRANCH  60  85
BRANCH  72  97
ATOM     97  C   UNL A   1      39.836  34.046  37.128  1.00  0.00     0.058 A 
ATOM     98  C   UNL A   1      39.038  33.781  38.251  1.00  0.00     0.135 A 
ATOM     99  C   UNL A   1      40.506  35.280  37.074  1.00  0.00     0.135 A 
ATOM    100  F   UNL A   1      38.373  32.619  38.349  1.00  0.00    -0.206 F 
ATOM    101  C   UNL A   1      38.895  34.712  39.274  1.00  0.00     0.059 A 
ATOM    102  C   UNL A   1      40.401  36.212  38.099  1.00  0.00     0.059 A 
ATOM    103  F   UNL A   1      41.292  35.578  36.026  1.00  0.00    -0.206 F 
ATOM    104  C   UNL A   1      39.584  35.924  39.191  1.00  0.00     0.060 A 
BRANCH 104 105
ATOM    105  S   UNL A   1      39.420  37.106  40.544  1.00  0.00     0.124 S 
ATOM    106  O   UNL A   1      40.813  37.314  40.924  1.00  0.00    -0.237 OA
ATOM    107  O   UNL A   1      38.764  38.237  39.894  1.00  0.00    -0.237 OA
ATOM    108  O   UNL A   1      38.603  36.393  41.522  1.00  0.00    -0.744 OA
ENDBRANCH 104 105
ENDBRANCH  72  97
ENDBRANCH  46  47
ENDBRANCH  38  41
ENDBRANCH  36  37
ENDBRANCH  35  36
ENDBRANCH   1  35
TORSDOF 19
ENDMDL
MODEL 2
REMARK VINA RESULT:     -12.9      6.029     10.352
REMARK SMILES Cc1cc(C(=O)N[C@@H]2C(=O)N3C(C(=O)NCCCCNC(=O)c4ccc(-c5c6nc(c(-c7c(F)cc(S(=O)(=O)[O-])cc7F)c7ccc([nH]7)c(-c7c(F)cc(S(=O)(=O)[O-])cc7F)c7nc(c(-c8c(F)cc(S(=O)(=O)[O-])cc8F)c8ccc5[nH]8)C=C7)C=C6)cc4)=C(CSc4nnc(C)s4)CS[C@H]23)n(C)n1
REMARK SMILES IDX 17 1 16 2 15 3 13 4 14 5 12 7 8 8 9 9 100 10 10 11 11 12
REMARK SMILES IDX 99 13 98 14 89 15 7 16 5 17 6 18 4 20 1 21 2 22 3 23 103 24
REMARK SMILES IDX 101 25 102 26 90 27 91 28 92 29 93 30 97 31 94 32 95 33
REMARK SMILES IDX 96 34 18 35 19 36 20 37 21 38 22 40 23 41 24 42 88 43 25 44
REMARK SMILES IDX 87 45 26 46 27 47 28 48 81 49 29 50 86 51 80 52 82 53 30 54
REMARK SMILES IDX 85 55 79 56 78 57 31 59 65 60 44 61 64 62 45 63 48 64 63 65
REMARK SMILES IDX 83 66 46 67 47 68 62 70 84 71 49 72 32 73 33 74 42 75 34 76
REMARK SMILES IDX 35 77 41 78 43 79 36 80 37 81 38 82 39 83 40 84 66 85 67 86
REMARK SMILES IDX 76 87 68 88 69 89 75 90 77 91 70 92 71 93 72 94 73 95 74 96
REMARK SMILES IDX 50 97 51 98 60 99 52 100 53 101 59 102 61 103 54 104 55 105
REMARK SMILES IDX 56 106 57 107 58 108
REMARK H PARENT 15 6 7 19 20 39 82 58 48 69
REMARK Flexibility Score: inf
ROOT
ATOM      1  C   UNL A   1      39.200  23.281  26.515  1.00  0.00     0.023 C 
ENDROOT
BRANCH   1   2
ATOM      2  C   UNL A   1      37.948  24.042  26.064  1.00  0.00     0.116 C 
BRANCH   2   3
ATOM      3  N   UNL A   1      37.456  23.520  24.807  1.00  0.00    -0.351 N 
ATOM      4  C   UNL A   1      36.316  22.963  24.337  1.00  0.00     0.268 C 
ATOM      5  O   UNL A   1      36.306  22.872  23.102  1.00  0.00    -0.268 OA
ATOM      6  H   UNL A   1      38.139  23.588  24.100  1.00  0.00     0.163 HD
BRANCH   4   7
ATOM      7  C   UNL A   1      35.030  22.644  25.124  1.00  0.00     0.111 C 
ATOM      8  C   UNL A   1      32.833  25.253  25.638  1.00  0.00     0.206 C 
ATOM      9  C   UNL A   1      33.841  24.773  24.556  1.00  0.00     0.253 C 
ATOM     10  C   UNL A   1      33.145  23.869  26.272  1.00  0.00     0.181 C 
ATOM     11  O   UNL A   1      34.023  25.063  23.388  1.00  0.00    -0.272 OA
ATOM     12  N   UNL A   1      34.302  23.798  25.402  1.00  0.00    -0.290 N 
ATOM     13  S   UNL A   1      32.006  22.505  25.872  1.00  0.00    -0.129 SA
ATOM     14  C   UNL A   1      33.261  21.325  26.371  1.00  0.00     0.106 C 
ATOM     15  C   UNL A   1      34.441  21.443  25.424  1.00  0.00    -0.020 C 
BRANCH   8  16
ATOM     16  N   UNL A   1      31.451  25.586  25.199  1.00  0.00    -0.336 N 
ATOM     17  C   UNL A   1      30.854  26.820  25.013  1.00  0.00     0.270 C 
ATOM     18  O   UNL A   1      29.695  26.839  24.604  1.00  0.00    -0.268 OA
ATOM     19  H   UNL A   1      30.873  24.812  25.011  1.00  0.00     0.164 HD
BRANCH  17  20
ATOM     20  C   UNL A   1      31.584  28.013  25.381  1.00  0.00     0.126 A 
ATOM     21  C   UNL A   1      31.802  31.321  26.880  1.00  0.00     0.069 C 
ATOM     22  C   UNL A   1      32.024  30.037  26.172  1.00  0.00     0.060 A 
ATOM     23  C   UNL A   1      31.607  28.745  26.560  1.00  0.00     0.059 A 
ATOM     24  N   UNL A   1      32.580  30.017  24.960  1.00  0.00    -0.178 NA
ATOM     25  N   UNL A   1      32.384  28.748  24.531  1.00  0.00    -0.263 N 
ATOM     26  C   UNL A   1      32.941  28.385  23.250  1.00  0.00     0.174 C 
ENDBRANCH  17  20
ENDBRANCH   8  16
BRANCH  15  27
ATOM     27  C   UNL A   1      34.571  20.170  24.620  1.00  0.00     0.111 C 
BRANCH  27  28
ATOM     28  S   UNL A   1      32.922  19.741  24.057  1.00  0.00    -0.089 SA
BRANCH  28  29
ATOM     29  C   UNL A   1      32.908  18.026  23.934  1.00  0.00     0.174 A 
ATOM     30  N   UNL A   1      33.272  17.389  22.844  1.00  0.00    -0.132 NA
ATOM     31  S   UNL A   1      33.008  17.085  25.361  1.00  0.00    -0.091 S 
ATOM     32  N   UNL A   1      34.033  16.276  23.172  1.00  0.00    -0.143 NA
ATOM     33  C   UNL A   1      34.145  16.148  24.481  1.00  0.00     0.115 A 
ATOM     34  C   UNL A   1      35.223  15.431  25.197  1.00  0.00     0.081 C 
ENDBRANCH  28  29
ENDBRANCH  27  28
ENDBRANCH  15  27
ENDBRANCH   4   7
ENDBRANCH   2   3
ENDBRANCH   1   2
BRANCH   1  35
ATOM     35  C   UNL A   1      39.306  21.826  26.107  1.00  0.00     0.023 C 
BRANCH  35  36
ATOM     36  C   UNL A   1      40.120  20.969  27.049  1.00  0.00     0.116 C 
BRANCH  36  37
ATOM     37  N   UNL A   1      40.743  19.806  26.426  1.00  0.00    -0.352 N 
ATOM     38  C   UNL A   1      42.046  19.700  25.984  1.00  0.00     0.251 C 
ATOM     39  H   UNL A   1      40.172  19.012  26.309  1.00  0.00     0.163 HD
ATOM     40  O   UNL A   1      42.446  18.685  25.428  1.00  0.00    -0.269 OA
BRANCH  38  41
ATOM     41  C   UNL A   1      42.920  20.879  26.153  1.00  0.00     0.039 A 
ATOM     42  C   UNL A   1      43.162  21.706  25.057  1.00  0.00     0.014 A 
ATOM     43  C   UNL A   1      43.314  21.259  27.439  1.00  0.00     0.014 A 
ATOM     44  C   UNL A   1      43.715  22.969  25.268  1.00  0.00     0.010 A 
ATOM     45  C   UNL A   1      43.740  22.560  27.656  1.00  0.00     0.010 A 
ATOM     46  C   UNL A   1      43.952  23.430  26.576  1.00  0.00    -0.014 A 
BRANCH  46  47
ATOM     47  C   UNL A   1      44.435  24.809  26.842  1.00  0.00     0.031 A 
ATOM     48  C   UNL A   1      43.458  25.857  27.308  1.00  0.00     0.074 A 
ATOM     49  C   UNL A   1      45.719  25.140  26.595  1.00  0.00     0.049 A 
ATOM     50  N   UNL A   1      43.652  27.133  27.517  1.00  0.00    -0.248 NA
ATOM     51  C   UNL A   1      42.068  25.421  27.527  1.00  0.00     0.031 C 
ATOM     52  C   UNL A   1      46.747  24.234  26.074  1.00  0.00     0.029 A 
ATOM     53  N   UNL A   1      46.382  26.333  26.744  1.00  0.00    -0.354 N 
ATOM     54  C   UNL A   1      42.410  27.649  27.869  1.00  0.00     0.074 A 
ATOM     55  C   UNL A   1      41.456  26.568  27.770  1.00  0.00     0.031 C 
ATOM     56  C   UNL A   1      47.913  24.893  25.983  1.00  0.00     0.029 A 
ATOM     57  C   UNL A   1      47.712  26.278  26.398  1.00  0.00     0.049 A 
ATOM     58  H   UNL A   1      45.945  27.154  27.068  1.00  0.00     0.167 HD
ATOM     59  C   UNL A   1      42.097  28.900  28.275  1.00  0.00     0.037 A 
ATOM     60  C   UNL A   1      48.662  27.235  26.413  1.00  0.00     0.037 A 
ATOM     61  C   UNL A   1      43.059  29.959  28.415  1.00  0.00     0.049 A 
ATOM     62  C   UNL A   1      48.295  28.616  26.887  1.00  0.00     0.074 A 
ATOM     63  C   UNL A   1      42.861  31.244  28.884  1.00  0.00     0.029 A 
ATOM     64  N   UNL A   1      44.404  29.853  28.090  1.00  0.00    -0.354 N 
ATOM     65  N   UNL A   1      47.130  29.068  27.286  1.00  0.00    -0.248 NA
ATOM     66  C   UNL A   1      49.371  29.616  26.923  1.00  0.00     0.031 C 
ATOM     67  C   UNL A   1      44.077  31.930  28.800  1.00  0.00     0.029 A 
ATOM     68  C   UNL A   1      45.044  31.055  28.330  1.00  0.00     0.049 A 
ATOM     69  H   UNL A   1      44.838  29.041  27.740  1.00  0.00     0.167 HD
ATOM     70  C   UNL A   1      47.338  30.395  27.649  1.00  0.00     0.074 A 
ATOM     71  C   UNL A   1      48.744  30.668  27.432  1.00  0.00     0.031 C 
ATOM     72  C   UNL A   1      46.449  31.303  28.121  1.00  0.00     0.037 A 
BRANCH  59  73
ATOM     73  C   UNL A   1      40.658  29.184  28.614  1.00  0.00     0.058 A 
ATOM     74  C   UNL A   1      40.214  29.258  29.944  1.00  0.00     0.135 A 
ATOM     75  C   UNL A   1      39.716  29.402  27.598  1.00  0.00     0.135 A 
ATOM     76  F   UNL A   1      41.068  29.037  30.956  1.00  0.00    -0.206 F 
ATOM     77  C   UNL A   1      38.882  29.506  30.255  1.00  0.00     0.059 A 
ATOM     78  C   UNL A   1      38.383  29.684  27.885  1.00  0.00     0.059 A 
ATOM     79  F   UNL A   1      40.083  29.338  26.307  1.00  0.00    -0.206 F 
ATOM     80  C   UNL A   1      37.973  29.719  29.217  1.00  0.00     0.060 A 
BRANCH  80  81
ATOM     81  S   UNL A   1      36.250  30.046  29.638  1.00  0.00     0.124 S 
ATOM     82  O   UNL A   1      35.551  29.357  28.556  1.00  0.00    -0.237 OA
ATOM     83  O   UNL A   1      36.130  29.435  30.958  1.00  0.00    -0.237 OA
ATOM     84  O   UNL A   1      36.164  31.502  29.613  1.00  0.00    -0.744 OA
ENDBRANCH  80  81
ENDBRANCH  59  73
BRANCH  60  85
ATOM     85  C   UNL A   1      50.056  26.914  25.999  1.00  0.00     0.058 A 
ATOM     86  C   UNL A   1      50.495  27.155  24.688  1.00  0.00     0.135 A 
ATOM     87  C   UNL A   1      50.980  26.370  26.905  1.00  0.00     0.135 A 
ATOM     88  F   UNL A   1      49.648  27.670  23.783  1.00  0.00    -0.206 F 
ATOM     89  C   UNL A   1      51.791  26.853  24.284  1.00  0.00     0.059 A 
ATOM     90  C   UNL A   1      52.291  26.083  26.531  1.00  0.00     0.059 A 
ATOM     91  F   UNL A   1      50.619  26.135  28.175  1.00  0.00    -0.206 F 
ATOM     92  C   UNL A   1      52.683  26.319  25.214  1.00  0.00     0.060 A 
BRANCH  92  93
ATOM     93  S   UNL A   1      54.378  25.974  24.690  1.00  0.00     0.124 S 
ATOM     94  O   UNL A   1      54.316  26.290  23.269  1.00  0.00    -0.237 OA
ATOM     95  O   UNL A   1      55.147  26.900  25.518  1.00  0.00    -0.237 OA
ATOM     96  O   UNL A   1      54.549  24.562  25.019  1.00  0.00    -0.744 OA
ENDBRANCH  92  93
ENDBRANCH  60  85
BRANCH  72  97
ATOM     97  C   UNL A   1      46.971  32.666  28.478  1.00  0.00     0.058 A 
ATOM     98  C   UNL A   1      46.987  33.719  27.551  1.00  0.00     0.135 A 
ATOM     99  C   UNL A   1      47.399  32.939  29.788  1.00  0.00     0.135 A 
ATOM    100  F   UNL A   1      46.593  33.510  26.284  1.00  0.00    -0.206 F 
ATOM    101  C   UNL A   1      47.430  34.989  27.904  1.00  0.00     0.059 A 
ATOM    102  C   UNL A   1      47.817  34.208  30.171  1.00  0.00     0.059 A 
ATOM    103  F   UNL A   1      47.392  31.969  30.718  1.00  0.00    -0.206 F 
ATOM    104  C   UNL A   1      47.839  35.225  29.218  1.00  0.00     0.060 A 
BRANCH 104 105
ATOM    105  S   UNL A   1      48.372  36.888  29.673  1.00  0.00     0.124 S 
ATOM    106  O   UNL A   1      49.750  36.896  29.194  1.00  0.00    -0.237 OA
ATOM    107  O   UNL A   1      47.438  37.729  28.930  1.00  0.00    -0.237 OA
ATOM    108  O   UNL A   1      48.211  36.912  31.123  1.00  0.00    -0.744 OA
ENDBRANCH 104 105
ENDBRANCH  72  97
ENDBRANCH  46  47
ENDBRANCH  38  41
ENDBRANCH  36  37
ENDBRANCH  35  36
ENDBRANCH   1  35
TORSDOF 19
ENDMDL
MODEL 3
REMARK VINA RESULT:     -12.7      5.848      8.090
REMARK SMILES Cc1cc(C(=O)N[C@@H]2C(=O)N3C(C(=O)NCCCCNC(=O)c4ccc(-c5c6nc(c(-c7c(F)cc(S(=O)(=O)[O-])cc7F)c7ccc([nH]7)c(-c7c(F)cc(S(=O)(=O)[O-])cc7F)c7nc(c(-c8c(F)cc(S(=O)(=O)[O-])cc8F)c8ccc5[nH]8)C=C7)C=C6)cc4)=C(CSc4nnc(C)s4)CS[C@H]23)n(C)n1
REMARK SMILES IDX 17 1 16 2 15 3 13 4 14 5 12 7 8 8 9 9 100 10 10 11 11 12
REMARK SMILES IDX 99 13 98 14 89 15 7 16 5 17 6 18 4 20 1 21 2 22 3 23 103 24
REMARK SMILES IDX 101 25 102 26 90 27 91 28 92 29 93 30 97 31 94 32 95 33
REMARK SMILES IDX 96 34 18 35 19 36 20 37 21 38 22 40 23 41 24 42 88 43 25 44
REMARK SMILES IDX 87 45 26 46 27 47 28 48 81 49 29 50 86 51 80 52 82 53 30 54
REMARK SMILES IDX 85 55 79 56 78 57 31 59 65 60 44 61 64 62 45 63 48 64 63 65
REMARK SMILES IDX 83 66 46 67 47 68 62 70 84 71 49 72 32 73 33 74 42 75 34 76
REMARK SMILES IDX 35 77 41 78 43 79 36 80 37 81 38 82 39 83 40 84 66 85 67 86
REMARK SMILES IDX 76 87 68 88 69 89 75 90 77 91 70 92 71 93 72 94 73 95 74 96
REMARK SMILES IDX 50 97 51 98 60 99 52 100 53 101 59 102 61 103 54 104 55 105
REMARK SMILES IDX 56 106 57 107 58 108
REMARK H PARENT 15 6 7 19 20 39 82 58 48 69
REMARK Flexibility Score: inf
ROOT
ATOM      1  C   UNL A   1      39.006  23.147  26.410  1.00  0.00     0.023 C 
ENDROOT
BRANCH   1   2
ATOM      2  C   UNL A   1      37.797  23.884  25.823  1.00  0.00     0.116 C 
BRANCH   2   3
ATOM      3  N   UNL A   1      37.414  23.307  24.552  1.00  0.00    -0.351 N 
ATOM      4  C   UNL A   1      36.281  22.859  23.962  1.00  0.00     0.268 C 
ATOM      5  O   UNL A   1      36.429  22.646  22.751  1.00  0.00    -0.268 OA
ATOM      6  H   UNL A   1      38.189  23.214  23.953  1.00  0.00     0.163 HD
BRANCH   4   7
ATOM      7  C   UNL A   1      34.867  22.790  24.570  1.00  0.00     0.111 C 
ATOM      8  C   UNL A   1      32.925  25.629  24.317  1.00  0.00     0.206 C 
ATOM      9  C   UNL A   1      34.019  24.888  23.498  1.00  0.00     0.253 C 
ATOM     10  C   UNL A   1      32.984  24.350  25.197  1.00  0.00     0.181 C 
ATOM     11  O   UNL A   1      34.401  24.960  22.346  1.00  0.00    -0.272 OA
ATOM     12  N   UNL A   1      34.240  24.033  24.547  1.00  0.00    -0.290 N 
ATOM     13  S   UNL A   1      31.770  23.043  24.832  1.00  0.00    -0.129 SA
ATOM     14  C   UNL A   1      32.798  21.859  25.701  1.00  0.00     0.106 C 
ATOM     15  C   UNL A   1      34.110  21.712  24.951  1.00  0.00    -0.020 C 
BRANCH   8  16
ATOM     16  N   UNL A   1      31.667  26.003  23.614  1.00  0.00    -0.336 N 
ATOM     17  C   UNL A   1      30.813  27.068  23.835  1.00  0.00     0.270 C 
ATOM     18  O   UNL A   1      29.844  27.188  23.089  1.00  0.00    -0.268 OA
ATOM     19  H   UNL A   1      31.403  25.403  22.880  1.00  0.00     0.164 HD
BRANCH  17  20
ATOM     20  C   UNL A   1      31.052  27.934  24.969  1.00  0.00     0.126 A 
ATOM     21  C   UNL A   1      32.974  30.465  26.739  1.00  0.00     0.069 C 
ATOM     22  C   UNL A   1      32.018  29.419  26.301  1.00  0.00     0.060 A 
ATOM     23  C   UNL A   1      31.405  29.274  25.037  1.00  0.00     0.059 A 
ATOM     24  N   UNL A   1      31.730  28.387  27.094  1.00  0.00    -0.178 NA
ATOM     25  N   UNL A   1      31.059  27.532  26.288  1.00  0.00    -0.263 N 
ATOM     26  C   UNL A   1      30.544  26.321  26.882  1.00  0.00     0.174 C 
ENDBRANCH  17  20
ENDBRANCH   8  16
BRANCH  15  27
ATOM     27  C   UNL A   1      34.211  20.316  24.383  1.00  0.00     0.111 C 
BRANCH  27  28
ATOM     28  S   UNL A   1      32.533  19.746  24.102  1.00  0.00    -0.089 SA
BRANCH  28  29
ATOM     29  C   UNL A   1      32.647  18.038  23.934  1.00  0.00     0.174 A 
ATOM     30  N   UNL A   1      33.092  17.460  22.841  1.00  0.00    -0.132 NA
ATOM     31  S   UNL A   1      32.768  17.067  25.339  1.00  0.00    -0.091 S 
ATOM     32  N   UNL A   1      33.921  16.396  23.166  1.00  0.00    -0.143 NA
ATOM     33  C   UNL A   1      33.999  16.239  24.475  1.00  0.00     0.115 A 
ATOM     34  C   UNL A   1      35.102  15.581  25.209  1.00  0.00     0.081 C 
ENDBRANCH  28  29
ENDBRANCH  27  28
ENDBRANCH  15  27
ENDBRANCH   4   7
ENDBRANCH   2   3
ENDBRANCH   1   2
BRANCH   1  35
ATOM     35  C   UNL A   1      39.185  21.695  26.020  1.00  0.00     0.023 C 
BRANCH  35  36
ATOM     36  C   UNL A   1      40.022  20.885  26.983  1.00  0.00     0.116 C 
BRANCH  36  37
ATOM     37  N   UNL A   1      40.716  19.753  26.380  1.00  0.00    -0.352 N 
ATOM     38  C   UNL A   1      42.029  19.716  25.954  1.00  0.00     0.251 C 
ATOM     39  H   UNL A   1      40.193  18.927  26.265  1.00  0.00     0.163 HD
ATOM     40  O   UNL A   1      42.491  18.720  25.413  1.00  0.00    -0.269 OA
BRANCH  38  41
ATOM     41  C   UNL A   1      42.833  20.944  26.120  1.00  0.00     0.039 A 
ATOM     42  C   UNL A   1      43.014  21.788  25.025  1.00  0.00     0.014 A 
ATOM     43  C   UNL A   1      43.217  21.341  27.403  1.00  0.00     0.014 A 
ATOM     44  C   UNL A   1      43.493  23.082  25.237  1.00  0.00     0.010 A 
ATOM     45  C   UNL A   1      43.567  22.664  27.623  1.00  0.00     0.010 A 
ATOM     46  C   UNL A   1      43.716  23.550  26.544  1.00  0.00    -0.014 A 
BRANCH  46  47
ATOM     47  C   UNL A   1      44.119  24.955  26.812  1.00  0.00     0.031 A 
ATOM     48  C   UNL A   1      45.556  25.362  26.616  1.00  0.00     0.074 A 
ATOM     49  C   UNL A   1      43.223  25.837  27.301  1.00  0.00     0.049 A 
ATOM     50  N   UNL A   1      46.132  26.508  26.870  1.00  0.00    -0.248 NA
ATOM     51  C   UNL A   1      46.476  24.331  26.106  1.00  0.00     0.031 C 
ATOM     52  C   UNL A   1      41.818  25.547  27.602  1.00  0.00     0.029 A 
ATOM     53  N   UNL A   1      43.362  27.161  27.638  1.00  0.00    -0.354 N 
ATOM     54  C   UNL A   1      47.477  26.325  26.572  1.00  0.00     0.074 A 
ATOM     55  C   UNL A   1      47.646  24.941  26.194  1.00  0.00     0.031 C 
ATOM     56  C   UNL A   1      41.220  26.665  28.042  1.00  0.00     0.029 A 
ATOM     57  C   UNL A   1      42.202  27.744  28.095  1.00  0.00     0.049 A 
ATOM     58  H   UNL A   1      44.213  27.649  27.560  1.00  0.00     0.167 HD
ATOM     59  C   UNL A   1      48.477  27.237  26.576  1.00  0.00     0.037 A 
ATOM     60  C   UNL A   1      41.958  29.002  28.510  1.00  0.00     0.037 A 
ATOM     61  C   UNL A   1      48.292  28.623  26.910  1.00  0.00     0.049 A 
ATOM     62  C   UNL A   1      43.082  30.006  28.488  1.00  0.00     0.074 A 
ATOM     63  C   UNL A   1      49.222  29.645  26.880  1.00  0.00     0.029 A 
ATOM     64  N   UNL A   1      47.094  29.181  27.333  1.00  0.00    -0.354 N 
ATOM     65  N   UNL A   1      44.333  29.833  28.133  1.00  0.00    -0.248 NA
ATOM     66  C   UNL A   1      42.761  31.375  28.913  1.00  0.00     0.031 C 
ATOM     67  C   UNL A   1      48.598  30.814  27.328  1.00  0.00     0.029 A 
ATOM     68  C   UNL A   1      47.266  30.531  27.584  1.00  0.00     0.049 A 
ATOM     69  H   UNL A   1      46.248  28.690  27.438  1.00  0.00     0.167 HD
ATOM     70  C   UNL A   1      44.941  31.078  28.262  1.00  0.00     0.074 A 
ATOM     71  C   UNL A   1      43.917  31.995  28.718  1.00  0.00     0.031 C 
ATOM     72  C   UNL A   1      46.229  31.431  28.023  1.00  0.00     0.037 A 
BRANCH  59  73
ATOM     73  C   UNL A   1      49.852  26.764  26.190  1.00  0.00     0.058 A 
ATOM     74  C   UNL A   1      50.730  26.202  27.131  1.00  0.00     0.135 A 
ATOM     75  C   UNL A   1      50.292  26.858  24.861  1.00  0.00     0.135 A 
ATOM     76  F   UNL A   1      50.370  26.107  28.421  1.00  0.00    -0.206 F 
ATOM     77  C   UNL A   1      52.006  25.779  26.775  1.00  0.00     0.059 A 
ATOM     78  C   UNL A   1      51.552  26.410  24.475  1.00  0.00     0.059 A 
ATOM     79  F   UNL A   1      49.496  27.391  23.920  1.00  0.00    -0.206 F 
ATOM     80  C   UNL A   1      52.408  25.887  25.443  1.00  0.00     0.060 A 
BRANCH  80  81
ATOM     81  S   UNL A   1      54.064  25.327  24.997  1.00  0.00     0.124 S 
ATOM     82  O   UNL A   1      54.236  25.944  23.685  1.00  0.00    -0.237 OA
ATOM     83  O   UNL A   1      54.881  25.884  26.071  1.00  0.00    -0.237 OA
ATOM     84  O   UNL A   1      53.943  23.873  24.995  1.00  0.00    -0.744 OA
ENDBRANCH  80  81
ENDBRANCH  59  73
BRANCH  60  85
ATOM     85  C   UNL A   1      40.591  29.396  28.949  1.00  0.00     0.058 A 
ATOM     86  C   UNL A   1      39.563  29.600  28.016  1.00  0.00     0.135 A 
ATOM     87  C   UNL A   1      40.282  29.569  30.307  1.00  0.00     0.135 A 
ATOM     88  F   UNL A   1      39.809  29.453  26.705  1.00  0.00    -0.206 F 
ATOM     89  C   UNL A   1      38.283  29.977  28.410  1.00  0.00     0.059 A 
ATOM     90  C   UNL A   1      39.001  29.920  30.728  1.00  0.00     0.059 A 
ATOM     91  F   UNL A   1      41.223  29.370  31.243  1.00  0.00    -0.206 F 
ATOM     92  C   UNL A   1      38.011  30.133  29.769  1.00  0.00     0.060 A 
BRANCH  92  93
ATOM     93  S   UNL A   1      36.333  30.576  30.272  1.00  0.00     0.124 S 
ATOM     94  O   UNL A   1      35.557  30.153  29.113  1.00  0.00    -0.237 OA
ATOM     95  O   UNL A   1      36.158  29.780  31.484  1.00  0.00    -0.237 OA
ATOM     96  O   UNL A   1      36.418  32.018  30.486  1.00  0.00    -0.744 OA
ENDBRANCH  92  93
ENDBRANCH  60  85
BRANCH  72  97
ATOM     97  C   UNL A   1      46.599  32.876  28.207  1.00  0.00     0.058 A 
ATOM     98  C   UNL A   1      47.133  33.356  29.411  1.00  0.00     0.135 A 
ATOM     99  C   UNL A   1      46.478  33.777  27.136  1.00  0.00     0.135 A 
ATOM    100  F   UNL A   1      47.265  32.536  30.467  1.00  0.00    -0.206 F 
ATOM    101  C   UNL A   1      47.515  34.686  29.556  1.00  0.00     0.059 A 
ATOM    102  C   UNL A   1      46.882  35.102  27.249  1.00  0.00     0.059 A 
ATOM    103  F   UNL A   1      45.984  33.365  25.957  1.00  0.00    -0.206 F 
ATOM    104  C   UNL A   1      47.390  35.551  28.467  1.00  0.00     0.060 A 
BRANCH 104 105
ATOM    105  S   UNL A   1      47.927  37.263  28.656  1.00  0.00     0.124 S 
ATOM    106  O   UNL A   1      47.133  37.695  29.800  1.00  0.00    -0.237 OA
ATOM    107  O   UNL A   1      49.359  37.115  28.896  1.00  0.00    -0.237 OA
ATOM    108  O   UNL A   1      47.572  37.874  27.379  1.00  0.00    -0.744 OA
ENDBRANCH 104 105
ENDBRANCH  72  97
ENDBRANCH  46  47
ENDBRANCH  38  41
ENDBRANCH  36  37
ENDBRANCH  35  36
ENDBRANCH   1  35
TORSDOF 19
ENDMDL
