MODEL 1
REMARK VINA RESULT:     -10.0      0.000      0.000
REMARK SMILES CC(C)Cc1ccc([C@H](CC(=O)NCCCCNC(=O)c2ccc(-c3c4nc(c(-c5c(F)cc(S(=O)(=O)[O-])cc5F)c5ccc([nH]5)c(-c5c(F)cc(S(=O)(=O)[O-])cc5F)c5nc(c(-c6c(F)cc(S(=O)(=O)[O-])cc6F)c6ccc3[nH]6)C=C5)C=C4)cc2)C(F)(F)F)cc1
REMARK SMILES IDX 15 1 14 2 13 3 11 4 12 5 10 7 9 8 8 9 5 10 6 11 92 12 7 13
REMARK SMILES IDX 91 14 4 15 2 16 1 17 3 18 87 19 88 20 89 21 90 22 16 23
REMARK SMILES IDX 17 24 18 25 19 26 20 28 21 29 22 30 86 31 23 32 85 33 24 34
REMARK SMILES IDX 25 35 26 36 79 37 27 38 84 39 78 40 80 41 28 42 83 43 77 44
REMARK SMILES IDX 76 45 29 47 63 48 42 49 62 50 43 51 46 52 61 53 81 54 44 55
REMARK SMILES IDX 45 56 60 58 82 59 47 60 30 61 31 62 40 63 32 64 33 65 39 66
REMARK SMILES IDX 41 67 34 68 35 69 36 70 37 71 38 72 64 73 65 74 74 75 66 76
REMARK SMILES IDX 67 77 73 78 75 79 68 80 69 81 70 82 71 83 72 84 48 85 49 86
REMARK SMILES IDX 58 87 50 88 51 89 57 90 59 91 52 92 53 93 54 94 55 95 56 96
REMARK H PARENT 13 6 18 27 80 46 46 57
REMARK Flexibility Score: inf
ROOT
ATOM      1  C   UNL A   1      32.914  34.904  28.656  1.00  0.00     0.023 C 
ENDROOT
BRANCH   1   2
ATOM      2  C   UNL A   1      33.471  36.026  29.524  1.00  0.00     0.116 C 
BRANCH   2   3
ATOM      3  N   UNL A   1      32.667  36.183  30.718  1.00  0.00    -0.356 N 
ATOM      4  C   UNL A   1      33.007  35.964  32.017  1.00  0.00     0.220 C 
ATOM      5  O   UNL A   1      32.120  35.973  32.872  1.00  0.00    -0.275 OA
ATOM      6  H   UNL A   1      31.744  36.490  30.569  1.00  0.00     0.163 HD
BRANCH   4   7
ATOM      7  C   UNL A   1      34.449  35.720  32.410  1.00  0.00     0.117 C 
BRANCH   7   8
ATOM      8  C   UNL A   1      34.866  34.244  32.219  1.00  0.00     0.134 C 
BRANCH   8   9
ATOM      9  C   UNL A   1      36.288  34.076  31.690  1.00  0.00    -0.035 A 
ATOM     10  C   UNL A   1      38.827  34.160  30.417  1.00  0.00    -0.048 A 
ATOM     11  C   UNL A   1      37.752  33.496  29.826  1.00  0.00     0.004 A 
ATOM     12  C   UNL A   1      38.650  34.634  31.729  1.00  0.00     0.004 A 
ATOM     13  C   UNL A   1      36.498  33.459  30.450  1.00  0.00     0.004 A 
ATOM     14  C   UNL A   1      37.406  34.574  32.369  1.00  0.00     0.004 A 
BRANCH  10  15
ATOM     15  C   UNL A   1      40.098  34.565  29.694  1.00  0.00     0.038 C 
BRANCH  15  16
ATOM     16  C   UNL A   1      41.504  34.150  30.186  1.00  0.00    -0.013 C 
ATOM     17  C   UNL A   1      41.762  32.638  30.202  1.00  0.00     0.008 C 
ATOM     18  C   UNL A   1      42.552  34.788  29.256  1.00  0.00     0.008 C 
ENDBRANCH  15  16
ENDBRANCH  10  15
ENDBRANCH   8   9
BRANCH   8  19
ATOM     19  C   UNL A   1      34.646  33.469  33.514  1.00  0.00     0.396 C 
ATOM     20  F   UNL A   1      33.353  33.079  33.627  1.00  0.00    -0.170 F 
ATOM     21  F   UNL A   1      35.399  32.348  33.567  1.00  0.00    -0.170 F 
ATOM     22  F   UNL A   1      34.934  34.215  34.604  1.00  0.00    -0.170 F 
ENDBRANCH   8  19
ENDBRANCH   7   8
ENDBRANCH   4   7
ENDBRANCH   2   3
ENDBRANCH   1   2
BRANCH   1  23
ATOM     23  C   UNL A   1      33.950  34.008  27.997  1.00  0.00     0.023 C 
BRANCH  23  24
ATOM     24  C   UNL A   1      33.997  32.592  28.551  1.00  0.00     0.116 C 
BRANCH  24  25
ATOM     25  N   UNL A   1      33.680  31.559  27.571  1.00  0.00    -0.352 N 
ATOM     26  C   UNL A   1      34.398  30.433  27.243  1.00  0.00     0.251 C 
ATOM     27  H   UNL A   1      32.837  31.685  27.078  1.00  0.00     0.163 HD
ATOM     28  O   UNL A   1      34.033  29.708  26.324  1.00  0.00    -0.269 OA
BRANCH  26  29
ATOM     29  C   UNL A   1      35.624  30.126  28.003  1.00  0.00     0.039 A 
ATOM     30  C   UNL A   1      35.528  29.574  29.281  1.00  0.00     0.014 A 
ATOM     31  C   UNL A   1      36.872  30.342  27.414  1.00  0.00     0.014 A 
ATOM     32  C   UNL A   1      36.692  29.190  29.949  1.00  0.00     0.010 A 
ATOM     33  C   UNL A   1      38.011  29.848  28.025  1.00  0.00     0.010 A 
ATOM     34  C   UNL A   1      37.939  29.301  29.313  1.00  0.00    -0.014 A 
BRANCH  34  35
ATOM     35  C   UNL A   1      39.207  28.935  29.990  1.00  0.00     0.031 A 
ATOM     36  C   UNL A   1      39.605  29.681  31.238  1.00  0.00     0.074 A 
ATOM     37  C   UNL A   1      40.027  28.017  29.445  1.00  0.00     0.049 A 
ATOM     38  N   UNL A   1      40.725  29.636  31.911  1.00  0.00    -0.248 NA
ATOM     39  C   UNL A   1      38.633  30.656  31.765  1.00  0.00     0.031 C 
ATOM     40  C   UNL A   1      39.778  27.282  28.203  1.00  0.00     0.029 A 
ATOM     41  N   UNL A   1      41.248  27.556  29.863  1.00  0.00    -0.354 N 
ATOM     42  C   UNL A   1      40.604  30.598  32.907  1.00  0.00     0.074 A 
ATOM     43  C   UNL A   1      39.337  31.264  32.706  1.00  0.00     0.031 C 
ATOM     44  C   UNL A   1      40.800  26.440  27.977  1.00  0.00     0.029 A 
ATOM     45  C   UNL A   1      41.789  26.599  29.038  1.00  0.00     0.049 A 
ATOM     46  H   UNL A   1      41.695  27.879  30.679  1.00  0.00     0.167 HD
ATOM     47  C   UNL A   1      41.453  30.877  33.924  1.00  0.00     0.037 A 
ATOM     48  C   UNL A   1      42.952  25.927  29.135  1.00  0.00     0.037 A 
ATOM     49  C   UNL A   1      42.677  30.158  34.152  1.00  0.00     0.049 A 
ATOM     50  C   UNL A   1      43.846  26.198  30.316  1.00  0.00     0.074 A 
ATOM     51  C   UNL A   1      43.582  30.299  35.187  1.00  0.00     0.029 A 
ATOM     52  N   UNL A   1      43.155  29.141  33.336  1.00  0.00    -0.354 N 
ATOM     53  N   UNL A   1      43.696  27.078  31.280  1.00  0.00    -0.248 NA
ATOM     54  C   UNL A   1      45.056  25.376  30.434  1.00  0.00     0.031 C 
ATOM     55  C   UNL A   1      44.622  29.384  34.984  1.00  0.00     0.029 A 
ATOM     56  C   UNL A   1      44.341  28.644  33.846  1.00  0.00     0.049 A 
ATOM     57  H   UNL A   1      42.714  28.821  32.516  1.00  0.00     0.167 HD
ATOM     58  C   UNL A   1      44.777  26.893  32.134  1.00  0.00     0.074 A 
ATOM     59  C   UNL A   1      45.561  25.807  31.580  1.00  0.00     0.031 C 
ATOM     60  C   UNL A   1      45.095  27.557  33.275  1.00  0.00     0.037 A 
BRANCH  47  61
ATOM     61  C   UNL A   1      41.068  31.984  34.868  1.00  0.00     0.058 A 
ATOM     62  C   UNL A   1      41.478  33.311  34.657  1.00  0.00     0.135 A 
ATOM     63  C   UNL A   1      40.279  31.719  36.000  1.00  0.00     0.135 A 
ATOM     64  F   UNL A   1      42.250  33.621  33.603  1.00  0.00    -0.206 F 
ATOM     65  C   UNL A   1      41.157  34.325  35.552  1.00  0.00     0.059 A 
ATOM     66  C   UNL A   1      39.917  32.725  36.891  1.00  0.00     0.059 A 
ATOM     67  F   UNL A   1      39.860  30.468  36.254  1.00  0.00    -0.206 F 
ATOM     68  C   UNL A   1      40.377  34.022  36.668  1.00  0.00     0.060 A 
BRANCH  68  69
ATOM     69  S   UNL A   1      39.970  35.349  37.821  1.00  0.00     0.124 S 
ATOM     70  O   UNL A   1      39.692  36.452  36.907  1.00  0.00    -0.237 OA
ATOM     71  O   UNL A   1      38.814  34.807  38.528  1.00  0.00    -0.237 OA
ATOM     72  O   UNL A   1      41.182  35.488  38.622  1.00  0.00    -0.744 OA
ENDBRANCH  68  69
ENDBRANCH  47  61
BRANCH  48  73
ATOM     73  C   UNL A   1      43.306  24.895  28.124  1.00  0.00     0.058 A 
ATOM     74  C   UNL A   1      42.879  23.567  28.274  1.00  0.00     0.135 A 
ATOM     75  C   UNL A   1      44.060  25.213  26.985  1.00  0.00     0.135 A 
ATOM     76  F   UNL A   1      42.157  23.213  29.348  1.00  0.00    -0.206 F 
ATOM     77  C   UNL A   1      43.204  22.585  27.344  1.00  0.00     0.059 A 
ATOM     78  C   UNL A   1      44.377  24.253  26.027  1.00  0.00     0.059 A 
ATOM     79  F   UNL A   1      44.475  26.473  26.781  1.00  0.00    -0.206 F 
ATOM     80  C   UNL A   1      43.953  22.939  26.221  1.00  0.00     0.060 A 
BRANCH  80  81
ATOM     81  S   UNL A   1      44.330  21.666  24.997  1.00  0.00     0.124 S 
ATOM     82  O   UNL A   1      44.081  22.375  23.748  1.00  0.00    -0.237 OA
ATOM     83  O   UNL A   1      45.726  21.360  25.291  1.00  0.00    -0.237 OA
ATOM     84  O   UNL A   1      43.382  20.603  25.319  1.00  0.00    -0.744 OA
ENDBRANCH  80  81
ENDBRANCH  48  73
BRANCH  60  85
ATOM     85  C   UNL A   1      46.317  27.092  34.014  1.00  0.00     0.058 A 
ATOM     86  C   UNL A   1      46.250  26.093  34.997  1.00  0.00     0.135 A 
ATOM     87  C   UNL A   1      47.574  27.645  33.721  1.00  0.00     0.135 A 
ATOM     88  F   UNL A   1      45.071  25.534  35.314  1.00  0.00    -0.206 F 
ATOM     89  C   UNL A   1      47.382  25.689  35.698  1.00  0.00     0.059 A 
ATOM     90  C   UNL A   1      48.723  27.235  34.388  1.00  0.00     0.059 A 
ATOM     91  F   UNL A   1      47.694  28.592  32.777  1.00  0.00    -0.206 F 
ATOM     92  C   UNL A   1      48.612  26.272  35.390  1.00  0.00     0.060 A 
BRANCH  92  93
ATOM     93  S   UNL A   1      50.074  25.748  36.310  1.00  0.00     0.124 S 
ATOM     94  O   UNL A   1      50.473  24.557  35.569  1.00  0.00    -0.237 OA
ATOM     95  O   UNL A   1      50.958  26.902  36.180  1.00  0.00    -0.237 OA
ATOM     96  O   UNL A   1      49.560  25.510  37.656  1.00  0.00    -0.744 OA
ENDBRANCH  92  93
ENDBRANCH  60  85
ENDBRANCH  34  35
ENDBRANCH  26  29
ENDBRANCH  24  25
ENDBRANCH  23  24
ENDBRANCH   1  23
TORSDOF 19
ENDMDL
MODEL 2
REMARK VINA RESULT:      -9.6      5.025     11.688
REMARK SMILES CC(C)Cc1ccc([C@H](CC(=O)NCCCCNC(=O)c2ccc(-c3c4nc(c(-c5c(F)cc(S(=O)(=O)[O-])cc5F)c5ccc([nH]5)c(-c5c(F)cc(S(=O)(=O)[O-])cc5F)c5nc(c(-c6c(F)cc(S(=O)(=O)[O-])cc6F)c6ccc3[nH]6)C=C5)C=C4)cc2)C(F)(F)F)cc1
REMARK SMILES IDX 15 1 14 2 13 3 11 4 12 5 10 7 9 8 8 9 5 10 6 11 92 12 7 13
REMARK SMILES IDX 91 14 4 15 2 16 1 17 3 18 87 19 88 20 89 21 90 22 16 23
REMARK SMILES IDX 17 24 18 25 19 26 20 28 21 29 22 30 86 31 23 32 85 33 24 34
REMARK SMILES IDX 25 35 26 36 79 37 27 38 84 39 78 40 80 41 28 42 83 43 77 44
REMARK SMILES IDX 76 45 29 47 63 48 42 49 62 50 43 51 46 52 61 53 81 54 44 55
REMARK SMILES IDX 45 56 60 58 82 59 47 60 30 61 31 62 40 63 32 64 33 65 39 66
REMARK SMILES IDX 41 67 34 68 35 69 36 70 37 71 38 72 64 73 65 74 74 75 66 76
REMARK SMILES IDX 67 77 73 78 75 79 68 80 69 81 70 82 71 83 72 84 48 85 49 86
REMARK SMILES IDX 58 87 50 88 51 89 57 90 59 91 52 92 53 93 54 94 55 95 56 96
REMARK H PARENT 13 6 18 27 80 46 46 57
REMARK Flexibility Score: inf
ROOT
ATOM      1  C   UNL A   1      39.220  21.859  26.004  1.00  0.00     0.023 C 
ENDROOT
BRANCH   1   2
ATOM      2  C   UNL A   1      37.772  21.588  25.610  1.00  0.00     0.116 C 
BRANCH   2   3
ATOM      3  N   UNL A   1      37.538  22.006  24.244  1.00  0.00    -0.356 N 
ATOM      4  C   UNL A   1      36.626  22.894  23.762  1.00  0.00     0.220 C 
ATOM      5  O   UNL A   1      36.459  22.970  22.544  1.00  0.00    -0.275 OA
ATOM      6  H   UNL A   1      38.119  21.588  23.568  1.00  0.00     0.163 HD
BRANCH   4   7
ATOM      7  C   UNL A   1      35.836  23.781  24.702  1.00  0.00     0.117 C 
BRANCH   7   8
ATOM      8  C   UNL A   1      34.343  23.861  24.314  1.00  0.00     0.134 C 
BRANCH   8   9
ATOM      9  C   UNL A   1      33.615  22.523  24.413  1.00  0.00    -0.035 A 
ATOM     10  C   UNL A   1      32.633  19.858  24.308  1.00  0.00    -0.048 A 
ATOM     11  C   UNL A   1      32.336  20.770  23.295  1.00  0.00     0.004 A 
ATOM     12  C   UNL A   1      33.288  20.353  25.450  1.00  0.00     0.004 A 
ATOM     13  C   UNL A   1      32.824  22.083  23.343  1.00  0.00     0.004 A 
ATOM     14  C   UNL A   1      33.753  21.672  25.515  1.00  0.00     0.004 A 
BRANCH  10  15
ATOM     15  C   UNL A   1      32.467  18.355  24.194  1.00  0.00     0.038 C 
BRANCH  15  16
ATOM     16  C   UNL A   1      33.609  17.364  24.518  1.00  0.00    -0.013 C 
ATOM     17  C   UNL A   1      33.261  16.296  25.563  1.00  0.00     0.008 C 
ATOM     18  C   UNL A   1      33.999  16.632  23.221  1.00  0.00     0.008 C 
ENDBRANCH  15  16
ENDBRANCH  10  15
ENDBRANCH   8   9
BRANCH   8  19
ATOM     19  C   UNL A   1      33.650  24.947  25.131  1.00  0.00     0.396 C 
ATOM     20  F   UNL A   1      33.870  24.767  26.455  1.00  0.00    -0.170 F 
ATOM     21  F   UNL A   1      34.107  26.181  24.823  1.00  0.00    -0.170 F 
ATOM     22  F   UNL A   1      32.311  24.941  24.944  1.00  0.00    -0.170 F 
ENDBRANCH   8  19
ENDBRANCH   7   8
ENDBRANCH   4   7
ENDBRANCH   2   3
ENDBRANCH   1   2
BRANCH   1  23
ATOM     23  C   UNL A   1      39.427  22.978  27.011  1.00  0.00     0.023 C 
BRANCH  23  24
ATOM     24  C   UNL A   1      40.884  23.340  27.256  1.00  0.00     0.116 C 
BRANCH  24  25
ATOM     25  N   UNL A   1      41.527  24.011  26.130  1.00  0.00    -0.352 N 
ATOM     26  C   UNL A   1      41.785  25.350  25.960  1.00  0.00     0.251 C 
ATOM     27  H   UNL A   1      41.816  23.424  25.394  1.00  0.00     0.163 HD
ATOM     28  O   UNL A   1      42.255  25.765  24.905  1.00  0.00    -0.269 OA
BRANCH  26  29
ATOM     29  C   UNL A   1      41.467  26.281  27.059  1.00  0.00     0.039 A 
ATOM     30  C   UNL A   1      40.487  25.942  27.993  1.00  0.00     0.014 A 
ATOM     31  C   UNL A   1      42.188  27.470  27.185  1.00  0.00     0.014 A 
ATOM     32  C   UNL A   1      40.268  26.780  29.088  1.00  0.00     0.010 A 
ATOM     33  C   UNL A   1      42.055  28.232  28.332  1.00  0.00     0.010 A 
ATOM     34  C   UNL A   1      41.070  27.917  29.278  1.00  0.00    -0.014 A 
BRANCH  34  35
ATOM     35  C   UNL A   1      40.857  28.855  30.406  1.00  0.00     0.031 A 
ATOM     36  C   UNL A   1      41.710  28.711  31.641  1.00  0.00     0.074 A 
ATOM     37  C   UNL A   1      39.858  29.758  30.361  1.00  0.00     0.049 A 
ATOM     38  N   UNL A   1      41.608  29.315  32.796  1.00  0.00    -0.248 NA
ATOM     39  C   UNL A   1      42.787  27.706  31.588  1.00  0.00     0.031 C 
ATOM     40  C   UNL A   1      38.925  29.940  29.247  1.00  0.00     0.029 A 
ATOM     41  N   UNL A   1      39.453  30.683  31.286  1.00  0.00    -0.354 N 
ATOM     42  C   UNL A   1      42.575  28.736  33.609  1.00  0.00     0.074 A 
ATOM     43  C   UNL A   1      43.201  27.682  32.844  1.00  0.00     0.031 C 
ATOM     44  C   UNL A   1      38.076  30.938  29.542  1.00  0.00     0.029 A 
ATOM     45  C   UNL A   1      38.384  31.443  30.876  1.00  0.00     0.049 A 
ATOM     46  H   UNL A   1      39.888  30.794  32.163  1.00  0.00     0.167 HD
ATOM     47  C   UNL A   1      42.938  29.076  34.868  1.00  0.00     0.037 A 
ATOM     48  C   UNL A   1      37.733  32.437  31.509  1.00  0.00     0.037 A 
ATOM     49  C   UNL A   1      42.353  30.172  35.591  1.00  0.00     0.049 A 
ATOM     50  C   UNL A   1      38.202  32.850  32.879  1.00  0.00     0.074 A 
ATOM     51  C   UNL A   1      42.687  30.659  36.841  1.00  0.00     0.029 A 
ATOM     52  N   UNL A   1      41.322  30.969  35.111  1.00  0.00    -0.354 N 
ATOM     53  N   UNL A   1      39.152  32.325  33.619  1.00  0.00    -0.248 NA
ATOM     54  C   UNL A   1      37.527  33.999  33.492  1.00  0.00     0.031 C 
ATOM     55  C   UNL A   1      41.839  31.735  37.129  1.00  0.00     0.029 A 
ATOM     56  C   UNL A   1      41.009  31.946  36.040  1.00  0.00     0.049 A 
ATOM     57  H   UNL A   1      40.881  30.856  34.239  1.00  0.00     0.167 HD
ATOM     58  C   UNL A   1      39.208  33.100  34.772  1.00  0.00     0.074 A 
ATOM     59  C   UNL A   1      38.207  34.138  34.621  1.00  0.00     0.031 C 
ATOM     60  C   UNL A   1      40.011  32.970  35.857  1.00  0.00     0.037 A 
BRANCH  47  61
ATOM     61  C   UNL A   1      44.028  28.268  35.520  1.00  0.00     0.058 A 
ATOM     62  C   UNL A   1      45.386  28.584  35.347  1.00  0.00     0.135 A 
ATOM     63  C   UNL A   1      43.715  27.163  36.329  1.00  0.00     0.135 A 
ATOM     64  F   UNL A   1      45.746  29.616  34.568  1.00  0.00    -0.206 F 
ATOM     65  C   UNL A   1      46.393  27.812  35.915  1.00  0.00     0.059 A 
ATOM     66  C   UNL A   1      44.706  26.397  36.936  1.00  0.00     0.059 A 
ATOM     67  F   UNL A   1      42.434  26.812  36.528  1.00  0.00    -0.206 F 
ATOM     68  C   UNL A   1      46.043  26.718  36.707  1.00  0.00     0.060 A 
BRANCH  68  69
ATOM     69  S   UNL A   1      47.362  25.726  37.437  1.00  0.00     0.124 S 
ATOM     70  O   UNL A   1      48.062  26.721  38.243  1.00  0.00    -0.237 OA
ATOM     71  O   UNL A   1      46.618  24.717  38.185  1.00  0.00    -0.237 OA
ATOM     72  O   UNL A   1      48.095  25.229  36.277  1.00  0.00    -0.744 OA
ENDBRANCH  68  69
ENDBRANCH  47  61
BRANCH  48  73
ATOM     73  C   UNL A   1      36.613  33.146  30.835  1.00  0.00     0.058 A 
ATOM     74  C   UNL A   1      35.285  32.939  31.239  1.00  0.00     0.135 A 
ATOM     75  C   UNL A   1      36.841  34.052  29.789  1.00  0.00     0.135 A 
ATOM     76  F   UNL A   1      35.014  32.080  32.234  1.00  0.00    -0.206 F 
ATOM     77  C   UNL A   1      34.222  33.587  30.619  1.00  0.00     0.059 A 
ATOM     78  C   UNL A   1      35.796  34.732  29.169  1.00  0.00     0.059 A 
ATOM     79  F   UNL A   1      38.095  34.304  29.378  1.00  0.00    -0.206 F 
ATOM     80  C   UNL A   1      34.489  34.484  29.584  1.00  0.00     0.060 A 
BRANCH  80  81
ATOM     81  S   UNL A   1      33.105  35.355  28.817  1.00  0.00     0.124 S 
ATOM     82  O   UNL A   1      32.378  35.840  29.984  1.00  0.00    -0.237 OA
ATOM     83  O   UNL A   1      33.785  36.371  28.019  1.00  0.00    -0.237 OA
ATOM     84  O   UNL A   1      32.438  34.309  28.047  1.00  0.00    -0.744 OA
ENDBRANCH  80  81
ENDBRANCH  48  73
BRANCH  60  85
ATOM     85  C   UNL A   1      39.867  34.002  36.939  1.00  0.00     0.058 A 
ATOM     86  C   UNL A   1      39.090  33.768  38.084  1.00  0.00     0.135 A 
ATOM     87  C   UNL A   1      40.530  35.235  36.833  1.00  0.00     0.135 A 
ATOM     88  F   UNL A   1      38.435  32.606  38.231  1.00  0.00    -0.206 F 
ATOM     89  C   UNL A   1      38.938  34.741  39.067  1.00  0.00     0.059 A 
ATOM     90  C   UNL A   1      40.417  36.210  37.818  1.00  0.00     0.059 A 
ATOM     91  F   UNL A   1      41.299  35.501  35.765  1.00  0.00    -0.206 F 
ATOM     92  C   UNL A   1      39.600  35.961  38.920  1.00  0.00     0.060 A 
BRANCH  92  93
ATOM     93  S   UNL A   1      39.390  37.220  40.196  1.00  0.00     0.124 S 
ATOM     94  O   UNL A   1      38.604  36.498  41.191  1.00  0.00    -0.237 OA
ATOM     95  O   UNL A   1      40.768  37.520  40.572  1.00  0.00    -0.237 OA
ATOM     96  O   UNL A   1      38.689  38.295  39.499  1.00  0.00    -0.744 OA
ENDBRANCH  92  93
ENDBRANCH  60  85
ENDBRANCH  34  35
ENDBRANCH  26  29
ENDBRANCH  24  25
ENDBRANCH  23  24
ENDBRANCH   1  23
TORSDOF 19
ENDMDL
MODEL 3
REMARK VINA RESULT:      -9.4      4.592     10.614
REMARK SMILES CC(C)Cc1ccc([C@H](CC(=O)NCCCCNC(=O)c2ccc(-c3c4nc(c(-c5c(F)cc(S(=O)(=O)[O-])cc5F)c5ccc([nH]5)c(-c5c(F)cc(S(=O)(=O)[O-])cc5F)c5nc(c(-c6c(F)cc(S(=O)(=O)[O-])cc6F)c6ccc3[nH]6)C=C5)C=C4)cc2)C(F)(F)F)cc1
REMARK SMILES IDX 15 1 14 2 13 3 11 4 12 5 10 7 9 8 8 9 5 10 6 11 92 12 7 13
REMARK SMILES IDX 91 14 4 15 2 16 1 17 3 18 87 19 88 20 89 21 90 22 16 23
REMARK SMILES IDX 17 24 18 25 19 26 20 28 21 29 22 30 86 31 23 32 85 33 24 34
REMARK SMILES IDX 25 35 26 36 79 37 27 38 84 39 78 40 80 41 28 42 83 43 77 44
REMARK SMILES IDX 76 45 29 47 63 48 42 49 62 50 43 51 46 52 61 53 81 54 44 55
REMARK SMILES IDX 45 56 60 58 82 59 47 60 30 61 31 62 40 63 32 64 33 65 39 66
REMARK SMILES IDX 41 67 34 68 35 69 36 70 37 71 38 72 64 73 65 74 74 75 66 76
REMARK SMILES IDX 67 77 73 78 75 79 68 80 69 81 70 82 71 83 72 84 48 85 49 86
REMARK SMILES IDX 58 87 50 88 51 89 57 90 59 91 52 92 53 93 54 94 55 95 56 96
REMARK H PARENT 13 6 18 27 80 46 46 57
REMARK Flexibility Score: inf
ROOT
ATOM      1  C   UNL A   1      34.840  22.901  27.183  1.00  0.00     0.023 C 
ENDROOT
BRANCH   1   2
ATOM      2  C   UNL A   1      33.876  21.725  27.290  1.00  0.00     0.116 C 
BRANCH   2   3
ATOM      3  N   UNL A   1      32.560  22.189  27.679  1.00  0.00    -0.356 N 
ATOM      4  C   UNL A   1      31.601  22.788  26.921  1.00  0.00     0.220 C 
ATOM      5  O   UNL A   1      30.622  23.279  27.483  1.00  0.00    -0.275 OA
ATOM      6  H   UNL A   1      32.326  22.053  28.625  1.00  0.00     0.163 HD
BRANCH   4   7
ATOM      7  C   UNL A   1      31.730  22.844  25.412  1.00  0.00     0.117 C 
BRANCH   7   8
ATOM      8  C   UNL A   1      31.011  24.072  24.810  1.00  0.00     0.134 C 
BRANCH   8   9
ATOM      9  C   UNL A   1      31.675  25.401  25.163  1.00  0.00    -0.035 A 
ATOM     10  C   UNL A   1      32.854  27.724  26.298  1.00  0.00    -0.048 A 
ATOM     11  C   UNL A   1      31.470  27.623  26.153  1.00  0.00     0.004 A 
ATOM     12  C   UNL A   1      33.640  26.715  25.713  1.00  0.00     0.004 A 
ATOM     13  C   UNL A   1      30.887  26.475  25.598  1.00  0.00     0.004 A 
ATOM     14  C   UNL A   1      33.062  25.580  25.133  1.00  0.00     0.004 A 
BRANCH  10  15
ATOM     15  C   UNL A   1      33.559  28.733  27.185  1.00  0.00     0.038 C 
BRANCH  15  16
ATOM     16  C   UNL A   1      33.657  30.234  26.825  1.00  0.00    -0.013 C 
ATOM     17  C   UNL A   1      32.322  30.991  26.848  1.00  0.00     0.008 C 
ATOM     18  C   UNL A   1      34.593  30.916  27.839  1.00  0.00     0.008 C 
ENDBRANCH  15  16
ENDBRANCH  10  15
ENDBRANCH   8   9
BRANCH   8  19
ATOM     19  C   UNL A   1      30.856  23.897  23.302  1.00  0.00     0.396 C 
ATOM     20  F   UNL A   1      31.112  22.617  22.938  1.00  0.00    -0.170 F 
ATOM     21  F   UNL A   1      29.602  24.179  22.887  1.00  0.00    -0.170 F 
ATOM     22  F   UNL A   1      31.710  24.687  22.613  1.00  0.00    -0.170 F 
ENDBRANCH   8  19
ENDBRANCH   7   8
ENDBRANCH   4   7
ENDBRANCH   2   3
ENDBRANCH   1   2
BRANCH   1  23
ATOM     23  C   UNL A   1      35.302  23.243  25.776  1.00  0.00     0.023 C 
BRANCH  23  24
ATOM     24  C   UNL A   1      36.658  23.929  25.711  1.00  0.00     0.116 C 
BRANCH  24  25
ATOM     25  N   UNL A   1      37.789  23.007  25.670  1.00  0.00    -0.352 N 
ATOM     26  C   UNL A   1      39.056  23.176  26.177  1.00  0.00     0.251 C 
ATOM     27  H   UNL A   1      37.622  22.148  25.220  1.00  0.00     0.163 HD
ATOM     28  O   UNL A   1      39.924  22.334  25.976  1.00  0.00    -0.269 OA
BRANCH  26  29
ATOM     29  C   UNL A   1      39.357  24.398  26.947  1.00  0.00     0.039 A 
ATOM     30  C   UNL A   1      38.924  24.508  28.269  1.00  0.00     0.014 A 
ATOM     31  C   UNL A   1      40.117  25.412  26.361  1.00  0.00     0.014 A 
ATOM     32  C   UNL A   1      39.303  25.621  29.022  1.00  0.00     0.010 A 
ATOM     33  C   UNL A   1      40.593  26.449  27.144  1.00  0.00     0.010 A 
ATOM     34  C   UNL A   1      40.162  26.586  28.471  1.00  0.00    -0.014 A 
BRANCH  34  35
ATOM     35  C   UNL A   1      40.569  27.800  29.218  1.00  0.00     0.031 A 
ATOM     36  C   UNL A   1      41.916  27.820  29.894  1.00  0.00     0.074 A 
ATOM     37  C   UNL A   1      39.711  28.828  29.363  1.00  0.00     0.049 A 
ATOM     38  N   UNL A   1      42.421  28.703  30.715  1.00  0.00    -0.248 NA
ATOM     39  C   UNL A   1      42.790  26.655  29.663  1.00  0.00     0.031 C 
ATOM     40  C   UNL A   1      38.356  28.890  28.811  1.00  0.00     0.029 A 
ATOM     41  N   UNL A   1      39.850  30.015  30.033  1.00  0.00    -0.354 N 
ATOM     42  C   UNL A   1      43.643  28.182  31.123  1.00  0.00     0.074 A 
ATOM     43  C   UNL A   1      43.771  26.874  30.523  1.00  0.00     0.031 C 
ATOM     44  C   UNL A   1      37.800  30.067  29.141  1.00  0.00     0.029 A 
ATOM     45  C   UNL A   1      38.744  30.828  29.951  1.00  0.00     0.049 A 
ATOM     46  H   UNL A   1      40.665  30.262  30.526  1.00  0.00     0.167 HD
ATOM     47  C   UNL A   1      44.594  28.757  31.897  1.00  0.00     0.037 A 
ATOM     48  C   UNL A   1      38.527  32.051  30.471  1.00  0.00     0.037 A 
ATOM     49  C   UNL A   1      44.482  30.088  32.429  1.00  0.00     0.049 A 
ATOM     50  C   UNL A   1      39.628  32.704  31.266  1.00  0.00     0.074 A 
ATOM     51  C   UNL A   1      45.408  30.805  33.164  1.00  0.00     0.029 A 
ATOM     52  N   UNL A   1      43.377  30.912  32.260  1.00  0.00    -0.354 N 
ATOM     53  N   UNL A   1      40.801  32.218  31.604  1.00  0.00    -0.248 NA
ATOM     54  C   UNL A   1      39.385  34.073  31.732  1.00  0.00     0.031 C 
ATOM     55  C   UNL A   1      44.852  32.055  33.462  1.00  0.00     0.029 A 
ATOM     56  C   UNL A   1      43.599  32.131  32.875  1.00  0.00     0.049 A 
ATOM     57  H   UNL A   1      42.558  30.664  31.775  1.00  0.00     0.167 HD
ATOM     58  C   UNL A   1      41.447  33.236  32.297  1.00  0.00     0.074 A 
ATOM     59  C   UNL A   1      40.539  34.366  32.313  1.00  0.00     0.031 C 
ATOM     60  C   UNL A   1      42.678  33.240  32.868  1.00  0.00     0.037 A 
BRANCH  47  61
ATOM     61  C   UNL A   1      45.835  27.955  32.185  1.00  0.00     0.058 A 
ATOM     62  C   UNL A   1      45.940  27.140  33.325  1.00  0.00     0.135 A 
ATOM     63  C   UNL A   1      46.935  28.000  31.313  1.00  0.00     0.135 A 
ATOM     64  F   UNL A   1      44.928  27.074  34.204  1.00  0.00    -0.206 F 
ATOM     65  C   UNL A   1      47.102  26.433  33.611  1.00  0.00     0.059 A 
ATOM     66  C   UNL A   1      48.096  27.274  31.562  1.00  0.00     0.059 A 
ATOM     67  F   UNL A   1      46.893  28.764  30.209  1.00  0.00    -0.206 F 
ATOM     68  C   UNL A   1      48.177  26.509  32.724  1.00  0.00     0.060 A 
BRANCH  68  69
ATOM     69  S   UNL A   1      49.679  25.585  33.111  1.00  0.00     0.124 S 
ATOM     70  O   UNL A   1      50.223  25.345  31.779  1.00  0.00    -0.237 OA
ATOM     71  O   UNL A   1      50.424  26.530  33.937  1.00  0.00    -0.237 OA
ATOM     72  O   UNL A   1      49.181  24.404  33.809  1.00  0.00    -0.744 OA
ENDBRANCH  68  69
ENDBRANCH  47  61
BRANCH  48  73
ATOM     73  C   UNL A   1      37.246  32.758  30.209  1.00  0.00     0.058 A 
ATOM     74  C   UNL A   1      37.105  33.596  29.092  1.00  0.00     0.135 A 
ATOM     75  C   UNL A   1      36.135  32.603  31.052  1.00  0.00     0.135 A 
ATOM     76  F   UNL A   1      38.139  33.779  28.257  1.00  0.00    -0.206 F 
ATOM     77  C   UNL A   1      35.918  34.272  28.831  1.00  0.00     0.059 A 
ATOM     78  C   UNL A   1      34.928  33.249  30.797  1.00  0.00     0.059 A 
ATOM     79  F   UNL A   1      36.210  31.795  32.121  1.00  0.00    -0.206 F 
ATOM     80  C   UNL A   1      34.833  34.090  29.690  1.00  0.00     0.060 A 
BRANCH  80  81
ATOM     81  S   UNL A   1      33.282  34.936  29.315  1.00  0.00     0.124 S 
ATOM     82  O   UNL A   1      32.708  34.063  28.299  1.00  0.00    -0.237 OA
ATOM     83  O   UNL A   1      32.611  34.936  30.611  1.00  0.00    -0.237 OA
ATOM     84  O   UNL A   1      33.722  36.247  28.846  1.00  0.00    -0.744 OA
ENDBRANCH  80  81
ENDBRANCH  48  73
BRANCH  60  85
ATOM     85  C   UNL A   1      43.124  34.520  33.515  1.00  0.00     0.058 A 
ATOM     86  C   UNL A   1      42.868  34.792  34.868  1.00  0.00     0.135 A 
ATOM     87  C   UNL A   1      43.832  35.478  32.772  1.00  0.00     0.135 A 
ATOM     88  F   UNL A   1      42.193  33.908  35.619  1.00  0.00    -0.206 F 
ATOM     89  C   UNL A   1      43.259  35.993  35.451  1.00  0.00     0.059 A 
ATOM     90  C   UNL A   1      44.259  36.672  33.343  1.00  0.00     0.059 A 
ATOM     91  F   UNL A   1      44.117  35.258  31.479  1.00  0.00    -0.206 F 
ATOM     92  C   UNL A   1      43.947  36.929  34.677  1.00  0.00     0.060 A 
BRANCH  92  93
ATOM     93  S   UNL A   1      44.443  38.487  35.441  1.00  0.00     0.124 S 
ATOM     94  O   UNL A   1      45.890  38.453  35.262  1.00  0.00    -0.237 OA
ATOM     95  O   UNL A   1      43.728  39.474  34.636  1.00  0.00    -0.237 OA
ATOM     96  O   UNL A   1      43.976  38.354  36.818  1.00  0.00    -0.744 OA
ENDBRANCH  92  93
ENDBRANCH  60  85
ENDBRANCH  34  35
ENDBRANCH  26  29
ENDBRANCH  24  25
ENDBRANCH  23  24
ENDBRANCH   1  23
TORSDOF 19
ENDMDL
