MODEL 1
REMARK VINA RESULT:     -11.7      0.000      0.000
REMARK SMILES O=C(NCCCCNC(=O)c1cc(SC[C@H]2CCOC2)ccn1)c1ccc(-c2c3nc(c(-c4c(F)cc(S(=O)(=O)[O-])cc4F)c4ccc([nH]4)c(-c4c(F)cc(S(=O)(=O)[O-])cc4F)c4nc(c(-c5c(F)cc(S(=O)(=O)[O-])cc5F)c5ccc2[nH]5)C=C4)C=C3)cc1
REMARK SMILES IDX 5 1 4 2 3 3 1 4 2 5 24 7 25 8 89 9 26 10 88 11 27 12 28 13
REMARK SMILES IDX 29 14 82 15 30 16 87 17 81 18 83 19 31 20 86 21 80 22 79 23
REMARK SMILES IDX 32 25 66 26 45 27 65 28 46 29 49 30 64 31 84 32 47 33 48 34
REMARK SMILES IDX 63 36 85 37 50 38 33 39 34 40 43 41 35 42 36 43 42 44 44 45
REMARK SMILES IDX 37 46 38 47 39 48 40 49 41 50 67 51 68 52 77 53 69 54 70 55
REMARK SMILES IDX 76 56 78 57 71 58 72 59 73 60 74 61 75 62 51 63 52 64 61 65
REMARK SMILES IDX 53 66 54 67 60 68 62 69 55 70 56 71 57 72 58 73 59 74 6 75
REMARK SMILES IDX 7 76 8 77 9 78 10 80 11 81 12 82 23 83 13 84 22 85 21 86
REMARK SMILES IDX 14 87 15 88 16 89 17 90 20 91 18 92 19 93
REMARK H PARENT 3 6 83 24 49 35 8 79
REMARK Flexibility Score: inf
ROOT
ATOM      1  C   UNL A   1      34.999  29.747  27.263  1.00  0.00     0.023 C 
ENDROOT
BRANCH   1   2
ATOM      2  C   UNL A   1      35.540  30.951  28.030  1.00  0.00     0.116 C 
BRANCH   2   3
ATOM      3  N   UNL A   1      35.432  30.832  29.477  1.00  0.00    -0.352 N 
ATOM      4  O   UNL A   1      35.996  30.144  31.556  1.00  0.00    -0.269 OA
ATOM      5  C   UNL A   1      36.313  30.272  30.381  1.00  0.00     0.251 C 
ATOM      6  H   UNL A   1      34.610  31.204  29.869  1.00  0.00     0.163 HD
BRANCH   5   7
ATOM      7  C   UNL A   1      37.645  29.799  29.925  1.00  0.00     0.039 A 
ATOM      8  C   UNL A   1      38.546  29.219  30.820  1.00  0.00     0.014 A 
ATOM      9  C   UNL A   1      37.994  29.929  28.577  1.00  0.00     0.014 A 
ATOM     10  C   UNL A   1      39.847  28.935  30.411  1.00  0.00     0.010 A 
ATOM     11  C   UNL A   1      39.275  29.556  28.148  1.00  0.00     0.010 A 
ATOM     12  C   UNL A   1      40.228  29.097  29.070  1.00  0.00    -0.014 A 
BRANCH  12  13
ATOM     13  C   UNL A   1      41.610  28.737  28.650  1.00  0.00     0.031 A 
ATOM     14  C   UNL A   1      42.708  29.767  28.612  1.00  0.00     0.074 A 
ATOM     15  C   UNL A   1      41.878  27.461  28.311  1.00  0.00     0.049 A 
ATOM     16  N   UNL A   1      43.963  29.620  28.266  1.00  0.00    -0.248 NA
ATOM     17  C   UNL A   1      42.352  31.140  29.001  1.00  0.00     0.031 C 
ATOM     18  C   UNL A   1      40.896  26.374  28.287  1.00  0.00     0.029 A 
ATOM     19  N   UNL A   1      43.049  26.858  27.925  1.00  0.00    -0.354 N 
ATOM     20  C   UNL A   1      44.542  30.881  28.374  1.00  0.00     0.074 A 
ATOM     21  C   UNL A   1      43.492  31.786  28.795  1.00  0.00     0.031 C 
ATOM     22  C   UNL A   1      41.507  25.236  27.929  1.00  0.00     0.029 A 
ATOM     23  C   UNL A   1      42.910  25.521  27.642  1.00  0.00     0.049 A 
ATOM     24  H   UNL A   1      43.906  27.338  27.856  1.00  0.00     0.167 HD
ATOM     25  C   UNL A   1      45.827  31.247  28.148  1.00  0.00     0.037 A 
ATOM     26  C   UNL A   1      43.799  24.622  27.177  1.00  0.00     0.037 A 
ATOM     27  C   UNL A   1      46.870  30.337  27.744  1.00  0.00     0.049 A 
ATOM     28  C   UNL A   1      45.214  25.050  26.928  1.00  0.00     0.074 A 
ATOM     29  C   UNL A   1      48.214  30.604  27.546  1.00  0.00     0.029 A 
ATOM     30  N   UNL A   1      46.687  28.991  27.465  1.00  0.00    -0.354 N 
ATOM     31  N   UNL A   1      45.753  26.235  27.085  1.00  0.00    -0.248 NA
ATOM     32  C   UNL A   1      46.144  24.023  26.439  1.00  0.00     0.031 C 
ATOM     33  C   UNL A   1      48.835  29.430  27.102  1.00  0.00     0.029 A 
ATOM     34  C   UNL A   1      47.887  28.419  27.069  1.00  0.00     0.049 A 
ATOM     35  H   UNL A   1      45.830  28.511  27.537  1.00  0.00     0.167 HD
ATOM     36  C   UNL A   1      47.087  26.096  26.723  1.00  0.00     0.074 A 
ATOM     37  C   UNL A   1      47.277  24.707  26.354  1.00  0.00     0.031 C 
ATOM     38  C   UNL A   1      48.064  27.037  26.697  1.00  0.00     0.037 A 
BRANCH  25  39
ATOM     39  C   UNL A   1      46.175  32.703  28.307  1.00  0.00     0.058 A 
ATOM     40  C   UNL A   1      46.752  33.205  29.485  1.00  0.00     0.135 A 
ATOM     41  C   UNL A   1      45.949  33.607  27.254  1.00  0.00     0.135 A 
ATOM     42  F   UNL A   1      46.982  32.390  30.525  1.00  0.00    -0.206 F 
ATOM     43  C   UNL A   1      47.055  34.556  29.629  1.00  0.00     0.059 A 
ATOM     44  C   UNL A   1      46.269  34.957  27.367  1.00  0.00     0.059 A 
ATOM     45  F   UNL A   1      45.408  33.181  26.103  1.00  0.00    -0.206 F 
ATOM     46  C   UNL A   1      46.802  35.427  28.567  1.00  0.00     0.060 A 
BRANCH  46  47
ATOM     47  S   UNL A   1      47.172  37.181  28.777  1.00  0.00     0.124 S 
ATOM     48  O   UNL A   1      48.576  37.135  29.174  1.00  0.00    -0.237 OA
ATOM     49  O   UNL A   1      46.908  37.721  27.447  1.00  0.00    -0.237 OA
ATOM     50  O   UNL A   1      46.240  37.604  29.817  1.00  0.00    -0.744 OA
ENDBRANCH  46  47
ENDBRANCH  25  39
BRANCH  26  51
ATOM     51  C   UNL A   1      43.345  23.233  26.908  1.00  0.00     0.058 A 
ATOM     52  C   UNL A   1      43.228  22.747  25.600  1.00  0.00     0.135 A 
ATOM     53  C   UNL A   1      43.094  22.343  27.965  1.00  0.00     0.135 A 
ATOM     54  F   UNL A   1      43.453  23.562  24.558  1.00  0.00    -0.206 F 
ATOM     55  C   UNL A   1      42.883  21.424  25.345  1.00  0.00     0.059 A 
ATOM     56  C   UNL A   1      42.773  21.010  27.737  1.00  0.00     0.059 A 
ATOM     57  F   UNL A   1      43.212  22.758  29.236  1.00  0.00    -0.206 F 
ATOM     58  C   UNL A   1      42.668  20.559  26.421  1.00  0.00     0.060 A 
BRANCH  58  59
ATOM     59  S   UNL A   1      42.315  18.822  26.083  1.00  0.00     0.124 S 
ATOM     60  O   UNL A   1      42.595  18.208  27.375  1.00  0.00    -0.237 OA
ATOM     61  O   UNL A   1      40.911  18.863  25.685  1.00  0.00    -0.237 OA
ATOM     62  O   UNL A   1      43.250  18.493  25.010  1.00  0.00    -0.744 OA
ENDBRANCH  58  59
ENDBRANCH  26  51
BRANCH  38  63
ATOM     63  C   UNL A   1      49.436  26.596  26.269  1.00  0.00     0.058 A 
ATOM     64  C   UNL A   1      49.899  26.807  24.961  1.00  0.00     0.135 A 
ATOM     65  C   UNL A   1      50.316  26.010  27.191  1.00  0.00     0.135 A 
ATOM     66  F   UNL A   1      49.093  27.353  24.037  1.00  0.00    -0.206 F 
ATOM     67  C   UNL A   1      51.185  26.439  24.579  1.00  0.00     0.059 A 
ATOM     68  C   UNL A   1      51.614  25.656  26.838  1.00  0.00     0.059 A 
ATOM     69  F   UNL A   1      49.923  25.792  28.457  1.00  0.00    -0.206 F 
ATOM     70  C   UNL A   1      52.038  25.867  25.527  1.00  0.00     0.060 A 
BRANCH  70  71
ATOM     71  S   UNL A   1      53.720  25.438  25.032  1.00  0.00     0.124 S 
ATOM     72  O   UNL A   1      53.757  25.931  23.658  1.00  0.00    -0.237 OA
ATOM     73  O   UNL A   1      54.530  26.179  25.994  1.00  0.00    -0.237 OA
ATOM     74  O   UNL A   1      53.757  23.986  25.178  1.00  0.00    -0.744 OA
ENDBRANCH  70  71
ENDBRANCH  38  63
ENDBRANCH  12  13
ENDBRANCH   5   7
ENDBRANCH   2   3
ENDBRANCH   1   2
BRANCH   1  75
ATOM     75  C   UNL A   1      33.487  29.542  27.304  1.00  0.00     0.023 C 
BRANCH  75  76
ATOM     76  C   UNL A   1      32.787  29.602  25.955  1.00  0.00     0.116 C 
BRANCH  76  77
ATOM     77  N   UNL A   1      33.631  29.431  24.791  1.00  0.00    -0.351 N 
ATOM     78  C   UNL A   1      33.267  28.813  23.607  1.00  0.00     0.269 C 
ATOM     79  H   UNL A   1      34.548  29.787  24.846  1.00  0.00     0.163 HD
ATOM     80  O   UNL A   1      33.962  28.915  22.601  1.00  0.00    -0.268 OA
BRANCH  78  81
ATOM     81  C   UNL A   1      32.013  28.009  23.580  1.00  0.00     0.129 A 
ATOM     82  C   UNL A   1      30.800  28.601  23.231  1.00  0.00     0.049 A 
ATOM     83  N   UNL A   1      32.145  26.731  24.016  1.00  0.00    -0.251 NA
ATOM     84  C   UNL A   1      29.637  27.858  23.415  1.00  0.00     0.011 A 
ATOM     85  C   UNL A   1      31.016  26.010  24.103  1.00  0.00     0.113 A 
ATOM     86  C   UNL A   1      29.760  26.526  23.832  1.00  0.00     0.035 A 
BRANCH  84  87
ATOM     87  S   UNL A   1      27.965  28.425  23.123  1.00  0.00    -0.126 SA
BRANCH  87  88
ATOM     88  C   UNL A   1      28.076  29.842  21.960  1.00  0.00     0.081 C 
BRANCH  88  89
ATOM     89  C   UNL A   1      27.883  31.285  22.458  1.00  0.00     0.027 C 
ATOM     90  C   UNL A   1      28.830  31.873  23.482  1.00  0.00     0.035 C 
ATOM     91  C   UNL A   1      27.969  32.280  21.324  1.00  0.00     0.164 C 
ATOM     92  C   UNL A   1      28.793  33.367  23.200  1.00  0.00     0.160 C 
ATOM     93  O   UNL A   1      28.283  33.556  21.876  1.00  0.00    -0.381 OA
ENDBRANCH  88  89
ENDBRANCH  87  88
ENDBRANCH  84  87
ENDBRANCH  78  81
ENDBRANCH  76  77
ENDBRANCH  75  76
ENDBRANCH   1  75
TORSDOF 17
ENDMDL
MODEL 2
REMARK VINA RESULT:     -11.6      6.491      8.715
REMARK SMILES O=C(NCCCCNC(=O)c1cc(SC[C@H]2CCOC2)ccn1)c1ccc(-c2c3nc(c(-c4c(F)cc(S(=O)(=O)[O-])cc4F)c4ccc([nH]4)c(-c4c(F)cc(S(=O)(=O)[O-])cc4F)c4nc(c(-c5c(F)cc(S(=O)(=O)[O-])cc5F)c5ccc2[nH]5)C=C4)C=C3)cc1
REMARK SMILES IDX 5 1 4 2 3 3 1 4 2 5 24 7 25 8 89 9 26 10 88 11 27 12 28 13
REMARK SMILES IDX 29 14 82 15 30 16 87 17 81 18 83 19 31 20 86 21 80 22 79 23
REMARK SMILES IDX 32 25 66 26 45 27 65 28 46 29 49 30 64 31 84 32 47 33 48 34
REMARK SMILES IDX 63 36 85 37 50 38 33 39 34 40 43 41 35 42 36 43 42 44 44 45
REMARK SMILES IDX 37 46 38 47 39 48 40 49 41 50 67 51 68 52 77 53 69 54 70 55
REMARK SMILES IDX 76 56 78 57 71 58 72 59 73 60 74 61 75 62 51 63 52 64 61 65
REMARK SMILES IDX 53 66 54 67 60 68 62 69 55 70 56 71 57 72 58 73 59 74 6 75
REMARK SMILES IDX 7 76 8 77 9 78 10 80 11 81 12 82 23 83 13 84 22 85 21 86
REMARK SMILES IDX 14 87 15 88 16 89 17 90 20 91 18 92 19 93
REMARK H PARENT 3 6 83 24 49 35 8 79
REMARK Flexibility Score: inf
ROOT
ATOM      1  C   UNL A   1      31.603  32.222  26.744  1.00  0.00     0.023 C 
ENDROOT
BRANCH   1   2
ATOM      2  C   UNL A   1      32.720  32.839  27.584  1.00  0.00     0.116 C 
BRANCH   2   3
ATOM      3  N   UNL A   1      32.516  34.245  27.903  1.00  0.00    -0.352 N 
ATOM      4  O   UNL A   1      32.744  36.167  29.072  1.00  0.00    -0.269 OA
ATOM      5  C   UNL A   1      33.137  35.028  28.856  1.00  0.00     0.251 C 
ATOM      6  H   UNL A   1      31.837  34.705  27.360  1.00  0.00     0.163 HD
BRANCH   5   7
ATOM      7  C   UNL A   1      34.271  34.481  29.644  1.00  0.00     0.039 A 
ATOM      8  C   UNL A   1      35.575  34.517  29.145  1.00  0.00     0.014 A 
ATOM      9  C   UNL A   1      34.027  33.934  30.908  1.00  0.00     0.014 A 
ATOM     10  C   UNL A   1      36.596  33.853  29.821  1.00  0.00     0.010 A 
ATOM     11  C   UNL A   1      35.076  33.347  31.629  1.00  0.00     0.010 A 
ATOM     12  C   UNL A   1      36.361  33.262  31.072  1.00  0.00    -0.014 A 
BRANCH  12  13
ATOM     13  C   UNL A   1      37.482  32.604  31.797  1.00  0.00     0.031 A 
ATOM     14  C   UNL A   1      37.969  33.126  33.123  1.00  0.00     0.074 A 
ATOM     15  C   UNL A   1      38.059  31.512  31.255  1.00  0.00     0.049 A 
ATOM     16  N   UNL A   1      38.935  32.673  33.882  1.00  0.00    -0.248 NA
ATOM     17  C   UNL A   1      37.292  34.315  33.663  1.00  0.00     0.031 C 
ATOM     18  C   UNL A   1      37.692  30.921  29.967  1.00  0.00     0.029 A 
ATOM     19  N   UNL A   1      39.070  30.706  31.715  1.00  0.00    -0.354 N 
ATOM     20  C   UNL A   1      38.999  33.530  34.975  1.00  0.00     0.074 A 
ATOM     21  C   UNL A   1      37.987  34.545  34.768  1.00  0.00     0.031 C 
ATOM     22  C   UNL A   1      38.449  29.836  29.750  1.00  0.00     0.029 A 
ATOM     23  C   UNL A   1      39.392  29.686  30.853  1.00  0.00     0.049 A 
ATOM     24  H   UNL A   1      39.520  30.845  32.580  1.00  0.00     0.167 HD
ATOM     25  C   UNL A   1      39.821  33.473  36.053  1.00  0.00     0.037 A 
ATOM     26  C   UNL A   1      40.356  28.748  30.920  1.00  0.00     0.037 A 
ATOM     27  C   UNL A   1      40.816  32.450  36.259  1.00  0.00     0.049 A 
ATOM     28  C   UNL A   1      41.258  28.707  32.117  1.00  0.00     0.074 A 
ATOM     29  C   UNL A   1      41.656  32.275  37.346  1.00  0.00     0.029 A 
ATOM     30  N   UNL A   1      41.114  31.436  35.360  1.00  0.00    -0.354 N 
ATOM     31  N   UNL A   1      41.269  29.495  33.165  1.00  0.00    -0.248 NA
ATOM     32  C   UNL A   1      42.279  27.651  32.146  1.00  0.00     0.031 C 
ATOM     33  C   UNL A   1      42.494  31.185  37.083  1.00  0.00     0.029 A 
ATOM     34  C   UNL A   1      42.144  30.650  35.853  1.00  0.00     0.049 A 
ATOM     35  H   UNL A   1      40.660  31.296  34.498  1.00  0.00     0.167 HD
ATOM     36  C   UNL A   1      42.290  29.027  33.983  1.00  0.00     0.074 A 
ATOM     37  C   UNL A   1      42.864  27.875  33.315  1.00  0.00     0.031 C 
ATOM     38  C   UNL A   1      42.713  29.510  35.177  1.00  0.00     0.037 A 
BRANCH  25  39
ATOM     39  C   UNL A   1      39.698  34.564  37.082  1.00  0.00     0.058 A 
ATOM     40  C   UNL A   1      40.385  35.783  36.959  1.00  0.00     0.135 A 
ATOM     41  C   UNL A   1      38.860  34.398  38.198  1.00  0.00     0.135 A 
ATOM     42  F   UNL A   1      41.206  35.994  35.919  1.00  0.00    -0.206 F 
ATOM     43  C   UNL A   1      40.277  36.780  37.925  1.00  0.00     0.059 A 
ATOM     44  C   UNL A   1      38.717  35.392  39.162  1.00  0.00     0.059 A 
ATOM     45  F   UNL A   1      38.173  33.256  38.362  1.00  0.00    -0.206 F 
ATOM     46  C   UNL A   1      39.447  36.572  39.027  1.00  0.00     0.060 A 
BRANCH  46  47
ATOM     47  S   UNL A   1      39.338  37.861  40.287  1.00  0.00     0.124 S 
ATOM     48  O   UNL A   1      38.133  38.571  39.871  1.00  0.00    -0.237 OA
ATOM     49  O   UNL A   1      39.225  37.089  41.520  1.00  0.00    -0.237 OA
ATOM     50  O   UNL A   1      40.587  38.599  40.126  1.00  0.00    -0.744 OA
ENDBRANCH  46  47
ENDBRANCH  25  39
BRANCH  26  51
ATOM     51  C   UNL A   1      40.509  27.790  29.795  1.00  0.00     0.058 A 
ATOM     52  C   UNL A   1      39.624  26.717  29.628  1.00  0.00     0.135 A 
ATOM     53  C   UNL A   1      41.504  27.979  28.822  1.00  0.00     0.135 A 
ATOM     54  F   UNL A   1      38.661  26.493  30.536  1.00  0.00    -0.206 F 
ATOM     55  C   UNL A   1      39.714  25.865  28.532  1.00  0.00     0.059 A 
ATOM     56  C   UNL A   1      41.598  27.157  27.705  1.00  0.00     0.059 A 
ATOM     57  F   UNL A   1      42.364  29.004  28.930  1.00  0.00    -0.206 F 
ATOM     58  C   UNL A   1      40.699  26.101  27.569  1.00  0.00     0.060 A 
BRANCH  58  59
ATOM     59  S   UNL A   1      40.747  25.050  26.102  1.00  0.00     0.124 S 
ATOM     60  O   UNL A   1      41.690  24.017  26.513  1.00  0.00    -0.237 OA
ATOM     61  O   UNL A   1      39.354  24.632  25.975  1.00  0.00    -0.237 OA
ATOM     62  O   UNL A   1      41.217  25.956  25.057  1.00  0.00    -0.744 OA
ENDBRANCH  58  59
ENDBRANCH  26  51
BRANCH  38  63
ATOM     63  C   UNL A   1      43.845  28.788  35.853  1.00  0.00     0.058 A 
ATOM     64  C   UNL A   1      45.177  29.204  35.698  1.00  0.00     0.135 A 
ATOM     65  C   UNL A   1      43.591  27.705  36.708  1.00  0.00     0.135 A 
ATOM     66  F   UNL A   1      45.476  30.227  34.882  1.00  0.00    -0.206 F 
ATOM     67  C   UNL A   1      46.219  28.562  36.360  1.00  0.00     0.059 A 
ATOM     68  C   UNL A   1      44.614  27.063  37.398  1.00  0.00     0.059 A 
ATOM     69  F   UNL A   1      42.333  27.272  36.895  1.00  0.00    -0.206 F 
ATOM     70  C   UNL A   1      45.927  27.494  37.211  1.00  0.00     0.060 A 
BRANCH  70  71
ATOM     71  S   UNL A   1      47.282  26.700  38.102  1.00  0.00     0.124 S 
ATOM     72  O   UNL A   1      48.074  27.853  38.520  1.00  0.00    -0.237 OA
ATOM     73  O   UNL A   1      46.583  25.989  39.168  1.00  0.00    -0.237 OA
ATOM     74  O   UNL A   1      47.900  25.848  37.090  1.00  0.00    -0.744 OA
ENDBRANCH  70  71
ENDBRANCH  38  63
ENDBRANCH  12  13
ENDBRANCH   5   7
ENDBRANCH   2   3
ENDBRANCH   1   2
BRANCH   1  75
ATOM     75  C   UNL A   1      31.870  30.826  26.187  1.00  0.00     0.023 C 
BRANCH  75  76
ATOM     76  C   UNL A   1      31.804  29.698  27.206  1.00  0.00     0.116 C 
BRANCH  76  77
ATOM     77  N   UNL A   1      32.868  28.717  27.140  1.00  0.00    -0.351 N 
ATOM     78  C   UNL A   1      32.978  27.700  26.209  1.00  0.00     0.269 C 
ATOM     79  H   UNL A   1      33.576  28.779  27.822  1.00  0.00     0.163 HD
ATOM     80  O   UNL A   1      34.020  27.062  26.089  1.00  0.00    -0.268 OA
BRANCH  78  81
ATOM     81  C   UNL A   1      31.799  27.385  25.354  1.00  0.00     0.129 A 
ATOM     82  C   UNL A   1      31.485  28.187  24.257  1.00  0.00     0.049 A 
ATOM     83  N   UNL A   1      31.034  26.355  25.795  1.00  0.00    -0.251 NA
ATOM     84  C   UNL A   1      30.268  27.967  23.617  1.00  0.00     0.011 A 
ATOM     85  C   UNL A   1      29.907  26.112  25.107  1.00  0.00     0.113 A 
ATOM     86  C   UNL A   1      29.484  26.885  24.040  1.00  0.00     0.035 A 
BRANCH  84  87
ATOM     87  S   UNL A   1      29.608  28.915  22.251  1.00  0.00    -0.126 SA
BRANCH  87  88
ATOM     88  C   UNL A   1      28.031  29.657  22.828  1.00  0.00     0.081 C 
BRANCH  88  89
ATOM     89  C   UNL A   1      27.896  31.179  23.002  1.00  0.00     0.027 C 
ATOM     90  C   UNL A   1      28.993  31.970  23.684  1.00  0.00     0.035 C 
ATOM     91  C   UNL A   1      27.764  31.883  21.671  1.00  0.00     0.164 C 
ATOM     92  C   UNL A   1      28.876  33.359  23.073  1.00  0.00     0.160 C 
ATOM     93  O   UNL A   1      28.142  33.245  21.849  1.00  0.00    -0.381 OA
ENDBRANCH  88  89
ENDBRANCH  87  88
ENDBRANCH  84  87
ENDBRANCH  78  81
ENDBRANCH  76  77
ENDBRANCH  75  76
ENDBRANCH   1  75
TORSDOF 17
ENDMDL
MODEL 3
REMARK VINA RESULT:     -11.6      6.771     12.255
REMARK SMILES O=C(NCCCCNC(=O)c1cc(SC[C@H]2CCOC2)ccn1)c1ccc(-c2c3nc(c(-c4c(F)cc(S(=O)(=O)[O-])cc4F)c4ccc([nH]4)c(-c4c(F)cc(S(=O)(=O)[O-])cc4F)c4nc(c(-c5c(F)cc(S(=O)(=O)[O-])cc5F)c5ccc2[nH]5)C=C4)C=C3)cc1
REMARK SMILES IDX 5 1 4 2 3 3 1 4 2 5 24 7 25 8 89 9 26 10 88 11 27 12 28 13
REMARK SMILES IDX 29 14 82 15 30 16 87 17 81 18 83 19 31 20 86 21 80 22 79 23
REMARK SMILES IDX 32 25 66 26 45 27 65 28 46 29 49 30 64 31 84 32 47 33 48 34
REMARK SMILES IDX 63 36 85 37 50 38 33 39 34 40 43 41 35 42 36 43 42 44 44 45
REMARK SMILES IDX 37 46 38 47 39 48 40 49 41 50 67 51 68 52 77 53 69 54 70 55
REMARK SMILES IDX 76 56 78 57 71 58 72 59 73 60 74 61 75 62 51 63 52 64 61 65
REMARK SMILES IDX 53 66 54 67 60 68 62 69 55 70 56 71 57 72 58 73 59 74 6 75
REMARK SMILES IDX 7 76 8 77 9 78 10 80 11 81 12 82 23 83 13 84 22 85 21 86
REMARK SMILES IDX 14 87 15 88 16 89 17 90 20 91 18 92 19 93
REMARK H PARENT 3 6 83 24 49 35 8 79
REMARK Flexibility Score: inf
ROOT
ATOM      1  C   UNL A   1      38.517  23.304  26.412  1.00  0.00     0.023 C 
ENDROOT
BRANCH   1   2
ATOM      2  C   UNL A   1      39.899  23.264  27.061  1.00  0.00     0.116 C 
BRANCH   2   3
ATOM      3  N   UNL A   1      40.977  23.707  26.190  1.00  0.00    -0.352 N 
ATOM      4  O   UNL A   1      42.460  25.156  25.285  1.00  0.00    -0.269 OA
ATOM      5  C   UNL A   1      41.664  24.906  26.181  1.00  0.00     0.251 C 
ATOM      6  H   UNL A   1      41.260  23.058  25.506  1.00  0.00     0.163 HD
BRANCH   5   7
ATOM      7  C   UNL A   1      41.419  25.910  27.247  1.00  0.00     0.039 A 
ATOM      8  C   UNL A   1      42.144  27.103  27.289  1.00  0.00     0.014 A 
ATOM      9  C   UNL A   1      40.441  25.659  28.214  1.00  0.00     0.014 A 
ATOM     10  C   UNL A   1      42.020  27.953  28.386  1.00  0.00     0.010 A 
ATOM     11  C   UNL A   1      40.252  26.563  29.268  1.00  0.00     0.010 A 
ATOM     12  C   UNL A   1      41.071  27.696  29.388  1.00  0.00    -0.014 A 
BRANCH  12  13
ATOM     13  C   UNL A   1      40.923  28.649  30.522  1.00  0.00     0.031 A 
ATOM     14  C   UNL A   1      41.826  28.579  31.724  1.00  0.00     0.074 A 
ATOM     15  C   UNL A   1      39.968  29.598  30.458  1.00  0.00     0.049 A 
ATOM     16  N   UNL A   1      41.829  29.329  32.798  1.00  0.00    -0.248 NA
ATOM     17  C   UNL A   1      42.853  27.525  31.729  1.00  0.00     0.031 C 
ATOM     18  C   UNL A   1      39.015  29.757  29.356  1.00  0.00     0.029 A 
ATOM     19  N   UNL A   1      39.639  30.605  31.329  1.00  0.00    -0.354 N 
ATOM     20  C   UNL A   1      42.837  28.829  33.615  1.00  0.00     0.074 A 
ATOM     21  C   UNL A   1      43.410  27.694  32.921  1.00  0.00     0.031 C 
ATOM     22  C   UNL A   1      38.226  30.811  29.607  1.00  0.00     0.029 A 
ATOM     23  C   UNL A   1      38.576  31.368  30.910  1.00  0.00     0.049 A 
ATOM     24  H   UNL A   1      40.118  30.766  32.174  1.00  0.00     0.167 HD
ATOM     25  C   UNL A   1      43.250  29.277  34.827  1.00  0.00     0.037 A 
ATOM     26  C   UNL A   1      37.929  32.385  31.512  1.00  0.00     0.037 A 
ATOM     27  C   UNL A   1      42.685  30.417  35.504  1.00  0.00     0.049 A 
ATOM     28  C   UNL A   1      38.397  32.860  32.854  1.00  0.00     0.074 A 
ATOM     29  C   UNL A   1      43.073  30.981  36.707  1.00  0.00     0.029 A 
ATOM     30  N   UNL A   1      41.606  31.161  35.046  1.00  0.00    -0.354 N 
ATOM     31  N   UNL A   1      39.386  32.406  33.588  1.00  0.00    -0.248 NA
ATOM     32  C   UNL A   1      37.667  33.984  33.455  1.00  0.00     0.031 C 
ATOM     33  C   UNL A   1      42.200  32.036  37.000  1.00  0.00     0.029 A 
ATOM     34  C   UNL A   1      41.297  32.160  35.956  1.00  0.00     0.049 A 
ATOM     35  H   UNL A   1      41.130  31.001  34.199  1.00  0.00     0.167 HD
ATOM     36  C   UNL A   1      39.403  33.194  34.732  1.00  0.00     0.074 A 
ATOM     37  C   UNL A   1      38.336  34.164  34.587  1.00  0.00     0.031 C 
ATOM     38  C   UNL A   1      40.228  33.116  35.805  1.00  0.00     0.037 A 
BRANCH  25  39
ATOM     39  C   UNL A   1      44.351  28.515  35.513  1.00  0.00     0.058 A 
ATOM     40  C   UNL A   1      45.707  28.799  35.282  1.00  0.00     0.135 A 
ATOM     41  C   UNL A   1      44.045  27.500  36.436  1.00  0.00     0.135 A 
ATOM     42  F   UNL A   1      46.058  29.751  34.405  1.00  0.00    -0.206 F 
ATOM     43  C   UNL A   1      46.719  28.077  35.909  1.00  0.00     0.059 A 
ATOM     44  C   UNL A   1      45.041  26.783  37.094  1.00  0.00     0.059 A 
ATOM     45  F   UNL A   1      42.767  27.192  36.701  1.00  0.00    -0.206 F 
ATOM     46  C   UNL A   1      46.376  27.065  36.808  1.00  0.00     0.060 A 
BRANCH  46  47
ATOM     47  S   UNL A   1      47.698  26.118  37.593  1.00  0.00     0.124 S 
ATOM     48  O   UNL A   1      47.010  24.872  37.913  1.00  0.00    -0.237 OA
ATOM     49  O   UNL A   1      48.698  26.034  36.533  1.00  0.00    -0.237 OA
ATOM     50  O   UNL A   1      48.072  26.941  38.739  1.00  0.00    -0.744 OA
ENDBRANCH  46  47
ENDBRANCH  25  39
BRANCH  26  51
ATOM     51  C   UNL A   1      36.757  32.996  30.833  1.00  0.00     0.058 A 
ATOM     52  C   UNL A   1      35.449  32.722  31.254  1.00  0.00     0.135 A 
ATOM     53  C   UNL A   1      36.933  33.927  29.797  1.00  0.00     0.135 A 
ATOM     54  F   UNL A   1      35.232  31.835  32.237  1.00  0.00    -0.206 F 
ATOM     55  C   UNL A   1      34.354  33.355  30.675  1.00  0.00     0.059 A 
ATOM     56  C   UNL A   1      35.857  34.591  29.221  1.00  0.00     0.059 A 
ATOM     57  F   UNL A   1      38.169  34.235  29.373  1.00  0.00    -0.206 F 
ATOM     58  C   UNL A   1      34.569  34.296  29.666  1.00  0.00     0.060 A 
BRANCH  58  59
ATOM     59  S   UNL A   1      33.149  35.182  28.988  1.00  0.00     0.124 S 
ATOM     60  O   UNL A   1      32.643  34.223  28.014  1.00  0.00    -0.237 OA
ATOM     61  O   UNL A   1      32.320  35.389  30.171  1.00  0.00    -0.237 OA
ATOM     62  O   UNL A   1      33.745  36.394  28.432  1.00  0.00    -0.744 OA
ENDBRANCH  58  59
ENDBRANCH  26  51
BRANCH  38  63
ATOM     63  C   UNL A   1      40.022  34.118  36.908  1.00  0.00     0.058 A 
ATOM     64  C   UNL A   1      40.538  35.420  36.822  1.00  0.00     0.135 A 
ATOM     65  C   UNL A   1      39.255  33.789  38.035  1.00  0.00     0.135 A 
ATOM     66  F   UNL A   1      41.289  35.782  35.769  1.00  0.00    -0.206 F 
ATOM     67  C   UNL A   1      40.310  36.359  37.823  1.00  0.00     0.059 A 
ATOM     68  C   UNL A   1      38.994  34.718  39.038  1.00  0.00     0.059 A 
ATOM     69  F   UNL A   1      38.734  32.557  38.163  1.00  0.00    -0.206 F 
ATOM     70  C   UNL A   1      39.532  35.999  38.926  1.00  0.00     0.060 A 
BRANCH  70  71
ATOM     71  S   UNL A   1      39.202  37.240  40.195  1.00  0.00     0.124 S 
ATOM     72  O   UNL A   1      38.460  36.461  41.182  1.00  0.00    -0.237 OA
ATOM     73  O   UNL A   1      40.546  37.651  40.591  1.00  0.00    -0.237 OA
ATOM     74  O   UNL A   1      38.427  38.254  39.485  1.00  0.00    -0.744 OA
ENDBRANCH  70  71
ENDBRANCH  38  63
ENDBRANCH  12  13
ENDBRANCH   5   7
ENDBRANCH   2   3
ENDBRANCH   1   2
BRANCH   1  75
ATOM     75  C   UNL A   1      38.077  22.038  25.681  1.00  0.00     0.023 C 
BRANCH  75  76
ATOM     76  C   UNL A   1      36.593  21.960  25.354  1.00  0.00     0.116 C 
BRANCH  76  77
ATOM     77  N   UNL A   1      35.734  21.455  26.405  1.00  0.00    -0.351 N 
ATOM     78  C   UNL A   1      34.386  21.731  26.555  1.00  0.00     0.269 C 
ATOM     79  H   UNL A   1      36.147  20.863  27.075  1.00  0.00     0.163 HD
ATOM     80  O   UNL A   1      33.691  21.085  27.332  1.00  0.00    -0.268 OA
BRANCH  78  81
ATOM     81  C   UNL A   1      33.793  22.840  25.755  1.00  0.00     0.129 A 
ATOM     82  C   UNL A   1      33.570  24.090  26.333  1.00  0.00     0.049 A 
ATOM     83  N   UNL A   1      33.406  22.495  24.501  1.00  0.00    -0.251 NA
ATOM     84  C   UNL A   1      32.836  25.022  25.605  1.00  0.00     0.011 A 
ATOM     85  C   UNL A   1      32.774  23.442  23.790  1.00  0.00     0.113 A 
ATOM     86  C   UNL A   1      32.460  24.692  24.296  1.00  0.00     0.035 A 
BRANCH  84  87
ATOM     87  S   UNL A   1      32.350  26.651  26.162  1.00  0.00    -0.126 SA
BRANCH  87  88
ATOM     88  C   UNL A   1      33.873  27.676  26.207  1.00  0.00     0.081 C 
BRANCH  88  89
ATOM     89  C   UNL A   1      34.019  28.822  27.224  1.00  0.00     0.027 C 
ATOM     90  C   UNL A   1      35.375  29.446  27.481  1.00  0.00     0.035 C 
ATOM     91  C   UNL A   1      33.176  30.017  26.842  1.00  0.00     0.164 C 
ATOM     92  C   UNL A   1      35.047  30.866  27.920  1.00  0.00     0.160 C 
ATOM     93  O   UNL A   1      33.715  31.166  27.490  1.00  0.00    -0.381 OA
ENDBRANCH  88  89
ENDBRANCH  87  88
ENDBRANCH  84  87
ENDBRANCH  78  81
ENDBRANCH  76  77
ENDBRANCH  75  76
ENDBRANCH   1  75
TORSDOF 17
ENDMDL
