MODEL 1
REMARK VINA RESULT:     -12.1      0.000      0.000
REMARK SMILES NC(=O)c1ccsc1NS(=O)(=O)c1ccc(C(=O)NCCCCNC(=O)c2ccc(-c3c4nc(c(-c5c(F)cc(S(=O)(=O)[O-])cc5F)c5ccc([nH]5)c(-c5c(F)cc(S(=O)(=O)[O-])cc5F)c5nc(c(-c6c(F)cc(S(=O)(=O)[O-])cc6F)c6ccc3[nH]6)C=C5)C=C4)cc2)cc1
REMARK SMILES IDX 21 1 20 2 19 3 17 4 18 5 16 7 13 8 14 9 94 10 15 11 93 12
REMARK SMILES IDX 10 13 11 14 12 15 9 16 8 18 4 19 5 20 6 21 7 22 2 23 1 24
REMARK SMILES IDX 3 27 22 28 23 29 24 30 25 31 26 33 27 34 28 35 92 36 29 37
REMARK SMILES IDX 91 38 30 39 31 40 32 41 85 42 33 43 90 44 84 45 86 46 34 47
REMARK SMILES IDX 89 48 83 49 82 50 35 52 69 53 48 54 68 55 49 56 52 57 67 58
REMARK SMILES IDX 87 59 50 60 51 61 66 63 88 64 53 65 36 66 37 67 46 68 38 69
REMARK SMILES IDX 39 70 45 71 47 72 40 73 41 74 42 75 43 76 44 77 70 78 71 79
REMARK SMILES IDX 80 80 72 81 73 82 79 83 81 84 74 85 75 86 76 87 77 88 78 89
REMARK SMILES IDX 54 90 55 91 64 92 56 93 57 94 63 95 65 96 58 97 59 98 60 99
REMARK SMILES IDX 61 100 62 101
REMARK H PARENT 19 6 9 17 1 25 1 26 24 32 86 51 52 62
REMARK Flexibility Score: inf
ROOT
ATOM      1  C   UNL A   1      31.867  30.565  26.753  1.00  0.00     0.023 C 
ENDROOT
BRANCH   1   2
ATOM      2  C   UNL A   1      33.203  30.061  26.202  1.00  0.00     0.116 C 
BRANCH   2   3
ATOM      3  N   UNL A   1      33.107  29.748  24.788  1.00  0.00    -0.352 N 
ATOM      4  C   UNL A   1      32.749  28.586  24.153  1.00  0.00     0.251 C 
ATOM      5  O   UNL A   1      32.617  28.589  22.930  1.00  0.00    -0.269 OA
ATOM      6  H   UNL A   1      33.338  30.492  24.186  1.00  0.00     0.163 HD
BRANCH   4   7
ATOM      7  C   UNL A   1      32.499  27.323  24.895  1.00  0.00     0.039 A 
ATOM      8  C   UNL A   1      31.943  24.843  26.059  1.00  0.00     0.087 A 
ATOM      9  C   UNL A   1      30.890  25.619  25.569  1.00  0.00     0.023 A 
ATOM     10  C   UNL A   1      33.259  25.319  26.024  1.00  0.00     0.023 A 
ATOM     11  C   UNL A   1      31.176  26.854  24.973  1.00  0.00     0.015 A 
ATOM     12  C   UNL A   1      33.535  26.541  25.415  1.00  0.00     0.015 A 
BRANCH   8  13
ATOM     13  S   UNL A   1      31.657  23.204  26.666  1.00  0.00     0.262 S 
ATOM     14  O   UNL A   1      30.220  23.012  26.641  1.00  0.00    -0.201 OA
ATOM     15  O   UNL A   1      32.387  23.056  27.909  1.00  0.00    -0.201 OA
BRANCH  13  16
ATOM     16  N   UNL A   1      32.284  22.095  25.591  1.00  0.00    -0.270 N 
ATOM     17  H   UNL A   1      31.645  21.720  24.941  1.00  0.00     0.181 HD
BRANCH  16  18
ATOM     18  C   UNL A   1      33.624  21.616  25.488  1.00  0.00     0.115 A 
ATOM     19  C   UNL A   1      33.882  20.264  25.285  1.00  0.00     0.074 A 
ATOM     20  C   UNL A   1      35.268  20.048  24.957  1.00  0.00     0.028 A 
ATOM     21  C   UNL A   1      36.015  21.197  25.060  1.00  0.00     0.068 A 
ATOM     22  S   UNL A   1      35.078  22.482  25.666  1.00  0.00    -0.125 S 
BRANCH  19  23
ATOM     23  C   UNL A   1      32.854  19.235  25.361  1.00  0.00     0.251 C 
ATOM     24  N   UNL A   1      32.851  18.507  26.516  1.00  0.00    -0.366 N 
ATOM     25  H   UNL A   1      32.188  17.791  26.645  1.00  0.00     0.159 HD
ATOM     26  H   UNL A   1      33.514  18.697  27.219  1.00  0.00     0.159 HD
ATOM     27  O   UNL A   1      32.001  19.063  24.497  1.00  0.00    -0.269 OA
ENDBRANCH  19  23
ENDBRANCH  16  18
ENDBRANCH  13  16
ENDBRANCH   8  13
ENDBRANCH   4   7
ENDBRANCH   2   3
ENDBRANCH   1   2
BRANCH   1  28
ATOM     28  C   UNL A   1      31.737  32.088  26.816  1.00  0.00     0.023 C 
BRANCH  28  29
ATOM     29  C   UNL A   1      32.873  32.805  27.536  1.00  0.00     0.116 C 
BRANCH  29  30
ATOM     30  N   UNL A   1      32.574  34.197  27.841  1.00  0.00    -0.352 N 
ATOM     31  C   UNL A   1      33.149  35.001  28.796  1.00  0.00     0.251 C 
ATOM     32  H   UNL A   1      31.871  34.615  27.294  1.00  0.00     0.163 HD
ATOM     33  O   UNL A   1      32.710  36.128  29.001  1.00  0.00    -0.269 OA
BRANCH  31  34
ATOM     34  C   UNL A   1      34.272  34.476  29.600  1.00  0.00     0.039 A 
ATOM     35  C   UNL A   1      33.992  33.846  30.815  1.00  0.00     0.014 A 
ATOM     36  C   UNL A   1      35.586  34.566  29.134  1.00  0.00     0.014 A 
ATOM     37  C   UNL A   1      35.028  33.243  31.531  1.00  0.00     0.010 A 
ATOM     38  C   UNL A   1      36.605  33.909  29.816  1.00  0.00     0.010 A 
ATOM     39  C   UNL A   1      36.336  33.238  31.018  1.00  0.00    -0.014 A 
BRANCH  39  40
ATOM     40  C   UNL A   1      37.435  32.530  31.721  1.00  0.00     0.031 A 
ATOM     41  C   UNL A   1      37.943  33.046  33.038  1.00  0.00     0.074 A 
ATOM     42  C   UNL A   1      38.019  31.465  31.137  1.00  0.00     0.049 A 
ATOM     43  N   UNL A   1      38.941  32.613  33.764  1.00  0.00    -0.248 NA
ATOM     44  C   UNL A   1      37.258  34.222  33.598  1.00  0.00     0.031 C 
ATOM     45  C   UNL A   1      37.650  30.904  29.835  1.00  0.00     0.029 A 
ATOM     46  N   UNL A   1      39.059  30.672  31.555  1.00  0.00    -0.354 N 
ATOM     47  C   UNL A   1      39.012  33.468  34.858  1.00  0.00     0.074 A 
ATOM     48  C   UNL A   1      37.991  34.476  34.673  1.00  0.00     0.031 C 
ATOM     49  C   UNL A   1      38.435  29.847  29.571  1.00  0.00     0.029 A 
ATOM     50  C   UNL A   1      39.386  29.676  30.665  1.00  0.00     0.049 A 
ATOM     51  H   UNL A   1      39.525  30.804  32.411  1.00  0.00     0.167 HD
ATOM     52  C   UNL A   1      39.839  33.405  35.929  1.00  0.00     0.037 A 
ATOM     53  C   UNL A   1      40.350  28.736  30.722  1.00  0.00     0.037 A 
ATOM     54  C   UNL A   1      40.833  32.382  36.120  1.00  0.00     0.049 A 
ATOM     55  C   UNL A   1      41.248  28.679  31.927  1.00  0.00     0.074 A 
ATOM     56  C   UNL A   1      41.680  32.196  37.198  1.00  0.00     0.029 A 
ATOM     57  N   UNL A   1      41.115  31.372  35.211  1.00  0.00    -0.354 N 
ATOM     58  N   UNL A   1      41.260  29.459  32.982  1.00  0.00    -0.248 NA
ATOM     59  C   UNL A   1      42.259  27.613  31.954  1.00  0.00     0.031 C 
ATOM     60  C   UNL A   1      42.499  31.094  36.926  1.00  0.00     0.029 A 
ATOM     61  C   UNL A   1      42.132  30.569  35.697  1.00  0.00     0.049 A 
ATOM     62  H   UNL A   1      40.659  31.246  34.347  1.00  0.00     0.167 HD
ATOM     63  C   UNL A   1      42.261  28.961  33.810  1.00  0.00     0.074 A 
ATOM     64  C   UNL A   1      42.823  27.808  33.138  1.00  0.00     0.031 C 
ATOM     65  C   UNL A   1      42.674  29.417  35.017  1.00  0.00     0.037 A 
BRANCH  52  66
ATOM     66  C   UNL A   1      39.695  34.468  36.982  1.00  0.00     0.058 A 
ATOM     67  C   UNL A   1      40.301  35.728  36.843  1.00  0.00     0.135 A 
ATOM     68  C   UNL A   1      38.917  34.240  38.129  1.00  0.00     0.135 A 
ATOM     69  F   UNL A   1      41.069  35.994  35.774  1.00  0.00    -0.206 F 
ATOM     70  C   UNL A   1      40.166  36.712  37.817  1.00  0.00     0.059 A 
ATOM     71  C   UNL A   1      38.746  35.220  39.102  1.00  0.00     0.059 A 
ATOM     72  F   UNL A   1      38.316  33.054  38.313  1.00  0.00    -0.206 F 
ATOM     73  C   UNL A   1      39.387  36.448  38.944  1.00  0.00     0.060 A 
BRANCH  73  74
ATOM     74  S   UNL A   1      39.219  37.737  40.196  1.00  0.00     0.124 S 
ATOM     75  O   UNL A   1      38.183  38.581  39.607  1.00  0.00    -0.237 OA
ATOM     76  O   UNL A   1      38.820  36.977  41.375  1.00  0.00    -0.237 OA
ATOM     77  O   UNL A   1      40.551  38.329  40.255  1.00  0.00    -0.744 OA
ENDBRANCH  73  74
ENDBRANCH  52  66
BRANCH  53  78
ATOM     78  C   UNL A   1      40.496  27.754  29.614  1.00  0.00     0.058 A 
ATOM     79  C   UNL A   1      41.517  27.891  28.660  1.00  0.00     0.135 A 
ATOM     80  C   UNL A   1      39.631  26.656  29.492  1.00  0.00     0.135 A 
ATOM     81  F   UNL A   1      42.364  28.928  28.732  1.00  0.00    -0.206 F 
ATOM     82  C   UNL A   1      41.664  26.985  27.615  1.00  0.00     0.059 A 
ATOM     83  C   UNL A   1      39.774  25.722  28.470  1.00  0.00     0.059 A 
ATOM     84  F   UNL A   1      38.650  26.469  30.390  1.00  0.00    -0.206 F 
ATOM     85  C   UNL A   1      40.788  25.902  27.529  1.00  0.00     0.060 A 
BRANCH  85  86
ATOM     86  S   UNL A   1      41.017  24.705  26.197  1.00  0.00     0.124 S 
ATOM     87  O   UNL A   1      39.651  24.243  25.981  1.00  0.00    -0.237 OA
ATOM     88  O   UNL A   1      41.587  25.531  25.136  1.00  0.00    -0.237 OA
ATOM     89  O   UNL A   1      41.932  23.727  26.778  1.00  0.00    -0.744 OA
ENDBRANCH  85  86
ENDBRANCH  53  78
BRANCH  65  90
ATOM     90  C   UNL A   1      43.767  28.651  35.709  1.00  0.00     0.058 A 
ATOM     91  C   UNL A   1      45.121  28.966  35.520  1.00  0.00     0.135 A 
ATOM     92  C   UNL A   1      43.450  27.625  36.613  1.00  0.00     0.135 A 
ATOM     93  F   UNL A   1      45.476  29.934  34.661  1.00  0.00    -0.206 F 
ATOM     94  C   UNL A   1      46.125  28.276  36.190  1.00  0.00     0.059 A 
ATOM     95  C   UNL A   1      44.437  26.939  37.314  1.00  0.00     0.059 A 
ATOM     96  F   UNL A   1      42.168  27.292  36.837  1.00  0.00    -0.206 F 
ATOM     97  C   UNL A   1      45.774  27.265  37.086  1.00  0.00     0.060 A 
BRANCH  97  98
ATOM     98  S   UNL A   1      47.085  26.403  37.979  1.00  0.00     0.124 S 
ATOM     99  O   UNL A   1      46.370  25.923  39.157  1.00  0.00    -0.237 OA
ATOM    100  O   UNL A   1      47.495  25.378  37.025  1.00  0.00    -0.237 OA
ATOM    101  O   UNL A   1      48.071  27.451  38.228  1.00  0.00    -0.744 OA
ENDBRANCH  97  98
ENDBRANCH  65  90
ENDBRANCH  39  40
ENDBRANCH  31  34
ENDBRANCH  29  30
ENDBRANCH  28  29
ENDBRANCH   1  28
TORSDOF 18
ENDMDL
MODEL 2
REMARK VINA RESULT:     -11.8      4.626      5.853
REMARK SMILES NC(=O)c1ccsc1NS(=O)(=O)c1ccc(C(=O)NCCCCNC(=O)c2ccc(-c3c4nc(c(-c5c(F)cc(S(=O)(=O)[O-])cc5F)c5ccc([nH]5)c(-c5c(F)cc(S(=O)(=O)[O-])cc5F)c5nc(c(-c6c(F)cc(S(=O)(=O)[O-])cc6F)c6ccc3[nH]6)C=C5)C=C4)cc2)cc1
REMARK SMILES IDX 21 1 20 2 19 3 17 4 18 5 16 7 13 8 14 9 94 10 15 11 93 12
REMARK SMILES IDX 10 13 11 14 12 15 9 16 8 18 4 19 5 20 6 21 7 22 2 23 1 24
REMARK SMILES IDX 3 27 22 28 23 29 24 30 25 31 26 33 27 34 28 35 92 36 29 37
REMARK SMILES IDX 91 38 30 39 31 40 32 41 85 42 33 43 90 44 84 45 86 46 34 47
REMARK SMILES IDX 89 48 83 49 82 50 35 52 69 53 48 54 68 55 49 56 52 57 67 58
REMARK SMILES IDX 87 59 50 60 51 61 66 63 88 64 53 65 36 66 37 67 46 68 38 69
REMARK SMILES IDX 39 70 45 71 47 72 40 73 41 74 42 75 43 76 44 77 70 78 71 79
REMARK SMILES IDX 80 80 72 81 73 82 79 83 81 84 74 85 75 86 76 87 77 88 78 89
REMARK SMILES IDX 54 90 55 91 64 92 56 93 57 94 63 95 65 96 58 97 59 98 60 99
REMARK SMILES IDX 61 100 62 101
REMARK H PARENT 19 6 9 17 1 25 1 26 24 32 86 51 52 62
REMARK Flexibility Score: inf
ROOT
ATOM      1  C   UNL A   1      32.903  29.608  24.989  1.00  0.00     0.023 C 
ENDROOT
BRANCH   1   2
ATOM      2  C   UNL A   1      31.383  29.776  25.042  1.00  0.00     0.116 C 
BRANCH   2   3
ATOM      3  N   UNL A   1      30.793  29.662  23.721  1.00  0.00    -0.352 N 
ATOM      4  C   UNL A   1      30.531  28.556  22.953  1.00  0.00     0.251 C 
ATOM      5  O   UNL A   1      29.904  28.691  21.903  1.00  0.00    -0.269 OA
ATOM      6  H   UNL A   1      30.539  30.519  23.308  1.00  0.00     0.163 HD
BRANCH   4   7
ATOM      7  C   UNL A   1      30.967  27.193  23.352  1.00  0.00     0.039 A 
ATOM      8  C   UNL A   1      31.569  24.536  23.979  1.00  0.00     0.087 A 
ATOM      9  C   UNL A   1      30.436  25.131  24.541  1.00  0.00     0.023 A 
ATOM     10  C   UNL A   1      32.430  25.273  23.158  1.00  0.00     0.023 A 
ATOM     11  C   UNL A   1      30.131  26.457  24.211  1.00  0.00     0.015 A 
ATOM     12  C   UNL A   1      32.110  26.586  22.822  1.00  0.00     0.015 A 
BRANCH   8  13
ATOM     13  S   UNL A   1      31.908  22.815  24.226  1.00  0.00     0.262 S 
ATOM     14  O   UNL A   1      32.010  22.233  22.902  1.00  0.00    -0.201 OA
ATOM     15  O   UNL A   1      30.939  22.301  25.171  1.00  0.00    -0.201 OA
BRANCH  13  16
ATOM     16  N   UNL A   1      33.414  22.639  24.919  1.00  0.00    -0.270 N 
ATOM     17  H   UNL A   1      33.722  23.395  25.470  1.00  0.00     0.181 HD
BRANCH  16  18
ATOM     18  C   UNL A   1      34.316  21.538  24.818  1.00  0.00     0.115 A 
ATOM     19  C   UNL A   1      35.681  21.751  24.654  1.00  0.00     0.074 A 
ATOM     20  C   UNL A   1      36.418  20.527  24.835  1.00  0.00     0.028 A 
ATOM     21  C   UNL A   1      35.594  19.437  24.985  1.00  0.00     0.068 A 
ATOM     22  S   UNL A   1      33.962  19.875  24.782  1.00  0.00    -0.125 S 
BRANCH  19  23
ATOM     23  C   UNL A   1      36.258  23.060  24.378  1.00  0.00     0.251 C 
ATOM     24  N   UNL A   1      36.981  23.139  23.222  1.00  0.00    -0.366 N 
ATOM     25  H   UNL A   1      37.404  23.989  22.964  1.00  0.00     0.159 HD
ATOM     26  H   UNL A   1      37.080  22.346  22.648  1.00  0.00     0.159 HD
ATOM     27  O   UNL A   1      36.065  24.048  25.078  1.00  0.00    -0.269 OA
ENDBRANCH  19  23
ENDBRANCH  16  18
ENDBRANCH  13  16
ENDBRANCH   8  13
ENDBRANCH   4   7
ENDBRANCH   2   3
ENDBRANCH   1   2
BRANCH   1  28
ATOM     28  C   UNL A   1      33.432  28.360  25.699  1.00  0.00     0.023 C 
BRANCH  28  29
ATOM     29  C   UNL A   1      33.720  28.534  27.186  1.00  0.00     0.116 C 
BRANCH  29  30
ATOM     30  N   UNL A   1      33.606  29.914  27.637  1.00  0.00    -0.352 N 
ATOM     31  C   UNL A   1      34.557  30.686  28.260  1.00  0.00     0.251 C 
ATOM     32  H   UNL A   1      32.738  30.348  27.475  1.00  0.00     0.163 HD
ATOM     33  O   UNL A   1      34.269  31.804  28.676  1.00  0.00    -0.269 OA
BRANCH  31  34
ATOM     34  C   UNL A   1      35.914  30.137  28.460  1.00  0.00     0.039 A 
ATOM     35  C   UNL A   1      36.813  30.160  27.391  1.00  0.00     0.014 A 
ATOM     36  C   UNL A   1      36.307  29.645  29.707  1.00  0.00     0.014 A 
ATOM     37  C   UNL A   1      38.133  29.752  27.594  1.00  0.00     0.010 A 
ATOM     38  C   UNL A   1      37.638  29.302  29.923  1.00  0.00     0.010 A 
ATOM     39  C   UNL A   1      38.564  29.355  28.871  1.00  0.00    -0.014 A 
BRANCH  39  40
ATOM     40  C   UNL A   1      39.982  29.000  29.128  1.00  0.00     0.031 A 
ATOM     41  C   UNL A   1      40.924  30.025  29.696  1.00  0.00     0.074 A 
ATOM     42  C   UNL A   1      40.434  27.778  28.783  1.00  0.00     0.049 A 
ATOM     43  N   UNL A   1      42.209  29.929  29.918  1.00  0.00    -0.248 NA
ATOM     44  C   UNL A   1      40.352  31.338  30.031  1.00  0.00     0.031 C 
ATOM     45  C   UNL A   1      39.628  26.717  28.174  1.00  0.00     0.029 A 
ATOM     46  N   UNL A   1      41.686  27.225  28.882  1.00  0.00    -0.354 N 
ATOM     47  C   UNL A   1      42.602  31.172  30.405  1.00  0.00     0.074 A 
ATOM     48  C   UNL A   1      41.429  32.018  30.396  1.00  0.00     0.031 C 
ATOM     49  C   UNL A   1      40.400  25.637  27.973  1.00  0.00     0.029 A 
ATOM     50  C   UNL A   1      41.761  25.938  28.404  1.00  0.00     0.049 A 
ATOM     51  H   UNL A   1      42.458  27.705  29.260  1.00  0.00     0.167 HD
ATOM     52  C   UNL A   1      43.823  31.562  30.841  1.00  0.00     0.037 A 
ATOM     53  C   UNL A   1      42.811  25.097  28.317  1.00  0.00     0.037 A 
ATOM     54  C   UNL A   1      44.979  30.704  30.874  1.00  0.00     0.049 A 
ATOM     55  C   UNL A   1      44.155  25.550  28.819  1.00  0.00     0.074 A 
ATOM     56  C   UNL A   1      46.246  30.986  31.352  1.00  0.00     0.029 A 
ATOM     57  N   UNL A   1      45.008  29.396  30.410  1.00  0.00    -0.354 N 
ATOM     58  N   UNL A   1      44.493  26.708  29.334  1.00  0.00    -0.248 NA
ATOM     59  C   UNL A   1      45.258  24.583  28.733  1.00  0.00     0.031 C 
ATOM     60  C   UNL A   1      47.052  29.861  31.144  1.00  0.00     0.029 A 
ATOM     61  C   UNL A   1      46.275  28.864  30.577  1.00  0.00     0.049 A 
ATOM     62  H   UNL A   1      44.241  28.918  30.019  1.00  0.00     0.167 HD
ATOM     63  C   UNL A   1      45.842  26.599  29.659  1.00  0.00     0.074 A 
ATOM     64  C   UNL A   1      46.252  25.259  29.291  1.00  0.00     0.031 C 
ATOM     65  C   UNL A   1      46.664  27.523  30.213  1.00  0.00     0.037 A 
BRANCH  52  66
ATOM     66  C   UNL A   1      43.968  32.977  31.327  1.00  0.00     0.058 A 
ATOM     67  C   UNL A   1      44.296  34.025  30.451  1.00  0.00     0.135 A 
ATOM     68  C   UNL A   1      43.747  33.298  32.676  1.00  0.00     0.135 A 
ATOM     69  F   UNL A   1      44.535  33.772  29.154  1.00  0.00    -0.206 F 
ATOM     70  C   UNL A   1      44.429  35.335  30.901  1.00  0.00     0.059 A 
ATOM     71  C   UNL A   1      43.847  34.605  33.142  1.00  0.00     0.059 A 
ATOM     72  F   UNL A   1      43.431  32.335  33.556  1.00  0.00    -0.206 F 
ATOM     73  C   UNL A   1      44.203  35.615  32.249  1.00  0.00     0.060 A 
BRANCH  73  74
ATOM     74  S   UNL A   1      44.375  37.320  32.815  1.00  0.00     0.124 S 
ATOM     75  O   UNL A   1      44.478  38.038  31.548  1.00  0.00    -0.237 OA
ATOM     76  O   UNL A   1      43.139  37.527  33.562  1.00  0.00    -0.237 OA
ATOM     77  O   UNL A   1      45.593  37.289  33.619  1.00  0.00    -0.744 OA
ENDBRANCH  73  74
ENDBRANCH  52  66
BRANCH  53  78
ATOM     78  C   UNL A   1      42.626  23.732  27.757  1.00  0.00     0.058 A 
ATOM     79  C   UNL A   1      42.741  23.498  26.378  1.00  0.00     0.135 A 
ATOM     80  C   UNL A   1      42.344  22.635  28.585  1.00  0.00     0.135 A 
ATOM     81  F   UNL A   1      43.003  24.516  25.546  1.00  0.00    -0.206 F 
ATOM     82  C   UNL A   1      42.565  22.228  25.838  1.00  0.00     0.059 A 
ATOM     83  C   UNL A   1      42.190  21.351  28.071  1.00  0.00     0.059 A 
ATOM     84  F   UNL A   1      42.244  22.803  29.914  1.00  0.00    -0.206 F 
ATOM     85  C   UNL A   1      42.291  21.160  26.693  1.00  0.00     0.060 A 
BRANCH  85  86
ATOM     86  S   UNL A   1      42.112  19.508  25.986  1.00  0.00     0.124 S 
ATOM     87  O   UNL A   1      42.584  18.669  27.082  1.00  0.00    -0.237 OA
ATOM     88  O   UNL A   1      40.681  19.447  25.706  1.00  0.00    -0.237 OA
ATOM     89  O   UNL A   1      42.972  19.553  24.807  1.00  0.00    -0.744 OA
ENDBRANCH  85  86
ENDBRANCH  53  78
BRANCH  65  90
ATOM     90  C   UNL A   1      48.083  27.112  30.487  1.00  0.00     0.058 A 
ATOM     91  C   UNL A   1      49.097  27.282  29.532  1.00  0.00     0.135 A 
ATOM     92  C   UNL A   1      48.441  26.590  31.740  1.00  0.00     0.135 A 
ATOM     93  F   UNL A   1      48.806  27.770  28.316  1.00  0.00    -0.206 F 
ATOM     94  C   UNL A   1      50.415  26.931  29.804  1.00  0.00     0.059 A 
ATOM     95  C   UNL A   1      49.757  26.257  32.044  1.00  0.00     0.059 A 
ATOM     96  F   UNL A   1      47.509  26.417  32.692  1.00  0.00    -0.206 F 
ATOM     97  C   UNL A   1      50.736  26.421  31.064  1.00  0.00     0.060 A 
BRANCH  97  98
ATOM     98  S   UNL A   1      52.457  26.006  31.419  1.00  0.00     0.124 S 
ATOM     99  O   UNL A   1      52.801  27.015  32.416  1.00  0.00    -0.237 OA
ATOM    100  O   UNL A   1      52.356  24.636  31.912  1.00  0.00    -0.237 OA
ATOM    101  O   UNL A   1      53.115  26.153  30.124  1.00  0.00    -0.744 OA
ENDBRANCH  97  98
ENDBRANCH  65  90
ENDBRANCH  39  40
ENDBRANCH  31  34
ENDBRANCH  29  30
ENDBRANCH  28  29
ENDBRANCH   1  28
TORSDOF 18
ENDMDL
MODEL 3
REMARK VINA RESULT:     -11.6      6.205      8.427
REMARK SMILES NC(=O)c1ccsc1NS(=O)(=O)c1ccc(C(=O)NCCCCNC(=O)c2ccc(-c3c4nc(c(-c5c(F)cc(S(=O)(=O)[O-])cc5F)c5ccc([nH]5)c(-c5c(F)cc(S(=O)(=O)[O-])cc5F)c5nc(c(-c6c(F)cc(S(=O)(=O)[O-])cc6F)c6ccc3[nH]6)C=C5)C=C4)cc2)cc1
REMARK SMILES IDX 21 1 20 2 19 3 17 4 18 5 16 7 13 8 14 9 94 10 15 11 93 12
REMARK SMILES IDX 10 13 11 14 12 15 9 16 8 18 4 19 5 20 6 21 7 22 2 23 1 24
REMARK SMILES IDX 3 27 22 28 23 29 24 30 25 31 26 33 27 34 28 35 92 36 29 37
REMARK SMILES IDX 91 38 30 39 31 40 32 41 85 42 33 43 90 44 84 45 86 46 34 47
REMARK SMILES IDX 89 48 83 49 82 50 35 52 69 53 48 54 68 55 49 56 52 57 67 58
REMARK SMILES IDX 87 59 50 60 51 61 66 63 88 64 53 65 36 66 37 67 46 68 38 69
REMARK SMILES IDX 39 70 45 71 47 72 40 73 41 74 42 75 43 76 44 77 70 78 71 79
REMARK SMILES IDX 80 80 72 81 73 82 79 83 81 84 74 85 75 86 76 87 77 88 78 89
REMARK SMILES IDX 54 90 55 91 64 92 56 93 57 94 63 95 65 96 58 97 59 98 60 99
REMARK SMILES IDX 61 100 62 101
REMARK H PARENT 19 6 9 17 1 25 1 26 24 32 86 51 52 62
REMARK Flexibility Score: inf
ROOT
ATOM      1  C   UNL A   1      33.783  29.805  26.501  1.00  0.00     0.023 C 
ENDROOT
BRANCH   1   2
ATOM      2  C   UNL A   1      32.367  29.412  26.926  1.00  0.00     0.116 C 
BRANCH   2   3
ATOM      3  N   UNL A   1      31.519  29.163  25.775  1.00  0.00    -0.352 N 
ATOM      4  C   UNL A   1      31.355  28.034  25.014  1.00  0.00     0.251 C 
ATOM      5  O   UNL A   1      30.478  28.015  24.152  1.00  0.00    -0.269 OA
ATOM      6  H   UNL A   1      30.972  29.932  25.493  1.00  0.00     0.163 HD
BRANCH   4   7
ATOM      7  C   UNL A   1      32.193  26.821  25.206  1.00  0.00     0.039 A 
ATOM      8  C   UNL A   1      33.947  24.698  25.683  1.00  0.00     0.087 A 
ATOM      9  C   UNL A   1      34.323  25.708  24.793  1.00  0.00     0.023 A 
ATOM     10  C   UNL A   1      32.685  24.711  26.287  1.00  0.00     0.023 A 
ATOM     11  C   UNL A   1      33.446  26.777  24.569  1.00  0.00     0.015 A 
ATOM     12  C   UNL A   1      31.826  25.787  26.071  1.00  0.00     0.015 A 
BRANCH   8  13
ATOM     13  S   UNL A   1      35.082  23.415  26.132  1.00  0.00     0.262 S 
ATOM     14  O   UNL A   1      34.574  22.843  27.363  1.00  0.00    -0.201 OA
ATOM     15  O   UNL A   1      36.420  23.969  26.088  1.00  0.00    -0.201 OA
BRANCH  13  16
ATOM     16  N   UNL A   1      35.017  22.193  25.000  1.00  0.00    -0.270 N 
ATOM     17  H   UNL A   1      35.876  21.948  24.585  1.00  0.00     0.181 HD
BRANCH  16  18
ATOM     18  C   UNL A   1      33.880  21.456  24.553  1.00  0.00     0.115 A 
ATOM     19  C   UNL A   1      33.261  21.768  23.347  1.00  0.00     0.074 A 
ATOM     20  C   UNL A   1      32.314  20.748  22.975  1.00  0.00     0.028 A 
ATOM     21  C   UNL A   1      32.154  19.800  23.957  1.00  0.00     0.068 A 
ATOM     22  S   UNL A   1      33.040  20.211  25.351  1.00  0.00    -0.125 S 
BRANCH  19  23
ATOM     23  C   UNL A   1      33.582  22.957  22.568  1.00  0.00     0.251 C 
ATOM     24  N   UNL A   1      32.506  23.599  22.025  1.00  0.00    -0.366 N 
ATOM     25  H   UNL A   1      32.638  24.410  21.484  1.00  0.00     0.159 HD
ATOM     26  H   UNL A   1      31.598  23.249  22.174  1.00  0.00     0.159 HD
ATOM     27  O   UNL A   1      34.717  23.406  22.452  1.00  0.00    -0.269 OA
ENDBRANCH  19  23
ENDBRANCH  16  18
ENDBRANCH  13  16
ENDBRANCH   8  13
ENDBRANCH   4   7
ENDBRANCH   2   3
ENDBRANCH   1   2
BRANCH   1  28
ATOM     28  C   UNL A   1      34.888  29.328  27.445  1.00  0.00     0.023 C 
BRANCH  28  29
ATOM     29  C   UNL A   1      35.657  30.436  28.155  1.00  0.00     0.116 C 
BRANCH  29  30
ATOM     30  N   UNL A   1      35.484  30.423  29.600  1.00  0.00    -0.352 N 
ATOM     31  C   UNL A   1      36.431  30.180  30.567  1.00  0.00     0.251 C 
ATOM     32  H   UNL A   1      34.575  30.611  29.926  1.00  0.00     0.163 HD
ATOM     33  O   UNL A   1      36.102  30.099  31.747  1.00  0.00    -0.269 OA
BRANCH  31  34
ATOM     34  C   UNL A   1      37.837  29.976  30.165  1.00  0.00     0.039 A 
ATOM     35  C   UNL A   1      38.770  29.613  31.140  1.00  0.00     0.014 A 
ATOM     36  C   UNL A   1      38.221  30.098  28.827  1.00  0.00     0.014 A 
ATOM     37  C   UNL A   1      40.078  29.305  30.759  1.00  0.00     0.010 A 
ATOM     38  C   UNL A   1      39.505  29.727  28.442  1.00  0.00     0.010 A 
ATOM     39  C   UNL A   1      40.445  29.324  29.403  1.00  0.00    -0.014 A 
BRANCH  39  40
ATOM     40  C   UNL A   1      41.804  28.916  28.969  1.00  0.00     0.031 A 
ATOM     41  C   UNL A   1      42.910  29.933  28.904  1.00  0.00     0.074 A 
ATOM     42  C   UNL A   1      42.021  27.649  28.566  1.00  0.00     0.049 A 
ATOM     43  N   UNL A   1      44.139  29.788  28.480  1.00  0.00    -0.248 NA
ATOM     44  C   UNL A   1      42.584  31.297  29.348  1.00  0.00     0.031 C 
ATOM     45  C   UNL A   1      41.013  26.586  28.533  1.00  0.00     0.029 A 
ATOM     46  N   UNL A   1      43.158  27.041  28.094  1.00  0.00    -0.354 N 
ATOM     47  C   UNL A   1      44.728  31.043  28.592  1.00  0.00     0.074 A 
ATOM     48  C   UNL A   1      43.707  31.947  29.075  1.00  0.00     0.031 C 
ATOM     49  C   UNL A   1      41.580  25.454  28.085  1.00  0.00     0.029 A 
ATOM     50  C   UNL A   1      42.981  25.717  27.767  1.00  0.00     0.049 A 
ATOM     51  H   UNL A   1      44.019  27.508  28.000  1.00  0.00     0.167 HD
ATOM     52  C   UNL A   1      46.009  31.402  28.338  1.00  0.00     0.037 A 
ATOM     53  C   UNL A   1      43.847  24.818  27.260  1.00  0.00     0.037 A 
ATOM     54  C   UNL A   1      47.026  30.490  27.884  1.00  0.00     0.049 A 
ATOM     55  C   UNL A   1      45.268  25.239  26.996  1.00  0.00     0.074 A 
ATOM     56  C   UNL A   1      48.366  30.743  27.655  1.00  0.00     0.029 A 
ATOM     57  N   UNL A   1      46.815  29.150  27.593  1.00  0.00    -0.354 N 
ATOM     58  N   UNL A   1      45.823  26.415  27.168  1.00  0.00    -0.248 NA
ATOM     59  C   UNL A   1      46.180  24.211  26.476  1.00  0.00     0.031 C 
ATOM     60  C   UNL A   1      48.960  29.565  27.188  1.00  0.00     0.029 A 
ATOM     61  C   UNL A   1      47.998  28.567  27.171  1.00  0.00     0.049 A 
ATOM     62  H   UNL A   1      45.952  28.683  27.674  1.00  0.00     0.167 HD
ATOM     63  C   UNL A   1      47.156  26.261  26.802  1.00  0.00     0.074 A 
ATOM     64  C   UNL A   1      47.325  24.877  26.411  1.00  0.00     0.031 C 
ATOM     65  C   UNL A   1      48.150  27.183  26.793  1.00  0.00     0.037 A 
BRANCH  52  66
ATOM     66  C   UNL A   1      46.382  32.843  28.553  1.00  0.00     0.058 A 
ATOM     67  C   UNL A   1      46.292  33.788  27.518  1.00  0.00     0.135 A 
ATOM     68  C   UNL A   1      46.805  33.292  29.814  1.00  0.00     0.135 A 
ATOM     69  F   UNL A   1      45.909  33.410  26.288  1.00  0.00    -0.206 F 
ATOM     70  C   UNL A   1      46.636  35.121  27.718  1.00  0.00     0.059 A 
ATOM     71  C   UNL A   1      47.128  34.626  30.044  1.00  0.00     0.059 A 
ATOM     72  F   UNL A   1      46.910  32.431  30.838  1.00  0.00    -0.206 F 
ATOM     73  C   UNL A   1      47.054  35.530  28.985  1.00  0.00     0.060 A 
BRANCH  73  74
ATOM     74  S   UNL A   1      47.494  37.264  29.229  1.00  0.00     0.124 S 
ATOM     75  O   UNL A   1      48.950  37.209  29.140  1.00  0.00    -0.237 OA
ATOM     76  O   UNL A   1      46.816  37.917  28.115  1.00  0.00    -0.237 OA
ATOM     77  O   UNL A   1      46.956  37.567  30.551  1.00  0.00    -0.744 OA
ENDBRANCH  73  74
ENDBRANCH  52  66
BRANCH  53  78
ATOM     78  C   UNL A   1      43.403  23.424  26.994  1.00  0.00     0.058 A 
ATOM     79  C   UNL A   1      43.192  22.973  25.682  1.00  0.00     0.135 A 
ATOM     80  C   UNL A   1      43.192  22.513  28.041  1.00  0.00     0.135 A 
ATOM     81  F   UNL A   1      43.375  23.809  24.650  1.00  0.00    -0.206 F 
ATOM     82  C   UNL A   1      42.771  21.673  25.418  1.00  0.00     0.059 A 
ATOM     83  C   UNL A   1      42.795  21.201  27.800  1.00  0.00     0.059 A 
ATOM     84  F   UNL A   1      43.398  22.890  29.313  1.00  0.00    -0.206 F 
ATOM     85  C   UNL A   1      42.576  20.794  26.483  1.00  0.00     0.060 A 
BRANCH  85  86
ATOM     86  S   UNL A   1      42.075  19.096  26.126  1.00  0.00     0.124 S 
ATOM     87  O   UNL A   1      42.386  18.429  27.385  1.00  0.00    -0.237 OA
ATOM     88  O   UNL A   1      40.657  19.253  25.819  1.00  0.00    -0.237 OA
ATOM     89  O   UNL A   1      42.918  18.730  24.991  1.00  0.00    -0.744 OA
ENDBRANCH  85  86
ENDBRANCH  53  78
BRANCH  65  90
ATOM     90  C   UNL A   1      49.518  26.721  26.378  1.00  0.00     0.058 A 
ATOM     91  C   UNL A   1      50.392  26.098  27.283  1.00  0.00     0.135 A 
ATOM     92  C   UNL A   1      49.938  26.855  25.045  1.00  0.00     0.135 A 
ATOM     93  F   UNL A   1      50.041  25.953  28.570  1.00  0.00    -0.206 F 
ATOM     94  C   UNL A   1      51.643  25.642  26.884  1.00  0.00     0.059 A 
ATOM     95  C   UNL A   1      51.175  26.382  24.618  1.00  0.00     0.059 A 
ATOM     96  F   UNL A   1      49.135  27.434  24.138  1.00  0.00    -0.206 F 
ATOM     97  C   UNL A   1      52.026  25.786  25.549  1.00  0.00     0.060 A 
BRANCH  97  98
ATOM     98  S   UNL A   1      53.637  25.154  25.035  1.00  0.00     0.124 S 
ATOM     99  O   UNL A   1      53.468  23.719  25.244  1.00  0.00    -0.237 OA
ATOM    100  O   UNL A   1      53.716  25.586  23.643  1.00  0.00    -0.237 OA
ATOM    101  O   UNL A   1      54.567  25.815  25.945  1.00  0.00    -0.744 OA
ENDBRANCH  97  98
ENDBRANCH  65  90
ENDBRANCH  39  40
ENDBRANCH  31  34
ENDBRANCH  29  30
ENDBRANCH  28  29
ENDBRANCH   1  28
TORSDOF 18
ENDMDL
