MODEL 1
REMARK VINA RESULT:     -14.2      0.000      0.000
REMARK SMILES Cc1cccc(-n2c(C)cc(/C=N\c3ccc(O)c(C(=O)NCCCCNC(=O)c4ccc(-c5c6nc(c(-c7c(F)cc(S(=O)(=O)[O-])cc7F)c7ccc([nH]7)c(-c7c(F)cc(S(=O)(=O)[O-])cc7F)c7nc(c(-c8c(F)cc(S(=O)(=O)[O-])cc8F)c8ccc5[nH]8)C=C7)C=C6)cc4)c3)c2C)c1
REMARK SMILES IDX 24 1 23 2 22 3 20 4 21 5 19 7 14 8 15 9 96 10 16 11 17 12
REMARK SMILES IDX 13 13 12 14 11 15 7 16 8 17 97 18 9 19 10 20 98 21 6 22 1 23
REMARK SMILES IDX 2 24 3 25 99 26 4 27 5 28 18 29 25 31 26 32 27 33 28 34
REMARK SMILES IDX 29 36 30 37 31 38 95 39 32 40 94 41 33 42 34 43 35 44 88 45
REMARK SMILES IDX 36 46 93 47 87 48 89 49 37 50 92 51 86 52 85 53 38 55 72 56
REMARK SMILES IDX 51 57 71 58 52 59 55 60 70 61 90 62 53 63 54 64 69 66 91 67
REMARK SMILES IDX 56 68 39 69 40 70 49 71 41 72 42 73 48 74 50 75 43 76 44 77
REMARK SMILES IDX 45 78 46 79 47 80 73 81 74 82 83 83 75 84 76 85 82 86 84 87
REMARK SMILES IDX 77 88 78 89 79 90 80 91 81 92 57 93 58 94 67 95 59 96 60 97
REMARK SMILES IDX 66 98 68 99 61 100 62 101 63 102 64 103 65 104
REMARK H PARENT 22 6 18 30 27 35 89 54 55 65
REMARK Flexibility Score: inf
ROOT
ATOM      1  C   UNL A   1      31.960  30.153  25.999  1.00  0.00     0.023 C 
ENDROOT
BRANCH   1   2
ATOM      2  C   UNL A   1      32.486  29.508  24.721  1.00  0.00     0.116 C 
BRANCH   2   3
ATOM      3  N   UNL A   1      31.686  29.698  23.515  1.00  0.00    -0.352 N 
ATOM      4  C   UNL A   1      30.923  28.834  22.757  1.00  0.00     0.255 C 
ATOM      5  O   UNL A   1      30.310  29.316  21.803  1.00  0.00    -0.269 OA
ATOM      6  H   UNL A   1      31.692  30.622  23.177  1.00  0.00     0.163 HD
BRANCH   4   7
ATOM      7  C   UNL A   1      30.827  27.361  22.996  1.00  0.00     0.083 A 
ATOM      8  C   UNL A   1      30.072  25.582  24.503  1.00  0.00     0.064 A 
ATOM      9  C   UNL A   1      30.434  24.625  23.560  1.00  0.00     0.032 A 
ATOM     10  C   UNL A   1      30.146  26.941  24.156  1.00  0.00     0.046 A 
ATOM     11  C   UNL A   1      31.149  25.015  22.435  1.00  0.00     0.049 A 
ATOM     12  C   UNL A   1      31.453  26.364  22.247  1.00  0.00     0.128 A 
BRANCH   8  13
ATOM     13  N   UNL A   1      29.684  25.224  25.798  1.00  0.00    -0.256 NA
ATOM     14  C   UNL A   1      30.340  24.350  26.512  1.00  0.00     0.121 C 
BRANCH  14  15
ATOM     15  C   UNL A   1      31.538  23.557  26.212  1.00  0.00     0.014 A 
ATOM     16  N   UNL A   1      33.591  22.802  25.618  1.00  0.00    -0.318 N 
ATOM     17  C   UNL A   1      32.802  21.686  25.852  1.00  0.00     0.021 A 
ATOM     18  C   UNL A   1      32.871  23.931  26.025  1.00  0.00     0.029 A 
ATOM     19  C   UNL A   1      33.322  20.289  25.825  1.00  0.00     0.065 C 
ATOM     20  C   UNL A   1      31.537  22.131  26.176  1.00  0.00     0.033 A 
ATOM     21  C   UNL A   1      33.510  25.272  26.126  1.00  0.00     0.065 C 
BRANCH  16  22
ATOM     22  C   UNL A   1      34.876  22.795  24.992  1.00  0.00     0.046 A 
ATOM     23  C   UNL A   1      38.463  21.860  25.908  1.00  0.00     0.044 C 
ATOM     24  C   UNL A   1      37.252  22.283  25.131  1.00  0.00    -0.049 A 
ATOM     25  C   UNL A   1      37.353  22.449  23.744  1.00  0.00     0.003 A 
ATOM     26  C   UNL A   1      36.007  22.462  25.755  1.00  0.00     0.030 A 
ATOM     27  C   UNL A   1      36.242  22.827  22.994  1.00  0.00     0.002 A 
ATOM     28  C   UNL A   1      35.008  23.012  23.618  1.00  0.00     0.026 A 
ENDBRANCH  16  22
ENDBRANCH  14  15
ENDBRANCH   8  13
BRANCH  12  29
ATOM     29  O   UNL A   1      32.530  26.583  21.434  1.00  0.00    -0.507 OA
ATOM     30  H   UNL A   1      32.591  26.145  20.607  1.00  0.00     0.293 HD
ENDBRANCH  12  29
ENDBRANCH   4   7
ENDBRANCH   2   3
ENDBRANCH   1   2
BRANCH   1  31
ATOM     31  C   UNL A   1      32.765  29.968  27.273  1.00  0.00     0.023 C 
BRANCH  31  32
ATOM     32  C   UNL A   1      34.234  29.628  27.100  1.00  0.00     0.116 C 
BRANCH  32  33
ATOM     33  N   UNL A   1      35.160  30.746  27.009  1.00  0.00    -0.352 N 
ATOM     34  C   UNL A   1      36.140  30.945  27.980  1.00  0.00     0.251 C 
ATOM     35  H   UNL A   1      35.093  31.371  26.250  1.00  0.00     0.163 HD
ATOM     36  O   UNL A   1      36.237  31.964  28.655  1.00  0.00    -0.269 OA
BRANCH  34  37
ATOM     37  C   UNL A   1      37.103  29.829  28.143  1.00  0.00     0.039 A 
ATOM     38  C   UNL A   1      37.103  29.045  29.300  1.00  0.00     0.014 A 
ATOM     39  C   UNL A   1      38.117  29.691  27.199  1.00  0.00     0.014 A 
ATOM     40  C   UNL A   1      38.206  28.227  29.574  1.00  0.00     0.010 A 
ATOM     41  C   UNL A   1      39.249  28.986  27.523  1.00  0.00     0.010 A 
ATOM     42  C   UNL A   1      39.306  28.260  28.715  1.00  0.00    -0.014 A 
BRANCH  42  43
ATOM     43  C   UNL A   1      40.597  27.632  28.961  1.00  0.00     0.031 A 
ATOM     44  C   UNL A   1      40.841  26.226  28.564  1.00  0.00     0.074 A 
ATOM     45  C   UNL A   1      41.639  28.408  29.330  1.00  0.00     0.049 A 
ATOM     46  N   UNL A   1      41.813  25.507  29.019  1.00  0.00    -0.248 NA
ATOM     47  C   UNL A   1      40.002  25.510  27.606  1.00  0.00     0.031 C 
ATOM     48  C   UNL A   1      43.060  28.090  29.223  1.00  0.00     0.029 A 
ATOM     49  N   UNL A   1      41.607  29.602  30.047  1.00  0.00    -0.354 N 
ATOM     50  C   UNL A   1      41.912  24.392  28.220  1.00  0.00     0.074 A 
ATOM     51  C   UNL A   1      40.727  24.407  27.394  1.00  0.00     0.031 C 
ATOM     52  C   UNL A   1      43.750  28.896  30.045  1.00  0.00     0.029 A 
ATOM     53  C   UNL A   1      42.784  29.655  30.817  1.00  0.00     0.049 A 
ATOM     54  H   UNL A   1      40.895  30.281  30.020  1.00  0.00     0.167 HD
ATOM     55  C   UNL A   1      43.054  23.647  28.231  1.00  0.00     0.037 A 
ATOM     56  C   UNL A   1      42.715  29.659  32.183  1.00  0.00     0.037 A 
ATOM     57  C   UNL A   1      44.036  24.188  29.166  1.00  0.00     0.049 A 
ATOM     58  C   UNL A   1      43.343  28.443  32.830  1.00  0.00     0.074 A 
ATOM     59  C   UNL A   1      45.147  24.998  28.993  1.00  0.00     0.029 A 
ATOM     60  N   UNL A   1      43.763  24.189  30.530  1.00  0.00    -0.354 N 
ATOM     61  N   UNL A   1      43.648  27.347  32.192  1.00  0.00    -0.248 NA
ATOM     62  C   UNL A   1      43.687  28.366  34.247  1.00  0.00     0.031 C 
ATOM     63  C   UNL A   1      45.518  25.521  30.254  1.00  0.00     0.029 A 
ATOM     64  C   UNL A   1      44.639  25.023  31.199  1.00  0.00     0.049 A 
ATOM     65  H   UNL A   1      43.046  23.668  30.959  1.00  0.00     0.167 HD
ATOM     66  C   UNL A   1      44.190  26.431  33.060  1.00  0.00     0.074 A 
ATOM     67  C   UNL A   1      44.218  27.131  34.331  1.00  0.00     0.031 C 
ATOM     68  C   UNL A   1      44.570  25.182  32.647  1.00  0.00     0.037 A 
BRANCH  55  69
ATOM     69  C   UNL A   1      43.358  22.619  27.165  1.00  0.00     0.058 A 
ATOM     70  C   UNL A   1      42.662  21.394  27.104  1.00  0.00     0.135 A 
ATOM     71  C   UNL A   1      44.368  22.778  26.194  1.00  0.00     0.135 A 
ATOM     72  F   UNL A   1      41.629  21.130  27.913  1.00  0.00    -0.206 F 
ATOM     73  C   UNL A   1      43.009  20.366  26.226  1.00  0.00     0.059 A 
ATOM     74  C   UNL A   1      44.768  21.746  25.337  1.00  0.00     0.059 A 
ATOM     75  F   UNL A   1      44.994  23.956  26.039  1.00  0.00    -0.206 F 
ATOM     76  C   UNL A   1      44.087  20.536  25.368  1.00  0.00     0.060 A 
BRANCH  76  77
ATOM     77  S   UNL A   1      44.583  19.153  24.322  1.00  0.00     0.124 S 
ATOM     78  O   UNL A   1      43.644  18.109  24.723  1.00  0.00    -0.237 OA
ATOM     79  O   UNL A   1      44.390  19.701  22.984  1.00  0.00    -0.237 OA
ATOM     80  O   UNL A   1      45.970  18.916  24.712  1.00  0.00    -0.744 OA
ENDBRANCH  76  77
ENDBRANCH  55  69
BRANCH  56  81
ATOM     81  C   UNL A   1      41.546  30.437  32.685  1.00  0.00     0.058 A 
ATOM     82  C   UNL A   1      40.415  29.695  33.085  1.00  0.00     0.135 A 
ATOM     83  C   UNL A   1      41.707  31.715  33.239  1.00  0.00     0.135 A 
ATOM     84  F   UNL A   1      40.197  28.476  32.563  1.00  0.00    -0.206 F 
ATOM     85  C   UNL A   1      39.604  30.106  34.137  1.00  0.00     0.059 A 
ATOM     86  C   UNL A   1      40.892  32.155  34.287  1.00  0.00     0.059 A 
ATOM     87  F   UNL A   1      42.755  32.476  32.890  1.00  0.00    -0.206 F 
ATOM     88  C   UNL A   1      39.907  31.300  34.787  1.00  0.00     0.060 A 
BRANCH  88  89
ATOM     89  S   UNL A   1      39.111  31.627  36.380  1.00  0.00     0.124 S 
ATOM     90  O   UNL A   1      38.274  32.782  36.075  1.00  0.00    -0.237 OA
ATOM     91  O   UNL A   1      38.392  30.374  36.625  1.00  0.00    -0.237 OA
ATOM     92  O   UNL A   1      40.238  31.884  37.269  1.00  0.00    -0.744 OA
ENDBRANCH  88  89
ENDBRANCH  56  81
BRANCH  68  93
ATOM     93  C   UNL A   1      45.017  24.015  33.510  1.00  0.00     0.058 A 
ATOM     94  C   UNL A   1      44.217  22.908  33.840  1.00  0.00     0.135 A 
ATOM     95  C   UNL A   1      46.369  23.922  33.940  1.00  0.00     0.135 A 
ATOM     96  F   UNL A   1      42.954  22.803  33.406  1.00  0.00    -0.206 F 
ATOM     97  C   UNL A   1      44.695  21.829  34.592  1.00  0.00     0.059 A 
ATOM     98  C   UNL A   1      46.882  22.829  34.636  1.00  0.00     0.059 A 
ATOM     99  F   UNL A   1      47.260  24.891  33.684  1.00  0.00    -0.206 F 
ATOM    100  C   UNL A   1      46.029  21.796  34.982  1.00  0.00     0.060 A 
BRANCH 100 101
ATOM    101  S   UNL A   1      46.673  20.373  35.881  1.00  0.00     0.124 S 
ATOM    102  O   UNL A   1      45.894  19.284  35.300  1.00  0.00    -0.237 OA
ATOM    103  O   UNL A   1      48.092  20.386  35.535  1.00  0.00    -0.237 OA
ATOM    104  O   UNL A   1      46.375  20.694  37.274  1.00  0.00    -0.744 OA
ENDBRANCH 100 101
ENDBRANCH  68  93
ENDBRANCH  42  43
ENDBRANCH  34  37
ENDBRANCH  32  33
ENDBRANCH  31  32
ENDBRANCH   1  31
TORSDOF 18
ENDMDL
MODEL 2
REMARK VINA RESULT:     -13.9      4.762     11.189
REMARK SMILES Cc1cccc(-n2c(C)cc(/C=N\c3ccc(O)c(C(=O)NCCCCNC(=O)c4ccc(-c5c6nc(c(-c7c(F)cc(S(=O)(=O)[O-])cc7F)c7ccc([nH]7)c(-c7c(F)cc(S(=O)(=O)[O-])cc7F)c7nc(c(-c8c(F)cc(S(=O)(=O)[O-])cc8F)c8ccc5[nH]8)C=C7)C=C6)cc4)c3)c2C)c1
REMARK SMILES IDX 24 1 23 2 22 3 20 4 21 5 19 7 14 8 15 9 96 10 16 11 17 12
REMARK SMILES IDX 13 13 12 14 11 15 7 16 8 17 97 18 9 19 10 20 98 21 6 22 1 23
REMARK SMILES IDX 2 24 3 25 99 26 4 27 5 28 18 29 25 31 26 32 27 33 28 34
REMARK SMILES IDX 29 36 30 37 31 38 95 39 32 40 94 41 33 42 34 43 35 44 88 45
REMARK SMILES IDX 36 46 93 47 87 48 89 49 37 50 92 51 86 52 85 53 38 55 72 56
REMARK SMILES IDX 51 57 71 58 52 59 55 60 70 61 90 62 53 63 54 64 69 66 91 67
REMARK SMILES IDX 56 68 39 69 40 70 49 71 41 72 42 73 48 74 50 75 43 76 44 77
REMARK SMILES IDX 45 78 46 79 47 80 73 81 74 82 83 83 75 84 76 85 82 86 84 87
REMARK SMILES IDX 77 88 78 89 79 90 80 91 81 92 57 93 58 94 67 95 59 96 60 97
REMARK SMILES IDX 66 98 68 99 61 100 62 101 63 102 64 103 65 104
REMARK H PARENT 22 6 18 30 27 35 89 54 55 65
REMARK Flexibility Score: inf
ROOT
ATOM      1  C   UNL A   1      39.706  20.881  25.895  1.00  0.00     0.023 C 
ENDROOT
BRANCH   1   2
ATOM      2  C   UNL A   1      38.218  21.163  25.712  1.00  0.00     0.116 C 
BRANCH   2   3
ATOM      3  N   UNL A   1      37.834  21.888  24.505  1.00  0.00    -0.352 N 
ATOM      4  C   UNL A   1      36.627  22.389  24.064  1.00  0.00     0.255 C 
ATOM      5  O   UNL A   1      36.633  23.013  23.001  1.00  0.00    -0.269 OA
ATOM      6  H   UNL A   1      38.581  22.050  23.886  1.00  0.00     0.163 HD
BRANCH   4   7
ATOM      7  C   UNL A   1      35.322  22.190  24.767  1.00  0.00     0.083 A 
ATOM      8  C   UNL A   1      32.905  21.860  24.532  1.00  0.00     0.064 A 
ATOM      9  C   UNL A   1      32.793  21.677  25.907  1.00  0.00     0.032 A 
ATOM     10  C   UNL A   1      34.184  21.979  23.963  1.00  0.00     0.046 A 
ATOM     11  C   UNL A   1      33.891  21.928  26.718  1.00  0.00     0.049 A 
ATOM     12  C   UNL A   1      35.100  22.318  26.139  1.00  0.00     0.128 A 
BRANCH   8  13
ATOM     13  N   UNL A   1      31.777  21.977  23.715  1.00  0.00    -0.256 NA
ATOM     14  C   UNL A   1      31.364  23.123  23.246  1.00  0.00     0.121 C 
BRANCH  14  15
ATOM     15  C   UNL A   1      31.884  24.485  23.419  1.00  0.00     0.014 A 
ATOM     16  N   UNL A   1      32.420  26.566  24.141  1.00  0.00    -0.318 N 
ATOM     17  C   UNL A   1      32.896  26.452  22.843  1.00  0.00     0.021 A 
ATOM     18  C   UNL A   1      31.978  25.301  24.548  1.00  0.00     0.029 A 
ATOM     19  C   UNL A   1      33.714  27.502  22.172  1.00  0.00     0.065 C 
ATOM     20  C   UNL A   1      32.541  25.203  22.376  1.00  0.00     0.033 A 
ATOM     21  C   UNL A   1      31.619  25.017  25.965  1.00  0.00     0.065 C 
BRANCH  16  22
ATOM     22  C   UNL A   1      32.325  27.779  24.888  1.00  0.00     0.046 A 
ATOM     23  C   UNL A   1      34.475  29.773  27.333  1.00  0.00     0.044 C 
ATOM     24  C   UNL A   1      33.362  29.368  26.414  1.00  0.00    -0.049 A 
ATOM     25  C   UNL A   1      32.346  30.288  26.123  1.00  0.00     0.003 A 
ATOM     26  C   UNL A   1      33.345  28.108  25.795  1.00  0.00     0.030 A 
ATOM     27  C   UNL A   1      31.307  29.944  25.261  1.00  0.00     0.002 A 
ATOM     28  C   UNL A   1      31.289  28.688  24.653  1.00  0.00     0.026 A 
ENDBRANCH  16  22
ENDBRANCH  14  15
ENDBRANCH   8  13
BRANCH  12  29
ATOM     29  O   UNL A   1      35.929  22.999  26.986  1.00  0.00    -0.507 OA
ATOM     30  H   UNL A   1      35.991  22.745  27.887  1.00  0.00     0.293 HD
ENDBRANCH  12  29
ENDBRANCH   4   7
ENDBRANCH   2   3
ENDBRANCH   1   2
BRANCH   1  31
ATOM     31  C   UNL A   1      40.396  21.468  27.114  1.00  0.00     0.023 C 
BRANCH  31  32
ATOM     32  C   UNL A   1      40.839  22.915  27.009  1.00  0.00     0.116 C 
BRANCH  32  33
ATOM     33  N   UNL A   1      40.103  23.762  26.084  1.00  0.00    -0.352 N 
ATOM     34  C   UNL A   1      39.150  24.668  26.546  1.00  0.00     0.251 C 
ATOM     35  H   UNL A   1      40.281  23.694  25.117  1.00  0.00     0.163 HD
ATOM     36  O   UNL A   1      37.971  24.653  26.208  1.00  0.00    -0.269 OA
BRANCH  34  37
ATOM     37  C   UNL A   1      39.660  25.698  27.483  1.00  0.00     0.039 A 
ATOM     38  C   UNL A   1      39.210  25.751  28.805  1.00  0.00     0.014 A 
ATOM     39  C   UNL A   1      40.463  26.714  26.970  1.00  0.00     0.014 A 
ATOM     40  C   UNL A   1      39.449  26.904  29.564  1.00  0.00     0.010 A 
ATOM     41  C   UNL A   1      40.592  27.889  27.669  1.00  0.00     0.010 A 
ATOM     42  C   UNL A   1      40.078  27.995  28.963  1.00  0.00    -0.014 A 
BRANCH  42  43
ATOM     43  C   UNL A   1      40.217  29.324  29.544  1.00  0.00     0.031 A 
ATOM     44  C   UNL A   1      39.118  30.312  29.440  1.00  0.00     0.074 A 
ATOM     45  C   UNL A   1      41.248  29.563  30.383  1.00  0.00     0.049 A 
ATOM     46  N   UNL A   1      39.269  31.580  29.634  1.00  0.00    -0.248 NA
ATOM     47  C   UNL A   1      37.743  29.946  29.109  1.00  0.00     0.031 C 
ATOM     48  C   UNL A   1      41.352  30.630  31.374  1.00  0.00     0.029 A 
ATOM     49  N   UNL A   1      42.508  28.969  30.384  1.00  0.00    -0.354 N 
ATOM     50  C   UNL A   1      38.016  32.132  29.757  1.00  0.00     0.074 A 
ATOM     51  C   UNL A   1      37.098  31.089  29.362  1.00  0.00     0.031 C 
ATOM     52  C   UNL A   1      42.642  30.793  31.706  1.00  0.00     0.029 A 
ATOM     53  C   UNL A   1      43.424  29.940  30.829  1.00  0.00     0.049 A 
ATOM     54  H   UNL A   1      42.718  28.044  30.122  1.00  0.00     0.167 HD
ATOM     55  C   UNL A   1      37.868  33.365  30.320  1.00  0.00     0.037 A 
ATOM     56  C   UNL A   1      44.417  30.384  30.001  1.00  0.00     0.037 A 
ATOM     57  C   UNL A   1      39.157  33.934  30.705  1.00  0.00     0.049 A 
ATOM     58  C   UNL A   1      44.311  31.852  29.650  1.00  0.00     0.074 A 
ATOM     59  C   UNL A   1      39.827  33.999  31.917  1.00  0.00     0.029 A 
ATOM     60  N   UNL A   1      40.092  34.252  29.726  1.00  0.00    -0.354 N 
ATOM     61  N   UNL A   1      43.242  32.577  29.841  1.00  0.00    -0.248 NA
ATOM     62  C   UNL A   1      45.401  32.628  29.066  1.00  0.00     0.031 C 
ATOM     63  C   UNL A   1      41.181  34.317  31.659  1.00  0.00     0.029 A 
ATOM     64  C   UNL A   1      41.336  34.456  30.292  1.00  0.00     0.049 A 
ATOM     65  H   UNL A   1      39.895  34.322  28.764  1.00  0.00     0.167 HD
ATOM     66  C   UNL A   1      43.462  33.863  29.411  1.00  0.00     0.074 A 
ATOM     67  C   UNL A   1      44.841  33.848  28.960  1.00  0.00     0.031 C 
ATOM     68  C   UNL A   1      42.485  34.821  29.472  1.00  0.00     0.037 A 
BRANCH  55  69
ATOM     69  C   UNL A   1      36.527  33.888  30.779  1.00  0.00     0.058 A 
ATOM     70  C   UNL A   1      35.561  34.346  29.858  1.00  0.00     0.135 A 
ATOM     71  C   UNL A   1      36.155  34.000  32.134  1.00  0.00     0.135 A 
ATOM     72  F   UNL A   1      35.741  34.237  28.536  1.00  0.00    -0.206 F 
ATOM     73  C   UNL A   1      34.373  34.964  30.249  1.00  0.00     0.059 A 
ATOM     74  C   UNL A   1      34.993  34.660  32.552  1.00  0.00     0.059 A 
ATOM     75  F   UNL A   1      36.910  33.455  33.101  1.00  0.00    -0.206 F 
ATOM     76  C   UNL A   1      34.110  35.149  31.598  1.00  0.00     0.060 A 
BRANCH  76  77
ATOM     77  S   UNL A   1      32.621  36.048  32.073  1.00  0.00     0.124 S 
ATOM     78  O   UNL A   1      32.225  36.678  30.816  1.00  0.00    -0.237 OA
ATOM     79  O   UNL A   1      31.755  34.973  32.544  1.00  0.00    -0.237 OA
ATOM     80  O   UNL A   1      33.096  36.971  33.101  1.00  0.00    -0.744 OA
ENDBRANCH  76  77
ENDBRANCH  55  69
BRANCH  56  81
ATOM     81  C   UNL A   1      44.956  29.294  29.136  1.00  0.00     0.058 A 
ATOM     82  C   UNL A   1      45.765  28.326  29.767  1.00  0.00     0.135 A 
ATOM     83  C   UNL A   1      44.309  28.920  27.950  1.00  0.00     0.135 A 
ATOM     84  F   UNL A   1      46.430  28.641  30.892  1.00  0.00    -0.206 F 
ATOM     85  C   UNL A   1      45.762  26.994  29.365  1.00  0.00     0.059 A 
ATOM     86  C   UNL A   1      44.307  27.589  27.518  1.00  0.00     0.059 A 
ATOM     87  F   UNL A   1      43.536  29.799  27.295  1.00  0.00    -0.206 F 
ATOM     88  C   UNL A   1      44.960  26.624  28.288  1.00  0.00     0.060 A 
BRANCH  88  89
ATOM     89  S   UNL A   1      44.653  24.859  28.024  1.00  0.00     0.124 S 
ATOM     90  O   UNL A   1      45.745  24.242  28.768  1.00  0.00    -0.237 OA
ATOM     91  O   UNL A   1      43.318  24.691  28.605  1.00  0.00    -0.237 OA
ATOM     92  O   UNL A   1      44.723  24.721  26.574  1.00  0.00    -0.744 OA
ENDBRANCH  88  89
ENDBRANCH  56  81
BRANCH  68  93
ATOM     93  C   UNL A   1      42.520  36.221  28.883  1.00  0.00     0.058 A 
ATOM     94  C   UNL A   1      43.212  37.308  29.442  1.00  0.00     0.135 A 
ATOM     95  C   UNL A   1      41.932  36.477  27.614  1.00  0.00     0.135 A 
ATOM     96  F   UNL A   1      43.910  37.185  30.578  1.00  0.00    -0.206 F 
ATOM     97  C   UNL A   1      43.262  38.565  28.829  1.00  0.00     0.059 A 
ATOM     98  C   UNL A   1      42.022  37.702  26.958  1.00  0.00     0.059 A 
ATOM     99  F   UNL A   1      41.254  35.532  26.947  1.00  0.00    -0.206 F 
ATOM    100  C   UNL A   1      42.667  38.753  27.586  1.00  0.00     0.060 A 
BRANCH 100 101
ATOM    101  S   UNL A   1      42.795  40.346  26.753  1.00  0.00     0.124 S 
ATOM    102  O   UNL A   1      43.885  40.097  25.816  1.00  0.00    -0.237 OA
ATOM    103  O   UNL A   1      41.473  40.504  26.153  1.00  0.00    -0.237 OA
ATOM    104  O   UNL A   1      43.094  41.270  27.843  1.00  0.00    -0.744 OA
ENDBRANCH 100 101
ENDBRANCH  68  93
ENDBRANCH  42  43
ENDBRANCH  34  37
ENDBRANCH  32  33
ENDBRANCH  31  32
ENDBRANCH   1  31
TORSDOF 18
ENDMDL
MODEL 3
REMARK VINA RESULT:     -13.8      4.863     11.163
REMARK SMILES Cc1cccc(-n2c(C)cc(/C=N\c3ccc(O)c(C(=O)NCCCCNC(=O)c4ccc(-c5c6nc(c(-c7c(F)cc(S(=O)(=O)[O-])cc7F)c7ccc([nH]7)c(-c7c(F)cc(S(=O)(=O)[O-])cc7F)c7nc(c(-c8c(F)cc(S(=O)(=O)[O-])cc8F)c8ccc5[nH]8)C=C7)C=C6)cc4)c3)c2C)c1
REMARK SMILES IDX 24 1 23 2 22 3 20 4 21 5 19 7 14 8 15 9 96 10 16 11 17 12
REMARK SMILES IDX 13 13 12 14 11 15 7 16 8 17 97 18 9 19 10 20 98 21 6 22 1 23
REMARK SMILES IDX 2 24 3 25 99 26 4 27 5 28 18 29 25 31 26 32 27 33 28 34
REMARK SMILES IDX 29 36 30 37 31 38 95 39 32 40 94 41 33 42 34 43 35 44 88 45
REMARK SMILES IDX 36 46 93 47 87 48 89 49 37 50 92 51 86 52 85 53 38 55 72 56
REMARK SMILES IDX 51 57 71 58 52 59 55 60 70 61 90 62 53 63 54 64 69 66 91 67
REMARK SMILES IDX 56 68 39 69 40 70 49 71 41 72 42 73 48 74 50 75 43 76 44 77
REMARK SMILES IDX 45 78 46 79 47 80 73 81 74 82 83 83 75 84 76 85 82 86 84 87
REMARK SMILES IDX 77 88 78 89 79 90 80 91 81 92 57 93 58 94 67 95 59 96 60 97
REMARK SMILES IDX 66 98 68 99 61 100 62 101 63 102 64 103 65 104
REMARK H PARENT 22 6 18 30 27 35 89 54 55 65
REMARK Flexibility Score: inf
ROOT
ATOM      1  C   UNL A   1      35.734  24.311  24.855  1.00  0.00     0.023 C 
ENDROOT
BRANCH   1   2
ATOM      2  C   UNL A   1      35.725  23.266  23.744  1.00  0.00     0.116 C 
BRANCH   2   3
ATOM      3  N   UNL A   1      35.467  21.888  24.145  1.00  0.00    -0.352 N 
ATOM      4  C   UNL A   1      34.382  21.278  24.741  1.00  0.00     0.255 C 
ATOM      5  O   UNL A   1      34.447  20.059  24.910  1.00  0.00    -0.269 OA
ATOM      6  H   UNL A   1      36.212  21.273  23.954  1.00  0.00     0.163 HD
BRANCH   4   7
ATOM      7  C   UNL A   1      33.166  22.002  25.223  1.00  0.00     0.083 A 
ATOM      8  C   UNL A   1      31.058  23.088  24.605  1.00  0.00     0.064 A 
ATOM      9  C   UNL A   1      30.748  23.261  25.951  1.00  0.00     0.032 A 
ATOM     10  C   UNL A   1      32.196  22.340  24.259  1.00  0.00     0.046 A 
ATOM     11  C   UNL A   1      31.710  22.978  26.911  1.00  0.00     0.049 A 
ATOM     12  C   UNL A   1      32.955  22.485  26.515  1.00  0.00     0.128 A 
BRANCH   8  13
ATOM     13  N   UNL A   1      30.293  23.680  23.596  1.00  0.00    -0.256 NA
ATOM     14  C   UNL A   1      30.498  24.901  23.181  1.00  0.00     0.121 C 
BRANCH  14  15
ATOM     15  C   UNL A   1      31.472  25.915  23.602  1.00  0.00     0.014 A 
ATOM     16  N   UNL A   1      32.637  27.554  24.650  1.00  0.00    -0.318 N 
ATOM     17  C   UNL A   1      33.278  27.308  23.446  1.00  0.00     0.021 A 
ATOM     18  C   UNL A   1      31.654  26.571  24.822  1.00  0.00     0.029 A 
ATOM     19  C   UNL A   1      34.564  27.952  23.052  1.00  0.00     0.065 C 
ATOM     20  C   UNL A   1      32.557  26.340  22.778  1.00  0.00     0.033 A 
ATOM     21  C   UNL A   1      30.935  26.402  26.114  1.00  0.00     0.065 C 
BRANCH  16  22
ATOM     22  C   UNL A   1      32.885  28.665  25.512  1.00  0.00     0.046 A 
ATOM     23  C   UNL A   1      31.210  31.975  26.415  1.00  0.00     0.044 C 
ATOM     24  C   UNL A   1      32.151  30.808  26.405  1.00  0.00    -0.049 A 
ATOM     25  C   UNL A   1      33.135  30.714  27.398  1.00  0.00     0.003 A 
ATOM     26  C   UNL A   1      32.032  29.779  25.458  1.00  0.00     0.030 A 
ATOM     27  C   UNL A   1      34.014  29.633  27.422  1.00  0.00     0.002 A 
ATOM     28  C   UNL A   1      33.898  28.616  26.475  1.00  0.00     0.026 A 
ENDBRANCH  16  22
ENDBRANCH  14  15
ENDBRANCH   8  13
BRANCH  12  29
ATOM     29  O   UNL A   1      33.955  22.706  27.421  1.00  0.00    -0.507 OA
ATOM     30  H   UNL A   1      33.960  22.242  28.235  1.00  0.00     0.293 HD
ENDBRANCH  12  29
ENDBRANCH   4   7
ENDBRANCH   2   3
ENDBRANCH   1   2
BRANCH   1  31
ATOM     31  C   UNL A   1      36.625  24.063  26.059  1.00  0.00     0.023 C 
BRANCH  31  32
ATOM     32  C   UNL A   1      37.943  23.359  25.790  1.00  0.00     0.116 C 
BRANCH  32  33
ATOM     33  N   UNL A   1      38.748  23.009  26.948  1.00  0.00    -0.352 N 
ATOM     34  C   UNL A   1      39.881  23.749  27.284  1.00  0.00     0.251 C 
ATOM     35  H   UNL A   1      38.489  22.237  27.504  1.00  0.00     0.163 HD
ATOM     36  O   UNL A   1      41.009  23.275  27.364  1.00  0.00    -0.269 OA
BRANCH  34  37
ATOM     37  C   UNL A   1      39.636  25.183  27.569  1.00  0.00     0.039 A 
ATOM     38  C   UNL A   1      40.083  26.176  26.691  1.00  0.00     0.014 A 
ATOM     39  C   UNL A   1      39.107  25.527  28.811  1.00  0.00     0.014 A 
ATOM     40  C   UNL A   1      40.132  27.505  27.129  1.00  0.00     0.010 A 
ATOM     41  C   UNL A   1      39.268  26.807  29.281  1.00  0.00     0.010 A 
ATOM     42  C   UNL A   1      39.790  27.800  28.449  1.00  0.00    -0.014 A 
BRANCH  42  43
ATOM     43  C   UNL A   1      39.979  29.083  29.112  1.00  0.00     0.031 A 
ATOM     44  C   UNL A   1      38.925  30.123  29.057  1.00  0.00     0.074 A 
ATOM     45  C   UNL A   1      41.009  29.227  29.973  1.00  0.00     0.049 A 
ATOM     46  N   UNL A   1      39.128  31.369  29.329  1.00  0.00    -0.248 NA
ATOM     47  C   UNL A   1      37.540  29.838  28.691  1.00  0.00     0.031 C 
ATOM     48  C   UNL A   1      41.147  30.226  31.028  1.00  0.00     0.029 A 
ATOM     49  N   UNL A   1      42.243  28.579  29.950  1.00  0.00    -0.354 N 
ATOM     50  C   UNL A   1      37.898  31.967  29.473  1.00  0.00     0.074 A 
ATOM     51  C   UNL A   1      36.941  30.990  29.008  1.00  0.00     0.031 C 
ATOM     52  C   UNL A   1      42.439  30.313  31.381  1.00  0.00     0.029 A 
ATOM     53  C   UNL A   1      43.194  29.481  30.462  1.00  0.00     0.049 A 
ATOM     54  H   UNL A   1      42.416  27.663  29.635  1.00  0.00     0.167 HD
ATOM     55  C   UNL A   1      37.797  33.169  30.109  1.00  0.00     0.037 A 
ATOM     56  C   UNL A   1      44.215  29.930  29.671  1.00  0.00     0.037 A 
ATOM     57  C   UNL A   1      39.104  33.657  30.540  1.00  0.00     0.049 A 
ATOM     58  C   UNL A   1      44.176  31.420  29.409  1.00  0.00     0.074 A 
ATOM     59  C   UNL A   1      39.761  33.620  31.760  1.00  0.00     0.029 A 
ATOM     60  N   UNL A   1      40.063  33.992  29.591  1.00  0.00    -0.354 N 
ATOM     61  N   UNL A   1      43.138  32.178  29.633  1.00  0.00    -0.248 NA
ATOM     62  C   UNL A   1      45.306  32.181  28.884  1.00  0.00     0.031 C 
ATOM     63  C   UNL A   1      41.131  33.894  31.535  1.00  0.00     0.029 A 
ATOM     64  C   UNL A   1      41.309  34.108  30.180  1.00  0.00     0.049 A 
ATOM     65  H   UNL A   1      39.881  34.129  28.633  1.00  0.00     0.167 HD
ATOM     66  C   UNL A   1      43.417  33.477  29.284  1.00  0.00     0.074 A 
ATOM     67  C   UNL A   1      44.800  33.428  28.846  1.00  0.00     0.031 C 
ATOM     68  C   UNL A   1      42.482  34.471  29.394  1.00  0.00     0.037 A 
BRANCH  55  69
ATOM     69  C   UNL A   1      36.473  33.721  30.586  1.00  0.00     0.058 A 
ATOM     70  C   UNL A   1      35.514  34.221  29.680  1.00  0.00     0.135 A 
ATOM     71  C   UNL A   1      36.115  33.821  31.946  1.00  0.00     0.135 A 
ATOM     72  F   UNL A   1      35.682  34.127  28.355  1.00  0.00    -0.206 F 
ATOM     73  C   UNL A   1      34.346  34.865  30.089  1.00  0.00     0.059 A 
ATOM     74  C   UNL A   1      34.974  34.507  32.383  1.00  0.00     0.059 A 
ATOM     75  F   UNL A   1      36.861  33.240  32.898  1.00  0.00    -0.206 F 
ATOM     76  C   UNL A   1      34.099  35.035  31.444  1.00  0.00     0.060 A 
BRANCH  76  77
ATOM     77  S   UNL A   1      32.638  35.967  31.943  1.00  0.00     0.124 S 
ATOM     78  O   UNL A   1      32.142  36.474  30.667  1.00  0.00    -0.237 OA
ATOM     79  O   UNL A   1      31.823  34.936  32.577  1.00  0.00    -0.237 OA
ATOM     80  O   UNL A   1      33.178  36.984  32.842  1.00  0.00    -0.744 OA
ENDBRANCH  76  77
ENDBRANCH  55  69
BRANCH  56  81
ATOM     81  C   UNL A   1      44.718  28.872  28.747  1.00  0.00     0.058 A 
ATOM     82  C   UNL A   1      44.254  28.920  27.415  1.00  0.00     0.135 A 
ATOM     83  C   UNL A   1      45.938  28.223  28.981  1.00  0.00     0.135 A 
ATOM     84  F   UNL A   1      43.077  29.506  27.139  1.00  0.00    -0.206 F 
ATOM     85  C   UNL A   1      45.057  28.537  26.346  1.00  0.00     0.059 A 
ATOM     86  C   UNL A   1      46.754  27.814  27.921  1.00  0.00     0.059 A 
ATOM     87  F   UNL A   1      46.427  28.131  30.228  1.00  0.00    -0.206 F 
ATOM     88  C   UNL A   1      46.340  28.064  26.610  1.00  0.00     0.060 A 
BRANCH  88  89
ATOM     89  S   UNL A   1      47.505  27.948  25.228  1.00  0.00     0.124 S 
ATOM     90  O   UNL A   1      46.776  28.614  24.155  1.00  0.00    -0.237 OA
ATOM     91  O   UNL A   1      48.668  28.672  25.748  1.00  0.00    -0.237 OA
ATOM     92  O   UNL A   1      47.687  26.510  25.067  1.00  0.00    -0.744 OA
ENDBRANCH  88  89
ENDBRANCH  56  81
BRANCH  68  93
ATOM     93  C   UNL A   1      42.584  35.901  28.892  1.00  0.00     0.058 A 
ATOM     94  C   UNL A   1      41.892  36.412  27.782  1.00  0.00     0.135 A 
ATOM     95  C   UNL A   1      43.321  36.866  29.632  1.00  0.00     0.135 A 
ATOM     96  F   UNL A   1      41.067  35.645  27.057  1.00  0.00    -0.206 F 
ATOM     97  C   UNL A   1      41.975  37.754  27.394  1.00  0.00     0.059 A 
ATOM     98  C   UNL A   1      43.368  38.218  29.299  1.00  0.00     0.059 A 
ATOM     99  F   UNL A   1      44.019  36.534  30.728  1.00  0.00    -0.206 F 
ATOM    100  C   UNL A   1      42.712  38.651  28.160  1.00  0.00     0.060 A 
BRANCH 100 101
ATOM    101  S   UNL A   1      42.760  40.396  27.714  1.00  0.00     0.124 S 
ATOM    102  O   UNL A   1      43.058  41.018  29.000  1.00  0.00    -0.237 OA
ATOM    103  O   UNL A   1      43.834  40.448  26.726  1.00  0.00    -0.237 OA
ATOM    104  O   UNL A   1      41.422  40.643  27.186  1.00  0.00    -0.744 OA
ENDBRANCH 100 101
ENDBRANCH  68  93
ENDBRANCH  42  43
ENDBRANCH  34  37
ENDBRANCH  32  33
ENDBRANCH  31  32
ENDBRANCH   1  31
TORSDOF 18
ENDMDL
