MODEL 1
REMARK VINA RESULT:     -11.2      0.000      0.000
REMARK SMILES O=C(Cc1cccn(C(F)F)c1=O)NCCCCNC(=O)c1ccc(-c2c3nc(c(-c4c(F)cc(S(=O)(=O)[O-])cc4F)c4ccc([nH]4)c(-c4c(F)cc(S(=O)(=O)[O-])cc4F)c4nc(c(-c5c(F)cc(S(=O)(=O)[O-])cc5F)c5ccc2[nH]5)C=C4)C=C3)cc1
REMARK SMILES IDX 17 1 16 2 15 3 14 4 1 5 2 6 3 8 4 9 5 10 12 11 6 12 8 13
REMARK SMILES IDX 13 14 7 15 9 16 10 17 11 18 18 19 19 20 20 21 21 23 22 24
REMARK SMILES IDX 23 25 87 26 24 27 86 28 25 29 26 30 27 31 80 32 28 33 85 34
REMARK SMILES IDX 79 35 81 36 29 37 84 38 78 39 77 40 30 42 64 43 43 44 63 45
REMARK SMILES IDX 44 46 47 47 62 48 82 49 45 50 46 51 61 53 83 54 48 55 31 56
REMARK SMILES IDX 32 57 41 58 33 59 34 60 40 61 42 62 35 63 36 64 37 65 38 66
REMARK SMILES IDX 39 67 65 68 66 69 75 70 67 71 68 72 74 73 76 74 69 75 70 76
REMARK SMILES IDX 71 77 72 78 73 79 49 80 50 81 59 82 51 83 52 84 58 85 60 86
REMARK SMILES IDX 53 87 54 88 55 89 56 90 57 91
REMARK H PARENT 14 7 19 22 81 41 47 52
REMARK Flexibility Score: inf
ROOT
ATOM      1  C   UNL A   1      34.191  28.953  27.143  1.00  0.00     0.023 C 
ENDROOT
BRANCH   1   2
ATOM      2  C   UNL A   1      33.487  30.083  26.391  1.00  0.00     0.023 C 
BRANCH   2   3
ATOM      3  C   UNL A   1      32.790  31.116  27.273  1.00  0.00     0.116 C 
BRANCH   3   4
ATOM      4  N   UNL A   1      33.657  32.215  27.646  1.00  0.00    -0.356 N 
ATOM      5  O   UNL A   1      32.042  33.844  27.476  1.00  0.00    -0.275 OA
ATOM      6  C   UNL A   1      33.193  33.508  27.745  1.00  0.00     0.224 C 
ATOM      7  H   UNL A   1      34.607  32.031  27.833  1.00  0.00     0.163 HD
BRANCH   6   8
ATOM      8  C   UNL A   1      34.213  34.506  28.258  1.00  0.00     0.141 C 
BRANCH   8   9
ATOM      9  C   UNL A   1      33.805  34.966  29.627  1.00  0.00     0.027 A 
ATOM     10  C   UNL A   1      33.013  36.029  29.853  1.00  0.00     0.011 A 
ATOM     11  C   UNL A   1      34.332  34.190  30.798  1.00  0.00     0.258 A 
ATOM     12  C   UNL A   1      32.678  36.436  31.193  1.00  0.00     0.019 A 
ATOM     13  N   UNL A   1      34.054  34.712  32.048  1.00  0.00    -0.258 N 
ATOM     14  O   UNL A   1      34.962  33.154  30.605  1.00  0.00    -0.269 OA
ATOM     15  C   UNL A   1      33.217  35.795  32.236  1.00  0.00     0.095 A 
BRANCH  13  16
ATOM     16  C   UNL A   1      34.628  34.058  33.200  1.00  0.00     0.451 C 
ATOM     17  F   UNL A   1      34.679  34.938  34.236  1.00  0.00    -0.185 F 
ATOM     18  F   UNL A   1      33.809  33.049  33.596  1.00  0.00    -0.185 F 
ENDBRANCH  13  16
ENDBRANCH   8   9
ENDBRANCH   6   8
ENDBRANCH   3   4
ENDBRANCH   2   3
ENDBRANCH   1   2
BRANCH   1  19
ATOM     19  C   UNL A   1      35.514  29.324  27.804  1.00  0.00     0.116 C 
BRANCH  19  20
ATOM     20  N   UNL A   1      35.375  29.693  29.207  1.00  0.00    -0.352 N 
ATOM     21  C   UNL A   1      36.355  29.886  30.155  1.00  0.00     0.251 C 
ATOM     22  H   UNL A   1      34.451  29.824  29.520  1.00  0.00     0.163 HD
ATOM     23  O   UNL A   1      36.045  30.089  31.326  1.00  0.00    -0.269 OA
BRANCH  21  24
ATOM     24  C   UNL A   1      37.782  29.805  29.769  1.00  0.00     0.039 A 
ATOM     25  C   UNL A   1      38.179  30.017  28.447  1.00  0.00     0.014 A 
ATOM     26  C   UNL A   1      38.732  29.469  30.739  1.00  0.00     0.014 A 
ATOM     27  C   UNL A   1      39.483  29.717  28.063  1.00  0.00     0.010 A 
ATOM     28  C   UNL A   1      40.061  29.244  30.365  1.00  0.00     0.010 A 
ATOM     29  C   UNL A   1      40.435  29.308  29.012  1.00  0.00    -0.014 A 
BRANCH  29  30
ATOM     30  C   UNL A   1      41.797  28.914  28.561  1.00  0.00     0.031 A 
ATOM     31  C   UNL A   1      42.946  29.886  28.652  1.00  0.00     0.074 A 
ATOM     32  C   UNL A   1      42.019  27.654  28.142  1.00  0.00     0.049 A 
ATOM     33  N   UNL A   1      44.207  29.705  28.347  1.00  0.00    -0.248 NA
ATOM     34  C   UNL A   1      42.642  31.238  29.150  1.00  0.00     0.031 C 
ATOM     35  C   UNL A   1      40.997  26.612  28.031  1.00  0.00     0.029 A 
ATOM     36  N   UNL A   1      43.179  27.022  27.769  1.00  0.00    -0.354 N 
ATOM     37  C   UNL A   1      44.843  30.914  28.606  1.00  0.00     0.074 A 
ATOM     38  C   UNL A   1      43.823  31.835  29.061  1.00  0.00     0.031 C 
ATOM     39  C   UNL A   1      41.583  25.457  27.679  1.00  0.00     0.029 A 
ATOM     40  C   UNL A   1      43.012  25.688  27.487  1.00  0.00     0.049 A 
ATOM     41  H   UNL A   1      44.047  27.482  27.709  1.00  0.00     0.167 HD
ATOM     42  C   UNL A   1      46.156  31.225  28.495  1.00  0.00     0.037 A 
ATOM     43  C   UNL A   1      43.905  24.752  27.113  1.00  0.00     0.037 A 
ATOM     44  C   UNL A   1      47.175  30.306  28.058  1.00  0.00     0.049 A 
ATOM     45  C   UNL A   1      45.348  25.135  26.944  1.00  0.00     0.074 A 
ATOM     46  C   UNL A   1      48.533  30.532  27.909  1.00  0.00     0.029 A 
ATOM     47  N   UNL A   1      46.950  28.984  27.706  1.00  0.00    -0.354 N 
ATOM     48  N   UNL A   1      45.924  26.290  27.171  1.00  0.00    -0.248 NA
ATOM     49  C   UNL A   1      46.258  24.091  26.452  1.00  0.00     0.031 C 
ATOM     50  C   UNL A   1      49.124  29.354  27.439  1.00  0.00     0.029 A 
ATOM     51  C   UNL A   1      48.141  28.384  27.327  1.00  0.00     0.049 A 
ATOM     52  H   UNL A   1      46.073  28.536  27.723  1.00  0.00     0.167 HD
ATOM     53  C   UNL A   1      47.265  26.113  26.856  1.00  0.00     0.074 A 
ATOM     54  C   UNL A   1      47.419  24.733  26.439  1.00  0.00     0.031 C 
ATOM     55  C   UNL A   1      48.278  27.013  26.904  1.00  0.00     0.037 A 
BRANCH  42  56
ATOM     56  C   UNL A   1      46.569  32.628  28.846  1.00  0.00     0.058 A 
ATOM     57  C   UNL A   1      46.974  32.969  30.146  1.00  0.00     0.135 A 
ATOM     58  C   UNL A   1      46.589  33.636  27.868  1.00  0.00     0.135 A 
ATOM     59  F   UNL A   1      46.958  32.047  31.123  1.00  0.00    -0.206 F 
ATOM     60  C   UNL A   1      47.359  34.266  30.472  1.00  0.00     0.059 A 
ATOM     61  C   UNL A   1      46.992  34.935  28.166  1.00  0.00     0.059 A 
ATOM     62  F   UNL A   1      46.213  33.363  26.610  1.00  0.00    -0.206 F 
ATOM     63  C   UNL A   1      47.361  35.243  29.475  1.00  0.00     0.060 A 
BRANCH  63  64
ATOM     64  S   UNL A   1      47.853  36.923  29.916  1.00  0.00     0.124 S 
ATOM     65  O   UNL A   1      46.856  37.261  30.929  1.00  0.00    -0.237 OA
ATOM     66  O   UNL A   1      49.214  36.734  30.406  1.00  0.00    -0.237 OA
ATOM     67  O   UNL A   1      47.738  37.654  28.657  1.00  0.00    -0.744 OA
ENDBRANCH  63  64
ENDBRANCH  42  56
BRANCH  43  68
ATOM     68  C   UNL A   1      43.451  23.355  26.889  1.00  0.00     0.058 A 
ATOM     69  C   UNL A   1      43.267  22.860  25.592  1.00  0.00     0.135 A 
ATOM     70  C   UNL A   1      43.246  22.476  27.964  1.00  0.00     0.135 A 
ATOM     71  F   UNL A   1      43.444  23.667  24.534  1.00  0.00    -0.206 F 
ATOM     72  C   UNL A   1      42.902  21.538  25.363  1.00  0.00     0.059 A 
ATOM     73  C   UNL A   1      42.901  21.144  27.761  1.00  0.00     0.059 A 
ATOM     74  F   UNL A   1      43.421  22.903  29.224  1.00  0.00    -0.206 F 
ATOM     75  C   UNL A   1      42.729  20.685  26.456  1.00  0.00     0.060 A 
BRANCH  75  76
ATOM     76  S   UNL A   1      42.339  18.950  26.145  1.00  0.00     0.124 S 
ATOM     77  O   UNL A   1      42.594  18.352  27.450  1.00  0.00    -0.237 OA
ATOM     78  O   UNL A   1      40.939  19.018  25.737  1.00  0.00    -0.237 OA
ATOM     79  O   UNL A   1      43.274  18.580  25.087  1.00  0.00    -0.744 OA
ENDBRANCH  75  76
ENDBRANCH  43  68
BRANCH  55  80
ATOM     80  C   UNL A   1      49.643  26.540  26.497  1.00  0.00     0.058 A 
ATOM     81  C   UNL A   1      50.494  25.897  27.409  1.00  0.00     0.135 A 
ATOM     82  C   UNL A   1      50.083  26.678  25.171  1.00  0.00     0.135 A 
ATOM     83  F   UNL A   1      50.123  25.749  28.690  1.00  0.00    -0.206 F 
ATOM     84  C   UNL A   1      51.741  25.417  27.023  1.00  0.00     0.059 A 
ATOM     85  C   UNL A   1      51.318  26.188  24.759  1.00  0.00     0.059 A 
ATOM     86  F   UNL A   1      49.302  27.280  24.259  1.00  0.00    -0.206 F 
ATOM     87  C   UNL A   1      52.144  25.565  25.694  1.00  0.00     0.060 A 
BRANCH  87  88
ATOM     88  S   UNL A   1      53.746  24.900  25.196  1.00  0.00     0.124 S 
ATOM     89  O   UNL A   1      53.986  25.614  23.947  1.00  0.00    -0.237 OA
ATOM     90  O   UNL A   1      54.603  25.279  26.316  1.00  0.00    -0.237 OA
ATOM     91  O   UNL A   1      53.495  23.469  25.064  1.00  0.00    -0.744 OA
ENDBRANCH  87  88
ENDBRANCH  55  80
ENDBRANCH  29  30
ENDBRANCH  21  24
ENDBRANCH  19  20
ENDBRANCH   1  19
TORSDOF 16
ENDMDL
MODEL 2
REMARK VINA RESULT:     -11.1      4.066      5.893
REMARK SMILES O=C(Cc1cccn(C(F)F)c1=O)NCCCCNC(=O)c1ccc(-c2c3nc(c(-c4c(F)cc(S(=O)(=O)[O-])cc4F)c4ccc([nH]4)c(-c4c(F)cc(S(=O)(=O)[O-])cc4F)c4nc(c(-c5c(F)cc(S(=O)(=O)[O-])cc5F)c5ccc2[nH]5)C=C4)C=C3)cc1
REMARK SMILES IDX 17 1 16 2 15 3 14 4 1 5 2 6 3 8 4 9 5 10 12 11 6 12 8 13
REMARK SMILES IDX 13 14 7 15 9 16 10 17 11 18 18 19 19 20 20 21 21 23 22 24
REMARK SMILES IDX 23 25 87 26 24 27 86 28 25 29 26 30 27 31 80 32 28 33 85 34
REMARK SMILES IDX 79 35 81 36 29 37 84 38 78 39 77 40 30 42 64 43 43 44 63 45
REMARK SMILES IDX 44 46 47 47 62 48 82 49 45 50 46 51 61 53 83 54 48 55 31 56
REMARK SMILES IDX 32 57 41 58 33 59 34 60 40 61 42 62 35 63 36 64 37 65 38 66
REMARK SMILES IDX 39 67 65 68 66 69 75 70 67 71 68 72 74 73 76 74 69 75 70 76
REMARK SMILES IDX 71 77 72 78 73 79 49 80 50 81 59 82 51 83 52 84 58 85 60 86
REMARK SMILES IDX 53 87 54 88 55 89 56 90 57 91
REMARK H PARENT 14 7 19 22 81 41 47 52
REMARK Flexibility Score: inf
ROOT
ATOM      1  C   UNL A   1      33.443  28.237  25.776  1.00  0.00     0.023 C 
ENDROOT
BRANCH   1   2
ATOM      2  C   UNL A   1      32.967  29.392  24.894  1.00  0.00     0.023 C 
BRANCH   2   3
ATOM      3  C   UNL A   1      32.330  28.979  23.569  1.00  0.00     0.116 C 
BRANCH   3   4
ATOM      4  N   UNL A   1      32.446  27.559  23.308  1.00  0.00    -0.356 N 
ATOM      5  O   UNL A   1      34.086  27.759  21.707  1.00  0.00    -0.275 OA
ATOM      6  C   UNL A   1      33.353  27.057  22.400  1.00  0.00     0.224 C 
ATOM      7  H   UNL A   1      31.859  26.935  23.793  1.00  0.00     0.163 HD
BRANCH   6   8
ATOM      8  C   UNL A   1      33.414  25.543  22.342  1.00  0.00     0.141 C 
BRANCH   8   9
ATOM      9  C   UNL A   1      33.459  24.998  23.739  1.00  0.00     0.027 A 
ATOM     10  C   UNL A   1      34.574  24.956  24.489  1.00  0.00     0.011 A 
ATOM     11  C   UNL A   1      32.178  24.464  24.310  1.00  0.00     0.258 A 
ATOM     12  C   UNL A   1      34.558  24.398  25.816  1.00  0.00     0.019 A 
ATOM     13  N   UNL A   1      32.274  23.846  25.543  1.00  0.00    -0.258 N 
ATOM     14  O   UNL A   1      31.131  24.599  23.682  1.00  0.00    -0.269 OA
ATOM     15  C   UNL A   1      33.436  23.844  26.290  1.00  0.00     0.095 A 
BRANCH  13  16
ATOM     16  C   UNL A   1      31.088  23.226  26.085  1.00  0.00     0.451 C 
ATOM     17  F   UNL A   1      30.950  21.982  25.550  1.00  0.00    -0.185 F 
ATOM     18  F   UNL A   1      31.245  23.051  27.423  1.00  0.00    -0.185 F 
ENDBRANCH  13  16
ENDBRANCH   8   9
ENDBRANCH   6   8
ENDBRANCH   3   4
ENDBRANCH   2   3
ENDBRANCH   1   2
BRANCH   1  19
ATOM     19  C   UNL A   1      33.317  28.460  27.280  1.00  0.00     0.116 C 
BRANCH  19  20
ATOM     20  N   UNL A   1      33.333  29.867  27.658  1.00  0.00    -0.352 N 
ATOM     21  C   UNL A   1      34.376  30.624  28.146  1.00  0.00     0.251 C 
ATOM     22  H   UNL A   1      32.479  30.344  27.548  1.00  0.00     0.163 HD
ATOM     23  O   UNL A   1      34.176  31.777  28.517  1.00  0.00    -0.269 OA
BRANCH  21  24
ATOM     24  C   UNL A   1      35.727  30.030  28.264  1.00  0.00     0.039 A 
ATOM     25  C   UNL A   1      36.158  29.465  29.466  1.00  0.00     0.014 A 
ATOM     26  C   UNL A   1      36.590  30.077  27.164  1.00  0.00     0.014 A 
ATOM     27  C   UNL A   1      37.497  29.119  29.624  1.00  0.00     0.010 A 
ATOM     28  C   UNL A   1      37.916  29.653  27.302  1.00  0.00     0.010 A 
ATOM     29  C   UNL A   1      38.396  29.227  28.551  1.00  0.00    -0.014 A 
BRANCH  29  30
ATOM     30  C   UNL A   1      39.837  28.928  28.771  1.00  0.00     0.031 A 
ATOM     31  C   UNL A   1      40.725  29.917  29.484  1.00  0.00     0.074 A 
ATOM     32  C   UNL A   1      40.333  27.732  28.401  1.00  0.00     0.049 A 
ATOM     33  N   UNL A   1      41.991  29.810  29.803  1.00  0.00    -0.248 NA
ATOM     34  C   UNL A   1      40.113  31.192  29.894  1.00  0.00     0.031 C 
ATOM     35  C   UNL A   1      39.572  26.679  27.725  1.00  0.00     0.029 A 
ATOM     36  N   UNL A   1      41.579  27.183  28.573  1.00  0.00    -0.354 N 
ATOM     37  C   UNL A   1      42.328  31.000  30.440  1.00  0.00     0.074 A 
ATOM     38  C   UNL A   1      41.143  31.830  30.431  1.00  0.00     0.031 C 
ATOM     39  C   UNL A   1      40.346  25.592  27.596  1.00  0.00     0.029 A 
ATOM     40  C   UNL A   1      41.673  25.886  28.129  1.00  0.00     0.049 A 
ATOM     41  H   UNL A   1      42.332  27.672  28.975  1.00  0.00     0.167 HD
ATOM     42  C   UNL A   1      43.509  31.361  30.996  1.00  0.00     0.037 A 
ATOM     43  C   UNL A   1      42.710  25.027  28.147  1.00  0.00     0.037 A 
ATOM     44  C   UNL A   1      44.685  30.529  31.020  1.00  0.00     0.049 A 
ATOM     45  C   UNL A   1      44.026  25.469  28.721  1.00  0.00     0.074 A 
ATOM     46  C   UNL A   1      45.929  30.811  31.558  1.00  0.00     0.029 A 
ATOM     47  N   UNL A   1      44.761  29.250  30.489  1.00  0.00    -0.354 N 
ATOM     48  N   UNL A   1      44.331  26.607  29.295  1.00  0.00    -0.248 NA
ATOM     49  C   UNL A   1      45.142  24.517  28.633  1.00  0.00     0.031 C 
ATOM     50  C   UNL A   1      46.766  29.714  31.325  1.00  0.00     0.029 A 
ATOM     51  C   UNL A   1      46.034  28.735  30.674  1.00  0.00     0.049 A 
ATOM     52  H   UNL A   1      44.019  28.777  30.046  1.00  0.00     0.167 HD
ATOM     53  C   UNL A   1      45.672  26.508  29.645  1.00  0.00     0.074 A 
ATOM     54  C   UNL A   1      46.115  25.191  29.232  1.00  0.00     0.031 C 
ATOM     55  C   UNL A   1      46.465  27.426  30.249  1.00  0.00     0.037 A 
BRANCH  42  56
ATOM     56  C   UNL A   1      43.592  32.726  31.623  1.00  0.00     0.058 A 
ATOM     57  C   UNL A   1      43.329  32.922  32.988  1.00  0.00     0.135 A 
ATOM     58  C   UNL A   1      43.967  33.843  30.861  1.00  0.00     0.135 A 
ATOM     59  F   UNL A   1      42.950  31.889  33.759  1.00  0.00    -0.206 F 
ATOM     60  C   UNL A   1      43.408  34.184  33.570  1.00  0.00     0.059 A 
ATOM     61  C   UNL A   1      44.074  35.111  31.427  1.00  0.00     0.059 A 
ATOM     62  F   UNL A   1      44.231  33.710  29.552  1.00  0.00    -0.206 F 
ATOM     63  C   UNL A   1      43.778  35.273  32.779  1.00  0.00     0.060 A 
BRANCH  63  64
ATOM     64  S   UNL A   1      43.866  36.905  33.547  1.00  0.00     0.124 S 
ATOM     65  O   UNL A   1      42.659  36.904  34.369  1.00  0.00    -0.237 OA
ATOM     66  O   UNL A   1      45.128  36.841  34.277  1.00  0.00    -0.237 OA
ATOM     67  O   UNL A   1      43.848  37.819  32.409  1.00  0.00    -0.744 OA
ENDBRANCH  63  64
ENDBRANCH  42  56
BRANCH  43  68
ATOM     68  C   UNL A   1      42.531  23.652  27.612  1.00  0.00     0.058 A 
ATOM     69  C   UNL A   1      42.622  23.399  26.237  1.00  0.00     0.135 A 
ATOM     70  C   UNL A   1      42.319  22.561  28.469  1.00  0.00     0.135 A 
ATOM     71  F   UNL A   1      42.815  24.414  25.381  1.00  0.00    -0.206 F 
ATOM     72  C   UNL A   1      42.517  22.111  25.726  1.00  0.00     0.059 A 
ATOM     73  C   UNL A   1      42.232  21.259  27.984  1.00  0.00     0.059 A 
ATOM     74  F   UNL A   1      42.236  22.752  29.795  1.00  0.00    -0.206 F 
ATOM     75  C   UNL A   1      42.330  21.045  26.610  1.00  0.00     0.060 A 
BRANCH  75  76
ATOM     76  S   UNL A   1      42.281  19.368  25.944  1.00  0.00     0.124 S 
ATOM     77  O   UNL A   1      42.848  18.597  27.045  1.00  0.00    -0.237 OA
ATOM     78  O   UNL A   1      40.855  19.176  25.700  1.00  0.00    -0.237 OA
ATOM     79  O   UNL A   1      43.107  19.459  24.745  1.00  0.00    -0.744 OA
ENDBRANCH  75  76
ENDBRANCH  43  68
BRANCH  55  80
ATOM     80  C   UNL A   1      47.895  27.045  30.503  1.00  0.00     0.058 A 
ATOM     81  C   UNL A   1      48.912  27.388  29.598  1.00  0.00     0.135 A 
ATOM     82  C   UNL A   1      48.261  26.383  31.685  1.00  0.00     0.135 A 
ATOM     83  F   UNL A   1      48.612  28.013  28.449  1.00  0.00    -0.206 F 
ATOM     84  C   UNL A   1      50.244  27.077  29.853  1.00  0.00     0.059 A 
ATOM     85  C   UNL A   1      49.588  26.080  31.969  1.00  0.00     0.059 A 
ATOM     86  F   UNL A   1      47.325  26.040  32.585  1.00  0.00    -0.206 F 
ATOM     87  C   UNL A   1      50.572  26.424  31.043  1.00  0.00     0.060 A 
BRANCH  87  88
ATOM     88  S   UNL A   1      52.309  26.064  31.380  1.00  0.00     0.124 S 
ATOM     89  O   UNL A   1      52.653  27.130  32.316  1.00  0.00    -0.237 OA
ATOM     90  O   UNL A   1      52.245  24.720  31.947  1.00  0.00    -0.237 OA
ATOM     91  O   UNL A   1      52.937  26.154  30.066  1.00  0.00    -0.744 OA
ENDBRANCH  87  88
ENDBRANCH  55  80
ENDBRANCH  29  30
ENDBRANCH  21  24
ENDBRANCH  19  20
ENDBRANCH   1  19
TORSDOF 16
ENDMDL
MODEL 3
REMARK VINA RESULT:     -11.1      1.606      2.802
REMARK SMILES O=C(Cc1cccn(C(F)F)c1=O)NCCCCNC(=O)c1ccc(-c2c3nc(c(-c4c(F)cc(S(=O)(=O)[O-])cc4F)c4ccc([nH]4)c(-c4c(F)cc(S(=O)(=O)[O-])cc4F)c4nc(c(-c5c(F)cc(S(=O)(=O)[O-])cc5F)c5ccc2[nH]5)C=C4)C=C3)cc1
REMARK SMILES IDX 17 1 16 2 15 3 14 4 1 5 2 6 3 8 4 9 5 10 12 11 6 12 8 13
REMARK SMILES IDX 13 14 7 15 9 16 10 17 11 18 18 19 19 20 20 21 21 23 22 24
REMARK SMILES IDX 23 25 87 26 24 27 86 28 25 29 26 30 27 31 80 32 28 33 85 34
REMARK SMILES IDX 79 35 81 36 29 37 84 38 78 39 77 40 30 42 64 43 43 44 63 45
REMARK SMILES IDX 44 46 47 47 62 48 82 49 45 50 46 51 61 53 83 54 48 55 31 56
REMARK SMILES IDX 32 57 41 58 33 59 34 60 40 61 42 62 35 63 36 64 37 65 38 66
REMARK SMILES IDX 39 67 65 68 66 69 75 70 67 71 68 72 74 73 76 74 69 75 70 76
REMARK SMILES IDX 71 77 72 78 73 79 49 80 50 81 59 82 51 83 52 84 58 85 60 86
REMARK SMILES IDX 53 87 54 88 55 89 56 90 57 91
REMARK H PARENT 14 7 19 22 81 41 47 52
REMARK Flexibility Score: inf
ROOT
ATOM      1  C   UNL A   1      36.027  33.066  28.417  1.00  0.00     0.023 C 
ENDROOT
BRANCH   1   2
ATOM      2  C   UNL A   1      34.824  33.929  28.036  1.00  0.00     0.023 C 
BRANCH   2   3
ATOM      3  C   UNL A   1      33.901  34.305  29.192  1.00  0.00     0.116 C 
BRANCH   3   4
ATOM      4  N   UNL A   1      34.618  34.819  30.340  1.00  0.00    -0.356 N 
ATOM      5  O   UNL A   1      33.963  33.150  31.781  1.00  0.00    -0.275 OA
ATOM      6  C   UNL A   1      34.611  34.169  31.555  1.00  0.00     0.224 C 
ATOM      7  H   UNL A   1      35.125  35.659  30.250  1.00  0.00     0.163 HD
BRANCH   6   8
ATOM      8  C   UNL A   1      35.509  34.790  32.608  1.00  0.00     0.141 C 
BRANCH   8   9
ATOM      9  C   UNL A   1      36.572  33.804  32.991  1.00  0.00     0.027 A 
ATOM     10  C   UNL A   1      36.508  33.023  34.083  1.00  0.00     0.011 A 
ATOM     11  C   UNL A   1      37.773  33.707  32.098  1.00  0.00     0.258 A 
ATOM     12  C   UNL A   1      37.574  32.112  34.411  1.00  0.00     0.019 A 
ATOM     13  N   UNL A   1      38.798  32.892  32.543  1.00  0.00    -0.258 N 
ATOM     14  O   UNL A   1      37.795  34.329  31.039  1.00  0.00    -0.269 OA
ATOM     15  C   UNL A   1      38.682  32.089  33.662  1.00  0.00     0.095 A 
BRANCH  13  16
ATOM     16  C   UNL A   1      40.016  32.848  31.769  1.00  0.00     0.451 C 
ATOM     17  F   UNL A   1      40.932  32.081  32.419  1.00  0.00    -0.185 F 
ATOM     18  F   UNL A   1      39.772  32.231  30.584  1.00  0.00    -0.185 F 
ENDBRANCH  13  16
ENDBRANCH   8   9
ENDBRANCH   6   8
ENDBRANCH   3   4
ENDBRANCH   2   3
ENDBRANCH   1   2
BRANCH   1  19
ATOM     19  C   UNL A   1      35.727  31.594  28.683  1.00  0.00     0.116 C 
BRANCH  19  20
ATOM     20  N   UNL A   1      35.634  31.272  30.100  1.00  0.00    -0.352 N 
ATOM     21  C   UNL A   1      36.449  30.464  30.862  1.00  0.00     0.251 C 
ATOM     22  H   UNL A   1      34.884  31.690  30.581  1.00  0.00     0.163 HD
ATOM     23  O   UNL A   1      36.152  30.217  32.028  1.00  0.00    -0.269 OA
BRANCH  21  24
ATOM     24  C   UNL A   1      37.659  29.858  30.261  1.00  0.00     0.039 A 
ATOM     25  C   UNL A   1      38.546  29.109  31.037  1.00  0.00     0.014 A 
ATOM     26  C   UNL A   1      37.930  30.079  28.906  1.00  0.00     0.014 A 
ATOM     27  C   UNL A   1      39.780  28.741  30.510  1.00  0.00     0.010 A 
ATOM     28  C   UNL A   1      39.138  29.638  28.357  1.00  0.00     0.010 A 
ATOM     29  C   UNL A   1      40.100  29.018  29.171  1.00  0.00    -0.014 A 
BRANCH  29  30
ATOM     30  C   UNL A   1      41.458  28.687  28.659  1.00  0.00     0.031 A 
ATOM     31  C   UNL A   1      42.568  29.706  28.717  1.00  0.00     0.074 A 
ATOM     32  C   UNL A   1      41.716  27.442  28.215  1.00  0.00     0.049 A 
ATOM     33  N   UNL A   1      43.822  29.582  28.358  1.00  0.00    -0.248 NA
ATOM     34  C   UNL A   1      42.229  31.038  29.245  1.00  0.00     0.031 C 
ATOM     35  C   UNL A   1      40.734  26.359  28.132  1.00  0.00     0.029 A 
ATOM     36  N   UNL A   1      42.885  26.865  27.787  1.00  0.00    -0.354 N 
ATOM     37  C   UNL A   1      44.416  30.814  28.608  1.00  0.00     0.074 A 
ATOM     38  C   UNL A   1      43.378  31.685  29.116  1.00  0.00     0.031 C 
ATOM     39  C   UNL A   1      41.354  25.235  27.741  1.00  0.00     0.029 A 
ATOM     40  C   UNL A   1      42.762  25.528  27.494  1.00  0.00     0.049 A 
ATOM     41  H   UNL A   1      43.730  27.362  27.698  1.00  0.00     0.167 HD
ATOM     42  C   UNL A   1      45.710  31.182  28.448  1.00  0.00     0.037 A 
ATOM     43  C   UNL A   1      43.678  24.635  27.072  1.00  0.00     0.037 A 
ATOM     44  C   UNL A   1      46.748  30.312  27.958  1.00  0.00     0.049 A 
ATOM     45  C   UNL A   1      45.096  25.081  26.850  1.00  0.00     0.074 A 
ATOM     46  C   UNL A   1      48.088  30.597  27.757  1.00  0.00     0.029 A 
ATOM     47  N   UNL A   1      46.564  28.986  27.598  1.00  0.00    -0.354 N 
ATOM     48  N   UNL A   1      45.631  26.257  27.069  1.00  0.00    -0.248 NA
ATOM     49  C   UNL A   1      46.027  24.083  26.307  1.00  0.00     0.031 C 
ATOM     50  C   UNL A   1      48.708  29.451  27.248  1.00  0.00     0.029 A 
ATOM     51  C   UNL A   1      47.763  28.442  27.163  1.00  0.00     0.049 A 
ATOM     52  H   UNL A   1      45.709  28.501  27.644  1.00  0.00     0.167 HD
ATOM     53  C   UNL A   1      46.965  26.141  26.697  1.00  0.00     0.074 A 
ATOM     54  C   UNL A   1      47.159  24.774  26.256  1.00  0.00     0.031 C 
ATOM     55  C   UNL A   1      47.940  27.082  26.717  1.00  0.00     0.037 A 
BRANCH  42  56
ATOM     56  C   UNL A   1      46.078  32.597  28.800  1.00  0.00     0.058 A 
ATOM     57  C   UNL A   1      45.990  33.634  27.858  1.00  0.00     0.135 A 
ATOM     58  C   UNL A   1      46.494  32.927  30.100  1.00  0.00     0.135 A 
ATOM     59  F   UNL A   1      45.614  33.370  26.596  1.00  0.00    -0.206 F 
ATOM     60  C   UNL A   1      46.328  34.944  28.184  1.00  0.00     0.059 A 
ATOM     61  C   UNL A   1      46.816  34.235  30.455  1.00  0.00     0.059 A 
ATOM     62  F   UNL A   1      46.593  31.974  31.039  1.00  0.00    -0.206 F 
ATOM     63  C   UNL A   1      46.743  35.234  29.484  1.00  0.00     0.060 A 
BRANCH  63  64
ATOM     64  S   UNL A   1      47.188  36.936  29.888  1.00  0.00     0.124 S 
ATOM     65  O   UNL A   1      46.118  37.305  30.811  1.00  0.00    -0.237 OA
ATOM     66  O   UNL A   1      48.511  36.782  30.484  1.00  0.00    -0.237 OA
ATOM     67  O   UNL A   1      47.161  37.612  28.594  1.00  0.00    -0.744 OA
ENDBRANCH  63  64
ENDBRANCH  42  56
BRANCH  43  68
ATOM     68  C   UNL A   1      43.275  23.223  26.848  1.00  0.00     0.058 A 
ATOM     69  C   UNL A   1      43.181  22.700  25.552  1.00  0.00     0.135 A 
ATOM     70  C   UNL A   1      43.028  22.358  27.926  1.00  0.00     0.135 A 
ATOM     71  F   UNL A   1      43.401  23.494  24.492  1.00  0.00    -0.206 F 
ATOM     72  C   UNL A   1      42.865  21.366  25.327  1.00  0.00     0.059 A 
ATOM     73  C   UNL A   1      42.731  21.013  27.728  1.00  0.00     0.059 A 
ATOM     74  F   UNL A   1      43.116  22.811  29.186  1.00  0.00    -0.206 F 
ATOM     75  C   UNL A   1      42.649  20.527  26.423  1.00  0.00     0.060 A 
BRANCH  75  76
ATOM     76  S   UNL A   1      42.323  18.777  26.123  1.00  0.00     0.124 S 
ATOM     77  O   UNL A   1      43.294  18.471  25.079  1.00  0.00    -0.237 OA
ATOM     78  O   UNL A   1      42.586  18.187  27.432  1.00  0.00    -0.237 OA
ATOM     79  O   UNL A   1      40.924  18.763  25.709  1.00  0.00    -0.744 OA
ENDBRANCH  75  76
ENDBRANCH  43  68
BRANCH  55  80
ATOM     80  C   UNL A   1      49.306  26.673  26.248  1.00  0.00     0.058 A 
ATOM     81  C   UNL A   1      49.768  27.010  24.966  1.00  0.00     0.135 A 
ATOM     82  C   UNL A   1      50.182  25.990  27.105  1.00  0.00     0.135 A 
ATOM     83  F   UNL A   1      48.965  27.656  24.107  1.00  0.00    -0.206 F 
ATOM     84  C   UNL A   1      51.050  26.673  24.546  1.00  0.00     0.059 A 
ATOM     85  C   UNL A   1      51.475  25.659  26.712  1.00  0.00     0.059 A 
ATOM     86  F   UNL A   1      49.789  25.651  28.343  1.00  0.00    -0.206 F 
ATOM     87  C   UNL A   1      51.898  25.999  25.427  1.00  0.00     0.060 A 
BRANCH  87  88
ATOM     88  S   UNL A   1      53.574  25.604  24.884  1.00  0.00     0.124 S 
ATOM     89  O   UNL A   1      54.354  26.631  25.567  1.00  0.00    -0.237 OA
ATOM     90  O   UNL A   1      53.750  24.242  25.379  1.00  0.00    -0.237 OA
ATOM     91  O   UNL A   1      53.501  25.732  23.432  1.00  0.00    -0.744 OA
ENDBRANCH  87  88
ENDBRANCH  55  80
ENDBRANCH  29  30
ENDBRANCH  21  24
ENDBRANCH  19  20
ENDBRANCH   1  19
TORSDOF 16
ENDMDL
