MODEL 1
REMARK VINA RESULT:     -11.9      0.000      0.000
REMARK SMILES O=C(C[C@H]1SC[C@@H](C(=O)NCCCCNC(=O)c2ccc(-c3c4nc(c(-c5c(F)cc(S(=O)(=O)[O-])cc5F)c5ccc([nH]5)c(-c5c(F)cc(S(=O)(=O)[O-])cc5F)c5nc(c(-c6c(F)cc(S(=O)(=O)[O-])cc6F)c6ccc3[nH]6)C=C5)C=C4)cc2)NC1=O)Nc1cccc(Cl)c1
REMARK SMILES IDX 12 1 11 2 10 3 8 4 9 5 7 7 4 8 5 9 85 10 6 11 84 12 86 13
REMARK SMILES IDX 3 15 2 16 1 17 87 18 88 20 89 21 94 22 90 23 92 24 91 25
REMARK SMILES IDX 93 26 13 27 14 28 15 29 16 30 17 32 18 33 19 34 83 35 20 36
REMARK SMILES IDX 82 37 21 38 22 39 23 40 76 41 24 42 81 43 75 44 77 45 25 46
REMARK SMILES IDX 80 47 74 48 73 49 26 51 60 52 39 53 59 54 40 55 43 56 58 57
REMARK SMILES IDX 78 58 41 59 42 60 57 62 79 63 44 64 27 65 28 66 37 67 29 68
REMARK SMILES IDX 30 69 36 70 38 71 31 72 32 73 33 74 34 75 35 76 61 77 62 78
REMARK SMILES IDX 71 79 63 80 64 81 70 82 72 83 65 84 66 85 67 86 68 87 69 88
REMARK SMILES IDX 45 89 46 90 55 91 47 92 48 93 54 94 56 95 49 96 50 97 51 98
REMARK SMILES IDX 52 99 53 100
REMARK H PARENT 10 6 84 14 87 19 15 31 77 50 43 61
REMARK Flexibility Score: inf
ROOT
ATOM      1  C   UNL A   1      37.433  22.073  25.480  1.00  0.00     0.023 C 
ENDROOT
BRANCH   1   2
ATOM      2  C   UNL A   1      36.045  21.525  25.855  1.00  0.00     0.116 C 
BRANCH   2   3
ATOM      3  N   UNL A   1      35.053  22.527  26.253  1.00  0.00    -0.354 N 
ATOM      4  C   UNL A   1      33.825  22.928  25.795  1.00  0.00     0.243 C 
ATOM      5  O   UNL A   1      33.181  23.666  26.555  1.00  0.00    -0.273 OA
ATOM      6  H   UNL A   1      35.339  23.038  27.045  1.00  0.00     0.163 HD
BRANCH   4   7
ATOM      7  C   UNL A   1      33.160  22.472  24.451  1.00  0.00     0.181 C 
ATOM      8  C   UNL A   1      32.383  24.632  22.373  1.00  0.00     0.145 C 
ATOM      9  S   UNL A   1      34.009  24.533  23.153  1.00  0.00    -0.145 SA
ATOM     10  C   UNL A   1      31.400  24.185  23.485  1.00  0.00     0.234 C 
ATOM     11  C   UNL A   1      33.995  22.740  23.229  1.00  0.00     0.105 C 
ATOM     12  N   UNL A   1      31.780  23.094  24.285  1.00  0.00    -0.343 N 
ATOM     13  O   UNL A   1      30.277  24.669  23.603  1.00  0.00    -0.274 OA
ATOM     14  H   UNL A   1      31.059  22.677  24.808  1.00  0.00     0.164 HD
BRANCH   8  15
ATOM     15  C   UNL A   1      32.305  25.984  21.637  1.00  0.00     0.124 C 
BRANCH  15  16
ATOM     16  C   UNL A   1      32.800  27.196  22.520  1.00  0.00     0.226 C 
ATOM     17  O   UNL A   1      33.780  27.866  22.218  1.00  0.00    -0.275 OA
ATOM     18  N   UNL A   1      32.038  27.378  23.657  1.00  0.00    -0.326 N 
ATOM     19  H   UNL A   1      31.236  26.807  23.668  1.00  0.00     0.169 HD
BRANCH  18  20
ATOM     20  C   UNL A   1      32.137  28.182  24.796  1.00  0.00     0.042 A 
ATOM     21  C   UNL A   1      32.617  27.537  25.957  1.00  0.00     0.026 A 
ATOM     22  C   UNL A   1      31.737  29.504  24.866  1.00  0.00     0.046 A 
ATOM     23  C   UNL A   1      32.703  28.196  27.178  1.00  0.00     0.004 A 
ATOM     24  C   UNL A   1      31.776  30.150  26.108  1.00  0.00     0.043 A 
ATOM     25  C   UNL A   1      32.263  29.509  27.256  1.00  0.00     0.020 A 
ATOM     26  Cl  UNL A   1      31.175  31.756  26.253  1.00  0.00    -0.084 Cl
ENDBRANCH  18  20
ENDBRANCH  15  16
ENDBRANCH   8  15
ENDBRANCH   4   7
ENDBRANCH   2   3
ENDBRANCH   1   2
BRANCH   1  27
ATOM     27  C   UNL A   1      37.633  23.576  25.648  1.00  0.00     0.023 C 
BRANCH  27  28
ATOM     28  C   UNL A   1      38.681  23.934  26.684  1.00  0.00     0.116 C 
BRANCH  28  29
ATOM     29  N   UNL A   1      40.024  23.999  26.124  1.00  0.00    -0.352 N 
ATOM     30  C   UNL A   1      41.019  24.902  26.391  1.00  0.00     0.251 C 
ATOM     31  H   UNL A   1      40.246  23.301  25.465  1.00  0.00     0.163 HD
ATOM     32  O   UNL A   1      42.054  24.883  25.728  1.00  0.00    -0.269 OA
BRANCH  30  33
ATOM     33  C   UNL A   1      40.816  25.910  27.451  1.00  0.00     0.039 A 
ATOM     34  C   UNL A   1      39.843  25.677  28.423  1.00  0.00     0.014 A 
ATOM     35  C   UNL A   1      41.604  27.063  27.499  1.00  0.00     0.014 A 
ATOM     36  C   UNL A   1      39.689  26.587  29.468  1.00  0.00     0.010 A 
ATOM     37  C   UNL A   1      41.521  27.910  28.594  1.00  0.00     0.010 A 
ATOM     38  C   UNL A   1      40.545  27.697  29.575  1.00  0.00    -0.014 A 
BRANCH  38  39
ATOM     39  C   UNL A   1      40.401  28.671  30.684  1.00  0.00     0.031 A 
ATOM     40  C   UNL A   1      41.248  28.530  31.919  1.00  0.00     0.074 A 
ATOM     41  C   UNL A   1      39.479  29.647  30.596  1.00  0.00     0.049 A 
ATOM     42  N   UNL A   1      41.251  29.258  33.005  1.00  0.00    -0.248 NA
ATOM     43  C   UNL A   1      42.193  27.400  31.954  1.00  0.00     0.031 C 
ATOM     44  C   UNL A   1      38.554  29.840  29.477  1.00  0.00     0.029 A 
ATOM     45  N   UNL A   1      39.164  30.659  31.466  1.00  0.00    -0.354 N 
ATOM     46  C   UNL A   1      42.190  28.675  33.849  1.00  0.00     0.074 A 
ATOM     47  C   UNL A   1      42.675  27.486  33.184  1.00  0.00     0.031 C 
ATOM     48  C   UNL A   1      37.793  30.920  29.717  1.00  0.00     0.029 A 
ATOM     49  C   UNL A   1      38.150  31.473  31.020  1.00  0.00     0.049 A 
ATOM     50  H   UNL A   1      39.619  30.789  32.329  1.00  0.00     0.167 HD
ATOM     51  C   UNL A   1      42.635  29.109  35.051  1.00  0.00     0.037 A 
ATOM     52  C   UNL A   1      37.572  32.544  31.598  1.00  0.00     0.037 A 
ATOM     53  C   UNL A   1      42.153  30.300  35.699  1.00  0.00     0.049 A 
ATOM     54  C   UNL A   1      38.086  33.017  32.931  1.00  0.00     0.074 A 
ATOM     55  C   UNL A   1      42.563  30.855  36.897  1.00  0.00     0.029 A 
ATOM     56  N   UNL A   1      41.149  31.120  35.201  1.00  0.00    -0.354 N 
ATOM     57  N   UNL A   1      39.024  32.494  33.685  1.00  0.00    -0.248 NA
ATOM     58  C   UNL A   1      37.478  34.234  33.482  1.00  0.00     0.031 C 
ATOM     59  C   UNL A   1      41.773  31.983  37.148  1.00  0.00     0.029 A 
ATOM     60  C   UNL A   1      40.913  32.167  36.076  1.00  0.00     0.049 A 
ATOM     61  H   UNL A   1      40.674  30.978  34.350  1.00  0.00     0.167 HD
ATOM     62  C   UNL A   1      39.135  33.332  34.789  1.00  0.00     0.074 A 
ATOM     63  C   UNL A   1      38.180  34.403  34.594  1.00  0.00     0.031 C 
ATOM     64  C   UNL A   1      39.956  33.226  35.866  1.00  0.00     0.037 A 
BRANCH  51  65
ATOM     65  C   UNL A   1      43.699  28.288  35.732  1.00  0.00     0.058 A 
ATOM     66  C   UNL A   1      43.373  27.272  36.647  1.00  0.00     0.135 A 
ATOM     67  C   UNL A   1      45.059  28.515  35.470  1.00  0.00     0.135 A 
ATOM     68  F   UNL A   1      42.090  27.020  36.951  1.00  0.00    -0.206 F 
ATOM     69  C   UNL A   1      44.356  26.548  37.314  1.00  0.00     0.059 A 
ATOM     70  C   UNL A   1      46.059  27.778  36.098  1.00  0.00     0.059 A 
ATOM     71  F   UNL A   1      45.431  29.471  34.604  1.00  0.00    -0.206 F 
ATOM     72  C   UNL A   1      45.698  26.810  37.035  1.00  0.00     0.060 A 
BRANCH  72  73
ATOM     73  S   UNL A   1      46.959  25.876  37.923  1.00  0.00     0.124 S 
ATOM     74  O   UNL A   1      48.110  26.028  37.037  1.00  0.00    -0.237 OA
ATOM     75  O   UNL A   1      47.040  26.591  39.193  1.00  0.00    -0.237 OA
ATOM     76  O   UNL A   1      46.398  24.531  37.998  1.00  0.00    -0.744 OA
ENDBRANCH  72  73
ENDBRANCH  51  65
BRANCH  52  77
ATOM     77  C   UNL A   1      36.465  33.247  30.899  1.00  0.00     0.058 A 
ATOM     78  C   UNL A   1      35.140  33.147  31.348  1.00  0.00     0.135 A 
ATOM     79  C   UNL A   1      36.717  34.067  29.787  1.00  0.00     0.135 A 
ATOM     80  F   UNL A   1      34.846  32.373  32.405  1.00  0.00    -0.206 F 
ATOM     81  C   UNL A   1      34.103  33.825  30.716  1.00  0.00     0.059 A 
ATOM     82  C   UNL A   1      35.701  34.777  29.155  1.00  0.00     0.059 A 
ATOM     83  F   UNL A   1      37.970  34.212  29.329  1.00  0.00    -0.206 F 
ATOM     84  C   UNL A   1      34.396  34.644  29.624  1.00  0.00     0.060 A 
BRANCH  84  85
ATOM     85  S   UNL A   1      33.051  35.572  28.853  1.00  0.00     0.124 S 
ATOM     86  O   UNL A   1      32.273  35.984  30.016  1.00  0.00    -0.237 OA
ATOM     87  O   UNL A   1      33.773  36.633  28.158  1.00  0.00    -0.237 OA
ATOM     88  O   UNL A   1      32.416  34.584  27.986  1.00  0.00    -0.744 OA
ENDBRANCH  84  85
ENDBRANCH  52  77
BRANCH  64  89
ATOM     89  C   UNL A   1      39.882  34.317  36.899  1.00  0.00     0.058 A 
ATOM     90  C   UNL A   1      40.642  35.493  36.795  1.00  0.00     0.135 A 
ATOM     91  C   UNL A   1      39.004  34.200  37.990  1.00  0.00     0.135 A 
ATOM     92  F   UNL A   1      41.499  35.655  35.774  1.00  0.00    -0.206 F 
ATOM     93  C   UNL A   1      40.563  36.496  37.754  1.00  0.00     0.059 A 
ATOM     94  C   UNL A   1      38.885  35.206  38.942  1.00  0.00     0.059 A 
ATOM     95  F   UNL A   1      38.242  33.104  38.131  1.00  0.00    -0.206 F 
ATOM     96  C   UNL A   1      39.681  36.344  38.825  1.00  0.00     0.060 A 
BRANCH  96  97
ATOM     97  S   UNL A   1      39.577  37.661  40.054  1.00  0.00     0.124 S 
ATOM     98  O   UNL A   1      38.349  38.339  39.655  1.00  0.00    -0.237 OA
ATOM     99  O   UNL A   1      39.511  36.914  41.307  1.00  0.00    -0.237 OA
ATOM    100  O   UNL A   1      40.808  38.418  39.848  1.00  0.00    -0.744 OA
ENDBRANCH  96  97
ENDBRANCH  64  89
ENDBRANCH  38  39
ENDBRANCH  30  33
ENDBRANCH  28  29
ENDBRANCH  27  28
ENDBRANCH   1  27
TORSDOF 17
ENDMDL
MODEL 2
REMARK VINA RESULT:     -11.5      6.554     12.060
REMARK SMILES O=C(C[C@H]1SC[C@@H](C(=O)NCCCCNC(=O)c2ccc(-c3c4nc(c(-c5c(F)cc(S(=O)(=O)[O-])cc5F)c5ccc([nH]5)c(-c5c(F)cc(S(=O)(=O)[O-])cc5F)c5nc(c(-c6c(F)cc(S(=O)(=O)[O-])cc6F)c6ccc3[nH]6)C=C5)C=C4)cc2)NC1=O)Nc1cccc(Cl)c1
REMARK SMILES IDX 12 1 11 2 10 3 8 4 9 5 7 7 4 8 5 9 85 10 6 11 84 12 86 13
REMARK SMILES IDX 3 15 2 16 1 17 87 18 88 20 89 21 94 22 90 23 92 24 91 25
REMARK SMILES IDX 93 26 13 27 14 28 15 29 16 30 17 32 18 33 19 34 83 35 20 36
REMARK SMILES IDX 82 37 21 38 22 39 23 40 76 41 24 42 81 43 75 44 77 45 25 46
REMARK SMILES IDX 80 47 74 48 73 49 26 51 60 52 39 53 59 54 40 55 43 56 58 57
REMARK SMILES IDX 78 58 41 59 42 60 57 62 79 63 44 64 27 65 28 66 37 67 29 68
REMARK SMILES IDX 30 69 36 70 38 71 31 72 32 73 33 74 34 75 35 76 61 77 62 78
REMARK SMILES IDX 71 79 63 80 64 81 70 82 72 83 65 84 66 85 67 86 68 87 69 88
REMARK SMILES IDX 45 89 46 90 55 91 47 92 48 93 54 94 56 95 49 96 50 97 51 98
REMARK SMILES IDX 52 99 53 100
REMARK H PARENT 10 6 84 14 87 19 15 31 77 50 43 61
REMARK Flexibility Score: inf
ROOT
ATOM      1  C   UNL A   1      34.454  31.884  28.544  1.00  0.00     0.023 C 
ENDROOT
BRANCH   1   2
ATOM      2  C   UNL A   1      33.630  31.312  27.376  1.00  0.00     0.116 C 
BRANCH   2   3
ATOM      3  N   UNL A   1      33.830  29.888  27.095  1.00  0.00    -0.354 N 
ATOM      4  C   UNL A   1      33.522  29.039  26.065  1.00  0.00     0.243 C 
ATOM      5  O   UNL A   1      34.074  27.930  26.097  1.00  0.00    -0.273 OA
ATOM      6  H   UNL A   1      34.303  29.429  27.826  1.00  0.00     0.163 HD
BRANCH   4   7
ATOM      7  C   UNL A   1      32.605  29.385  24.841  1.00  0.00     0.181 C 
ATOM      8  C   UNL A   1      32.153  27.225  22.669  1.00  0.00     0.145 C 
ATOM      9  S   UNL A   1      31.951  26.923  24.438  1.00  0.00    -0.145 SA
ATOM     10  C   UNL A   1      33.335  28.225  22.586  1.00  0.00     0.234 C 
ATOM     11  C   UNL A   1      31.339  28.577  24.772  1.00  0.00     0.105 C 
ATOM     12  N   UNL A   1      33.372  29.264  23.531  1.00  0.00    -0.343 N 
ATOM     13  O   UNL A   1      34.151  28.202  21.668  1.00  0.00    -0.274 OA
ATOM     14  H   UNL A   1      33.975  30.012  23.319  1.00  0.00     0.164 HD
BRANCH   8  15
ATOM     15  C   UNL A   1      32.120  25.857  21.959  1.00  0.00     0.124 C 
BRANCH  15  16
ATOM     16  C   UNL A   1      33.145  24.823  22.569  1.00  0.00     0.226 C 
ATOM     17  O   UNL A   1      34.354  24.922  22.392  1.00  0.00    -0.275 OA
ATOM     18  N   UNL A   1      32.530  23.808  23.273  1.00  0.00    -0.326 N 
ATOM     19  H   UNL A   1      31.565  23.961  23.389  1.00  0.00     0.169 HD
BRANCH  18  20
ATOM     20  C   UNL A   1      32.955  22.612  23.860  1.00  0.00     0.042 A 
ATOM     21  C   UNL A   1      31.937  21.826  24.445  1.00  0.00     0.026 A 
ATOM     22  C   UNL A   1      34.273  22.209  23.962  1.00  0.00     0.046 A 
ATOM     23  C   UNL A   1      32.223  20.646  25.122  1.00  0.00     0.004 A 
ATOM     24  C   UNL A   1      34.562  21.047  24.690  1.00  0.00     0.043 A 
ATOM     25  C   UNL A   1      33.549  20.263  25.259  1.00  0.00     0.020 A 
ATOM     26  Cl  UNL A   1      36.201  20.580  24.935  1.00  0.00    -0.084 Cl
ENDBRANCH  18  20
ENDBRANCH  15  16
ENDBRANCH   8  15
ENDBRANCH   4   7
ENDBRANCH   2   3
ENDBRANCH   1   2
BRANCH   1  27
ATOM     27  C   UNL A   1      35.609  32.806  28.167  1.00  0.00     0.023 C 
BRANCH  27  28
ATOM     28  C   UNL A   1      36.637  32.966  29.269  1.00  0.00     0.116 C 
BRANCH  28  29
ATOM     29  N   UNL A   1      36.239  32.313  30.508  1.00  0.00    -0.352 N 
ATOM     30  C   UNL A   1      36.834  31.258  31.148  1.00  0.00     0.251 C 
ATOM     31  H   UNL A   1      35.434  32.677  30.943  1.00  0.00     0.163 HD
ATOM     32  O   UNL A   1      36.285  30.748  32.124  1.00  0.00    -0.269 OA
BRANCH  30  33
ATOM     33  C   UNL A   1      38.110  30.725  30.633  1.00  0.00     0.039 A 
ATOM     34  C   UNL A   1      38.234  30.483  29.264  1.00  0.00     0.014 A 
ATOM     35  C   UNL A   1      39.186  30.493  31.493  1.00  0.00     0.014 A 
ATOM     36  C   UNL A   1      39.456  30.045  28.755  1.00  0.00     0.010 A 
ATOM     37  C   UNL A   1      40.428  30.160  30.971  1.00  0.00     0.010 A 
ATOM     38  C   UNL A   1      40.569  29.905  29.602  1.00  0.00    -0.014 A 
BRANCH  38  39
ATOM     39  C   UNL A   1      41.878  29.449  29.076  1.00  0.00     0.031 A 
ATOM     40  C   UNL A   1      43.013  30.427  28.939  1.00  0.00     0.074 A 
ATOM     41  C   UNL A   1      42.027  28.171  28.682  1.00  0.00     0.049 A 
ATOM     42  N   UNL A   1      44.220  30.231  28.475  1.00  0.00    -0.248 NA
ATOM     43  C   UNL A   1      42.746  31.818  29.343  1.00  0.00     0.031 C 
ATOM     44  C   UNL A   1      40.977  27.150  28.703  1.00  0.00     0.029 A 
ATOM     45  N   UNL A   1      43.120  27.512  28.179  1.00  0.00    -0.354 N 
ATOM     46  C   UNL A   1      44.851  31.469  28.529  1.00  0.00     0.074 A 
ATOM     47  C   UNL A   1      43.869  32.425  28.991  1.00  0.00     0.031 C 
ATOM     48  C   UNL A   1      41.484  25.989  28.260  1.00  0.00     0.029 A 
ATOM     49  C   UNL A   1      42.881  26.191  27.889  1.00  0.00     0.049 A 
ATOM     50  H   UNL A   1      43.992  27.946  28.039  1.00  0.00     0.167 HD
ATOM     51  C   UNL A   1      46.140  31.776  28.255  1.00  0.00     0.037 A 
ATOM     52  C   UNL A   1      43.697  25.248  27.379  1.00  0.00     0.037 A 
ATOM     53  C   UNL A   1      47.112  30.815  27.806  1.00  0.00     0.049 A 
ATOM     54  C   UNL A   1      45.129  25.606  27.088  1.00  0.00     0.074 A 
ATOM     55  C   UNL A   1      48.455  31.007  27.538  1.00  0.00     0.029 A 
ATOM     56  N   UNL A   1      46.843  29.475  27.556  1.00  0.00    -0.354 N 
ATOM     57  N   UNL A   1      45.731  26.765  27.211  1.00  0.00    -0.248 NA
ATOM     58  C   UNL A   1      45.998  24.524  26.609  1.00  0.00     0.031 C 
ATOM     59  C   UNL A   1      48.987  29.797  27.080  1.00  0.00     0.029 A 
ATOM     60  C   UNL A   1      47.990  28.834  27.120  1.00  0.00     0.049 A 
ATOM     61  H   UNL A   1      45.964  29.045  27.671  1.00  0.00     0.167 HD
ATOM     62  C   UNL A   1      47.055  26.548  26.847  1.00  0.00     0.074 A 
ATOM     63  C   UNL A   1      47.168  25.143  26.516  1.00  0.00     0.031 C 
ATOM     64  C   UNL A   1      48.085  27.432  26.793  1.00  0.00     0.037 A 
BRANCH  51  65
ATOM     65  C   UNL A   1      46.564  33.210  28.441  1.00  0.00     0.058 A 
ATOM     66  C   UNL A   1      46.497  34.140  27.389  1.00  0.00     0.135 A 
ATOM     67  C   UNL A   1      47.042  33.663  29.681  1.00  0.00     0.135 A 
ATOM     68  F   UNL A   1      46.065  33.761  26.175  1.00  0.00    -0.206 F 
ATOM     69  C   UNL A   1      46.935  35.451  27.545  1.00  0.00     0.059 A 
ATOM     70  C   UNL A   1      47.451  34.979  29.870  1.00  0.00     0.059 A 
ATOM     71  F   UNL A   1      47.126  32.820  30.722  1.00  0.00    -0.206 F 
ATOM     72  C   UNL A   1      47.414  35.861  28.790  1.00  0.00     0.060 A 
BRANCH  72  73
ATOM     73  S   UNL A   1      47.998  37.558  28.970  1.00  0.00     0.124 S 
ATOM     74  O   UNL A   1      49.391  37.347  29.355  1.00  0.00    -0.237 OA
ATOM     75  O   UNL A   1      47.787  38.105  27.633  1.00  0.00    -0.237 OA
ATOM     76  O   UNL A   1      47.136  38.106  30.012  1.00  0.00    -0.744 OA
ENDBRANCH  72  73
ENDBRANCH  51  65
BRANCH  52  77
ATOM     77  C   UNL A   1      43.176  23.876  27.141  1.00  0.00     0.058 A 
ATOM     78  C   UNL A   1      42.743  23.471  25.870  1.00  0.00     0.135 A 
ATOM     79  C   UNL A   1      43.137  22.928  28.176  1.00  0.00     0.135 A 
ATOM     80  F   UNL A   1      42.758  24.341  24.848  1.00  0.00    -0.206 F 
ATOM     81  C   UNL A   1      42.281  22.181  25.634  1.00  0.00     0.059 A 
ATOM     82  C   UNL A   1      42.705  21.624  27.959  1.00  0.00     0.059 A 
ATOM     83  F   UNL A   1      43.558  23.259  29.407  1.00  0.00    -0.206 F 
ATOM     84  C   UNL A   1      42.273  21.262  26.685  1.00  0.00     0.060 A 
BRANCH  84  85
ATOM     85  S   UNL A   1      41.734  19.570  26.351  1.00  0.00     0.124 S 
ATOM     86  O   UNL A   1      42.523  19.237  25.171  1.00  0.00    -0.237 OA
ATOM     87  O   UNL A   1      42.106  18.883  27.584  1.00  0.00    -0.237 OA
ATOM     88  O   UNL A   1      40.298  19.714  26.131  1.00  0.00    -0.744 OA
ENDBRANCH  84  85
ENDBRANCH  52  77
BRANCH  64  89
ATOM     89  C   UNL A   1      49.433  26.895  26.396  1.00  0.00     0.058 A 
ATOM     90  C   UNL A   1      50.288  26.274  27.321  1.00  0.00     0.135 A 
ATOM     91  C   UNL A   1      49.858  26.969  25.059  1.00  0.00     0.135 A 
ATOM     92  F   UNL A   1      49.933  26.180  28.612  1.00  0.00    -0.206 F 
ATOM     93  C   UNL A   1      51.531  25.779  26.941  1.00  0.00     0.059 A 
ATOM     94  C   UNL A   1      51.082  26.450  24.652  1.00  0.00     0.059 A 
ATOM     95  F   UNL A   1      49.073  27.538  24.130  1.00  0.00    -0.206 F 
ATOM     96  C   UNL A   1      51.920  25.871  25.604  1.00  0.00     0.060 A 
BRANCH  96  97
ATOM     97  S   UNL A   1      53.528  25.211  25.123  1.00  0.00     0.124 S 
ATOM     98  O   UNL A   1      54.414  25.870  26.076  1.00  0.00    -0.237 OA
ATOM     99  O   UNL A   1      53.345  23.775  25.314  1.00  0.00    -0.237 OA
ATOM    100  O   UNL A   1      53.671  25.639  23.734  1.00  0.00    -0.744 OA
ENDBRANCH  96  97
ENDBRANCH  64  89
ENDBRANCH  38  39
ENDBRANCH  30  33
ENDBRANCH  28  29
ENDBRANCH  27  28
ENDBRANCH   1  27
TORSDOF 17
ENDMDL
MODEL 3
REMARK VINA RESULT:     -11.3      0.840      8.238
REMARK SMILES O=C(C[C@H]1SC[C@@H](C(=O)NCCCCNC(=O)c2ccc(-c3c4nc(c(-c5c(F)cc(S(=O)(=O)[O-])cc5F)c5ccc([nH]5)c(-c5c(F)cc(S(=O)(=O)[O-])cc5F)c5nc(c(-c6c(F)cc(S(=O)(=O)[O-])cc6F)c6ccc3[nH]6)C=C5)C=C4)cc2)NC1=O)Nc1cccc(Cl)c1
REMARK SMILES IDX 12 1 11 2 10 3 8 4 9 5 7 7 4 8 5 9 85 10 6 11 84 12 86 13
REMARK SMILES IDX 3 15 2 16 1 17 87 18 88 20 89 21 94 22 90 23 92 24 91 25
REMARK SMILES IDX 93 26 13 27 14 28 15 29 16 30 17 32 18 33 19 34 83 35 20 36
REMARK SMILES IDX 82 37 21 38 22 39 23 40 76 41 24 42 81 43 75 44 77 45 25 46
REMARK SMILES IDX 80 47 74 48 73 49 26 51 60 52 39 53 59 54 40 55 43 56 58 57
REMARK SMILES IDX 78 58 41 59 42 60 57 62 79 63 44 64 27 65 28 66 37 67 29 68
REMARK SMILES IDX 30 69 36 70 38 71 31 72 32 73 33 74 34 75 35 76 61 77 62 78
REMARK SMILES IDX 71 79 63 80 64 81 70 82 72 83 65 84 66 85 67 86 68 87 69 88
REMARK SMILES IDX 45 89 46 90 55 91 47 92 48 93 54 94 56 95 49 96 50 97 51 98
REMARK SMILES IDX 52 99 53 100
REMARK H PARENT 10 6 84 14 87 19 15 31 77 50 43 61
REMARK Flexibility Score: inf
ROOT
ATOM      1  C   UNL A   1      37.501  22.235  25.604  1.00  0.00     0.023 C 
ENDROOT
BRANCH   1   2
ATOM      2  C   UNL A   1      36.060  21.718  25.758  1.00  0.00     0.116 C 
BRANCH   2   3
ATOM      3  N   UNL A   1      35.086  22.691  26.259  1.00  0.00    -0.354 N 
ATOM      4  C   UNL A   1      33.804  23.050  25.938  1.00  0.00     0.243 C 
ATOM      5  O   UNL A   1      33.223  23.772  26.762  1.00  0.00    -0.273 OA
ATOM      6  H   UNL A   1      35.441  23.215  27.014  1.00  0.00     0.163 HD
BRANCH   4   7
ATOM      7  C   UNL A   1      33.010  22.566  24.676  1.00  0.00     0.181 C 
ATOM      8  C   UNL A   1      32.368  24.619  22.449  1.00  0.00     0.145 C 
ATOM      9  S   UNL A   1      34.015  24.390  23.154  1.00  0.00    -0.145 SA
ATOM     10  C   UNL A   1      31.407  24.391  23.645  1.00  0.00     0.234 C 
ATOM     11  C   UNL A   1      33.796  22.625  23.395  1.00  0.00     0.105 C 
ATOM     12  N   UNL A   1      31.705  23.335  24.522  1.00  0.00    -0.343 N 
ATOM     13  O   UNL A   1      30.358  25.017  23.773  1.00  0.00    -0.274 OA
ATOM     14  H   UNL A   1      30.973  23.054  25.116  1.00  0.00     0.164 HD
BRANCH   8  15
ATOM     15  C   UNL A   1      32.405  25.903  21.597  1.00  0.00     0.124 C 
BRANCH  15  16
ATOM     16  C   UNL A   1      33.015  27.137  22.369  1.00  0.00     0.226 C 
ATOM     17  O   UNL A   1      34.004  27.737  21.963  1.00  0.00    -0.275 OA
ATOM     18  N   UNL A   1      32.341  27.427  23.538  1.00  0.00    -0.326 N 
ATOM     19  H   UNL A   1      31.515  26.900  23.637  1.00  0.00     0.169 HD
BRANCH  18  20
ATOM     20  C   UNL A   1      32.554  28.292  24.616  1.00  0.00     0.042 A 
ATOM     21  C   UNL A   1      31.599  29.321  24.769  1.00  0.00     0.026 A 
ATOM     22  C   UNL A   1      33.646  28.242  25.462  1.00  0.00     0.046 A 
ATOM     23  C   UNL A   1      31.723  30.292  25.756  1.00  0.00     0.004 A 
ATOM     24  C   UNL A   1      33.795  29.252  26.421  1.00  0.00     0.043 A 
ATOM     25  C   UNL A   1      32.840  30.266  26.578  1.00  0.00     0.020 A 
ATOM     26  Cl  UNL A   1      35.202  29.286  27.412  1.00  0.00    -0.084 Cl
ENDBRANCH  18  20
ENDBRANCH  15  16
ENDBRANCH   8  15
ENDBRANCH   4   7
ENDBRANCH   2   3
ENDBRANCH   1   2
BRANCH   1  27
ATOM     27  C   UNL A   1      37.697  23.741  25.752  1.00  0.00     0.023 C 
BRANCH  27  28
ATOM     28  C   UNL A   1      38.789  24.113  26.734  1.00  0.00     0.116 C 
BRANCH  28  29
ATOM     29  N   UNL A   1      40.097  24.229  26.103  1.00  0.00    -0.352 N 
ATOM     30  C   UNL A   1      41.087  25.143  26.349  1.00  0.00     0.251 C 
ATOM     31  H   UNL A   1      40.294  23.563  25.405  1.00  0.00     0.163 HD
ATOM     32  O   UNL A   1      42.082  25.173  25.628  1.00  0.00    -0.269 OA
BRANCH  30  33
ATOM     33  C   UNL A   1      40.927  26.104  27.458  1.00  0.00     0.039 A 
ATOM     34  C   UNL A   1      39.971  25.843  28.441  1.00  0.00     0.014 A 
ATOM     35  C   UNL A   1      41.736  27.240  27.541  1.00  0.00     0.014 A 
ATOM     36  C   UNL A   1      39.857  26.707  29.530  1.00  0.00     0.010 A 
ATOM     37  C   UNL A   1      41.693  28.037  28.675  1.00  0.00     0.010 A 
ATOM     38  C   UNL A   1      40.734  27.796  29.667  1.00  0.00    -0.014 A 
BRANCH  38  39
ATOM     39  C   UNL A   1      40.633  28.719  30.823  1.00  0.00     0.031 A 
ATOM     40  C   UNL A   1      39.612  29.825  30.812  1.00  0.00     0.074 A 
ATOM     41  C   UNL A   1      41.487  28.589  31.855  1.00  0.00     0.049 A 
ATOM     42  N   UNL A   1      39.387  30.749  31.708  1.00  0.00    -0.248 NA
ATOM     43  C   UNL A   1      38.754  29.927  29.619  1.00  0.00     0.031 C 
ATOM     44  C   UNL A   1      42.563  27.599  31.944  1.00  0.00     0.029 A 
ATOM     45  N   UNL A   1      41.590  29.298  33.024  1.00  0.00    -0.354 N 
ATOM     46  C   UNL A   1      38.369  31.540  31.188  1.00  0.00     0.074 A 
ATOM     47  C   UNL A   1      38.078  31.039  29.863  1.00  0.00     0.031 C 
ATOM     48  C   UNL A   1      43.199  27.747  33.117  1.00  0.00     0.029 A 
ATOM     49  C   UNL A   1      42.603  28.863  33.844  1.00  0.00     0.049 A 
ATOM     50  H   UNL A   1      40.996  30.049  33.253  1.00  0.00     0.167 HD
ATOM     51  C   UNL A   1      37.710  32.567  31.774  1.00  0.00     0.037 A 
ATOM     52  C   UNL A   1      43.006  29.315  35.048  1.00  0.00     0.037 A 
ATOM     53  C   UNL A   1      38.000  33.051  33.097  1.00  0.00     0.049 A 
ATOM     54  C   UNL A   1      42.256  30.452  35.687  1.00  0.00     0.074 A 
ATOM     55  C   UNL A   1      37.368  34.058  33.805  1.00  0.00     0.029 A 
ATOM     56  N   UNL A   1      39.011  32.563  33.915  1.00  0.00    -0.354 N 
ATOM     57  N   UNL A   1      41.249  31.145  35.211  1.00  0.00    -0.248 NA
ATOM     58  C   UNL A   1      42.684  30.855  37.032  1.00  0.00     0.031 C 
ATOM     59  C   UNL A   1      38.028  34.212  35.029  1.00  0.00     0.029 A 
ATOM     60  C   UNL A   1      39.032  33.259  35.112  1.00  0.00     0.049 A 
ATOM     61  H   UNL A   1      39.624  31.829  33.677  1.00  0.00     0.167 HD
ATOM     62  C   UNL A   1      40.907  32.052  36.208  1.00  0.00     0.074 A 
ATOM     63  C   UNL A   1      41.804  31.805  37.318  1.00  0.00     0.031 C 
ATOM     64  C   UNL A   1      39.935  33.001  36.207  1.00  0.00     0.037 A 
BRANCH  51  65
ATOM     65  C   UNL A   1      36.611  33.225  30.981  1.00  0.00     0.058 A 
ATOM     66  C   UNL A   1      35.255  33.005  31.277  1.00  0.00     0.135 A 
ATOM     67  C   UNL A   1      36.912  34.085  29.912  1.00  0.00     0.135 A 
ATOM     68  F   UNL A   1      34.905  32.179  32.276  1.00  0.00    -0.206 F 
ATOM     69  C   UNL A   1      34.239  33.572  30.514  1.00  0.00     0.059 A 
ATOM     70  C   UNL A   1      35.913  34.692  29.158  1.00  0.00     0.059 A 
ATOM     71  F   UNL A   1      38.189  34.334  29.583  1.00  0.00    -0.206 F 
ATOM     72  C   UNL A   1      34.578  34.413  29.453  1.00  0.00     0.060 A 
BRANCH  72  73
ATOM     73  S   UNL A   1      33.250  35.123  28.460  1.00  0.00     0.124 S 
ATOM     74  O   UNL A   1      32.614  33.922  27.925  1.00  0.00    -0.237 OA
ATOM     75  O   UNL A   1      32.476  35.858  29.455  1.00  0.00    -0.237 OA
ATOM     76  O   UNL A   1      33.956  35.946  27.485  1.00  0.00    -0.744 OA
ENDBRANCH  72  73
ENDBRANCH  51  65
BRANCH  52  77
ATOM     77  C   UNL A   1      44.159  28.667  35.727  1.00  0.00     0.058 A 
ATOM     78  C   UNL A   1      45.472  29.114  35.519  1.00  0.00     0.135 A 
ATOM     79  C   UNL A   1      43.965  27.609  36.629  1.00  0.00     0.135 A 
ATOM     80  F   UNL A   1      45.711  30.120  34.663  1.00  0.00    -0.206 F 
ATOM     81  C   UNL A   1      46.553  28.531  36.172  1.00  0.00     0.059 A 
ATOM     82  C   UNL A   1      45.027  27.028  37.316  1.00  0.00     0.059 A 
ATOM     83  F   UNL A   1      42.727  27.156  36.879  1.00  0.00    -0.206 F 
ATOM     84  C   UNL A   1      46.318  27.492  37.075  1.00  0.00     0.060 A 
BRANCH  84  85
ATOM     85  S   UNL A   1      47.722  26.788  37.967  1.00  0.00     0.124 S 
ATOM     86  O   UNL A   1      48.782  27.736  37.645  1.00  0.00    -0.237 OA
ATOM     87  O   UNL A   1      47.245  26.806  39.347  1.00  0.00    -0.237 OA
ATOM     88  O   UNL A   1      47.862  25.459  37.377  1.00  0.00    -0.744 OA
ENDBRANCH  84  85
ENDBRANCH  52  77
BRANCH  64  89
ATOM     89  C   UNL A   1      39.769  33.819  37.458  1.00  0.00     0.058 A 
ATOM     90  C   UNL A   1      38.919  33.419  38.501  1.00  0.00     0.135 A 
ATOM     91  C   UNL A   1      40.506  35.003  37.632  1.00  0.00     0.135 A 
ATOM     92  F   UNL A   1      38.190  32.297  38.385  1.00  0.00    -0.206 F 
ATOM     93  C   UNL A   1      38.776  34.181  39.655  1.00  0.00     0.059 A 
ATOM     94  C   UNL A   1      40.403  35.763  38.792  1.00  0.00     0.059 A 
ATOM     95  F   UNL A   1      41.346  35.425  36.673  1.00  0.00    -0.206 F 
ATOM     96  C   UNL A   1      39.522  35.353  39.792  1.00  0.00     0.060 A 
BRANCH  96  97
ATOM     97  S   UNL A   1      39.339  36.325  41.301  1.00  0.00     0.124 S 
ATOM     98  O   UNL A   1      40.678  36.239  41.871  1.00  0.00    -0.237 OA
ATOM     99  O   UNL A   1      38.952  37.634  40.783  1.00  0.00    -0.237 OA
ATOM    100  O   UNL A   1      38.296  35.617  42.038  1.00  0.00    -0.744 OA
ENDBRANCH  96  97
ENDBRANCH  64  89
ENDBRANCH  38  39
ENDBRANCH  30  33
ENDBRANCH  28  29
ENDBRANCH  27  28
ENDBRANCH   1  27
TORSDOF 17
ENDMDL
