MODEL 1
REMARK VINA RESULT:     -11.6      0.000      0.000
REMARK SMILES CCN(CC)S(=O)(=O)c1cccc(C(=O)N2C[C@H](O)C[C@H]2C(=O)NCCCCNC(=O)c2ccc(-c3c4nc(c(-c5c(F)cc(S(=O)(=O)[O-])cc5F)c5ccc([nH]5)c(-c5c(F)cc(S(=O)(=O)[O-])cc5F)c5nc(c(-c6c(F)cc(S(=O)(=O)[O-])cc6F)c6ccc3[nH]6)C=C5)C=C4)cc2)c1
REMARK SMILES IDX 25 1 24 2 22 3 23 4 21 6 16 7 17 8 18 9 20 10 14 11 15 12
REMARK SMILES IDX 13 13 9 14 10 15 98 16 11 17 12 18 6 19 7 20 8 21 3 22 2 23
REMARK SMILES IDX 1 24 4 25 5 26 19 27 26 29 27 30 28 31 29 32 30 33 31 35
REMARK SMILES IDX 32 36 33 37 97 38 34 39 96 40 35 41 36 42 37 43 90 44 38 45
REMARK SMILES IDX 95 46 89 47 91 48 39 49 94 50 88 51 87 52 40 54 74 55 53 56
REMARK SMILES IDX 73 57 54 58 57 59 72 60 92 61 55 62 56 63 71 65 93 66 58 67
REMARK SMILES IDX 41 68 42 69 51 70 43 71 44 72 50 73 52 74 45 75 46 76 47 77
REMARK SMILES IDX 48 78 49 79 75 80 76 81 85 82 77 83 78 84 84 85 86 86 79 87
REMARK SMILES IDX 80 88 81 89 82 90 83 91 59 92 60 93 69 94 61 95 62 96 68 97
REMARK SMILES IDX 70 98 63 99 64 100 65 101 66 102 67 103
REMARK H PARENT 24 5 19 28 29 34 91 53 57 64
REMARK Flexibility Score: inf
ROOT
ATOM      1  C   UNL A   1      38.345  21.610  25.895  1.00  0.00     0.116 C 
ENDROOT
BRANCH   1   2
ATOM      2  N   UNL A   1      37.802  22.000  24.617  1.00  0.00    -0.354 N 
ATOM      3  C   UNL A   1      36.510  22.045  24.196  1.00  0.00     0.242 C 
ATOM      4  O   UNL A   1      36.284  22.643  23.137  1.00  0.00    -0.273 OA
ATOM      5  H   UNL A   1      38.470  22.276  23.948  1.00  0.00     0.163 HD
BRANCH   3   6
ATOM      6  C   UNL A   1      35.336  21.596  25.085  1.00  0.00     0.177 C 
ATOM      7  N   UNL A   1      34.061  22.338  25.070  1.00  0.00    -0.324 N 
ATOM      8  C   UNL A   1      32.945  21.450  24.747  1.00  0.00     0.152 C 
ATOM      9  C   UNL A   1      33.475  20.068  25.127  1.00  0.00     0.136 C 
ATOM     10  C   UNL A   1      34.957  20.137  24.779  1.00  0.00     0.069 C 
BRANCH   7  11
ATOM     11  C   UNL A   1      34.084  23.632  25.570  1.00  0.00     0.254 C 
ATOM     12  O   UNL A   1      34.457  23.838  26.726  1.00  0.00    -0.269 OA
BRANCH  11  13
ATOM     13  C   UNL A   1      33.548  24.812  24.825  1.00  0.00     0.041 A 
ATOM     14  C   UNL A   1      32.621  27.066  24.772  1.00  0.00     0.083 A 
ATOM     15  C   UNL A   1      33.015  27.203  23.436  1.00  0.00     0.022 A 
ATOM     16  C   UNL A   1      32.884  25.871  25.452  1.00  0.00     0.035 A 
ATOM     17  C   UNL A   1      33.663  26.149  22.791  1.00  0.00     0.002 A 
ATOM     18  C   UNL A   1      33.929  24.964  23.483  1.00  0.00     0.014 A 
BRANCH  14  19
ATOM     19  S   UNL A   1      31.657  28.365  25.535  1.00  0.00     0.243 S 
ATOM     20  O   UNL A   1      31.236  27.871  26.827  1.00  0.00    -0.207 OA
ATOM     21  O   UNL A   1      30.661  28.746  24.551  1.00  0.00    -0.207 OA
BRANCH  19  22
ATOM     22  N   UNL A   1      32.681  29.737  25.775  1.00  0.00    -0.198 NA
BRANCH  22  23
ATOM     23  C   UNL A   1      32.149  30.729  26.777  1.00  0.00     0.099 C 
ATOM     24  C   UNL A   1      31.129  31.688  26.199  1.00  0.00     0.022 C 
ENDBRANCH  22  23
BRANCH  22  25
ATOM     25  C   UNL A   1      34.141  29.519  26.041  1.00  0.00     0.099 C 
ATOM     26  C   UNL A   1      34.446  29.007  27.443  1.00  0.00     0.022 C 
ENDBRANCH  22  25
ENDBRANCH  19  22
ENDBRANCH  14  19
ENDBRANCH  11  13
ENDBRANCH   7  11
BRANCH   9  27
ATOM     27  O   UNL A   1      33.328  19.846  26.529  1.00  0.00    -0.391 OA
ATOM     28  H   UNL A   1      34.153  19.483  26.887  1.00  0.00     0.211 HD
ENDBRANCH   9  27
ENDBRANCH   3   6
ENDBRANCH   1   2
BRANCH   1  29
ATOM     29  C   UNL A   1      39.175  22.708  26.542  1.00  0.00     0.023 C 
BRANCH  29  30
ATOM     30  C   UNL A   1      40.359  22.194  27.361  1.00  0.00     0.023 C 
BRANCH  30  31
ATOM     31  C   UNL A   1      41.614  23.058  27.303  1.00  0.00     0.116 C 
BRANCH  31  32
ATOM     32  N   UNL A   1      41.687  23.898  26.115  1.00  0.00    -0.352 N 
ATOM     33  C   UNL A   1      41.642  25.270  26.046  1.00  0.00     0.251 C 
ATOM     34  H   UNL A   1      41.780  23.426  25.257  1.00  0.00     0.163 HD
ATOM     35  O   UNL A   1      41.636  25.842  24.961  1.00  0.00    -0.269 OA
BRANCH  33  36
ATOM     36  C   UNL A   1      41.554  26.036  27.304  1.00  0.00     0.039 A 
ATOM     37  C   UNL A   1      42.611  26.877  27.655  1.00  0.00     0.014 A 
ATOM     38  C   UNL A   1      40.392  25.983  28.080  1.00  0.00     0.014 A 
ATOM     39  C   UNL A   1      42.473  27.727  28.753  1.00  0.00     0.010 A 
ATOM     40  C   UNL A   1      40.233  26.876  29.133  1.00  0.00     0.010 A 
ATOM     41  C   UNL A   1      41.268  27.759  29.475  1.00  0.00    -0.014 A 
BRANCH  41  42
ATOM     42  C   UNL A   1      41.066  28.718  30.588  1.00  0.00     0.031 A 
ATOM     43  C   UNL A   1      41.933  28.638  31.812  1.00  0.00     0.074 A 
ATOM     44  C   UNL A   1      40.060  29.613  30.524  1.00  0.00     0.049 A 
ATOM     45  N   UNL A   1      41.871  29.335  32.915  1.00  0.00    -0.248 NA
ATOM     46  C   UNL A   1      42.991  27.616  31.804  1.00  0.00     0.031 C 
ATOM     47  C   UNL A   1      39.124  29.756  29.407  1.00  0.00     0.029 A 
ATOM     48  N   UNL A   1      39.654  30.566  31.422  1.00  0.00    -0.354 N 
ATOM     49  C   UNL A   1      42.869  28.830  33.738  1.00  0.00     0.074 A 
ATOM     50  C   UNL A   1      43.486  27.731  33.027  1.00  0.00     0.031 C 
ATOM     51  C   UNL A   1      38.273  30.760  29.673  1.00  0.00     0.029 A 
ATOM     52  C   UNL A   1      38.580  31.308  30.991  1.00  0.00     0.049 A 
ATOM     53  H   UNL A   1      40.091  30.706  32.293  1.00  0.00     0.167 HD
ATOM     54  C   UNL A   1      43.255  29.259  34.964  1.00  0.00     0.037 A 
ATOM     55  C   UNL A   1      37.920  32.317  31.591  1.00  0.00     0.037 A 
ATOM     56  C   UNL A   1      42.652  30.365  35.656  1.00  0.00     0.049 A 
ATOM     57  C   UNL A   1      38.363  32.776  32.952  1.00  0.00     0.074 A 
ATOM     58  C   UNL A   1      42.998  30.911  36.880  1.00  0.00     0.029 A 
ATOM     59  N   UNL A   1      41.573  31.098  35.183  1.00  0.00    -0.354 N 
ATOM     60  N   UNL A   1      39.342  32.320  33.696  1.00  0.00    -0.248 NA
ATOM     61  C   UNL A   1      37.612  33.886  33.554  1.00  0.00     0.031 C 
ATOM     62  C   UNL A   1      42.110  31.956  37.160  1.00  0.00     0.029 A 
ATOM     63  C   UNL A   1      41.231  32.083  36.095  1.00  0.00     0.049 A 
ATOM     64  H   UNL A   1      41.116  30.942  34.325  1.00  0.00     0.167 HD
ATOM     65  C   UNL A   1      39.343  33.102  34.844  1.00  0.00     0.074 A 
ATOM     66  C   UNL A   1      38.269  34.065  34.693  1.00  0.00     0.031 C 
ATOM     67  C   UNL A   1      40.159  33.034  35.925  1.00  0.00     0.037 A 
BRANCH  54  68
ATOM     68  C   UNL A   1      44.385  28.517  35.620  1.00  0.00     0.058 A 
ATOM     69  C   UNL A   1      44.148  27.444  36.496  1.00  0.00     0.135 A 
ATOM     70  C   UNL A   1      45.718  28.895  35.395  1.00  0.00     0.135 A 
ATOM     71  F   UNL A   1      42.891  27.053  36.760  1.00  0.00    -0.206 F 
ATOM     72  C   UNL A   1      45.188  26.806  37.164  1.00  0.00     0.059 A 
ATOM     73  C   UNL A   1      46.776  28.252  36.031  1.00  0.00     0.059 A 
ATOM     74  F   UNL A   1      46.001  29.913  34.567  1.00  0.00    -0.206 F 
ATOM     75  C   UNL A   1      46.499  27.225  36.933  1.00  0.00     0.060 A 
BRANCH  75  76
ATOM     76  S   UNL A   1      47.837  26.420  37.838  1.00  0.00     0.124 S 
ATOM     77  O   UNL A   1      48.633  25.868  36.746  1.00  0.00    -0.237 OA
ATOM     78  O   UNL A   1      48.442  27.533  38.563  1.00  0.00    -0.237 OA
ATOM     79  O   UNL A   1      47.142  25.441  38.667  1.00  0.00    -0.744 OA
ENDBRANCH  75  76
ENDBRANCH  54  68
BRANCH  55  80
ATOM     80  C   UNL A   1      36.803  32.991  30.881  1.00  0.00     0.058 A 
ATOM     81  C   UNL A   1      35.472  32.722  31.230  1.00  0.00     0.135 A 
ATOM     82  C   UNL A   1      37.037  33.941  29.876  1.00  0.00     0.135 A 
ATOM     83  F   UNL A   1      35.199  31.817  32.184  1.00  0.00    -0.206 F 
ATOM     84  C   UNL A   1      34.410  33.366  30.605  1.00  0.00     0.059 A 
ATOM     85  C   UNL A   1      35.992  34.613  29.249  1.00  0.00     0.059 A 
ATOM     86  F   UNL A   1      38.294  34.244  29.517  1.00  0.00    -0.206 F 
ATOM     87  C   UNL A   1      34.680  34.315  29.619  1.00  0.00     0.060 A 
BRANCH  87  88
ATOM     88  S   UNL A   1      33.296  35.199  28.866  1.00  0.00     0.124 S 
ATOM     89  O   UNL A   1      33.984  36.264  28.146  1.00  0.00    -0.237 OA
ATOM     90  O   UNL A   1      32.682  34.162  28.042  1.00  0.00    -0.237 OA
ATOM     91  O   UNL A   1      32.505  35.623  30.017  1.00  0.00    -0.744 OA
ENDBRANCH  87  88
ENDBRANCH  55  80
BRANCH  67  92
ATOM     92  C   UNL A   1      39.941  34.042  37.016  1.00  0.00     0.058 A 
ATOM     93  C   UNL A   1      40.548  35.306  36.981  1.00  0.00     0.135 A 
ATOM     94  C   UNL A   1      39.076  33.757  38.084  1.00  0.00     0.135 A 
ATOM     95  F   UNL A   1      41.390  35.623  35.985  1.00  0.00    -0.206 F 
ATOM     96  C   UNL A   1      40.320  36.248  37.978  1.00  0.00     0.059 A 
ATOM     97  C   UNL A   1      38.814  34.692  39.080  1.00  0.00     0.059 A 
ATOM     98  F   UNL A   1      38.464  32.564  38.159  1.00  0.00    -0.206 F 
ATOM     99  C   UNL A   1      39.451  35.931  39.025  1.00  0.00     0.060 A 
BRANCH  99 100
ATOM    100  S   UNL A   1      39.130  37.175  40.293  1.00  0.00     0.124 S 
ATOM    101  O   UNL A   1      38.360  36.408  41.267  1.00  0.00    -0.237 OA
ATOM    102  O   UNL A   1      40.476  37.556  40.708  1.00  0.00    -0.237 OA
ATOM    103  O   UNL A   1      38.387  38.207  39.576  1.00  0.00    -0.744 OA
ENDBRANCH  99 100
ENDBRANCH  67  92
ENDBRANCH  41  42
ENDBRANCH  33  36
ENDBRANCH  31  32
ENDBRANCH  30  31
ENDBRANCH  29  30
ENDBRANCH   1  29
TORSDOF 21
ENDMDL
MODEL 2
REMARK VINA RESULT:     -11.3      1.611      4.131
REMARK SMILES CCN(CC)S(=O)(=O)c1cccc(C(=O)N2C[C@H](O)C[C@H]2C(=O)NCCCCNC(=O)c2ccc(-c3c4nc(c(-c5c(F)cc(S(=O)(=O)[O-])cc5F)c5ccc([nH]5)c(-c5c(F)cc(S(=O)(=O)[O-])cc5F)c5nc(c(-c6c(F)cc(S(=O)(=O)[O-])cc6F)c6ccc3[nH]6)C=C5)C=C4)cc2)c1
REMARK SMILES IDX 25 1 24 2 22 3 23 4 21 6 16 7 17 8 18 9 20 10 14 11 15 12
REMARK SMILES IDX 13 13 9 14 10 15 98 16 11 17 12 18 6 19 7 20 8 21 3 22 2 23
REMARK SMILES IDX 1 24 4 25 5 26 19 27 26 29 27 30 28 31 29 32 30 33 31 35
REMARK SMILES IDX 32 36 33 37 97 38 34 39 96 40 35 41 36 42 37 43 90 44 38 45
REMARK SMILES IDX 95 46 89 47 91 48 39 49 94 50 88 51 87 52 40 54 74 55 53 56
REMARK SMILES IDX 73 57 54 58 57 59 72 60 92 61 55 62 56 63 71 65 93 66 58 67
REMARK SMILES IDX 41 68 42 69 51 70 43 71 44 72 50 73 52 74 45 75 46 76 47 77
REMARK SMILES IDX 48 78 49 79 75 80 76 81 85 82 77 83 78 84 84 85 86 86 79 87
REMARK SMILES IDX 80 88 81 89 82 90 83 91 59 92 60 93 69 94 61 95 62 96 68 97
REMARK SMILES IDX 70 98 63 99 64 100 65 101 66 102 67 103
REMARK H PARENT 24 5 19 28 29 34 91 53 57 64
REMARK Flexibility Score: inf
ROOT
ATOM      1  C   UNL A   1      35.273  24.590  25.313  1.00  0.00     0.116 C 
ENDROOT
BRANCH   1   2
ATOM      2  N   UNL A   1      34.826  24.295  23.974  1.00  0.00    -0.354 N 
ATOM      3  C   UNL A   1      33.806  24.837  23.256  1.00  0.00     0.242 C 
ATOM      4  O   UNL A   1      33.776  24.587  22.045  1.00  0.00    -0.273 OA
ATOM      5  H   UNL A   1      35.339  23.595  23.508  1.00  0.00     0.163 HD
BRANCH   3   6
ATOM      6  C   UNL A   1      32.861  25.902  23.840  1.00  0.00     0.177 C 
ATOM      7  N   UNL A   1      32.364  25.783  25.224  1.00  0.00    -0.324 N 
ATOM      8  C   UNL A   1      32.689  26.981  25.999  1.00  0.00     0.152 C 
ATOM      9  C   UNL A   1      32.879  28.052  24.926  1.00  0.00     0.136 C 
ATOM     10  C   UNL A   1      33.508  27.296  23.762  1.00  0.00     0.069 C 
BRANCH   7  11
ATOM     11  C   UNL A   1      31.509  24.725  25.493  1.00  0.00     0.254 C 
ATOM     12  O   UNL A   1      30.289  24.888  25.430  1.00  0.00    -0.269 OA
BRANCH  11  13
ATOM     13  C   UNL A   1      31.976  23.397  25.997  1.00  0.00     0.041 A 
ATOM     14  C   UNL A   1      32.764  21.122  25.617  1.00  0.00     0.083 A 
ATOM     15  C   UNL A   1      33.319  21.092  26.901  1.00  0.00     0.022 A 
ATOM     16  C   UNL A   1      32.092  22.269  25.178  1.00  0.00     0.035 A 
ATOM     17  C   UNL A   1      33.196  22.203  27.736  1.00  0.00     0.002 A 
ATOM     18  C   UNL A   1      32.532  23.347  27.286  1.00  0.00     0.014 A 
BRANCH  14  19
ATOM     19  S   UNL A   1      32.796  19.638  24.618  1.00  0.00     0.243 S 
ATOM     20  O   UNL A   1      32.198  19.976  23.346  1.00  0.00    -0.207 OA
ATOM     21  O   UNL A   1      32.203  18.598  25.438  1.00  0.00    -0.207 OA
BRANCH  19  22
ATOM     22  N   UNL A   1      34.445  19.193  24.352  1.00  0.00    -0.198 NA
BRANCH  22  23
ATOM     23  C   UNL A   1      35.435  20.018  25.133  1.00  0.00     0.099 C 
ATOM     24  C   UNL A   1      36.879  19.732  24.777  1.00  0.00     0.022 C 
ENDBRANCH  22  23
BRANCH  22  25
ATOM     25  C   UNL A   1      34.836  17.748  24.455  1.00  0.00     0.099 C 
ATOM     26  C   UNL A   1      34.164  16.849  23.424  1.00  0.00     0.022 C 
ENDBRANCH  22  25
ENDBRANCH  19  22
ENDBRANCH  14  19
ENDBRANCH  11  13
ENDBRANCH   7  11
BRANCH   9  27
ATOM     27  O   UNL A   1      31.617  28.581  24.520  1.00  0.00    -0.391 OA
ATOM     28  H   UNL A   1      31.723  29.512  24.270  1.00  0.00     0.211 HD
ENDBRANCH   9  27
ENDBRANCH   3   6
ENDBRANCH   1   2
BRANCH   1  29
ATOM     29  C   UNL A   1      36.208  23.528  25.869  1.00  0.00     0.023 C 
BRANCH  29  30
ATOM     30  C   UNL A   1      37.669  23.704  25.456  1.00  0.00     0.023 C 
BRANCH  30  31
ATOM     31  C   UNL A   1      38.654  23.882  26.606  1.00  0.00     0.116 C 
BRANCH  31  32
ATOM     32  N   UNL A   1      40.049  23.828  26.190  1.00  0.00    -0.352 N 
ATOM     33  C   UNL A   1      41.066  24.688  26.530  1.00  0.00     0.251 C 
ATOM     34  H   UNL A   1      40.294  23.085  25.593  1.00  0.00     0.163 HD
ATOM     35  O   UNL A   1      42.182  24.563  26.039  1.00  0.00    -0.269 OA
BRANCH  33  36
ATOM     36  C   UNL A   1      40.771  25.793  27.463  1.00  0.00     0.039 A 
ATOM     37  C   UNL A   1      39.765  25.619  28.414  1.00  0.00     0.014 A 
ATOM     38  C   UNL A   1      41.550  26.954  27.448  1.00  0.00     0.014 A 
ATOM     39  C   UNL A   1      39.585  26.586  29.404  1.00  0.00     0.010 A 
ATOM     40  C   UNL A   1      41.412  27.883  28.472  1.00  0.00     0.010 A 
ATOM     41  C   UNL A   1      40.433  27.705  29.462  1.00  0.00    -0.014 A 
BRANCH  41  42
ATOM     42  C   UNL A   1      40.320  28.699  30.557  1.00  0.00     0.031 A 
ATOM     43  C   UNL A   1      41.201  28.582  31.768  1.00  0.00     0.074 A 
ATOM     44  C   UNL A   1      39.379  29.660  30.491  1.00  0.00     0.049 A 
ATOM     45  N   UNL A   1      41.208  29.304  32.857  1.00  0.00    -0.248 NA
ATOM     46  C   UNL A   1      42.184  27.487  31.764  1.00  0.00     0.031 C 
ATOM     47  C   UNL A   1      38.435  29.846  29.386  1.00  0.00     0.029 A 
ATOM     48  N   UNL A   1      39.057  30.658  31.375  1.00  0.00    -0.354 N 
ATOM     49  C   UNL A   1      42.183  28.746  33.673  1.00  0.00     0.074 A 
ATOM     50  C   UNL A   1      42.708  27.592  32.976  1.00  0.00     0.031 C 
ATOM     51  C   UNL A   1      37.661  30.913  29.645  1.00  0.00     0.029 A 
ATOM     52  C   UNL A   1      38.030  31.465  30.945  1.00  0.00     0.049 A 
ATOM     53  H   UNL A   1      39.518  30.785  32.235  1.00  0.00     0.167 HD
ATOM     54  C   UNL A   1      42.620  29.172  34.883  1.00  0.00     0.037 A 
ATOM     55  C   UNL A   1      37.454  32.531  31.534  1.00  0.00     0.037 A 
ATOM     56  C   UNL A   1      42.109  30.332  35.562  1.00  0.00     0.049 A 
ATOM     57  C   UNL A   1      37.952  32.984  32.878  1.00  0.00     0.074 A 
ATOM     58  C   UNL A   1      42.515  30.876  36.767  1.00  0.00     0.029 A 
ATOM     59  N   UNL A   1      41.076  31.130  35.091  1.00  0.00    -0.354 N 
ATOM     60  N   UNL A   1      38.910  32.476  33.615  1.00  0.00    -0.248 NA
ATOM     61  C   UNL A   1      37.293  34.157  33.468  1.00  0.00     0.031 C 
ATOM     62  C   UNL A   1      41.708  31.987  37.040  1.00  0.00     0.029 A 
ATOM     63  C   UNL A   1      40.821  32.154  35.987  1.00  0.00     0.049 A 
ATOM     64  H   UNL A   1      40.594  30.988  34.244  1.00  0.00     0.167 HD
ATOM     65  C   UNL A   1      38.987  33.279  34.746  1.00  0.00     0.074 A 
ATOM     66  C   UNL A   1      37.981  34.312  34.592  1.00  0.00     0.031 C 
ATOM     67  C   UNL A   1      39.816  33.175  35.814  1.00  0.00     0.037 A 
BRANCH  54  68
ATOM     68  C   UNL A   1      43.707  28.365  35.537  1.00  0.00     0.058 A 
ATOM     69  C   UNL A   1      43.412  27.346  36.457  1.00  0.00     0.135 A 
ATOM     70  C   UNL A   1      45.059  28.627  35.263  1.00  0.00     0.135 A 
ATOM     71  F   UNL A   1      42.136  27.066  36.769  1.00  0.00    -0.206 F 
ATOM     72  C   UNL A   1      44.417  26.650  37.121  1.00  0.00     0.059 A 
ATOM     73  C   UNL A   1      46.080  27.925  35.894  1.00  0.00     0.059 A 
ATOM     74  F   UNL A   1      45.397  29.590  34.390  1.00  0.00    -0.206 F 
ATOM     75  C   UNL A   1      45.750  26.955  36.840  1.00  0.00     0.060 A 
BRANCH  75  76
ATOM     76  S   UNL A   1      47.046  26.077  37.739  1.00  0.00     0.124 S 
ATOM     77  O   UNL A   1      47.987  25.774  36.665  1.00  0.00    -0.237 OA
ATOM     78  O   UNL A   1      47.490  27.075  38.707  1.00  0.00    -0.237 OA
ATOM     79  O   UNL A   1      46.346  24.929  38.305  1.00  0.00    -0.744 OA
ENDBRANCH  75  76
ENDBRANCH  54  68
BRANCH  55  80
ATOM     80  C   UNL A   1      36.374  33.268  30.829  1.00  0.00     0.058 A 
ATOM     81  C   UNL A   1      35.041  33.152  31.250  1.00  0.00     0.135 A 
ATOM     82  C   UNL A   1      36.650  34.127  29.755  1.00  0.00     0.135 A 
ATOM     83  F   UNL A   1      34.728  32.339  32.270  1.00  0.00    -0.206 F 
ATOM     84  C   UNL A   1      34.018  33.859  30.628  1.00  0.00     0.059 A 
ATOM     85  C   UNL A   1      35.646  34.859  29.129  1.00  0.00     0.059 A 
ATOM     86  F   UNL A   1      37.913  34.282  29.326  1.00  0.00    -0.206 F 
ATOM     87  C   UNL A   1      34.331  34.715  29.572  1.00  0.00     0.060 A 
BRANCH  87  88
ATOM     88  S   UNL A   1      33.004  35.684  28.821  1.00  0.00     0.124 S 
ATOM     89  O   UNL A   1      33.756  36.702  28.097  1.00  0.00    -0.237 OA
ATOM     90  O   UNL A   1      32.323  34.688  28.000  1.00  0.00    -0.237 OA
ATOM     91  O   UNL A   1      32.244  36.160  29.973  1.00  0.00    -0.744 OA
ENDBRANCH  87  88
ENDBRANCH  55  80
BRANCH  67  92
ATOM     92  C   UNL A   1      39.689  34.218  36.887  1.00  0.00     0.058 A 
ATOM     93  C   UNL A   1      38.993  33.966  38.079  1.00  0.00     0.135 A 
ATOM     94  C   UNL A   1      40.313  35.467  36.740  1.00  0.00     0.135 A 
ATOM     95  F   UNL A   1      38.374  32.790  38.263  1.00  0.00    -0.206 F 
ATOM     96  C   UNL A   1      38.904  34.924  39.082  1.00  0.00     0.059 A 
ATOM     97  C   UNL A   1      40.256  36.432  37.740  1.00  0.00     0.059 A 
ATOM     98  F   UNL A   1      40.998  35.754  35.621  1.00  0.00    -0.206 F 
ATOM     99  C   UNL A   1      39.539  36.155  38.904  1.00  0.00     0.060 A 
BRANCH  99 100
ATOM    100  S   UNL A   1      39.449  37.379  40.228  1.00  0.00     0.124 S 
ATOM    101  O   UNL A   1      38.786  36.620  41.284  1.00  0.00    -0.237 OA
ATOM    102  O   UNL A   1      40.854  37.695  40.462  1.00  0.00    -0.237 OA
ATOM    103  O   UNL A   1      38.660  38.457  39.640  1.00  0.00    -0.744 OA
ENDBRANCH  99 100
ENDBRANCH  67  92
ENDBRANCH  41  42
ENDBRANCH  33  36
ENDBRANCH  31  32
ENDBRANCH  30  31
ENDBRANCH  29  30
ENDBRANCH   1  29
TORSDOF 21
ENDMDL
MODEL 3
REMARK VINA RESULT:     -11.1      4.826     10.554
REMARK SMILES CCN(CC)S(=O)(=O)c1cccc(C(=O)N2C[C@H](O)C[C@H]2C(=O)NCCCCNC(=O)c2ccc(-c3c4nc(c(-c5c(F)cc(S(=O)(=O)[O-])cc5F)c5ccc([nH]5)c(-c5c(F)cc(S(=O)(=O)[O-])cc5F)c5nc(c(-c6c(F)cc(S(=O)(=O)[O-])cc6F)c6ccc3[nH]6)C=C5)C=C4)cc2)c1
REMARK SMILES IDX 25 1 24 2 22 3 23 4 21 6 16 7 17 8 18 9 20 10 14 11 15 12
REMARK SMILES IDX 13 13 9 14 10 15 98 16 11 17 12 18 6 19 7 20 8 21 3 22 2 23
REMARK SMILES IDX 1 24 4 25 5 26 19 27 26 29 27 30 28 31 29 32 30 33 31 35
REMARK SMILES IDX 32 36 33 37 97 38 34 39 96 40 35 41 36 42 37 43 90 44 38 45
REMARK SMILES IDX 95 46 89 47 91 48 39 49 94 50 88 51 87 52 40 54 74 55 53 56
REMARK SMILES IDX 73 57 54 58 57 59 72 60 92 61 55 62 56 63 71 65 93 66 58 67
REMARK SMILES IDX 41 68 42 69 51 70 43 71 44 72 50 73 52 74 45 75 46 76 47 77
REMARK SMILES IDX 48 78 49 79 75 80 76 81 85 82 77 83 78 84 84 85 86 86 79 87
REMARK SMILES IDX 80 88 81 89 82 90 83 91 59 92 60 93 69 94 61 95 62 96 68 97
REMARK SMILES IDX 70 98 63 99 64 100 65 101 66 102 67 103
REMARK H PARENT 24 5 19 28 29 34 91 53 57 64
REMARK Flexibility Score: inf
ROOT
ATOM      1  C   UNL A   1      31.889  29.912  25.382  1.00  0.00     0.116 C 
ENDROOT
BRANCH   1   2
ATOM      2  N   UNL A   1      30.950  29.902  24.287  1.00  0.00    -0.354 N 
ATOM      3  C   UNL A   1      30.779  28.989  23.294  1.00  0.00     0.242 C 
ATOM      4  O   UNL A   1      29.749  29.084  22.615  1.00  0.00    -0.273 OA
ATOM      5  H   UNL A   1      30.341  30.675  24.254  1.00  0.00     0.163 HD
BRANCH   3   6
ATOM      6  C   UNL A   1      31.676  27.746  23.152  1.00  0.00     0.177 C 
ATOM      7  N   UNL A   1      31.113  26.468  22.681  1.00  0.00    -0.324 N 
ATOM      8  C   UNL A   1      31.836  25.981  21.506  1.00  0.00     0.152 C 
ATOM      9  C   UNL A   1      33.192  26.678  21.615  1.00  0.00     0.136 C 
ATOM     10  C   UNL A   1      32.855  28.041  22.208  1.00  0.00     0.069 C 
BRANCH   7  11
ATOM     11  C   UNL A   1      30.197  25.842  23.513  1.00  0.00     0.254 C 
ATOM     12  O   UNL A   1      29.056  26.296  23.624  1.00  0.00    -0.269 OA
BRANCH  11  13
ATOM     13  C   UNL A   1      30.547  24.700  24.412  1.00  0.00     0.041 A 
ATOM     14  C   UNL A   1      31.770  22.644  24.880  1.00  0.00     0.083 A 
ATOM     15  C   UNL A   1      31.592  22.842  26.253  1.00  0.00     0.022 A 
ATOM     16  C   UNL A   1      31.241  23.569  23.972  1.00  0.00     0.035 A 
ATOM     17  C   UNL A   1      30.886  23.957  26.709  1.00  0.00     0.002 A 
ATOM     18  C   UNL A   1      30.371  24.880  25.794  1.00  0.00     0.014 A 
BRANCH  14  19
ATOM     19  S   UNL A   1      32.541  21.133  24.310  1.00  0.00     0.243 S 
ATOM     20  O   UNL A   1      32.075  20.909  22.960  1.00  0.00    -0.207 OA
ATOM     21  O   UNL A   1      32.274  20.143  25.337  1.00  0.00    -0.207 OA
BRANCH  19  22
ATOM     22  N   UNL A   1      34.252  21.373  24.272  1.00  0.00    -0.198 NA
BRANCH  22  23
ATOM     23  C   UNL A   1      34.665  22.784  23.939  1.00  0.00     0.099 C 
ATOM     24  C   UNL A   1      35.395  23.484  25.066  1.00  0.00     0.022 C 
ENDBRANCH  22  23
BRANCH  22  25
ATOM     25  C   UNL A   1      35.082  20.887  25.423  1.00  0.00     0.099 C 
ATOM     26  C   UNL A   1      36.333  20.124  25.007  1.00  0.00     0.022 C 
ENDBRANCH  22  25
ENDBRANCH  19  22
ENDBRANCH  14  19
ENDBRANCH  11  13
ENDBRANCH   7  11
BRANCH   9  27
ATOM     27  O   UNL A   1      34.045  25.969  22.513  1.00  0.00    -0.391 OA
ATOM     28  H   UNL A   1      34.647  25.401  22.006  1.00  0.00     0.211 HD
ENDBRANCH   9  27
ENDBRANCH   3   6
ENDBRANCH   1   2
BRANCH   1  29
ATOM     29  C   UNL A   1      31.561  28.879  26.449  1.00  0.00     0.023 C 
BRANCH  29  30
ATOM     30  C   UNL A   1      32.684  27.877  26.714  1.00  0.00     0.023 C 
BRANCH  30  31
ATOM     31  C   UNL A   1      34.021  28.490  27.117  1.00  0.00     0.116 C 
BRANCH  31  32
ATOM     32  N   UNL A   1      33.900  29.825  27.687  1.00  0.00    -0.352 N 
ATOM     33  C   UNL A   1      34.862  30.554  28.343  1.00  0.00     0.251 C 
ATOM     34  H   UNL A   1      33.021  30.257  27.591  1.00  0.00     0.163 HD
ATOM     35  O   UNL A   1      34.592  31.641  28.841  1.00  0.00    -0.269 OA
BRANCH  33  36
ATOM     36  C   UNL A   1      36.215  29.979  28.472  1.00  0.00     0.039 A 
ATOM     37  C   UNL A   1      37.097  30.085  27.396  1.00  0.00     0.014 A 
ATOM     38  C   UNL A   1      36.628  29.419  29.685  1.00  0.00     0.014 A 
ATOM     39  C   UNL A   1      38.426  29.693  27.561  1.00  0.00     0.010 A 
ATOM     40  C   UNL A   1      37.966  29.090  29.865  1.00  0.00     0.010 A 
ATOM     41  C   UNL A   1      38.878  29.229  28.808  1.00  0.00    -0.014 A 
BRANCH  41  42
ATOM     42  C   UNL A   1      40.305  28.893  29.031  1.00  0.00     0.031 A 
ATOM     43  C   UNL A   1      41.235  29.921  29.608  1.00  0.00     0.074 A 
ATOM     44  C   UNL A   1      40.774  27.689  28.650  1.00  0.00     0.049 A 
ATOM     45  N   UNL A   1      42.523  29.846  29.814  1.00  0.00    -0.248 NA
ATOM     46  C   UNL A   1      40.641  31.216  29.973  1.00  0.00     0.031 C 
ATOM     47  C   UNL A   1      39.976  26.624  28.036  1.00  0.00     0.029 A 
ATOM     48  N   UNL A   1      42.037  27.160  28.717  1.00  0.00    -0.354 N 
ATOM     49  C   UNL A   1      42.897  31.085  30.319  1.00  0.00     0.074 A 
ATOM     50  C   UNL A   1      41.708  31.910  30.337  1.00  0.00     0.031 C 
ATOM     51  C   UNL A   1      40.763  25.560  27.812  1.00  0.00     0.029 A 
ATOM     52  C   UNL A   1      42.124  25.876  28.232  1.00  0.00     0.049 A 
ATOM     53  H   UNL A   1      42.809  27.653  29.077  1.00  0.00     0.167 HD
ATOM     54  C   UNL A   1      44.115  31.490  30.753  1.00  0.00     0.037 A 
ATOM     55  C   UNL A   1      43.183  25.048  28.142  1.00  0.00     0.037 A 
ATOM     56  C   UNL A   1      45.288  30.659  30.752  1.00  0.00     0.049 A 
ATOM     57  C   UNL A   1      44.525  25.519  28.627  1.00  0.00     0.074 A 
ATOM     58  C   UNL A   1      46.558  30.956  31.214  1.00  0.00     0.029 A 
ATOM     59  N   UNL A   1      45.334  29.361  30.264  1.00  0.00    -0.354 N 
ATOM     60  N   UNL A   1      44.852  26.676  29.150  1.00  0.00    -0.248 NA
ATOM     61  C   UNL A   1      45.642  24.571  28.512  1.00  0.00     0.031 C 
ATOM     62  C   UNL A   1      47.380  29.848  30.978  1.00  0.00     0.029 A 
ATOM     63  C   UNL A   1      46.614  28.848  30.400  1.00  0.00     0.049 A 
ATOM     64  H   UNL A   1      44.570  28.875  29.877  1.00  0.00     0.167 HD
ATOM     65  C   UNL A   1      46.206  26.589  29.449  1.00  0.00     0.074 A 
ATOM     66  C   UNL A   1      46.636  25.262  29.054  1.00  0.00     0.031 C 
ATOM     67  C   UNL A   1      47.021  27.522  30.003  1.00  0.00     0.037 A 
BRANCH  54  68
ATOM     68  C   UNL A   1      44.221  32.900  31.263  1.00  0.00     0.058 A 
ATOM     69  C   UNL A   1      44.526  33.970  30.404  1.00  0.00     0.135 A 
ATOM     70  C   UNL A   1      44.043  33.186  32.626  1.00  0.00     0.135 A 
ATOM     71  F   UNL A   1      44.723  33.749  29.095  1.00  0.00    -0.206 F 
ATOM     72  C   UNL A   1      44.700  35.263  30.886  1.00  0.00     0.059 A 
ATOM     73  C   UNL A   1      44.186  34.477  33.125  1.00  0.00     0.059 A 
ATOM     74  F   UNL A   1      43.750  32.201  33.490  1.00  0.00    -0.206 F 
ATOM     75  C   UNL A   1      44.539  35.504  32.251  1.00  0.00     0.060 A 
BRANCH  75  76
ATOM     76  S   UNL A   1      44.811  37.177  32.872  1.00  0.00     0.124 S 
ATOM     77  O   UNL A   1      46.180  37.430  32.432  1.00  0.00    -0.237 OA
ATOM     78  O   UNL A   1      43.775  37.941  32.184  1.00  0.00    -0.237 OA
ATOM     79  O   UNL A   1      44.629  37.037  34.312  1.00  0.00    -0.744 OA
ENDBRANCH  75  76
ENDBRANCH  54  68
BRANCH  55  80
ATOM     80  C   UNL A   1      42.999  23.672  27.613  1.00  0.00     0.058 A 
ATOM     81  C   UNL A   1      42.608  22.628  28.464  1.00  0.00     0.135 A 
ATOM     82  C   UNL A   1      43.168  23.380  26.252  1.00  0.00     0.135 A 
ATOM     83  F   UNL A   1      42.438  22.860  29.775  1.00  0.00    -0.206 F 
ATOM     84  C   UNL A   1      42.395  21.340  27.986  1.00  0.00     0.059 A 
ATOM     85  C   UNL A   1      42.942  22.103  25.746  1.00  0.00     0.059 A 
ATOM     86  F   UNL A   1      43.526  24.349  25.395  1.00  0.00    -0.206 F 
ATOM     87  C   UNL A   1      42.559  21.088  26.623  1.00  0.00     0.060 A 
BRANCH  87  88
ATOM     88  S   UNL A   1      42.208  19.428  26.002  1.00  0.00     0.124 S 
ATOM     89  O   UNL A   1      43.031  19.384  24.800  1.00  0.00    -0.237 OA
ATOM     90  O   UNL A   1      42.648  18.586  27.110  1.00  0.00    -0.237 OA
ATOM     91  O   UNL A   1      40.765  19.453  25.780  1.00  0.00    -0.744 OA
ENDBRANCH  87  88
ENDBRANCH  55  80
BRANCH  67  92
ATOM     92  C   UNL A   1      48.451  27.131  30.239  1.00  0.00     0.058 A 
ATOM     93  C   UNL A   1      49.447  27.369  29.280  1.00  0.00     0.135 A 
ATOM     94  C   UNL A   1      48.838  26.557  31.460  1.00  0.00     0.135 A 
ATOM     95  F   UNL A   1      49.126  27.908  28.093  1.00  0.00    -0.206 F 
ATOM     96  C   UNL A   1      50.775  27.033  29.515  1.00  0.00     0.059 A 
ATOM     97  C   UNL A   1      50.164  26.233  31.727  1.00  0.00     0.059 A 
ATOM     98  F   UNL A   1      47.924  26.317  32.415  1.00  0.00    -0.206 F 
ATOM     99  C   UNL A   1      51.125  26.465  30.742  1.00  0.00     0.060 A 
BRANCH  99 100
ATOM    100  S   UNL A   1      52.858  26.068  31.053  1.00  0.00     0.124 S 
ATOM    101  O   UNL A   1      53.397  26.025  29.697  1.00  0.00    -0.237 OA
ATOM    102  O   UNL A   1      53.297  27.191  31.874  1.00  0.00    -0.237 OA
ATOM    103  O   UNL A   1      52.792  24.783  31.743  1.00  0.00    -0.744 OA
ENDBRANCH  99 100
ENDBRANCH  67  92
ENDBRANCH  41  42
ENDBRANCH  33  36
ENDBRANCH  31  32
ENDBRANCH  30  31
ENDBRANCH  29  30
ENDBRANCH   1  29
TORSDOF 21
ENDMDL
