MODEL 1
REMARK VINA RESULT:     -11.5      0.000      0.000
REMARK SMILES Cc1ccc(NC(=O)C[C@H]([NH2+]Cc2cccnc2)C(=O)NCCCCNC(=O)c2ccc(-c3c4nc(c(-c5c(F)cc(S(=O)(=O)[O-])cc5F)c5ccc([nH]5)c(-c5c(F)cc(S(=O)(=O)[O-])cc5F)c5nc(c(-c6c(F)cc(S(=O)(=O)[O-])cc6F)c6ccc3[nH]6)C=C5)C=C4)cc2)cc1Cl
REMARK SMILES IDX 23 1 22 2 21 3 19 4 20 5 10 7 9 8 7 9 6 10 8 12 5 13 1 14
REMARK SMILES IDX 2 15 3 16 96 17 4 18 95 19 97 20 11 21 12 24 13 25 14 26
REMARK SMILES IDX 18 27 15 28 17 29 16 30 24 31 25 32 26 33 27 34 28 36 29 37
REMARK SMILES IDX 30 38 94 39 31 40 93 41 32 42 33 43 34 44 87 45 35 46 92 47
REMARK SMILES IDX 86 48 88 49 36 50 91 51 85 52 84 53 37 55 71 56 50 57 70 58
REMARK SMILES IDX 51 59 54 60 69 61 89 62 52 63 53 64 68 66 90 67 55 68 38 69
REMARK SMILES IDX 39 70 48 71 40 72 41 73 47 74 49 75 42 76 43 77 44 78 45 79
REMARK SMILES IDX 46 80 72 81 73 82 82 83 74 84 75 85 81 86 83 87 76 88 77 89
REMARK SMILES IDX 78 90 79 91 80 92 56 93 57 94 66 95 58 96 59 97 65 98 67 99
REMARK SMILES IDX 60 100 61 101 62 102 63 103 64 104
REMARK H PARENT 21 6 6 11 11 22 11 23 26 35 88 54 54 65
REMARK Flexibility Score: inf
ROOT
ATOM      1  C   UNL A   1      32.069  26.782  26.576  1.00  0.00     0.023 C 
ENDROOT
BRANCH   1   2
ATOM      2  C   UNL A   1      30.782  26.221  25.968  1.00  0.00     0.116 C 
BRANCH   2   3
ATOM      3  N   UNL A   1      30.304  25.044  26.694  1.00  0.00    -0.351 N 
ATOM      4  C   UNL A   1      30.610  23.724  26.767  1.00  0.00     0.278 C 
ATOM      5  O   UNL A   1      29.878  23.058  27.520  1.00  0.00    -0.268 OA
ATOM      6  H   UNL A   1      29.558  25.272  27.294  1.00  0.00     0.163 HD
BRANCH   4   7
ATOM      7  C   UNL A   1      31.715  22.956  25.972  1.00  0.00     0.282 C 
BRANCH   7   8
ATOM      8  C   UNL A   1      31.294  22.301  24.676  1.00  0.00     0.175 C 
BRANCH   8   9
ATOM      9  C   UNL A   1      31.780  22.529  23.253  1.00  0.00     0.230 C 
ATOM     10  N   UNL A   1      32.212  23.607  22.578  1.00  0.00    -0.326 N 
ATOM     11  H   UNL A   1      32.491  23.336  21.674  1.00  0.00     0.169 HD
ATOM     12  O   UNL A   1      31.829  21.490  22.557  1.00  0.00    -0.274 OA
BRANCH  10  13
ATOM     13  C   UNL A   1      32.398  24.991  22.725  1.00  0.00     0.042 A 
ATOM     14  C   UNL A   1      33.315  29.203  23.283  1.00  0.00     0.046 C 
ATOM     15  C   UNL A   1      32.991  27.751  23.098  1.00  0.00    -0.032 A 
ATOM     16  C   UNL A   1      33.934  26.766  23.407  1.00  0.00     0.007 A 
ATOM     17  C   UNL A   1      31.753  27.338  22.611  1.00  0.00     0.046 A 
ATOM     18  C   UNL A   1      33.641  25.408  23.217  1.00  0.00     0.026 A 
ATOM     19  C   UNL A   1      31.469  25.977  22.459  1.00  0.00     0.047 A 
ATOM     20  Cl  UNL A   1      30.510  28.469  22.197  1.00  0.00    -0.084 Cl
ENDBRANCH  10  13
ENDBRANCH   8   9
ENDBRANCH   7   8
BRANCH   7  21
ATOM     21  N   UNL A   1      32.570  22.231  26.923  1.00  0.00    -0.332 N 
ATOM     22  H   UNL A   1      31.951  21.710  27.544  1.00  0.00     0.347 HD
ATOM     23  H   UNL A   1      33.135  22.963  27.353  1.00  0.00     0.347 HD
BRANCH  21  24
ATOM     24  C   UNL A   1      33.551  21.288  26.411  1.00  0.00     0.299 C 
BRANCH  24  25
ATOM     25  C   UNL A   1      34.693  22.036  25.762  1.00  0.00     0.024 A 
ATOM     26  C   UNL A   1      35.258  21.627  24.548  1.00  0.00     0.013 A 
ATOM     27  C   UNL A   1      35.180  23.220  26.312  1.00  0.00     0.120 A 
ATOM     28  C   UNL A   1      36.224  22.416  23.928  1.00  0.00     0.021 A 
ATOM     29  N   UNL A   1      36.134  23.997  25.745  1.00  0.00    -0.264 NA
ATOM     30  C   UNL A   1      36.617  23.586  24.554  1.00  0.00     0.111 A 
ENDBRANCH  24  25
ENDBRANCH  21  24
ENDBRANCH   7  21
ENDBRANCH   4   7
ENDBRANCH   2   3
ENDBRANCH   1   2
BRANCH   1  31
ATOM     31  C   UNL A   1      32.084  28.260  26.924  1.00  0.00     0.023 C 
BRANCH  31  32
ATOM     32  C   UNL A   1      33.464  28.892  26.996  1.00  0.00     0.116 C 
BRANCH  32  33
ATOM     33  N   UNL A   1      33.521  30.176  27.687  1.00  0.00    -0.352 N 
ATOM     34  C   UNL A   1      34.589  30.746  28.355  1.00  0.00     0.251 C 
ATOM     35  H   UNL A   1      32.691  30.705  27.676  1.00  0.00     0.163 HD
ATOM     36  O   UNL A   1      34.465  31.829  28.918  1.00  0.00    -0.269 OA
BRANCH  34  37
ATOM     37  C   UNL A   1      35.865  29.997  28.441  1.00  0.00     0.039 A 
ATOM     38  C   UNL A   1      36.747  30.026  27.357  1.00  0.00     0.014 A 
ATOM     39  C   UNL A   1      36.241  29.384  29.635  1.00  0.00     0.014 A 
ATOM     40  C   UNL A   1      38.055  29.560  27.522  1.00  0.00     0.010 A 
ATOM     41  C   UNL A   1      37.571  29.031  29.830  1.00  0.00     0.010 A 
ATOM     42  C   UNL A   1      38.500  29.128  28.782  1.00  0.00    -0.014 A 
BRANCH  42  43
ATOM     43  C   UNL A   1      39.926  28.796  29.047  1.00  0.00     0.031 A 
ATOM     44  C   UNL A   1      40.849  29.848  29.606  1.00  0.00     0.074 A 
ATOM     45  C   UNL A   1      40.421  27.594  28.681  1.00  0.00     0.049 A 
ATOM     46  N   UNL A   1      42.146  29.811  29.765  1.00  0.00    -0.248 NA
ATOM     47  C   UNL A   1      40.237  31.132  29.989  1.00  0.00     0.031 C 
ATOM     48  C   UNL A   1      39.656  26.511  28.056  1.00  0.00     0.029 A 
ATOM     49  N   UNL A   1      41.694  27.086  28.764  1.00  0.00    -0.354 N 
ATOM     50  C   UNL A   1      42.508  31.074  30.219  1.00  0.00     0.074 A 
ATOM     51  C   UNL A   1      41.302  31.870  30.264  1.00  0.00     0.031 C 
ATOM     52  C   UNL A   1      40.465  25.459  27.846  1.00  0.00     0.029 A 
ATOM     53  C   UNL A   1      41.815  25.802  28.281  1.00  0.00     0.049 A 
ATOM     54  H   UNL A   1      42.452  27.592  29.136  1.00  0.00     0.167 HD
ATOM     55  C   UNL A   1      43.730  31.523  30.591  1.00  0.00     0.037 A 
ATOM     56  C   UNL A   1      42.890  24.996  28.195  1.00  0.00     0.037 A 
ATOM     57  C   UNL A   1      44.912  30.706  30.625  1.00  0.00     0.049 A 
ATOM     58  C   UNL A   1      44.223  25.496  28.682  1.00  0.00     0.074 A 
ATOM     59  C   UNL A   1      46.173  31.036  31.089  1.00  0.00     0.029 A 
ATOM     60  N   UNL A   1      44.976  29.391  30.191  1.00  0.00    -0.354 N 
ATOM     61  N   UNL A   1      44.531  26.671  29.177  1.00  0.00    -0.248 NA
ATOM     62  C   UNL A   1      45.357  24.563  28.599  1.00  0.00     0.031 C 
ATOM     63  C   UNL A   1      47.007  29.927  30.912  1.00  0.00     0.029 A 
ATOM     64  C   UNL A   1      46.256  28.898  30.368  1.00  0.00     0.049 A 
ATOM     65  H   UNL A   1      44.222  28.883  29.812  1.00  0.00     0.167 HD
ATOM     66  C   UNL A   1      45.883  26.606  29.495  1.00  0.00     0.074 A 
ATOM     67  C   UNL A   1      46.334  25.276  29.142  1.00  0.00     0.031 C 
ATOM     68  C   UNL A   1      46.680  27.563  30.030  1.00  0.00     0.037 A 
BRANCH  55  69
ATOM     69  C   UNL A   1      43.844  32.960  31.017  1.00  0.00     0.058 A 
ATOM     70  C   UNL A   1      44.061  33.989  30.086  1.00  0.00     0.135 A 
ATOM     71  C   UNL A   1      43.707  33.317  32.368  1.00  0.00     0.135 A 
ATOM     72  F   UNL A   1      44.216  33.701  28.784  1.00  0.00    -0.206 F 
ATOM     73  C   UNL A   1      44.168  35.317  30.483  1.00  0.00     0.059 A 
ATOM     74  C   UNL A   1      43.784  34.642  32.785  1.00  0.00     0.059 A 
ATOM     75  F   UNL A   1      43.501  32.372  33.299  1.00  0.00    -0.206 F 
ATOM     76  C   UNL A   1      44.031  35.634  31.835  1.00  0.00     0.060 A 
BRANCH  76  77
ATOM     77  S   UNL A   1      44.166  37.363  32.335  1.00  0.00     0.124 S 
ATOM     78  O   UNL A   1      45.550  37.423  32.794  1.00  0.00    -0.237 OA
ATOM     79  O   UNL A   1      43.881  38.073  31.092  1.00  0.00    -0.237 OA
ATOM     80  O   UNL A   1      43.152  37.496  33.375  1.00  0.00    -0.744 OA
ENDBRANCH  76  77
ENDBRANCH  55  69
BRANCH  56  81
ATOM     81  C   UNL A   1      42.754  23.612  27.664  1.00  0.00     0.058 A 
ATOM     82  C   UNL A   1      42.853  23.362  26.287  1.00  0.00     0.135 A 
ATOM     83  C   UNL A   1      42.511  22.521  28.510  1.00  0.00     0.135 A 
ATOM     84  F   UNL A   1      43.078  24.376  25.438  1.00  0.00    -0.206 F 
ATOM     85  C   UNL A   1      42.689  22.085  25.763  1.00  0.00     0.059 A 
ATOM     86  C   UNL A   1      42.366  21.228  28.012  1.00  0.00     0.059 A 
ATOM     87  F   UNL A   1      42.425  22.703  29.837  1.00  0.00    -0.206 F 
ATOM     88  C   UNL A   1      42.443  21.023  26.634  1.00  0.00     0.060 A 
BRANCH  88  89
ATOM     89  S   UNL A   1      42.262  19.361  25.949  1.00  0.00     0.124 S 
ATOM     90  O   UNL A   1      42.803  18.541  27.025  1.00  0.00    -0.237 OA
ATOM     91  O   UNL A   1      40.819  19.269  25.738  1.00  0.00    -0.237 OA
ATOM     92  O   UNL A   1      43.062  19.415  24.729  1.00  0.00    -0.744 OA
ENDBRANCH  88  89
ENDBRANCH  56  81
BRANCH  68  93
ATOM     93  C   UNL A   1      48.109  27.195  30.309  1.00  0.00     0.058 A 
ATOM     94  C   UNL A   1      49.111  27.352  29.341  1.00  0.00     0.135 A 
ATOM     95  C   UNL A   1      48.487  26.738  31.582  1.00  0.00     0.135 A 
ATOM     96  F   UNL A   1      48.797  27.781  28.107  1.00  0.00    -0.206 F 
ATOM     97  C   UNL A   1      50.440  27.052  29.618  1.00  0.00     0.059 A 
ATOM     98  C   UNL A   1      49.813  26.454  31.889  1.00  0.00     0.059 A 
ATOM     99  F   UNL A   1      47.566  26.582  32.545  1.00  0.00    -0.206 F 
ATOM    100  C   UNL A   1      50.781  26.604  30.896  1.00  0.00     0.060 A 
BRANCH 100 101
ATOM    101  S   UNL A   1      52.515  26.258  31.261  1.00  0.00     0.124 S 
ATOM    102  O   UNL A   1      52.433  24.917  31.830  1.00  0.00    -0.237 OA
ATOM    103  O   UNL A   1      53.139  26.351  29.944  1.00  0.00    -0.237 OA
ATOM    104  O   UNL A   1      52.882  27.317  32.196  1.00  0.00    -0.744 OA
ENDBRANCH 100 101
ENDBRANCH  68  93
ENDBRANCH  42  43
ENDBRANCH  34  37
ENDBRANCH  32  33
ENDBRANCH  31  32
ENDBRANCH   1  31
TORSDOF 20
ENDMDL
MODEL 2
REMARK VINA RESULT:     -11.2      2.808      3.987
REMARK SMILES Cc1ccc(NC(=O)C[C@H]([NH2+]Cc2cccnc2)C(=O)NCCCCNC(=O)c2ccc(-c3c4nc(c(-c5c(F)cc(S(=O)(=O)[O-])cc5F)c5ccc([nH]5)c(-c5c(F)cc(S(=O)(=O)[O-])cc5F)c5nc(c(-c6c(F)cc(S(=O)(=O)[O-])cc6F)c6ccc3[nH]6)C=C5)C=C4)cc2)cc1Cl
REMARK SMILES IDX 23 1 22 2 21 3 19 4 20 5 10 7 9 8 7 9 6 10 8 12 5 13 1 14
REMARK SMILES IDX 2 15 3 16 96 17 4 18 95 19 97 20 11 21 12 24 13 25 14 26
REMARK SMILES IDX 18 27 15 28 17 29 16 30 24 31 25 32 26 33 27 34 28 36 29 37
REMARK SMILES IDX 30 38 94 39 31 40 93 41 32 42 33 43 34 44 87 45 35 46 92 47
REMARK SMILES IDX 86 48 88 49 36 50 91 51 85 52 84 53 37 55 71 56 50 57 70 58
REMARK SMILES IDX 51 59 54 60 69 61 89 62 52 63 53 64 68 66 90 67 55 68 38 69
REMARK SMILES IDX 39 70 48 71 40 72 41 73 47 74 49 75 42 76 43 77 44 78 45 79
REMARK SMILES IDX 46 80 72 81 73 82 82 83 74 84 75 85 81 86 83 87 76 88 77 89
REMARK SMILES IDX 78 90 79 91 80 92 56 93 57 94 66 95 58 96 59 97 65 98 67 99
REMARK SMILES IDX 60 100 61 101 62 102 63 103 64 104
REMARK H PARENT 21 6 6 11 11 22 11 23 26 35 88 54 54 65
REMARK Flexibility Score: inf
ROOT
ATOM      1  C   UNL A   1      34.297  28.518  26.291  1.00  0.00     0.023 C 
ENDROOT
BRANCH   1   2
ATOM      2  C   UNL A   1      33.466  29.394  25.352  1.00  0.00     0.116 C 
BRANCH   2   3
ATOM      3  N   UNL A   1      33.739  29.098  23.945  1.00  0.00    -0.351 N 
ATOM      4  C   UNL A   1      33.575  28.053  23.096  1.00  0.00     0.278 C 
ATOM      5  O   UNL A   1      34.012  28.239  21.947  1.00  0.00    -0.268 OA
ATOM      6  H   UNL A   1      34.153  29.867  23.491  1.00  0.00     0.163 HD
BRANCH   4   7
ATOM      7  C   UNL A   1      32.971  26.648  23.418  1.00  0.00     0.282 C 
BRANCH   7   8
ATOM      8  C   UNL A   1      31.587  26.621  24.027  1.00  0.00     0.175 C 
BRANCH   8   9
ATOM      9  C   UNL A   1      30.506  25.555  23.970  1.00  0.00     0.230 C 
ATOM     10  N   UNL A   1      30.503  24.221  24.134  1.00  0.00    -0.326 N 
ATOM     11  H   UNL A   1      29.579  23.886  24.069  1.00  0.00     0.169 HD
ATOM     12  O   UNL A   1      29.356  26.003  23.762  1.00  0.00    -0.274 OA
BRANCH  10  13
ATOM     13  C   UNL A   1      31.371  23.143  24.366  1.00  0.00     0.042 A 
ATOM     14  C   UNL A   1      34.024  19.718  24.733  1.00  0.00     0.046 C 
ATOM     15  C   UNL A   1      33.102  20.894  24.614  1.00  0.00    -0.032 A 
ATOM     16  C   UNL A   1      32.463  21.179  23.403  1.00  0.00     0.007 A 
ATOM     17  C   UNL A   1      32.859  21.741  25.693  1.00  0.00     0.046 A 
ATOM     18  C   UNL A   1      31.615  22.289  23.282  1.00  0.00     0.026 A 
ATOM     19  C   UNL A   1      31.985  22.825  25.562  1.00  0.00     0.047 A 
ATOM     20  Cl  UNL A   1      33.594  21.486  27.238  1.00  0.00    -0.084 Cl
ENDBRANCH  10  13
ENDBRANCH   8   9
ENDBRANCH   7   8
BRANCH   7  21
ATOM     21  N   UNL A   1      34.032  25.785  23.958  1.00  0.00    -0.332 N 
ATOM     22  H   UNL A   1      33.743  25.507  24.896  1.00  0.00     0.347 HD
ATOM     23  H   UNL A   1      34.873  26.358  23.892  1.00  0.00     0.347 HD
BRANCH  21  24
ATOM     24  C   UNL A   1      34.383  24.568  23.243  1.00  0.00     0.299 C 
BRANCH  24  25
ATOM     25  C   UNL A   1      35.367  23.759  24.056  1.00  0.00     0.024 A 
ATOM     26  C   UNL A   1      36.107  22.709  23.501  1.00  0.00     0.013 A 
ATOM     27  C   UNL A   1      35.638  24.082  25.384  1.00  0.00     0.120 A 
ATOM     28  C   UNL A   1      37.090  22.073  24.256  1.00  0.00     0.021 A 
ATOM     29  N   UNL A   1      36.571  23.470  26.151  1.00  0.00    -0.264 NA
ATOM     30  C   UNL A   1      37.291  22.493  25.560  1.00  0.00     0.111 A 
ENDBRANCH  24  25
ENDBRANCH  21  24
ENDBRANCH   7  21
ENDBRANCH   4   7
ENDBRANCH   2   3
ENDBRANCH   1   2
BRANCH   1  31
ATOM     31  C   UNL A   1      34.579  29.065  27.679  1.00  0.00     0.023 C 
BRANCH  31  32
ATOM     32  C   UNL A   1      35.269  30.419  27.711  1.00  0.00     0.116 C 
BRANCH  32  33
ATOM     33  N   UNL A   1      35.415  31.008  29.038  1.00  0.00    -0.352 N 
ATOM     34  C   UNL A   1      36.483  30.909  29.910  1.00  0.00     0.251 C 
ATOM     35  H   UNL A   1      34.653  31.547  29.354  1.00  0.00     0.163 HD
ATOM     36  O   UNL A   1      36.437  31.442  31.014  1.00  0.00    -0.269 OA
BRANCH  34  37
ATOM     37  C   UNL A   1      37.655  30.090  29.519  1.00  0.00     0.039 A 
ATOM     38  C   UNL A   1      38.035  30.041  28.175  1.00  0.00     0.014 A 
ATOM     39  C   UNL A   1      38.448  29.488  30.495  1.00  0.00     0.014 A 
ATOM     40  C   UNL A   1      39.280  29.505  27.832  1.00  0.00     0.010 A 
ATOM     41  C   UNL A   1      39.730  29.064  30.166  1.00  0.00     0.010 A 
ATOM     42  C   UNL A   1      40.170  29.081  28.833  1.00  0.00    -0.014 A 
BRANCH  42  43
ATOM     43  C   UNL A   1      41.569  28.674  28.529  1.00  0.00     0.031 A 
ATOM     44  C   UNL A   1      42.661  29.713  28.495  1.00  0.00     0.074 A 
ATOM     45  C   UNL A   1      41.841  27.401  28.169  1.00  0.00     0.049 A 
ATOM     46  N   UNL A   1      43.903  29.595  28.106  1.00  0.00    -0.248 NA
ATOM     47  C   UNL A   1      42.290  31.078  28.906  1.00  0.00     0.031 C 
ATOM     48  C   UNL A   1      40.864  26.312  28.081  1.00  0.00     0.029 A 
ATOM     49  N   UNL A   1      43.022  26.810  27.790  1.00  0.00    -0.354 N 
ATOM     50  C   UNL A   1      44.446  30.873  28.180  1.00  0.00     0.074 A 
ATOM     51  C   UNL A   1      43.385  31.760  28.605  1.00  0.00     0.031 C 
ATOM     52  C   UNL A   1      41.491  25.183  27.711  1.00  0.00     0.029 A 
ATOM     53  C   UNL A   1      42.904  25.471  27.493  1.00  0.00     0.049 A 
ATOM     54  H   UNL A   1      43.875  27.299  27.737  1.00  0.00     0.167 HD
ATOM     55  C   UNL A   1      45.718  31.269  27.943  1.00  0.00     0.037 A 
ATOM     56  C   UNL A   1      43.828  24.579  27.087  1.00  0.00     0.037 A 
ATOM     57  C   UNL A   1      46.790  30.372  27.602  1.00  0.00     0.049 A 
ATOM     58  C   UNL A   1      45.251  25.031  26.899  1.00  0.00     0.074 A 
ATOM     59  C   UNL A   1      48.135  30.658  27.449  1.00  0.00     0.029 A 
ATOM     60  N   UNL A   1      46.641  29.013  27.377  1.00  0.00    -0.354 N 
ATOM     61  N   UNL A   1      45.760  26.230  27.046  1.00  0.00    -0.248 NA
ATOM     62  C   UNL A   1      46.227  24.009  26.491  1.00  0.00     0.031 C 
ATOM     63  C   UNL A   1      48.796  29.474  27.106  1.00  0.00     0.029 A 
ATOM     64  C   UNL A   1      47.867  28.447  27.077  1.00  0.00     0.049 A 
ATOM     65  H   UNL A   1      45.788  28.522  27.423  1.00  0.00     0.167 HD
ATOM     66  C   UNL A   1      47.119  26.101  26.781  1.00  0.00     0.074 A 
ATOM     67  C   UNL A   1      47.355  24.706  26.470  1.00  0.00     0.031 C 
ATOM     68  C   UNL A   1      48.085  27.052  26.792  1.00  0.00     0.037 A 
BRANCH  55  69
ATOM     69  C   UNL A   1      46.028  32.734  28.069  1.00  0.00     0.058 A 
ATOM     70  C   UNL A   1      45.897  33.610  26.980  1.00  0.00     0.135 A 
ATOM     71  C   UNL A   1      46.432  33.274  29.301  1.00  0.00     0.135 A 
ATOM     72  F   UNL A   1      45.531  33.143  25.776  1.00  0.00    -0.206 F 
ATOM     73  C   UNL A   1      46.186  34.965  27.099  1.00  0.00     0.059 A 
ATOM     74  C   UNL A   1      46.701  34.631  29.450  1.00  0.00     0.059 A 
ATOM     75  F   UNL A   1      46.574  32.480  30.373  1.00  0.00    -0.206 F 
ATOM     76  C   UNL A   1      46.589  35.467  28.338  1.00  0.00     0.060 A 
BRANCH  76  77
ATOM     77  S   UNL A   1      46.955  37.228  28.479  1.00  0.00     0.124 S 
ATOM     78  O   UNL A   1      48.414  37.223  28.459  1.00  0.00    -0.237 OA
ATOM     79  O   UNL A   1      46.308  37.779  27.292  1.00  0.00    -0.237 OA
ATOM     80  O   UNL A   1      46.345  37.601  29.751  1.00  0.00    -0.744 OA
ENDBRANCH  76  77
ENDBRANCH  55  69
BRANCH  56  81
ATOM     81  C   UNL A   1      43.455  23.155  26.868  1.00  0.00     0.058 A 
ATOM     82  C   UNL A   1      43.368  22.631  25.569  1.00  0.00     0.135 A 
ATOM     83  C   UNL A   1      43.168  22.297  27.939  1.00  0.00     0.135 A 
ATOM     84  F   UNL A   1      43.627  23.416  24.512  1.00  0.00    -0.206 F 
ATOM     85  C   UNL A   1      42.983  21.315  25.337  1.00  0.00     0.059 A 
ATOM     86  C   UNL A   1      42.803  20.969  27.733  1.00  0.00     0.059 A 
ATOM     87  F   UNL A   1      43.255  22.743  29.202  1.00  0.00    -0.206 F 
ATOM     88  C   UNL A   1      42.699  20.492  26.427  1.00  0.00     0.060 A 
BRANCH  88  89
ATOM     89  S   UNL A   1      42.229  18.775  26.118  1.00  0.00     0.124 S 
ATOM     90  O   UNL A   1      43.164  18.400  25.065  1.00  0.00    -0.237 OA
ATOM     91  O   UNL A   1      42.452  18.154  27.421  1.00  0.00    -0.237 OA
ATOM     92  O   UNL A   1      40.830  18.880  25.716  1.00  0.00    -0.744 OA
ENDBRANCH  88  89
ENDBRANCH  56  81
BRANCH  68  93
ATOM     93  C   UNL A   1      49.491  26.612  26.504  1.00  0.00     0.058 A 
ATOM     94  C   UNL A   1      50.324  26.105  27.512  1.00  0.00     0.135 A 
ATOM     95  C   UNL A   1      49.988  26.643  25.191  1.00  0.00     0.135 A 
ATOM     96  F   UNL A   1      49.896  26.061  28.784  1.00  0.00    -0.206 F 
ATOM     97  C   UNL A   1      51.611  25.659  27.232  1.00  0.00     0.059 A 
ATOM     98  C   UNL A   1      51.262  26.181  24.884  1.00  0.00     0.059 A 
ATOM     99  F   UNL A   1      49.224  27.110  24.190  1.00  0.00    -0.206 F 
ATOM    100  C   UNL A   1      52.071  25.700  25.913  1.00  0.00     0.060 A 
BRANCH 100 101
ATOM    101  S   UNL A   1      53.727  25.078  25.551  1.00  0.00     0.124 S 
ATOM    102  O   UNL A   1      54.029  25.761  24.298  1.00  0.00    -0.237 OA
ATOM    103  O   UNL A   1      54.491  25.520  26.714  1.00  0.00    -0.237 OA
ATOM    104  O   UNL A   1      53.531  23.636  25.451  1.00  0.00    -0.744 OA
ENDBRANCH 100 101
ENDBRANCH  68  93
ENDBRANCH  42  43
ENDBRANCH  34  37
ENDBRANCH  32  33
ENDBRANCH  31  32
ENDBRANCH   1  31
TORSDOF 20
ENDMDL
MODEL 3
REMARK VINA RESULT:     -11.2      4.853     10.201
REMARK SMILES Cc1ccc(NC(=O)C[C@H]([NH2+]Cc2cccnc2)C(=O)NCCCCNC(=O)c2ccc(-c3c4nc(c(-c5c(F)cc(S(=O)(=O)[O-])cc5F)c5ccc([nH]5)c(-c5c(F)cc(S(=O)(=O)[O-])cc5F)c5nc(c(-c6c(F)cc(S(=O)(=O)[O-])cc6F)c6ccc3[nH]6)C=C5)C=C4)cc2)cc1Cl
REMARK SMILES IDX 23 1 22 2 21 3 19 4 20 5 10 7 9 8 7 9 6 10 8 12 5 13 1 14
REMARK SMILES IDX 2 15 3 16 96 17 4 18 95 19 97 20 11 21 12 24 13 25 14 26
REMARK SMILES IDX 18 27 15 28 17 29 16 30 24 31 25 32 26 33 27 34 28 36 29 37
REMARK SMILES IDX 30 38 94 39 31 40 93 41 32 42 33 43 34 44 87 45 35 46 92 47
REMARK SMILES IDX 86 48 88 49 36 50 91 51 85 52 84 53 37 55 71 56 50 57 70 58
REMARK SMILES IDX 51 59 54 60 69 61 89 62 52 63 53 64 68 66 90 67 55 68 38 69
REMARK SMILES IDX 39 70 48 71 40 72 41 73 47 74 49 75 42 76 43 77 44 78 45 79
REMARK SMILES IDX 46 80 72 81 73 82 82 83 74 84 75 85 81 86 83 87 76 88 77 89
REMARK SMILES IDX 78 90 79 91 80 92 56 93 57 94 66 95 58 96 59 97 65 98 67 99
REMARK SMILES IDX 60 100 61 101 62 102 63 103 64 104
REMARK H PARENT 21 6 6 11 11 22 11 23 26 35 88 54 54 65
REMARK Flexibility Score: inf
ROOT
ATOM      1  C   UNL A   1      38.056  21.839  25.768  1.00  0.00     0.023 C 
ENDROOT
BRANCH   1   2
ATOM      2  C   UNL A   1      36.899  21.292  24.929  1.00  0.00     0.116 C 
BRANCH   2   3
ATOM      3  N   UNL A   1      35.735  20.964  25.753  1.00  0.00    -0.351 N 
ATOM      4  C   UNL A   1      34.494  21.467  25.972  1.00  0.00     0.278 C 
ATOM      5  O   UNL A   1      33.829  20.861  26.831  1.00  0.00    -0.268 OA
ATOM      6  H   UNL A   1      35.896  20.158  26.295  1.00  0.00     0.163 HD
BRANCH   4   7
ATOM      7  C   UNL A   1      33.852  22.737  25.326  1.00  0.00     0.282 C 
BRANCH   7   8
ATOM      8  C   UNL A   1      33.732  22.750  23.818  1.00  0.00     0.175 C 
BRANCH   8   9
ATOM      9  C   UNL A   1      32.501  22.821  22.928  1.00  0.00     0.230 C 
ATOM     10  N   UNL A   1      31.656  23.807  22.585  1.00  0.00    -0.326 N 
ATOM     11  H   UNL A   1      31.001  23.465  21.934  1.00  0.00     0.169 HD
ATOM     12  O   UNL A   1      32.223  21.746  22.353  1.00  0.00    -0.274 OA
BRANCH  10  13
ATOM     13  C   UNL A   1      31.388  25.161  22.842  1.00  0.00     0.042 A 
ATOM     14  C   UNL A   1      30.243  29.249  23.780  1.00  0.00     0.046 C 
ATOM     15  C   UNL A   1      30.638  27.842  23.445  1.00  0.00    -0.032 A 
ATOM     16  C   UNL A   1      29.766  26.778  23.697  1.00  0.00     0.007 A 
ATOM     17  C   UNL A   1      31.879  27.548  22.884  1.00  0.00     0.046 A 
ATOM     18  C   UNL A   1      30.140  25.459  23.404  1.00  0.00     0.026 A 
ATOM     19  C   UNL A   1      32.220  26.229  22.569  1.00  0.00     0.047 A 
ATOM     20  Cl  UNL A   1      33.037  28.784  22.528  1.00  0.00    -0.084 Cl
ENDBRANCH  10  13
ENDBRANCH   8   9
ENDBRANCH   7   8
BRANCH   7  21
ATOM     21  N   UNL A   1      34.332  23.930  26.039  1.00  0.00    -0.332 N 
ATOM     22  H   UNL A   1      35.273  23.721  26.370  1.00  0.00     0.347 HD
ATOM     23  H   UNL A   1      33.622  24.090  26.755  1.00  0.00     0.347 HD
BRANCH  21  24
ATOM     24  C   UNL A   1      34.401  25.196  25.327  1.00  0.00     0.299 C 
BRANCH  24  25
ATOM     25  C   UNL A   1      33.485  26.205  25.981  1.00  0.00     0.024 A 
ATOM     26  C   UNL A   1      33.819  27.560  26.081  1.00  0.00     0.013 A 
ATOM     27  C   UNL A   1      32.223  25.834  26.443  1.00  0.00     0.120 A 
ATOM     28  C   UNL A   1      32.891  28.471  26.580  1.00  0.00     0.021 A 
ATOM     29  N   UNL A   1      31.308  26.692  26.954  1.00  0.00    -0.264 NA
ATOM     30  C   UNL A   1      31.658  27.995  26.989  1.00  0.00     0.111 A 
ENDBRANCH  24  25
ENDBRANCH  21  24
ENDBRANCH   7  21
ENDBRANCH   4   7
ENDBRANCH   2   3
ENDBRANCH   1   2
BRANCH   1  31
ATOM     31  C   UNL A   1      37.967  23.290  26.205  1.00  0.00     0.023 C 
BRANCH  31  32
ATOM     32  C   UNL A   1      39.240  23.862  26.805  1.00  0.00     0.116 C 
BRANCH  32  33
ATOM     33  N   UNL A   1      40.149  24.488  25.849  1.00  0.00    -0.352 N 
ATOM     34  C   UNL A   1      41.018  25.542  26.053  1.00  0.00     0.251 C 
ATOM     35  H   UNL A   1      40.140  24.109  24.940  1.00  0.00     0.163 HD
ATOM     36  O   UNL A   1      41.698  25.977  25.128  1.00  0.00    -0.269 OA
BRANCH  34  37
ATOM     37  C   UNL A   1      41.067  26.186  27.387  1.00  0.00     0.039 A 
ATOM     38  C   UNL A   1      42.167  26.980  27.721  1.00  0.00     0.014 A 
ATOM     39  C   UNL A   1      39.969  26.111  28.245  1.00  0.00     0.014 A 
ATOM     40  C   UNL A   1      42.104  27.803  28.849  1.00  0.00     0.010 A 
ATOM     41  C   UNL A   1      39.863  27.014  29.295  1.00  0.00     0.010 A 
ATOM     42  C   UNL A   1      40.921  27.883  29.604  1.00  0.00    -0.014 A 
BRANCH  42  43
ATOM     43  C   UNL A   1      40.746  28.875  30.699  1.00  0.00     0.031 A 
ATOM     44  C   UNL A   1      41.589  28.771  31.945  1.00  0.00     0.074 A 
ATOM     45  C   UNL A   1      39.758  29.793  30.631  1.00  0.00     0.049 A 
ATOM     46  N   UNL A   1      41.491  29.434  33.067  1.00  0.00    -0.248 NA
ATOM     47  C   UNL A   1      42.652  27.751  31.944  1.00  0.00     0.031 C 
ATOM     48  C   UNL A   1      38.817  29.952  29.519  1.00  0.00     0.029 A 
ATOM     49  N   UNL A   1      39.367  30.757  31.528  1.00  0.00    -0.354 N 
ATOM     50  C   UNL A   1      42.441  28.881  33.917  1.00  0.00     0.074 A 
ATOM     51  C   UNL A   1      43.074  27.797  33.198  1.00  0.00     0.031 C 
ATOM     52  C   UNL A   1      37.985  30.973  29.784  1.00  0.00     0.029 A 
ATOM     53  C   UNL A   1      38.301  31.516  31.100  1.00  0.00     0.049 A 
ATOM     54  H   UNL A   1      39.809  30.894  32.397  1.00  0.00     0.167 HD
ATOM     55  C   UNL A   1      42.778  29.258  35.173  1.00  0.00     0.037 A 
ATOM     56  C   UNL A   1      37.651  32.531  31.702  1.00  0.00     0.037 A 
ATOM     57  C   UNL A   1      42.207  30.388  35.855  1.00  0.00     0.049 A 
ATOM     58  C   UNL A   1      38.091  32.976  33.070  1.00  0.00     0.074 A 
ATOM     59  C   UNL A   1      42.557  30.918  37.084  1.00  0.00     0.029 A 
ATOM     60  N   UNL A   1      41.177  31.171  35.358  1.00  0.00    -0.354 N 
ATOM     61  N   UNL A   1      39.043  32.487  33.828  1.00  0.00    -0.248 NA
ATOM     62  C   UNL A   1      37.372  34.112  33.665  1.00  0.00     0.031 C 
ATOM     63  C   UNL A   1      41.720  32.009  37.342  1.00  0.00     0.029 A 
ATOM     64  C   UNL A   1      40.872  32.175  36.260  1.00  0.00     0.049 A 
ATOM     65  H   UNL A   1      40.729  31.033  34.492  1.00  0.00     0.167 HD
ATOM     66  C   UNL A   1      39.058  33.275  34.974  1.00  0.00     0.074 A 
ATOM     67  C   UNL A   1      38.025  34.276  34.808  1.00  0.00     0.031 C 
ATOM     68  C   UNL A   1      39.854  33.177  36.066  1.00  0.00     0.037 A 
BRANCH  55  69
ATOM     69  C   UNL A   1      43.832  28.455  35.884  1.00  0.00     0.058 A 
ATOM     70  C   UNL A   1      43.498  27.376  36.718  1.00  0.00     0.135 A 
ATOM     71  C   UNL A   1      45.193  28.750  35.707  1.00  0.00     0.135 A 
ATOM     72  F   UNL A   1      42.211  27.063  36.935  1.00  0.00    -0.206 F 
ATOM     73  C   UNL A   1      44.474  26.637  37.375  1.00  0.00     0.059 A 
ATOM     74  C   UNL A   1      46.189  28.006  36.333  1.00  0.00     0.059 A 
ATOM     75  F   UNL A   1      45.567  29.772  34.921  1.00  0.00    -0.206 F 
ATOM     76  C   UNL A   1      45.817  26.960  37.179  1.00  0.00     0.060 A 
BRANCH  76  77
ATOM     77  S   UNL A   1      47.074  25.987  38.034  1.00  0.00     0.124 S 
ATOM     78  O   UNL A   1      46.835  26.363  39.423  1.00  0.00    -0.237 OA
ATOM     79  O   UNL A   1      46.710  24.620  37.676  1.00  0.00    -0.237 OA
ATOM     80  O   UNL A   1      48.326  26.470  37.459  1.00  0.00    -0.744 OA
ENDBRANCH  76  77
ENDBRANCH  55  69
BRANCH  56  81
ATOM     81  C   UNL A   1      36.537  33.230  31.005  1.00  0.00     0.058 A 
ATOM     82  C   UNL A   1      36.802  34.145  29.974  1.00  0.00     0.135 A 
ATOM     83  C   UNL A   1      35.198  33.013  31.357  1.00  0.00     0.135 A 
ATOM     84  F   UNL A   1      38.069  34.391  29.607  1.00  0.00    -0.206 F 
ATOM     85  C   UNL A   1      35.781  34.840  29.335  1.00  0.00     0.059 A 
ATOM     86  C   UNL A   1      34.156  33.680  30.716  1.00  0.00     0.059 A 
ATOM     87  F   UNL A   1      34.889  32.134  32.324  1.00  0.00    -0.206 F 
ATOM     88  C   UNL A   1      34.460  34.602  29.715  1.00  0.00     0.060 A 
BRANCH  88  89
ATOM     89  S   UNL A   1      33.137  35.487  28.860  1.00  0.00     0.124 S 
ATOM     90  O   UNL A   1      32.482  34.405  28.136  1.00  0.00    -0.237 OA
ATOM     91  O   UNL A   1      32.382  36.063  29.969  1.00  0.00    -0.237 OA
ATOM     92  O   UNL A   1      33.860  36.453  28.038  1.00  0.00    -0.744 OA
ENDBRANCH  88  89
ENDBRANCH  56  81
BRANCH  68  93
ATOM     93  C   UNL A   1      39.674  34.203  37.147  1.00  0.00     0.058 A 
ATOM     94  C   UNL A   1      38.915  33.935  38.296  1.00  0.00     0.135 A 
ATOM     95  C   UNL A   1      40.319  35.447  37.059  1.00  0.00     0.135 A 
ATOM     96  F   UNL A   1      38.273  32.762  38.423  1.00  0.00    -0.206 F 
ATOM     97  C   UNL A   1      38.786  34.872  39.314  1.00  0.00     0.059 A 
ATOM     98  C   UNL A   1      40.224  36.390  38.075  1.00  0.00     0.059 A 
ATOM     99  F   UNL A   1      41.066  35.746  35.984  1.00  0.00    -0.206 F 
ATOM    100  C   UNL A   1      39.446  36.098  39.195  1.00  0.00     0.060 A 
BRANCH 100 101
ATOM    101  S   UNL A   1      39.310  37.292  40.542  1.00  0.00     0.124 S 
ATOM    102  O   UNL A   1      38.320  38.222  40.010  1.00  0.00    -0.237 OA
ATOM    103  O   UNL A   1      38.865  36.461  41.657  1.00  0.00    -0.237 OA
ATOM    104  O   UNL A   1      40.665  37.818  40.665  1.00  0.00    -0.744 OA
ENDBRANCH 100 101
ENDBRANCH  68  93
ENDBRANCH  42  43
ENDBRANCH  34  37
ENDBRANCH  32  33
ENDBRANCH  31  32
ENDBRANCH   1  31
TORSDOF 20
ENDMDL
