MODEL 1
REMARK VINA RESULT:     -12.2      0.000      0.000
REMARK SMILES O=C(NCCCCNC(=O)c1cccc(NC(=O)c2ccc(N3C(=O)CCC3=O)cc2)c1)c1ccc(-c2c3nc(c(-c4c(F)cc(S(=O)(=O)[O-])cc4F)c4ccc([nH]4)c(-c4c(F)cc(S(=O)(=O)[O-])cc4F)c4nc(c(-c5c(F)cc(S(=O)(=O)[O-])cc5F)c5ccc2[nH]5)C=C4)C=C3)cc1
REMARK SMILES IDX 5 1 4 2 3 3 1 4 2 5 33 7 34 8 98 9 35 10 97 11 36 12 37 13
REMARK SMILES IDX 38 14 91 15 39 16 96 17 90 18 92 19 40 20 95 21 89 22 88 23
REMARK SMILES IDX 41 25 75 26 54 27 74 28 55 29 58 30 73 31 93 32 56 33 57 34
REMARK SMILES IDX 72 36 94 37 59 38 42 39 43 40 52 41 44 42 45 43 51 44 53 45
REMARK SMILES IDX 46 46 47 47 48 48 49 49 50 50 76 51 77 52 86 53 78 54 79 55
REMARK SMILES IDX 85 56 87 57 80 58 81 59 82 60 83 61 84 62 60 63 61 64 70 65
REMARK SMILES IDX 62 66 63 67 69 68 71 69 64 70 65 71 66 72 67 73 68 74 6 75
REMARK SMILES IDX 7 76 8 77 9 78 10 80 11 81 12 82 32 83 13 84 15 85 14 86
REMARK SMILES IDX 16 87 17 88 18 90 19 91 20 92 31 93 21 94 30 95 22 96 23 97
REMARK SMILES IDX 24 98 28 99 25 100 26 101 27 102 29 103
REMARK H PARENT 3 6 92 24 58 35 8 79 16 89
REMARK Flexibility Score: inf
ROOT
ATOM      1  C   UNL A   1      34.029  27.954  25.420  1.00  0.00     0.023 C 
ENDROOT
BRANCH   1   2
ATOM      2  C   UNL A   1      33.751  28.115  26.908  1.00  0.00     0.116 C 
BRANCH   2   3
ATOM      3  N   UNL A   1      33.596  29.505  27.312  1.00  0.00    -0.352 N 
ATOM      4  O   UNL A   1      34.149  31.444  28.323  1.00  0.00    -0.269 OA
ATOM      5  C   UNL A   1      34.502  30.338  27.927  1.00  0.00     0.251 C 
ATOM      6  H   UNL A   1      32.718  29.905  27.118  1.00  0.00     0.163 HD
BRANCH   5   7
ATOM      7  C   UNL A   1      35.891  29.876  28.136  1.00  0.00     0.039 A 
ATOM      8  C   UNL A   1      36.280  29.337  29.364  1.00  0.00     0.014 A 
ATOM      9  C   UNL A   1      36.823  30.021  27.105  1.00  0.00     0.014 A 
ATOM     10  C   UNL A   1      37.628  29.121  29.623  1.00  0.00     0.010 A 
ATOM     11  C   UNL A   1      38.164  29.700  27.336  1.00  0.00     0.010 A 
ATOM     12  C   UNL A   1      38.586  29.291  28.612  1.00  0.00    -0.014 A 
BRANCH  12  13
ATOM     13  C   UNL A   1      40.014  28.999  28.904  1.00  0.00     0.031 A 
ATOM     14  C   UNL A   1      40.887  29.998  29.614  1.00  0.00     0.074 A 
ATOM     15  C   UNL A   1      40.515  27.800  28.546  1.00  0.00     0.049 A 
ATOM     16  N   UNL A   1      42.144  29.893  29.965  1.00  0.00    -0.248 NA
ATOM     17  C   UNL A   1      40.275  31.287  29.971  1.00  0.00     0.031 C 
ATOM     18  C   UNL A   1      39.766  26.750  27.849  1.00  0.00     0.029 A 
ATOM     19  N   UNL A   1      41.757  27.251  28.731  1.00  0.00    -0.354 N 
ATOM     20  C   UNL A   1      42.482  31.104  30.557  1.00  0.00     0.074 A 
ATOM     21  C   UNL A   1      41.303  31.943  30.493  1.00  0.00     0.031 C 
ATOM     22  C   UNL A   1      40.544  25.668  27.716  1.00  0.00     0.029 A 
ATOM     23  C   UNL A   1      41.868  25.968  28.251  1.00  0.00     0.049 A 
ATOM     24  H   UNL A   1      42.499  27.730  29.167  1.00  0.00     0.167 HD
ATOM     25  C   UNL A   1      43.664  31.480  31.106  1.00  0.00     0.037 A 
ATOM     26  C   UNL A   1      42.919  25.129  28.226  1.00  0.00     0.037 A 
ATOM     27  C   UNL A   1      44.829  30.632  31.172  1.00  0.00     0.049 A 
ATOM     28  C   UNL A   1      44.225  25.578  28.813  1.00  0.00     0.074 A 
ATOM     29  C   UNL A   1      46.061  30.903  31.742  1.00  0.00     0.029 A 
ATOM     30  N   UNL A   1      44.912  29.352  30.640  1.00  0.00    -0.354 N 
ATOM     31  N   UNL A   1      44.516  26.716  29.396  1.00  0.00    -0.248 NA
ATOM     32  C   UNL A   1      45.344  24.633  28.738  1.00  0.00     0.031 C 
ATOM     33  C   UNL A   1      46.905  29.813  31.502  1.00  0.00     0.029 A 
ATOM     34  C   UNL A   1      46.181  28.833  30.843  1.00  0.00     0.049 A 
ATOM     35  H   UNL A   1      44.176  28.881  30.185  1.00  0.00     0.167 HD
ATOM     36  C   UNL A   1      45.846  26.610  29.789  1.00  0.00     0.074 A 
ATOM     37  C   UNL A   1      46.296  25.295  29.380  1.00  0.00     0.031 C 
ATOM     38  C   UNL A   1      46.618  27.519  30.434  1.00  0.00     0.037 A 
BRANCH  25  39
ATOM     39  C   UNL A   1      43.770  32.884  31.647  1.00  0.00     0.058 A 
ATOM     40  C   UNL A   1      43.452  33.200  32.978  1.00  0.00     0.135 A 
ATOM     41  C   UNL A   1      44.212  33.931  30.820  1.00  0.00     0.135 A 
ATOM     42  F   UNL A   1      43.016  32.244  33.815  1.00  0.00    -0.206 F 
ATOM     43  C   UNL A   1      43.523  34.506  33.455  1.00  0.00     0.059 A 
ATOM     44  C   UNL A   1      44.321  35.239  31.284  1.00  0.00     0.059 A 
ATOM     45  F   UNL A   1      44.537  33.691  29.539  1.00  0.00    -0.206 F 
ATOM     46  C   UNL A   1      43.953  35.520  32.598  1.00  0.00     0.060 A 
BRANCH  46  47
ATOM     47  S   UNL A   1      44.006  37.214  33.222  1.00  0.00     0.124 S 
ATOM     48  O   UNL A   1      42.802  37.257  34.047  1.00  0.00    -0.237 OA
ATOM     49  O   UNL A   1      45.271  37.241  33.949  1.00  0.00    -0.237 OA
ATOM     50  O   UNL A   1      43.965  38.025  32.010  1.00  0.00    -0.744 OA
ENDBRANCH  46  47
ENDBRANCH  25  39
BRANCH  26  51
ATOM     51  C   UNL A   1      42.759  23.773  27.636  1.00  0.00     0.058 A 
ATOM     52  C   UNL A   1      42.938  23.560  26.262  1.00  0.00     0.135 A 
ATOM     53  C   UNL A   1      42.474  22.657  28.440  1.00  0.00     0.135 A 
ATOM     54  F   UNL A   1      43.208  24.597  25.452  1.00  0.00    -0.206 F 
ATOM     55  C   UNL A   1      42.835  22.291  25.703  1.00  0.00     0.059 A 
ATOM     56  C   UNL A   1      42.396  21.375  27.909  1.00  0.00     0.059 A 
ATOM     57  F   UNL A   1      42.313  22.807  29.764  1.00  0.00    -0.206 F 
ATOM     58  C   UNL A   1      42.572  21.203  26.538  1.00  0.00     0.060 A 
BRANCH  58  59
ATOM     59  S   UNL A   1      42.509  19.553  25.809  1.00  0.00     0.124 S 
ATOM     60  O   UNL A   1      43.460  19.680  24.711  1.00  0.00    -0.237 OA
ATOM     61  O   UNL A   1      42.927  18.711  26.925  1.00  0.00    -0.237 OA
ATOM     62  O   UNL A   1      41.109  19.412  25.417  1.00  0.00    -0.744 OA
ENDBRANCH  58  59
ENDBRANCH  26  51
BRANCH  38  63
ATOM     63  C   UNL A   1      48.022  27.102  30.787  1.00  0.00     0.058 A 
ATOM     64  C   UNL A   1      49.113  27.370  29.948  1.00  0.00     0.135 A 
ATOM     65  C   UNL A   1      48.278  26.451  32.005  1.00  0.00     0.135 A 
ATOM     66  F   UNL A   1      48.926  27.983  28.768  1.00  0.00    -0.206 F 
ATOM     67  C   UNL A   1      50.406  26.980  30.288  1.00  0.00     0.059 A 
ATOM     68  C   UNL A   1      49.565  26.080  32.380  1.00  0.00     0.059 A 
ATOM     69  F   UNL A   1      47.271  26.176  32.851  1.00  0.00    -0.206 F 
ATOM     70  C   UNL A   1      50.621  26.336  31.508  1.00  0.00     0.060 A 
BRANCH  70  71
ATOM     71  S   UNL A   1      52.304  25.856  31.949  1.00  0.00     0.124 S 
ATOM     72  O   UNL A   1      52.528  26.646  33.155  1.00  0.00    -0.237 OA
ATOM     73  O   UNL A   1      52.176  24.416  32.148  1.00  0.00    -0.237 OA
ATOM     74  O   UNL A   1      53.088  26.254  30.784  1.00  0.00    -0.744 OA
ENDBRANCH  70  71
ENDBRANCH  38  63
ENDBRANCH  12  13
ENDBRANCH   5   7
ENDBRANCH   2   3
ENDBRANCH   1   2
BRANCH   1  75
ATOM     75  C   UNL A   1      33.456  29.055  24.533  1.00  0.00     0.023 C 
BRANCH  75  76
ATOM     76  C   UNL A   1      33.319  28.693  23.059  1.00  0.00     0.116 C 
BRANCH  76  77
ATOM     77  N   UNL A   1      31.996  28.991  22.533  1.00  0.00    -0.352 N 
ATOM     78  C   UNL A   1      30.847  28.246  22.577  1.00  0.00     0.251 C 
ATOM     79  H   UNL A   1      31.914  29.859  22.075  1.00  0.00     0.163 HD
ATOM     80  O   UNL A   1      29.866  28.583  21.921  1.00  0.00    -0.269 OA
BRANCH  78  81
ATOM     81  C   UNL A   1      30.779  27.027  23.406  1.00  0.00     0.041 A 
ATOM     82  C   UNL A   1      30.544  27.168  24.773  1.00  0.00     0.014 A 
ATOM     83  C   UNL A   1      30.989  25.759  22.849  1.00  0.00     0.040 A 
ATOM     84  C   UNL A   1      30.519  26.037  25.578  1.00  0.00     0.003 A 
ATOM     85  C   UNL A   1      30.877  24.609  23.636  1.00  0.00     0.042 A 
ATOM     86  C   UNL A   1      30.699  24.770  25.013  1.00  0.00     0.026 A 
BRANCH  85  87
ATOM     87  N   UNL A   1      30.950  23.376  22.955  1.00  0.00    -0.322 N 
ATOM     88  C   UNL A   1      31.958  22.456  22.780  1.00  0.00     0.255 C 
ATOM     89  H   UNL A   1      30.107  23.122  22.516  1.00  0.00     0.170 HD
ATOM     90  O   UNL A   1      31.790  21.484  22.047  1.00  0.00    -0.269 OA
BRANCH  88  91
ATOM     91  C   UNL A   1      33.249  22.596  23.462  1.00  0.00     0.040 A 
ATOM     92  C   UNL A   1      33.385  22.030  24.727  1.00  0.00     0.016 A 
ATOM     93  C   UNL A   1      34.334  23.223  22.845  1.00  0.00     0.016 A 
ATOM     94  C   UNL A   1      34.644  21.989  25.328  1.00  0.00     0.027 A 
ATOM     95  C   UNL A   1      35.589  23.194  23.465  1.00  0.00     0.027 A 
ATOM     96  C   UNL A   1      35.772  22.540  24.695  1.00  0.00     0.052 A 
BRANCH  96  97
ATOM     97  N   UNL A   1      37.065  22.400  25.274  1.00  0.00    -0.251 N 
ATOM     98  C   UNL A   1      37.802  21.239  25.268  1.00  0.00     0.234 C 
ATOM     99  C   UNL A   1      37.710  23.408  25.957  1.00  0.00     0.234 C 
ATOM    100  O   UNL A   1      37.529  20.155  24.766  1.00  0.00    -0.274 OA
ATOM    101  C   UNL A   1      39.124  21.497  25.925  1.00  0.00     0.111 C 
ATOM    102  C   UNL A   1      39.009  22.889  26.490  1.00  0.00     0.111 C 
ATOM    103  O   UNL A   1      37.321  24.542  26.205  1.00  0.00    -0.274 OA
ENDBRANCH  96  97
ENDBRANCH  88  91
ENDBRANCH  85  87
ENDBRANCH  78  81
ENDBRANCH  76  77
ENDBRANCH  75  76
ENDBRANCH   1  75
TORSDOF 17
ENDMDL
MODEL 2
REMARK VINA RESULT:     -12.1      2.287      2.993
REMARK SMILES O=C(NCCCCNC(=O)c1cccc(NC(=O)c2ccc(N3C(=O)CCC3=O)cc2)c1)c1ccc(-c2c3nc(c(-c4c(F)cc(S(=O)(=O)[O-])cc4F)c4ccc([nH]4)c(-c4c(F)cc(S(=O)(=O)[O-])cc4F)c4nc(c(-c5c(F)cc(S(=O)(=O)[O-])cc5F)c5ccc2[nH]5)C=C4)C=C3)cc1
REMARK SMILES IDX 5 1 4 2 3 3 1 4 2 5 33 7 34 8 98 9 35 10 97 11 36 12 37 13
REMARK SMILES IDX 38 14 91 15 39 16 96 17 90 18 92 19 40 20 95 21 89 22 88 23
REMARK SMILES IDX 41 25 75 26 54 27 74 28 55 29 58 30 73 31 93 32 56 33 57 34
REMARK SMILES IDX 72 36 94 37 59 38 42 39 43 40 52 41 44 42 45 43 51 44 53 45
REMARK SMILES IDX 46 46 47 47 48 48 49 49 50 50 76 51 77 52 86 53 78 54 79 55
REMARK SMILES IDX 85 56 87 57 80 58 81 59 82 60 83 61 84 62 60 63 61 64 70 65
REMARK SMILES IDX 62 66 63 67 69 68 71 69 64 70 65 71 66 72 67 73 68 74 6 75
REMARK SMILES IDX 7 76 8 77 9 78 10 80 11 81 12 82 32 83 13 84 15 85 14 86
REMARK SMILES IDX 16 87 17 88 18 90 19 91 20 92 31 93 21 94 30 95 22 96 23 97
REMARK SMILES IDX 24 98 28 99 25 100 26 101 27 102 29 103
REMARK H PARENT 3 6 92 24 58 35 8 79 16 89
REMARK Flexibility Score: inf
ROOT
ATOM      1  C   UNL A   1      33.965  27.706  25.274  1.00  0.00     0.023 C 
ENDROOT
BRANCH   1   2
ATOM      2  C   UNL A   1      33.517  28.174  26.652  1.00  0.00     0.116 C 
BRANCH   2   3
ATOM      3  N   UNL A   1      33.401  29.621  26.753  1.00  0.00    -0.352 N 
ATOM      4  O   UNL A   1      33.896  31.694  27.492  1.00  0.00    -0.269 OA
ATOM      5  C   UNL A   1      34.228  30.518  27.390  1.00  0.00     0.251 C 
ATOM      6  H   UNL A   1      32.620  30.013  26.302  1.00  0.00     0.163 HD
BRANCH   5   7
ATOM      7  C   UNL A   1      35.499  30.044  27.979  1.00  0.00     0.039 A 
ATOM      8  C   UNL A   1      35.537  29.571  29.291  1.00  0.00     0.014 A 
ATOM      9  C   UNL A   1      36.671  30.114  27.222  1.00  0.00     0.014 A 
ATOM     10  C   UNL A   1      36.764  29.346  29.905  1.00  0.00     0.010 A 
ATOM     11  C   UNL A   1      37.896  29.784  27.812  1.00  0.00     0.010 A 
ATOM     12  C   UNL A   1      37.957  29.442  29.172  1.00  0.00    -0.014 A 
BRANCH  12  13
ATOM     13  C   UNL A   1      39.250  29.143  29.843  1.00  0.00     0.031 A 
ATOM     14  C   UNL A   1      39.671  29.872  31.090  1.00  0.00     0.074 A 
ATOM     15  C   UNL A   1      40.037  28.177  29.328  1.00  0.00     0.049 A 
ATOM     16  N   UNL A   1      40.754  29.717  31.811  1.00  0.00    -0.248 NA
ATOM     17  C   UNL A   1      38.765  30.917  31.593  1.00  0.00     0.031 C 
ATOM     18  C   UNL A   1      39.736  27.403  28.121  1.00  0.00     0.029 A 
ATOM     19  N   UNL A   1      41.233  27.666  29.758  1.00  0.00    -0.354 N 
ATOM     20  C   UNL A   1      40.675  30.658  32.832  1.00  0.00     0.074 A 
ATOM     21  C   UNL A   1      39.450  31.399  32.621  1.00  0.00     0.031 C 
ATOM     22  C   UNL A   1      40.691  26.480  27.939  1.00  0.00     0.029 A 
ATOM     23  C   UNL A   1      41.708  26.643  28.972  1.00  0.00     0.049 A 
ATOM     24  H   UNL A   1      41.708  27.998  30.555  1.00  0.00     0.167 HD
ATOM     25  C   UNL A   1      41.542  30.878  33.851  1.00  0.00     0.037 A 
ATOM     26  C   UNL A   1      42.842  25.925  29.058  1.00  0.00     0.037 A 
ATOM     27  C   UNL A   1      42.756  30.125  34.054  1.00  0.00     0.049 A 
ATOM     28  C   UNL A   1      43.801  26.208  30.178  1.00  0.00     0.074 A 
ATOM     29  C   UNL A   1      43.682  30.243  35.076  1.00  0.00     0.029 A 
ATOM     30  N   UNL A   1      43.220  29.123  33.213  1.00  0.00    -0.354 N 
ATOM     31  N   UNL A   1      43.695  27.080  31.151  1.00  0.00    -0.248 NA
ATOM     32  C   UNL A   1      45.033  25.412  30.210  1.00  0.00     0.031 C 
ATOM     33  C   UNL A   1      44.733  29.356  34.822  1.00  0.00     0.029 A 
ATOM     34  C   UNL A   1      44.432  28.635  33.678  1.00  0.00     0.049 A 
ATOM     35  H   UNL A   1      42.757  28.804  32.405  1.00  0.00     0.167 HD
ATOM     36  C   UNL A   1      44.833  26.914  31.934  1.00  0.00     0.074 A 
ATOM     37  C   UNL A   1      45.607  25.855  31.320  1.00  0.00     0.031 C 
ATOM     38  C   UNL A   1      45.195  27.576  33.061  1.00  0.00     0.037 A 
BRANCH  25  39
ATOM     39  C   UNL A   1      41.229  32.004  34.805  1.00  0.00     0.058 A 
ATOM     40  C   UNL A   1      40.411  31.825  35.932  1.00  0.00     0.135 A 
ATOM     41  C   UNL A   1      41.773  33.283  34.594  1.00  0.00     0.135 A 
ATOM     42  F   UNL A   1      39.856  30.628  36.182  1.00  0.00    -0.206 F 
ATOM     43  C   UNL A   1      40.104  32.880  36.786  1.00  0.00     0.059 A 
ATOM     44  C   UNL A   1      41.506  34.346  35.453  1.00  0.00     0.059 A 
ATOM     45  F   UNL A   1      42.568  33.515  33.538  1.00  0.00    -0.206 F 
ATOM     46  C   UNL A   1      40.651  34.139  36.535  1.00  0.00     0.060 A 
BRANCH  46  47
ATOM     47  S   UNL A   1      40.216  35.506  37.632  1.00  0.00     0.124 S 
ATOM     48  O   UNL A   1      38.990  35.005  38.247  1.00  0.00    -0.237 OA
ATOM     49  O   UNL A   1      41.378  35.584  38.511  1.00  0.00    -0.237 OA
ATOM     50  O   UNL A   1      40.045  36.633  36.721  1.00  0.00    -0.744 OA
ENDBRANCH  46  47
ENDBRANCH  25  39
BRANCH  26  51
ATOM     51  C   UNL A   1      43.112  24.859  28.057  1.00  0.00     0.058 A 
ATOM     52  C   UNL A   1      43.765  25.152  26.851  1.00  0.00     0.135 A 
ATOM     53  C   UNL A   1      42.767  23.521  28.307  1.00  0.00     0.135 A 
ATOM     54  F   UNL A   1      44.111  26.418  26.566  1.00  0.00    -0.206 F 
ATOM     55  C   UNL A   1      44.062  24.159  25.925  1.00  0.00     0.059 A 
ATOM     56  C   UNL A   1      43.080  22.506  27.410  1.00  0.00     0.059 A 
ATOM     57  F   UNL A   1      42.157  23.187  29.455  1.00  0.00    -0.206 F 
ATOM     58  C   UNL A   1      43.722  22.836  26.219  1.00  0.00     0.060 A 
BRANCH  58  59
ATOM     59  S   UNL A   1      44.176  21.548  25.038  1.00  0.00     0.124 S 
ATOM     60  O   UNL A   1      43.147  20.545  25.287  1.00  0.00    -0.237 OA
ATOM     61  O   UNL A   1      44.087  22.255  23.765  1.00  0.00    -0.237 OA
ATOM     62  O   UNL A   1      45.528  21.178  25.447  1.00  0.00    -0.744 OA
ENDBRANCH  58  59
ENDBRANCH  26  51
BRANCH  38  63
ATOM     63  C   UNL A   1      46.467  27.138  33.737  1.00  0.00     0.058 A 
ATOM     64  C   UNL A   1      46.487  26.115  34.696  1.00  0.00     0.135 A 
ATOM     65  C   UNL A   1      47.691  27.734  33.390  1.00  0.00     0.135 A 
ATOM     66  F   UNL A   1      45.346  25.515  35.072  1.00  0.00    -0.206 F 
ATOM     67  C   UNL A   1      47.672  25.719  35.312  1.00  0.00     0.059 A 
ATOM     68  C   UNL A   1      48.890  27.332  33.968  1.00  0.00     0.059 A 
ATOM     69  F   UNL A   1      47.731  28.712  32.471  1.00  0.00    -0.206 F 
ATOM     70  C   UNL A   1      48.869  26.334  34.940  1.00  0.00     0.060 A 
BRANCH  70  71
ATOM     71  S   UNL A   1      50.401  25.795  35.728  1.00  0.00     0.124 S 
ATOM     72  O   UNL A   1      51.174  25.334  34.580  1.00  0.00    -0.237 OA
ATOM     73  O   UNL A   1      50.874  27.022  36.361  1.00  0.00    -0.237 OA
ATOM     74  O   UNL A   1      49.962  24.751  36.649  1.00  0.00    -0.744 OA
ENDBRANCH  70  71
ENDBRANCH  38  63
ENDBRANCH  12  13
ENDBRANCH   5   7
ENDBRANCH   2   3
ENDBRANCH   1   2
BRANCH   1  75
ATOM     75  C   UNL A   1      33.857  28.753  24.170  1.00  0.00     0.023 C 
BRANCH  75  76
ATOM     76  C   UNL A   1      33.477  28.210  22.797  1.00  0.00     0.116 C 
BRANCH  76  77
ATOM     77  N   UNL A   1      32.136  28.602  22.395  1.00  0.00    -0.352 N 
ATOM     78  C   UNL A   1      30.947  27.940  22.549  1.00  0.00     0.251 C 
ATOM     79  H   UNL A   1      32.073  29.474  21.942  1.00  0.00     0.163 HD
ATOM     80  O   UNL A   1      29.935  28.346  21.985  1.00  0.00    -0.269 OA
BRANCH  78  81
ATOM     81  C   UNL A   1      30.870  26.726  23.386  1.00  0.00     0.041 A 
ATOM     82  C   UNL A   1      30.572  26.875  24.740  1.00  0.00     0.014 A 
ATOM     83  C   UNL A   1      31.132  25.458  22.852  1.00  0.00     0.040 A 
ATOM     84  C   UNL A   1      30.537  25.751  25.555  1.00  0.00     0.003 A 
ATOM     85  C   UNL A   1      31.012  24.314  23.645  1.00  0.00     0.042 A 
ATOM     86  C   UNL A   1      30.770  24.483  25.011  1.00  0.00     0.026 A 
BRANCH  85  87
ATOM     87  N   UNL A   1      31.143  23.077  22.981  1.00  0.00    -0.322 N 
ATOM     88  C   UNL A   1      32.187  22.194  22.832  1.00  0.00     0.255 C 
ATOM     89  H   UNL A   1      30.317  22.785  22.532  1.00  0.00     0.170 HD
ATOM     90  O   UNL A   1      32.068  21.208  22.109  1.00  0.00    -0.269 OA
BRANCH  88  91
ATOM     91  C   UNL A   1      33.462  22.392  23.531  1.00  0.00     0.040 A 
ATOM     92  C   UNL A   1      33.609  21.826  24.795  1.00  0.00     0.016 A 
ATOM     93  C   UNL A   1      34.523  23.073  22.931  1.00  0.00     0.016 A 
ATOM     94  C   UNL A   1      34.861  21.842  25.412  1.00  0.00     0.027 A 
ATOM     95  C   UNL A   1      35.770  23.101  23.567  1.00  0.00     0.027 A 
ATOM     96  C   UNL A   1      35.969  22.449  24.796  1.00  0.00     0.052 A 
BRANCH  96  97
ATOM     97  N   UNL A   1      37.260  22.368  25.392  1.00  0.00    -0.251 N 
ATOM     98  C   UNL A   1      37.879  23.400  26.055  1.00  0.00     0.234 C 
ATOM     99  C   UNL A   1      38.062  21.249  25.328  1.00  0.00     0.234 C 
ATOM    100  O   UNL A   1      37.463  24.530  26.283  1.00  0.00    -0.274 OA
ATOM    101  C   UNL A   1      39.197  22.920  26.584  1.00  0.00     0.111 C 
ATOM    102  C   UNL A   1      39.370  21.544  25.995  1.00  0.00     0.111 C 
ATOM    103  O   UNL A   1      37.853  20.181  24.768  1.00  0.00    -0.274 OA
ENDBRANCH  96  97
ENDBRANCH  88  91
ENDBRANCH  85  87
ENDBRANCH  78  81
ENDBRANCH  76  77
ENDBRANCH  75  76
ENDBRANCH   1  75
TORSDOF 17
ENDMDL
MODEL 3
REMARK VINA RESULT:     -11.9      2.952      9.266
REMARK SMILES O=C(NCCCCNC(=O)c1cccc(NC(=O)c2ccc(N3C(=O)CCC3=O)cc2)c1)c1ccc(-c2c3nc(c(-c4c(F)cc(S(=O)(=O)[O-])cc4F)c4ccc([nH]4)c(-c4c(F)cc(S(=O)(=O)[O-])cc4F)c4nc(c(-c5c(F)cc(S(=O)(=O)[O-])cc5F)c5ccc2[nH]5)C=C4)C=C3)cc1
REMARK SMILES IDX 5 1 4 2 3 3 1 4 2 5 33 7 34 8 98 9 35 10 97 11 36 12 37 13
REMARK SMILES IDX 38 14 91 15 39 16 96 17 90 18 92 19 40 20 95 21 89 22 88 23
REMARK SMILES IDX 41 25 75 26 54 27 74 28 55 29 58 30 73 31 93 32 56 33 57 34
REMARK SMILES IDX 72 36 94 37 59 38 42 39 43 40 52 41 44 42 45 43 51 44 53 45
REMARK SMILES IDX 46 46 47 47 48 48 49 49 50 50 76 51 77 52 86 53 78 54 79 55
REMARK SMILES IDX 85 56 87 57 80 58 81 59 82 60 83 61 84 62 60 63 61 64 70 65
REMARK SMILES IDX 62 66 63 67 69 68 71 69 64 70 65 71 66 72 67 73 68 74 6 75
REMARK SMILES IDX 7 76 8 77 9 78 10 80 11 81 12 82 32 83 13 84 15 85 14 86
REMARK SMILES IDX 16 87 17 88 18 90 19 91 20 92 31 93 21 94 30 95 22 96 23 97
REMARK SMILES IDX 24 98 28 99 25 100 26 101 27 102 29 103
REMARK H PARENT 3 6 92 24 58 35 8 79 16 89
REMARK Flexibility Score: inf
ROOT
ATOM      1  C   UNL A   1      35.262  23.730  26.188  1.00  0.00     0.023 C 
ENDROOT
BRANCH   1   2
ATOM      2  C   UNL A   1      36.566  23.739  25.403  1.00  0.00     0.116 C 
BRANCH   2   3
ATOM      3  N   UNL A   1      37.481  22.681  25.806  1.00  0.00    -0.352 N 
ATOM      4  O   UNL A   1      39.411  21.782  26.552  1.00  0.00    -0.269 OA
ATOM      5  C   UNL A   1      38.712  22.781  26.413  1.00  0.00     0.251 C 
ATOM      6  H   UNL A   1      37.176  21.765  25.617  1.00  0.00     0.163 HD
BRANCH   5   7
ATOM      7  C   UNL A   1      39.198  24.103  26.861  1.00  0.00     0.039 A 
ATOM      8  C   UNL A   1      39.801  24.980  25.957  1.00  0.00     0.014 A 
ATOM      9  C   UNL A   1      39.086  24.452  28.210  1.00  0.00     0.014 A 
ATOM     10  C   UNL A   1      40.454  26.112  26.428  1.00  0.00     0.010 A 
ATOM     11  C   UNL A   1      39.652  25.648  28.663  1.00  0.00     0.010 A 
ATOM     12  C   UNL A   1      40.381  26.465  27.785  1.00  0.00    -0.014 A 
BRANCH  12  13
ATOM     13  C   UNL A   1      41.044  27.712  28.250  1.00  0.00     0.031 A 
ATOM     14  C   UNL A   1      42.531  27.904  28.115  1.00  0.00     0.074 A 
ATOM     15  C   UNL A   1      40.282  28.692  28.774  1.00  0.00     0.049 A 
ATOM     16  N   UNL A   1      43.263  28.938  28.449  1.00  0.00    -0.248 NA
ATOM     17  C   UNL A   1      43.300  26.791  27.538  1.00  0.00     0.031 C 
ATOM     18  C   UNL A   1      38.831  28.620  28.959  1.00  0.00     0.029 A 
ATOM     19  N   UNL A   1      40.611  29.943  29.229  1.00  0.00    -0.354 N 
ATOM     20  C   UNL A   1      44.576  28.592  28.150  1.00  0.00     0.074 A 
ATOM     21  C   UNL A   1      44.544  27.240  27.633  1.00  0.00     0.031 C 
ATOM     22  C   UNL A   1      38.388  29.793  29.435  1.00  0.00     0.029 A 
ATOM     23  C   UNL A   1      39.529  30.674  29.657  1.00  0.00     0.049 A 
ATOM     24  H   UNL A   1      41.534  30.286  29.246  1.00  0.00     0.167 HD
ATOM     25  C   UNL A   1      45.702  29.336  28.291  1.00  0.00     0.037 A 
ATOM     26  C   UNL A   1      39.458  31.909  30.186  1.00  0.00     0.037 A 
ATOM     27  C   UNL A   1      45.719  30.686  28.798  1.00  0.00     0.049 A 
ATOM     28  C   UNL A   1      40.721  32.700  30.359  1.00  0.00     0.074 A 
ATOM     29  C   UNL A   1      46.799  31.538  28.943  1.00  0.00     0.029 A 
ATOM     30  N   UNL A   1      44.605  31.377  29.258  1.00  0.00    -0.354 N 
ATOM     31  N   UNL A   1      41.950  32.369  30.042  1.00  0.00    -0.248 NA
ATOM     32  C   UNL A   1      40.590  34.031  30.962  1.00  0.00     0.031 C 
ATOM     33  C   UNL A   1      46.350  32.720  29.544  1.00  0.00     0.029 A 
ATOM     34  C   UNL A   1      44.978  32.633  29.711  1.00  0.00     0.049 A 
ATOM     35  H   UNL A   1      43.685  31.027  29.260  1.00  0.00     0.167 HD
ATOM     36  C   UNL A   1      42.736  33.467  30.377  1.00  0.00     0.074 A 
ATOM     37  C   UNL A   1      41.840  34.470  30.915  1.00  0.00     0.031 C 
ATOM     38  C   UNL A   1      44.076  33.627  30.243  1.00  0.00     0.037 A 
BRANCH  25  39
ATOM     39  C   UNL A   1      47.016  28.692  27.924  1.00  0.00     0.058 A 
ATOM     40  C   UNL A   1      47.811  28.022  28.868  1.00  0.00     0.135 A 
ATOM     41  C   UNL A   1      47.479  28.734  26.598  1.00  0.00     0.135 A 
ATOM     42  F   UNL A   1      47.425  27.955  30.152  1.00  0.00    -0.206 F 
ATOM     43  C   UNL A   1      49.037  27.461  28.522  1.00  0.00     0.059 A 
ATOM     44  C   UNL A   1      48.687  28.152  26.223  1.00  0.00     0.059 A 
ATOM     45  F   UNL A   1      46.761  29.354  25.649  1.00  0.00    -0.206 F 
ATOM     46  C   UNL A   1      49.470  27.536  27.198  1.00  0.00     0.060 A 
BRANCH  46  47
ATOM     47  S   UNL A   1      51.078  26.834  26.772  1.00  0.00     0.124 S 
ATOM     48  O   UNL A   1      51.971  27.622  27.617  1.00  0.00    -0.237 OA
ATOM     49  O   UNL A   1      50.919  25.434  27.153  1.00  0.00    -0.237 OA
ATOM     50  O   UNL A   1      51.191  27.082  25.339  1.00  0.00    -0.744 OA
ENDBRANCH  46  47
ENDBRANCH  25  39
BRANCH  26  51
ATOM     51  C   UNL A   1      38.135  32.467  30.569  1.00  0.00     0.058 A 
ATOM     52  C   UNL A   1      37.618  32.276  31.859  1.00  0.00     0.135 A 
ATOM     53  C   UNL A   1      37.383  33.242  29.670  1.00  0.00     0.135 A 
ATOM     54  F   UNL A   1      38.299  31.539  32.751  1.00  0.00    -0.206 F 
ATOM     55  C   UNL A   1      36.402  32.829  32.244  1.00  0.00     0.059 A 
ATOM     56  C   UNL A   1      36.179  33.829  30.043  1.00  0.00     0.059 A 
ATOM     57  F   UNL A   1      37.843  33.469  28.430  1.00  0.00    -0.206 F 
ATOM     58  C   UNL A   1      35.694  33.611  31.330  1.00  0.00     0.060 A 
BRANCH  58  59
ATOM     59  S   UNL A   1      34.150  34.379  31.866  1.00  0.00     0.124 S 
ATOM     60  O   UNL A   1      33.418  34.477  30.609  1.00  0.00    -0.237 OA
ATOM     61  O   UNL A   1      33.644  33.405  32.828  1.00  0.00    -0.237 OA
ATOM     62  O   UNL A   1      34.588  35.647  32.442  1.00  0.00    -0.744 OA
ENDBRANCH  58  59
ENDBRANCH  26  51
BRANCH  38  63
ATOM     63  C   UNL A   1      44.652  34.961  30.639  1.00  0.00     0.058 A 
ATOM     64  C   UNL A   1      45.148  35.206  31.929  1.00  0.00     0.135 A 
ATOM     65  C   UNL A   1      44.737  35.999  29.697  1.00  0.00     0.135 A 
ATOM     66  F   UNL A   1      45.085  34.252  32.872  1.00  0.00    -0.206 F 
ATOM     67  C   UNL A   1      45.679  36.444  32.280  1.00  0.00     0.059 A 
ATOM     68  C   UNL A   1      45.293  37.233  30.017  1.00  0.00     0.059 A 
ATOM     69  F   UNL A   1      44.285  35.817  28.446  1.00  0.00    -0.206 F 
ATOM     70  C   UNL A   1      45.748  37.451  31.316  1.00  0.00     0.060 A 
BRANCH  70  71
ATOM     71  S   UNL A   1      46.460  39.044  31.777  1.00  0.00     0.124 S 
ATOM     72  O   UNL A   1      45.277  39.782  32.207  1.00  0.00    -0.237 OA
ATOM     73  O   UNL A   1      47.395  38.674  32.834  1.00  0.00    -0.237 OA
ATOM     74  O   UNL A   1      47.076  39.513  30.539  1.00  0.00    -0.744 OA
ENDBRANCH  70  71
ENDBRANCH  38  63
ENDBRANCH  12  13
ENDBRANCH   5   7
ENDBRANCH   2   3
ENDBRANCH   1   2
BRANCH   1  75
ATOM     75  C   UNL A   1      34.972  22.437  26.945  1.00  0.00     0.023 C 
BRANCH  75  76
ATOM     76  C   UNL A   1      33.498  22.161  27.215  1.00  0.00     0.116 C 
BRANCH  76  77
ATOM     77  N   UNL A   1      33.008  20.996  26.495  1.00  0.00    -0.352 N 
ATOM     78  C   UNL A   1      32.402  20.914  25.270  1.00  0.00     0.251 C 
ATOM     79  H   UNL A   1      33.130  20.136  26.960  1.00  0.00     0.163 HD
ATOM     80  O   UNL A   1      31.894  19.860  24.901  1.00  0.00    -0.269 OA
BRANCH  78  81
ATOM     81  C   UNL A   1      32.344  22.094  24.384  1.00  0.00     0.041 A 
ATOM     82  C   UNL A   1      33.407  22.317  23.511  1.00  0.00     0.014 A 
ATOM     83  C   UNL A   1      31.274  22.996  24.446  1.00  0.00     0.040 A 
ATOM     84  C   UNL A   1      33.394  23.444  22.699  1.00  0.00     0.003 A 
ATOM     85  C   UNL A   1      31.210  24.083  23.571  1.00  0.00     0.042 A 
ATOM     86  C   UNL A   1      32.308  24.326  22.742  1.00  0.00     0.026 A 
BRANCH  85  87
ATOM     87  N   UNL A   1      30.022  24.842  23.604  1.00  0.00    -0.322 N 
ATOM     88  C   UNL A   1      29.691  26.049  24.175  1.00  0.00     0.255 C 
ATOM     89  H   UNL A   1      29.276  24.422  23.117  1.00  0.00     0.170 HD
ATOM     90  O   UNL A   1      28.532  26.457  24.136  1.00  0.00    -0.269 OA
BRANCH  88  91
ATOM     91  C   UNL A   1      30.699  26.886  24.834  1.00  0.00     0.040 A 
ATOM     92  C   UNL A   1      31.344  27.856  24.071  1.00  0.00     0.016 A 
ATOM     93  C   UNL A   1      30.969  26.762  26.199  1.00  0.00     0.016 A 
ATOM     94  C   UNL A   1      32.176  28.783  24.700  1.00  0.00     0.027 A 
ATOM     95  C   UNL A   1      31.821  27.685  26.818  1.00  0.00     0.027 A 
ATOM     96  C   UNL A   1      32.402  28.735  26.087  1.00  0.00     0.052 A 
BRANCH  96  97
ATOM     97  N   UNL A   1      33.171  29.747  26.728  1.00  0.00    -0.251 N 
ATOM     98  C   UNL A   1      34.456  29.579  27.186  1.00  0.00     0.234 C 
ATOM     99  C   UNL A   1      32.693  31.009  27.008  1.00  0.00     0.234 C 
ATOM    100  O   UNL A   1      35.176  28.589  27.117  1.00  0.00    -0.274 OA
ATOM    101  C   UNL A   1      34.948  30.877  27.751  1.00  0.00     0.111 C 
ATOM    102  C   UNL A   1      33.742  31.779  27.748  1.00  0.00     0.111 C 
ATOM    103  O   UNL A   1      31.581  31.476  26.797  1.00  0.00    -0.274 OA
ENDBRANCH  96  97
ENDBRANCH  88  91
ENDBRANCH  85  87
ENDBRANCH  78  81
ENDBRANCH  76  77
ENDBRANCH  75  76
ENDBRANCH   1  75
TORSDOF 17
ENDMDL
