MODEL 1
REMARK VINA RESULT:     -12.6      0.000      0.000
REMARK SMILES CC[C@@H]1CCCN(S(=O)(=O)c2cc(C(=O)NCCCCNC(=O)c3ccc(-c4c5nc(c(-c6c(F)cc(S(=O)(=O)[O-])cc6F)c6ccc([nH]6)c(-c6c(F)cc(S(=O)(=O)[O-])cc6F)c6nc(c(-c7c(F)cc(S(=O)(=O)[O-])cc7F)c7ccc4[nH]7)C=C6)C=C5)cc3)ccc2F)C1
REMARK SMILES IDX 18 1 17 2 16 3 14 4 15 5 13 7 11 8 12 9 92 10 91 11 93 12
REMARK SMILES IDX 90 13 8 14 9 15 10 16 7 17 3 18 4 19 94 20 5 21 6 22 2 23
REMARK SMILES IDX 1 24 19 25 20 26 21 27 22 28 23 30 24 31 25 32 89 33 26 34
REMARK SMILES IDX 88 35 27 36 28 37 29 38 82 39 30 40 87 41 81 42 83 43 31 44
REMARK SMILES IDX 86 45 80 46 79 47 32 49 66 50 45 51 65 52 46 53 49 54 64 55
REMARK SMILES IDX 84 56 47 57 48 58 63 60 85 61 50 62 33 63 34 64 43 65 35 66
REMARK SMILES IDX 36 67 42 68 44 69 37 70 38 71 39 72 40 73 41 74 67 75 68 76
REMARK SMILES IDX 77 77 69 78 70 79 76 80 78 81 71 82 72 83 73 84 74 85 75 86
REMARK SMILES IDX 51 87 52 88 61 89 53 90 54 91 60 92 62 93 55 94 56 95 57 96
REMARK SMILES IDX 58 97 59 98
REMARK H PARENT 16 6 21 29 83 48 49 59
REMARK Flexibility Score: inf
ROOT
ATOM      1  C   UNL A   1      39.584  21.866  26.186  1.00  0.00     0.023 C 
ENDROOT
BRANCH   1   2
ATOM      2  C   UNL A   1      38.122  22.288  26.020  1.00  0.00     0.116 C 
BRANCH   2   3
ATOM      3  N   UNL A   1      37.779  22.437  24.621  1.00  0.00    -0.352 N 
ATOM      4  C   UNL A   1      36.647  22.861  23.975  1.00  0.00     0.251 C 
ATOM      5  O   UNL A   1      36.698  22.930  22.747  1.00  0.00    -0.269 OA
ATOM      6  H   UNL A   1      38.506  22.182  24.009  1.00  0.00     0.163 HD
BRANCH   4   7
ATOM      7  C   UNL A   1      35.372  23.250  24.655  1.00  0.00     0.041 A 
ATOM      8  C   UNL A   1      33.108  24.130  24.376  1.00  0.00     0.119 A 
ATOM      9  C   UNL A   1      34.365  23.810  23.843  1.00  0.00     0.038 A 
ATOM     10  C   UNL A   1      32.843  23.879  25.714  1.00  0.00     0.143 A 
ATOM     11  C   UNL A   1      33.831  23.353  26.537  1.00  0.00     0.041 A 
ATOM     12  F   UNL A   1      31.650  24.145  26.261  1.00  0.00    -0.206 F 
ATOM     13  C   UNL A   1      35.080  23.018  26.004  1.00  0.00     0.017 A 
BRANCH   8  14
ATOM     14  S   UNL A   1      31.804  24.676  23.321  1.00  0.00     0.246 S 
ATOM     15  O   UNL A   1      30.683  23.771  23.464  1.00  0.00    -0.207 OA
ATOM     16  O   UNL A   1      32.374  24.914  22.009  1.00  0.00    -0.207 OA
BRANCH  14  17
ATOM     17  N   UNL A   1      31.316  26.223  23.938  1.00  0.00    -0.197 NA
ATOM     18  C   UNL A   1      32.145  28.460  24.744  1.00  0.00     0.004 C 
ATOM     19  C   UNL A   1      31.089  29.138  23.865  1.00  0.00     0.006 C 
ATOM     20  C   UNL A   1      32.522  27.105  24.120  1.00  0.00     0.106 C 
ATOM     21  C   UNL A   1      29.869  28.246  23.709  1.00  0.00     0.017 C 
ATOM     22  C   UNL A   1      30.255  26.892  23.128  1.00  0.00     0.102 C 
BRANCH  18  23
ATOM     23  C   UNL A   1      31.737  28.284  26.222  1.00  0.00     0.001 C 
ATOM     24  C   UNL A   1      31.994  29.505  27.092  1.00  0.00     0.004 C 
ENDBRANCH  18  23
ENDBRANCH  14  17
ENDBRANCH   8  14
ENDBRANCH   4   7
ENDBRANCH   2   3
ENDBRANCH   1   2
BRANCH   1  25
ATOM     25  C   UNL A   1      40.251  22.367  27.472  1.00  0.00     0.023 C 
BRANCH  25  26
ATOM     26  C   UNL A   1      41.571  23.109  27.276  1.00  0.00     0.116 C 
BRANCH  26  27
ATOM     27  N   UNL A   1      41.565  23.999  26.126  1.00  0.00    -0.352 N 
ATOM     28  C   UNL A   1      41.343  25.354  26.081  1.00  0.00     0.251 C 
ATOM     29  H   UNL A   1      41.746  23.571  25.258  1.00  0.00     0.163 HD
ATOM     30  O   UNL A   1      41.271  25.919  24.993  1.00  0.00    -0.269 OA
BRANCH  28  31
ATOM     31  C   UNL A   1      41.151  26.114  27.333  1.00  0.00     0.039 A 
ATOM     32  C   UNL A   1      42.141  27.020  27.719  1.00  0.00     0.014 A 
ATOM     33  C   UNL A   1      40.008  25.945  28.121  1.00  0.00     0.014 A 
ATOM     34  C   UNL A   1      41.957  27.795  28.865  1.00  0.00     0.010 A 
ATOM     35  C   UNL A   1      39.793  26.771  29.221  1.00  0.00     0.010 A 
ATOM     36  C   UNL A   1      40.766  27.702  29.607  1.00  0.00    -0.014 A 
BRANCH  36  37
ATOM     37  C   UNL A   1      40.536  28.600  30.767  1.00  0.00     0.031 A 
ATOM     38  C   UNL A   1      41.393  28.504  31.998  1.00  0.00     0.074 A 
ATOM     39  C   UNL A   1      39.535  29.500  30.708  1.00  0.00     0.049 A 
ATOM     40  N   UNL A   1      41.380  29.257  33.068  1.00  0.00    -0.248 NA
ATOM     41  C   UNL A   1      42.376  27.411  32.048  1.00  0.00     0.031 C 
ATOM     42  C   UNL A   1      38.592  29.639  29.595  1.00  0.00     0.029 A 
ATOM     43  N   UNL A   1      39.153  30.479  31.590  1.00  0.00    -0.354 N 
ATOM     44  C   UNL A   1      42.350  28.732  33.914  1.00  0.00     0.074 A 
ATOM     45  C   UNL A   1      42.886  27.557  33.261  1.00  0.00     0.031 C 
ATOM     46  C   UNL A   1      37.780  30.679  29.835  1.00  0.00     0.029 A 
ATOM     47  C   UNL A   1      38.122  31.264  31.128  1.00  0.00     0.049 A 
ATOM     48  H   UNL A   1      39.576  30.607  32.470  1.00  0.00     0.167 HD
ATOM     49  C   UNL A   1      42.776  29.203  35.110  1.00  0.00     0.037 A 
ATOM     50  C   UNL A   1      37.533  32.345  31.672  1.00  0.00     0.037 A 
ATOM     51  C   UNL A   1      42.245  30.383  35.745  1.00  0.00     0.049 A 
ATOM     52  C   UNL A   1      38.034  32.863  32.991  1.00  0.00     0.074 A 
ATOM     53  C   UNL A   1      42.647  30.977  36.929  1.00  0.00     0.029 A 
ATOM     54  N   UNL A   1      41.194  31.145  35.254  1.00  0.00    -0.354 N 
ATOM     55  N   UNL A   1      39.003  32.399  33.744  1.00  0.00    -0.248 NA
ATOM     56  C   UNL A   1      37.370  34.057  33.529  1.00  0.00     0.031 C 
ATOM     57  C   UNL A   1      41.808  32.070  37.177  1.00  0.00     0.029 A 
ATOM     58  C   UNL A   1      40.918  32.189  36.122  1.00  0.00     0.049 A 
ATOM     59  H   UNL A   1      40.715  30.969  34.412  1.00  0.00     0.167 HD
ATOM     60  C   UNL A   1      39.072  33.248  34.842  1.00  0.00     0.074 A 
ATOM     61  C   UNL A   1      38.063  34.270  34.640  1.00  0.00     0.031 C 
ATOM     62  C   UNL A   1      39.893  33.186  35.919  1.00  0.00     0.037 A 
BRANCH  49  63
ATOM     63  C   UNL A   1      43.881  28.452  35.804  1.00  0.00     0.058 A 
ATOM     64  C   UNL A   1      45.227  28.764  35.558  1.00  0.00     0.135 A 
ATOM     65  C   UNL A   1      43.609  27.394  36.688  1.00  0.00     0.135 A 
ATOM     66  F   UNL A   1      45.547  29.769  34.727  1.00  0.00    -0.206 F 
ATOM     67  C   UNL A   1      46.262  28.052  36.156  1.00  0.00     0.059 A 
ATOM     68  C   UNL A   1      44.628  26.687  37.320  1.00  0.00     0.059 A 
ATOM     69  F   UNL A   1      42.339  27.064  36.977  1.00  0.00    -0.206 F 
ATOM     70  C   UNL A   1      45.953  27.016  37.038  1.00  0.00     0.060 A 
BRANCH  70  71
ATOM     71  S   UNL A   1      47.306  26.137  37.847  1.00  0.00     0.124 S 
ATOM     72  O   UNL A   1      47.061  24.761  37.429  1.00  0.00    -0.237 OA
ATOM     73  O   UNL A   1      48.480  26.780  37.267  1.00  0.00    -0.237 OA
ATOM     74  O   UNL A   1      47.089  26.413  39.265  1.00  0.00    -0.744 OA
ENDBRANCH  70  71
ENDBRANCH  49  63
BRANCH  50  75
ATOM     75  C   UNL A   1      36.451  33.039  30.926  1.00  0.00     0.058 A 
ATOM     76  C   UNL A   1      36.730  33.818  29.793  1.00  0.00     0.135 A 
ATOM     77  C   UNL A   1      35.124  32.997  31.380  1.00  0.00     0.135 A 
ATOM     78  F   UNL A   1      37.986  33.900  29.326  1.00  0.00    -0.206 F 
ATOM     79  C   UNL A   1      35.741  34.560  29.159  1.00  0.00     0.059 A 
ATOM     80  C   UNL A   1      34.111  33.712  30.748  1.00  0.00     0.059 A 
ATOM     81  F   UNL A   1      34.807  32.257  32.453  1.00  0.00    -0.206 F 
ATOM     82  C   UNL A   1      34.436  34.509  29.651  1.00  0.00     0.060 A 
BRANCH  82  83
ATOM     83  S   UNL A   1      33.178  35.525  28.847  1.00  0.00     0.124 S 
ATOM     84  O   UNL A   1      32.459  34.528  28.059  1.00  0.00    -0.237 OA
ATOM     85  O   UNL A   1      32.455  36.077  29.987  1.00  0.00    -0.237 OA
ATOM     86  O   UNL A   1      33.961  36.487  28.078  1.00  0.00    -0.744 OA
ENDBRANCH  82  83
ENDBRANCH  50  75
BRANCH  62  87
ATOM     87  C   UNL A   1      39.732  34.250  36.970  1.00  0.00     0.058 A 
ATOM     88  C   UNL A   1      40.305  35.520  36.797  1.00  0.00     0.135 A 
ATOM     89  C   UNL A   1      39.037  34.002  38.166  1.00  0.00     0.135 A 
ATOM     90  F   UNL A   1      40.987  35.810  35.678  1.00  0.00    -0.206 F 
ATOM     91  C   UNL A   1      40.195  36.506  37.772  1.00  0.00     0.059 A 
ATOM     92  C   UNL A   1      38.890  34.984  39.141  1.00  0.00     0.059 A 
ATOM     93  F   UNL A   1      38.462  32.807  38.376  1.00  0.00    -0.206 F 
ATOM     94  C   UNL A   1      39.482  36.231  38.939  1.00  0.00     0.060 A 
BRANCH  94  95
ATOM     95  S   UNL A   1      39.300  37.541  40.167  1.00  0.00     0.124 S 
ATOM     96  O   UNL A   1      38.942  36.784  41.361  1.00  0.00    -0.237 OA
ATOM     97  O   UNL A   1      40.629  38.146  40.172  1.00  0.00    -0.237 OA
ATOM     98  O   UNL A   1      38.241  38.379  39.612  1.00  0.00    -0.744 OA
ENDBRANCH  94  95
ENDBRANCH  62  87
ENDBRANCH  36  37
ENDBRANCH  28  31
ENDBRANCH  26  27
ENDBRANCH  25  26
ENDBRANCH   1  25
TORSDOF 17
ENDMDL
MODEL 2
REMARK VINA RESULT:     -12.3      6.163      8.392
REMARK SMILES CC[C@@H]1CCCN(S(=O)(=O)c2cc(C(=O)NCCCCNC(=O)c3ccc(-c4c5nc(c(-c6c(F)cc(S(=O)(=O)[O-])cc6F)c6ccc([nH]6)c(-c6c(F)cc(S(=O)(=O)[O-])cc6F)c6nc(c(-c7c(F)cc(S(=O)(=O)[O-])cc7F)c7ccc4[nH]7)C=C6)C=C5)cc3)ccc2F)C1
REMARK SMILES IDX 18 1 17 2 16 3 14 4 15 5 13 7 11 8 12 9 92 10 91 11 93 12
REMARK SMILES IDX 90 13 8 14 9 15 10 16 7 17 3 18 4 19 94 20 5 21 6 22 2 23
REMARK SMILES IDX 1 24 19 25 20 26 21 27 22 28 23 30 24 31 25 32 89 33 26 34
REMARK SMILES IDX 88 35 27 36 28 37 29 38 82 39 30 40 87 41 81 42 83 43 31 44
REMARK SMILES IDX 86 45 80 46 79 47 32 49 66 50 45 51 65 52 46 53 49 54 64 55
REMARK SMILES IDX 84 56 47 57 48 58 63 60 85 61 50 62 33 63 34 64 43 65 35 66
REMARK SMILES IDX 36 67 42 68 44 69 37 70 38 71 39 72 40 73 41 74 67 75 68 76
REMARK SMILES IDX 77 77 69 78 70 79 76 80 78 81 71 82 72 83 73 84 74 85 75 86
REMARK SMILES IDX 51 87 52 88 61 89 53 90 54 91 60 92 62 93 55 94 56 95 57 96
REMARK SMILES IDX 58 97 59 98
REMARK H PARENT 16 6 21 29 83 48 49 59
REMARK Flexibility Score: inf
ROOT
ATOM      1  C   UNL A   1      37.409  20.738  24.620  1.00  0.00     0.023 C 
ENDROOT
BRANCH   1   2
ATOM      2  C   UNL A   1      36.054  20.871  25.319  1.00  0.00     0.116 C 
BRANCH   2   3
ATOM      3  N   UNL A   1      35.228  19.706  25.080  1.00  0.00    -0.352 N 
ATOM      4  C   UNL A   1      33.945  19.545  24.628  1.00  0.00     0.251 C 
ATOM      5  O   UNL A   1      33.547  18.389  24.474  1.00  0.00    -0.269 OA
ATOM      6  H   UNL A   1      35.680  18.856  25.284  1.00  0.00     0.163 HD
BRANCH   4   7
ATOM      7  C   UNL A   1      33.009  20.666  24.302  1.00  0.00     0.041 A 
ATOM      8  C   UNL A   1      31.809  22.621  25.148  1.00  0.00     0.119 A 
ATOM      9  C   UNL A   1      32.618  21.497  25.371  1.00  0.00     0.038 A 
ATOM     10  C   UNL A   1      31.400  22.930  23.859  1.00  0.00     0.143 A 
ATOM     11  C   UNL A   1      31.752  22.109  22.797  1.00  0.00     0.041 A 
ATOM     12  F   UNL A   1      30.647  24.006  23.595  1.00  0.00    -0.206 F 
ATOM     13  C   UNL A   1      32.573  20.997  23.013  1.00  0.00     0.017 A 
BRANCH   8  14
ATOM     14  S   UNL A   1      31.459  23.744  26.463  1.00  0.00     0.246 S 
ATOM     15  O   UNL A   1      32.297  23.405  27.594  1.00  0.00    -0.207 OA
ATOM     16  O   UNL A   1      30.019  23.794  26.623  1.00  0.00    -0.207 OA
BRANCH  14  17
ATOM     17  N   UNL A   1      31.950  25.306  25.890  1.00  0.00    -0.197 NA
ATOM     18  C   UNL A   1      31.400  27.764  25.918  1.00  0.00     0.004 C 
ATOM     19  C   UNL A   1      32.873  28.063  26.214  1.00  0.00     0.006 C 
ATOM     20  C   UNL A   1      31.052  26.368  26.465  1.00  0.00     0.106 C 
ATOM     21  C   UNL A   1      33.769  26.996  25.609  1.00  0.00     0.017 C 
ATOM     22  C   UNL A   1      33.393  25.612  26.123  1.00  0.00     0.102 C 
BRANCH  18  23
ATOM     23  C   UNL A   1      31.005  27.879  24.431  1.00  0.00     0.001 C 
ATOM     24  C   UNL A   1      30.658  29.291  23.983  1.00  0.00     0.004 C 
ENDBRANCH  18  23
ENDBRANCH  14  17
ENDBRANCH   8  14
ENDBRANCH   4   7
ENDBRANCH   2   3
ENDBRANCH   1   2
BRANCH   1  25
ATOM     25  C   UNL A   1      38.293  19.604  25.152  1.00  0.00     0.023 C 
BRANCH  25  26
ATOM     26  C   UNL A   1      39.400  20.036  26.112  1.00  0.00     0.116 C 
BRANCH  26  27
ATOM     27  N   UNL A   1      40.580  19.189  26.046  1.00  0.00    -0.352 N 
ATOM     28  C   UNL A   1      41.904  19.539  26.151  1.00  0.00     0.251 C 
ATOM     29  H   UNL A   1      40.405  18.229  25.908  1.00  0.00     0.163 HD
ATOM     30  O   UNL A   1      42.771  18.691  25.960  1.00  0.00    -0.269 OA
BRANCH  28  31
ATOM     31  C   UNL A   1      42.277  20.937  26.449  1.00  0.00     0.039 A 
ATOM     32  C   UNL A   1      42.545  21.285  27.775  1.00  0.00     0.014 A 
ATOM     33  C   UNL A   1      42.371  21.899  25.438  1.00  0.00     0.014 A 
ATOM     34  C   UNL A   1      42.959  22.583  28.077  1.00  0.00     0.010 A 
ATOM     35  C   UNL A   1      42.856  23.171  25.731  1.00  0.00     0.010 A 
ATOM     36  C   UNL A   1      43.151  23.528  27.053  1.00  0.00    -0.014 A 
BRANCH  36  37
ATOM     37  C   UNL A   1      43.686  24.876  27.371  1.00  0.00     0.031 A 
ATOM     38  C   UNL A   1      45.135  25.205  27.143  1.00  0.00     0.074 A 
ATOM     39  C   UNL A   1      42.854  25.805  27.881  1.00  0.00     0.049 A 
ATOM     40  N   UNL A   1      45.751  26.350  27.294  1.00  0.00    -0.248 NA
ATOM     41  C   UNL A   1      46.012  24.105  26.715  1.00  0.00     0.031 C 
ATOM     42  C   UNL A   1      41.444  25.581  28.212  1.00  0.00     0.029 A 
ATOM     43  N   UNL A   1      43.062  27.124  28.194  1.00  0.00    -0.354 N 
ATOM     44  C   UNL A   1      47.082  26.110  26.976  1.00  0.00     0.074 A 
ATOM     45  C   UNL A   1      47.198  24.696  26.689  1.00  0.00     0.031 C 
ATOM     46  C   UNL A   1      40.901  26.736  28.625  1.00  0.00     0.029 A 
ATOM     47  C   UNL A   1      41.926  27.775  28.617  1.00  0.00     0.049 A 
ATOM     48  H   UNL A   1      43.941  27.563  28.123  1.00  0.00     0.167 HD
ATOM     49  C   UNL A   1      48.107  26.992  26.900  1.00  0.00     0.037 A 
ATOM     50  C   UNL A   1      41.727  29.067  28.941  1.00  0.00     0.037 A 
ATOM     51  C   UNL A   1      47.978  28.401  27.175  1.00  0.00     0.049 A 
ATOM     52  C   UNL A   1      42.872  30.033  28.832  1.00  0.00     0.074 A 
ATOM     53  C   UNL A   1      48.941  29.389  27.071  1.00  0.00     0.029 A 
ATOM     54  N   UNL A   1      46.816  29.022  27.612  1.00  0.00    -0.354 N 
ATOM     55  N   UNL A   1      44.109  29.804  28.458  1.00  0.00    -0.248 NA
ATOM     56  C   UNL A   1      42.595  31.432  29.177  1.00  0.00     0.031 C 
ATOM     57  C   UNL A   1      48.375  30.598  27.491  1.00  0.00     0.029 A 
ATOM     58  C   UNL A   1      47.044  30.374  27.806  1.00  0.00     0.049 A 
ATOM     59  H   UNL A   1      45.956  28.567  27.762  1.00  0.00     0.167 HD
ATOM     60  C   UNL A   1      44.757  31.032  28.515  1.00  0.00     0.074 A 
ATOM     61  C   UNL A   1      43.766  32.005  28.933  1.00  0.00     0.031 C 
ATOM     62  C   UNL A   1      46.053  31.327  28.247  1.00  0.00     0.037 A 
BRANCH  49  63
ATOM     63  C   UNL A   1      49.456  26.462  26.491  1.00  0.00     0.058 A 
ATOM     64  C   UNL A   1      50.366  25.997  27.452  1.00  0.00     0.135 A 
ATOM     65  C   UNL A   1      49.864  26.449  25.146  1.00  0.00     0.135 A 
ATOM     66  F   UNL A   1      50.029  25.981  28.751  1.00  0.00    -0.206 F 
ATOM     67  C   UNL A   1      51.633  25.546  27.097  1.00  0.00     0.059 A 
ATOM     68  C   UNL A   1      51.116  25.975  24.765  1.00  0.00     0.059 A 
ATOM     69  F   UNL A   1      49.026  26.864  24.182  1.00  0.00    -0.206 F 
ATOM     70  C   UNL A   1      51.999  25.536  25.751  1.00  0.00     0.060 A 
BRANCH  70  71
ATOM     71  S   UNL A   1      53.627  24.897  25.301  1.00  0.00     0.124 S 
ATOM     72  O   UNL A   1      53.964  25.721  24.147  1.00  0.00    -0.237 OA
ATOM     73  O   UNL A   1      54.400  25.149  26.513  1.00  0.00    -0.237 OA
ATOM     74  O   UNL A   1      53.370  23.488  25.015  1.00  0.00    -0.744 OA
ENDBRANCH  70  71
ENDBRANCH  49  63
BRANCH  50  75
ATOM     75  C   UNL A   1      40.365  29.518  29.332  1.00  0.00     0.058 A 
ATOM     76  C   UNL A   1      39.354  29.696  28.377  1.00  0.00     0.135 A 
ATOM     77  C   UNL A   1      40.074  29.854  30.662  1.00  0.00     0.135 A 
ATOM     78  F   UNL A   1      39.586  29.400  27.088  1.00  0.00    -0.206 F 
ATOM     79  C   UNL A   1      38.115  30.226  28.719  1.00  0.00     0.059 A 
ATOM     80  C   UNL A   1      38.834  30.363  31.035  1.00  0.00     0.059 A 
ATOM     81  F   UNL A   1      41.007  29.691  31.613  1.00  0.00    -0.206 F 
ATOM     82  C   UNL A   1      37.869  30.567  30.050  1.00  0.00     0.060 A 
BRANCH  82  83
ATOM     83  S   UNL A   1      36.273  31.306  30.462  1.00  0.00     0.124 S 
ATOM     84  O   UNL A   1      36.655  32.689  30.729  1.00  0.00    -0.237 OA
ATOM     85  O   UNL A   1      35.508  31.082  29.240  1.00  0.00    -0.237 OA
ATOM     86  O   UNL A   1      35.836  30.539  31.624  1.00  0.00    -0.744 OA
ENDBRANCH  82  83
ENDBRANCH  50  75
BRANCH  62  87
ATOM     87  C   UNL A   1      46.480  32.761  28.405  1.00  0.00     0.058 A 
ATOM     88  C   UNL A   1      46.396  33.657  27.327  1.00  0.00     0.135 A 
ATOM     89  C   UNL A   1      47.003  33.242  29.617  1.00  0.00     0.135 A 
ATOM     90  F   UNL A   1      45.911  33.250  26.143  1.00  0.00    -0.206 F 
ATOM     91  C   UNL A   1      46.816  34.977  27.444  1.00  0.00     0.059 A 
ATOM     92  C   UNL A   1      47.403  34.567  29.764  1.00  0.00     0.059 A 
ATOM     93  F   UNL A   1      47.097  32.429  30.681  1.00  0.00    -0.206 F 
ATOM     94  C   UNL A   1      47.314  35.425  28.668  1.00  0.00     0.060 A 
BRANCH  94  95
ATOM     95  S   UNL A   1      47.801  37.157  28.819  1.00  0.00     0.124 S 
ATOM     96  O   UNL A   1      46.815  37.820  27.973  1.00  0.00    -0.237 OA
ATOM     97  O   UNL A   1      47.667  37.391  30.254  1.00  0.00    -0.237 OA
ATOM     98  O   UNL A   1      49.171  37.168  28.316  1.00  0.00    -0.744 OA
ENDBRANCH  94  95
ENDBRANCH  62  87
ENDBRANCH  36  37
ENDBRANCH  28  31
ENDBRANCH  26  27
ENDBRANCH  25  26
ENDBRANCH   1  25
TORSDOF 17
ENDMDL
MODEL 3
REMARK VINA RESULT:     -12.3      6.377     11.974
REMARK SMILES CC[C@@H]1CCCN(S(=O)(=O)c2cc(C(=O)NCCCCNC(=O)c3ccc(-c4c5nc(c(-c6c(F)cc(S(=O)(=O)[O-])cc6F)c6ccc([nH]6)c(-c6c(F)cc(S(=O)(=O)[O-])cc6F)c6nc(c(-c7c(F)cc(S(=O)(=O)[O-])cc7F)c7ccc4[nH]7)C=C6)C=C5)cc3)ccc2F)C1
REMARK SMILES IDX 18 1 17 2 16 3 14 4 15 5 13 7 11 8 12 9 92 10 91 11 93 12
REMARK SMILES IDX 90 13 8 14 9 15 10 16 7 17 3 18 4 19 94 20 5 21 6 22 2 23
REMARK SMILES IDX 1 24 19 25 20 26 21 27 22 28 23 30 24 31 25 32 89 33 26 34
REMARK SMILES IDX 88 35 27 36 28 37 29 38 82 39 30 40 87 41 81 42 83 43 31 44
REMARK SMILES IDX 86 45 80 46 79 47 32 49 66 50 45 51 65 52 46 53 49 54 64 55
REMARK SMILES IDX 84 56 47 57 48 58 63 60 85 61 50 62 33 63 34 64 43 65 35 66
REMARK SMILES IDX 36 67 42 68 44 69 37 70 38 71 39 72 40 73 41 74 67 75 68 76
REMARK SMILES IDX 77 77 69 78 70 79 76 80 78 81 71 82 72 83 73 84 74 85 75 86
REMARK SMILES IDX 51 87 52 88 61 89 53 90 54 91 60 92 62 93 55 94 56 95 57 96
REMARK SMILES IDX 58 97 59 98
REMARK H PARENT 16 6 21 29 83 48 49 59
REMARK Flexibility Score: inf
ROOT
ATOM      1  C   UNL A   1      35.236  29.572  27.263  1.00  0.00     0.023 C 
ENDROOT
BRANCH   1   2
ATOM      2  C   UNL A   1      34.174  28.766  26.512  1.00  0.00     0.116 C 
BRANCH   2   3
ATOM      3  N   UNL A   1      32.996  28.568  27.330  1.00  0.00    -0.352 N 
ATOM      4  C   UNL A   1      31.884  27.779  27.194  1.00  0.00     0.251 C 
ATOM      5  O   UNL A   1      31.071  27.795  28.118  1.00  0.00    -0.269 OA
ATOM      6  H   UNL A   1      32.992  29.111  28.151  1.00  0.00     0.163 HD
BRANCH   4   7
ATOM      7  C   UNL A   1      31.601  26.901  26.016  1.00  0.00     0.041 A 
ATOM      8  C   UNL A   1      31.901  24.692  25.010  1.00  0.00     0.119 A 
ATOM      9  C   UNL A   1      32.177  25.614  26.030  1.00  0.00     0.038 A 
ATOM     10  C   UNL A   1      31.039  25.042  23.981  1.00  0.00     0.143 A 
ATOM     11  C   UNL A   1      30.483  26.313  23.934  1.00  0.00     0.041 A 
ATOM     12  F   UNL A   1      30.728  24.187  22.998  1.00  0.00    -0.206 F 
ATOM     13  C   UNL A   1      30.743  27.229  24.959  1.00  0.00     0.017 A 
BRANCH   8  14
ATOM     14  S   UNL A   1      32.495  23.034  25.120  1.00  0.00     0.246 S 
ATOM     15  O   UNL A   1      31.936  22.270  24.025  1.00  0.00    -0.207 OA
ATOM     16  O   UNL A   1      32.294  22.589  26.486  1.00  0.00    -0.207 OA
BRANCH  14  17
ATOM     17  N   UNL A   1      34.210  23.132  24.876  1.00  0.00    -0.197 NA
ATOM     18  C   UNL A   1      36.440  22.242  25.635  1.00  0.00     0.004 C 
ATOM     19  C   UNL A   1      36.837  22.059  24.167  1.00  0.00     0.006 C 
ATOM     20  C   UNL A   1      34.910  22.134  25.759  1.00  0.00     0.106 C 
ATOM     21  C   UNL A   1      36.141  23.087  23.292  1.00  0.00     0.017 C 
ATOM     22  C   UNL A   1      34.628  23.002  23.449  1.00  0.00     0.102 C 
BRANCH  18  23
ATOM     23  C   UNL A   1      36.947  23.549  26.283  1.00  0.00     0.001 C 
ATOM     24  C   UNL A   1      38.398  23.880  25.970  1.00  0.00     0.004 C 
ENDBRANCH  18  23
ENDBRANCH  14  17
ENDBRANCH   8  14
ENDBRANCH   4   7
ENDBRANCH   2   3
ENDBRANCH   1   2
BRANCH   1  25
ATOM     25  C   UNL A   1      34.711  30.842  27.943  1.00  0.00     0.023 C 
BRANCH  25  26
ATOM     26  C   UNL A   1      35.683  31.515  28.909  1.00  0.00     0.116 C 
BRANCH  26  27
ATOM     27  N   UNL A   1      35.599  30.997  30.264  1.00  0.00    -0.352 N 
ATOM     28  C   UNL A   1      36.543  30.313  30.990  1.00  0.00     0.251 C 
ATOM     29  H   UNL A   1      34.745  31.159  30.728  1.00  0.00     0.163 HD
ATOM     30  O   UNL A   1      36.247  29.858  32.091  1.00  0.00    -0.269 OA
BRANCH  28  31
ATOM     31  C   UNL A   1      37.892  30.093  30.428  1.00  0.00     0.039 A 
ATOM     32  C   UNL A   1      38.924  29.728  31.296  1.00  0.00     0.014 A 
ATOM     33  C   UNL A   1      38.143  30.236  29.059  1.00  0.00     0.014 A 
ATOM     34  C   UNL A   1      40.192  29.455  30.783  1.00  0.00     0.010 A 
ATOM     35  C   UNL A   1      39.390  29.891  28.541  1.00  0.00     0.010 A 
ATOM     36  C   UNL A   1      40.427  29.500  29.397  1.00  0.00    -0.014 A 
BRANCH  36  37
ATOM     37  C   UNL A   1      41.753  29.113  28.851  1.00  0.00     0.031 A 
ATOM     38  C   UNL A   1      42.888  30.097  28.811  1.00  0.00     0.074 A 
ATOM     39  C   UNL A   1      41.923  27.863  28.376  1.00  0.00     0.049 A 
ATOM     40  N   UNL A   1      44.128  29.905  28.440  1.00  0.00    -0.248 NA
ATOM     41  C   UNL A   1      42.592  31.479  29.218  1.00  0.00     0.031 C 
ATOM     42  C   UNL A   1      40.876  26.843  28.297  1.00  0.00     0.029 A 
ATOM     43  N   UNL A   1      43.039  27.231  27.889  1.00  0.00    -0.354 N 
ATOM     44  C   UNL A   1      44.758  31.137  28.571  1.00  0.00     0.074 A 
ATOM     45  C   UNL A   1      43.749  32.084  28.992  1.00  0.00     0.031 C 
ATOM     46  C   UNL A   1      41.411  25.698  27.847  1.00  0.00     0.029 A 
ATOM     47  C   UNL A   1      42.830  25.908  27.579  1.00  0.00     0.049 A 
ATOM     48  H   UNL A   1      43.906  27.682  27.773  1.00  0.00     0.167 HD
ATOM     49  C   UNL A   1      46.065  31.443  28.387  1.00  0.00     0.037 A 
ATOM     50  C   UNL A   1      43.687  24.963  27.147  1.00  0.00     0.037 A 
ATOM     51  C   UNL A   1      47.066  30.490  27.980  1.00  0.00     0.049 A 
ATOM     52  C   UNL A   1      45.136  25.319  26.968  1.00  0.00     0.074 A 
ATOM     53  C   UNL A   1      48.427  30.685  27.821  1.00  0.00     0.029 A 
ATOM     54  N   UNL A   1      46.815  29.162  27.662  1.00  0.00    -0.354 N 
ATOM     55  N   UNL A   1      45.732  26.472  27.167  1.00  0.00    -0.248 NA
ATOM     56  C   UNL A   1      46.031  24.247  26.516  1.00  0.00     0.031 C 
ATOM     57  C   UNL A   1      48.990  29.489  27.362  1.00  0.00     0.029 A 
ATOM     58  C   UNL A   1      47.990  28.533  27.285  1.00  0.00     0.049 A 
ATOM     59  H   UNL A   1      45.931  28.730  27.700  1.00  0.00     0.167 HD
ATOM     60  C   UNL A   1      47.074  26.262  26.873  1.00  0.00     0.074 A 
ATOM     61  C   UNL A   1      47.205  24.865  26.508  1.00  0.00     0.031 C 
ATOM     62  C   UNL A   1      48.102  27.146  26.901  1.00  0.00     0.037 A 
BRANCH  49  63
ATOM     63  C   UNL A   1      46.491  32.866  28.637  1.00  0.00     0.058 A 
ATOM     64  C   UNL A   1      46.816  33.300  29.931  1.00  0.00     0.135 A 
ATOM     65  C   UNL A   1      46.543  33.812  27.600  1.00  0.00     0.135 A 
ATOM     66  F   UNL A   1      46.789  32.439  30.961  1.00  0.00    -0.206 F 
ATOM     67  C   UNL A   1      47.169  34.621  30.190  1.00  0.00     0.059 A 
ATOM     68  C   UNL A   1      46.922  35.131  27.830  1.00  0.00     0.059 A 
ATOM     69  F   UNL A   1      46.262  33.447  26.338  1.00  0.00    -0.206 F 
ATOM     70  C   UNL A   1      47.222  35.529  29.132  1.00  0.00     0.060 A 
BRANCH  70  71
ATOM     71  S   UNL A   1      47.733  37.226  29.474  1.00  0.00     0.124 S 
ATOM     72  O   UNL A   1      48.749  37.032  30.502  1.00  0.00    -0.237 OA
ATOM     73  O   UNL A   1      48.221  37.669  28.172  1.00  0.00    -0.237 OA
ATOM     74  O   UNL A   1      46.500  37.868  29.921  1.00  0.00    -0.744 OA
ENDBRANCH  70  71
ENDBRANCH  49  63
BRANCH  50  75
ATOM     75  C   UNL A   1      43.195  23.578  26.926  1.00  0.00     0.058 A 
ATOM     76  C   UNL A   1      42.990  22.697  27.998  1.00  0.00     0.135 A 
ATOM     77  C   UNL A   1      42.994  23.087  25.627  1.00  0.00     0.135 A 
ATOM     78  F   UNL A   1      43.181  23.116  29.259  1.00  0.00    -0.206 F 
ATOM     79  C   UNL A   1      42.640  21.368  27.790  1.00  0.00     0.059 A 
ATOM     80  C   UNL A   1      42.620  21.767  25.394  1.00  0.00     0.059 A 
ATOM     81  F   UNL A   1      43.168  23.896  24.571  1.00  0.00    -0.206 F 
ATOM     82  C   UNL A   1      42.468  20.909  26.483  1.00  0.00     0.060 A 
BRANCH  82  83
ATOM     83  S   UNL A   1      42.069  19.165  26.234  1.00  0.00     0.124 S 
ATOM     84  O   UNL A   1      43.026  18.794  25.196  1.00  0.00    -0.237 OA
ATOM     85  O   UNL A   1      42.317  18.603  27.557  1.00  0.00    -0.237 OA
ATOM     86  O   UNL A   1      40.671  19.195  25.818  1.00  0.00    -0.744 OA
ENDBRANCH  82  83
ENDBRANCH  50  75
BRANCH  62  87
ATOM     87  C   UNL A   1      49.463  26.630  26.519  1.00  0.00     0.058 A 
ATOM     88  C   UNL A   1      49.921  26.731  25.195  1.00  0.00     0.135 A 
ATOM     89  C   UNL A   1      50.301  26.006  27.457  1.00  0.00     0.135 A 
ATOM     90  F   UNL A   1      49.158  27.311  24.256  1.00  0.00    -0.206 F 
ATOM     91  C   UNL A   1      51.162  26.231  24.816  1.00  0.00     0.059 A 
ATOM     92  C   UNL A   1      51.558  25.524  27.104  1.00  0.00     0.059 A 
ATOM     93  F   UNL A   1      49.914  25.892  28.737  1.00  0.00    -0.206 F 
ATOM     94  C   UNL A   1      51.977  25.633  25.779  1.00  0.00     0.060 A 
BRANCH  94  95
ATOM     95  S   UNL A   1      53.608  25.042  25.281  1.00  0.00     0.124 S 
ATOM     96  O   UNL A   1      53.737  25.609  23.944  1.00  0.00    -0.237 OA
ATOM     97  O   UNL A   1      54.472  25.622  26.305  1.00  0.00    -0.237 OA
ATOM     98  O   UNL A   1      53.472  23.589  25.337  1.00  0.00    -0.744 OA
ENDBRANCH  94  95
ENDBRANCH  62  87
ENDBRANCH  36  37
ENDBRANCH  28  31
ENDBRANCH  26  27
ENDBRANCH  25  26
ENDBRANCH   1  25
TORSDOF 17
ENDMDL
