MODEL 1
REMARK VINA RESULT:     -11.6      0.000      0.000
REMARK SMILES N#Cc1cccc(C(=O)N2CCC(CC(=O)NCCCCNC(=O)c3ccc(-c4c5nc(c(-c6c(F)cc(S(=O)(=O)[O-])cc6F)c6ccc([nH]6)c(-c6c(F)cc(S(=O)(=O)[O-])cc6F)c6nc(c(-c7c(F)cc(S(=O)(=O)[O-])cc7F)c7ccc4[nH]7)C=C6)C=C5)cc3)CC2)c1
REMARK SMILES IDX 19 1 18 2 17 3 15 4 16 5 14 7 13 8 8 9 9 10 10 11 11 12
REMARK SMILES IDX 92 13 12 14 91 15 7 16 3 17 4 18 93 19 5 20 6 21 2 22 1 23
REMARK SMILES IDX 20 24 21 25 22 26 23 27 24 29 25 30 26 31 90 32 27 33 89 34
REMARK SMILES IDX 28 35 29 36 30 37 83 38 31 39 88 40 82 41 84 42 32 43 87 44
REMARK SMILES IDX 81 45 80 46 33 48 67 49 46 50 66 51 47 52 50 53 65 54 85 55
REMARK SMILES IDX 48 56 49 57 64 59 86 60 51 61 34 62 35 63 44 64 36 65 37 66
REMARK SMILES IDX 43 67 45 68 38 69 39 70 40 71 41 72 42 73 68 74 69 75 78 76
REMARK SMILES IDX 70 77 71 78 77 79 79 80 72 81 73 82 74 83 75 84 76 85 52 86
REMARK SMILES IDX 53 87 62 88 54 89 55 90 61 91 63 92 56 93 57 94 58 95 59 96
REMARK SMILES IDX 60 97
REMARK H PARENT 17 6 22 28 84 47 50 58
REMARK Flexibility Score: inf
ROOT
ATOM      1  C   UNL A   1      32.907  29.123  25.221  1.00  0.00     0.023 C 
ENDROOT
BRANCH   1   2
ATOM      2  C   UNL A   1      31.517  29.669  24.846  1.00  0.00     0.116 C 
BRANCH   2   3
ATOM      3  N   UNL A   1      31.161  29.374  23.467  1.00  0.00    -0.356 N 
ATOM      4  C   UNL A   1      30.245  28.512  22.928  1.00  0.00     0.220 C 
ATOM      5  O   UNL A   1      30.164  28.458  21.699  1.00  0.00    -0.275 OA
ATOM      6  H   UNL A   1      31.672  29.886  22.799  1.00  0.00     0.163 HD
BRANCH   4   7
ATOM      7  C   UNL A   1      29.340  27.637  23.798  1.00  0.00     0.103 C 
BRANCH   7   8
ATOM      8  C   UNL A   1      29.798  26.165  23.955  1.00  0.00     0.002 C 
ATOM      9  C   UNL A   1      33.435  24.409  24.689  1.00  0.00     0.253 C 
ATOM     10  O   UNL A   1      34.115  25.425  24.748  1.00  0.00    -0.269 OA
ATOM     11  N   UNL A   1      32.082  24.412  24.420  1.00  0.00    -0.339 N 
ATOM     12  C   UNL A   1      31.646  24.584  23.062  1.00  0.00     0.120 C 
ATOM     13  C   UNL A   1      31.067  24.528  25.453  1.00  0.00     0.120 C 
ATOM     14  C   UNL A   1      30.881  25.872  22.937  1.00  0.00     0.026 C 
ATOM     15  C   UNL A   1      30.307  25.859  25.374  1.00  0.00     0.026 C 
BRANCH   9  16
ATOM     16  C   UNL A   1      34.046  23.049  24.775  1.00  0.00     0.041 A 
ATOM     17  C   UNL A   1      33.805  20.641  24.994  1.00  0.00     0.053 A 
ATOM     18  C   UNL A   1      35.189  20.496  24.881  1.00  0.00     0.019 A 
ATOM     19  C   UNL A   1      33.238  21.915  24.939  1.00  0.00     0.033 A 
ATOM     20  C   UNL A   1      36.000  21.621  24.709  1.00  0.00     0.002 A 
ATOM     21  C   UNL A   1      35.431  22.897  24.656  1.00  0.00     0.014 A 
BRANCH  17  22
ATOM     22  C   UNL A   1      32.951  19.506  25.167  1.00  0.00     0.099 C 
ATOM     23  N   UNL A   1      32.276  18.574  25.335  1.00  0.00    -0.192 NA
ENDBRANCH  17  22
ENDBRANCH   9  16
ENDBRANCH   7   8
ENDBRANCH   4   7
ENDBRANCH   2   3
ENDBRANCH   1   2
BRANCH   1  24
ATOM     24  C   UNL A   1      32.927  27.985  26.216  1.00  0.00     0.023 C 
BRANCH  24  25
ATOM     25  C   UNL A   1      33.516  28.377  27.545  1.00  0.00     0.116 C 
BRANCH  25  26
ATOM     26  N   UNL A   1      33.480  29.817  27.779  1.00  0.00    -0.352 N 
ATOM     27  C   UNL A   1      34.500  30.622  28.227  1.00  0.00     0.251 C 
ATOM     28  H   UNL A   1      32.623  30.265  27.594  1.00  0.00     0.163 HD
ATOM     29  O   UNL A   1      34.296  31.789  28.536  1.00  0.00    -0.269 OA
BRANCH  27  30
ATOM     30  C   UNL A   1      35.837  30.018  28.362  1.00  0.00     0.039 A 
ATOM     31  C   UNL A   1      36.723  30.071  27.287  1.00  0.00     0.014 A 
ATOM     32  C   UNL A   1      36.246  29.532  29.606  1.00  0.00     0.014 A 
ATOM     33  C   UNL A   1      38.049  29.694  27.489  1.00  0.00     0.010 A 
ATOM     34  C   UNL A   1      37.590  29.307  29.839  1.00  0.00     0.010 A 
ATOM     35  C   UNL A   1      38.502  29.354  28.776  1.00  0.00    -0.014 A 
BRANCH  35  36
ATOM     36  C   UNL A   1      39.919  29.001  29.029  1.00  0.00     0.031 A 
ATOM     37  C   UNL A   1      40.838  30.025  29.640  1.00  0.00     0.074 A 
ATOM     38  C   UNL A   1      40.381  27.787  28.671  1.00  0.00     0.049 A 
ATOM     39  N   UNL A   1      42.112  29.929  29.915  1.00  0.00    -0.248 NA
ATOM     40  C   UNL A   1      40.260  31.345  29.953  1.00  0.00     0.031 C 
ATOM     41  C   UNL A   1      39.596  26.738  28.018  1.00  0.00     0.029 A 
ATOM     42  N   UNL A   1      41.626  27.228  28.811  1.00  0.00    -0.354 N 
ATOM     43  C   UNL A   1      42.482  31.168  30.422  1.00  0.00     0.074 A 
ATOM     44  C   UNL A   1      41.326  32.027  30.338  1.00  0.00     0.031 C 
ATOM     45  C   UNL A   1      40.363  25.648  27.855  1.00  0.00     0.029 A 
ATOM     46  C   UNL A   1      41.707  25.937  28.344  1.00  0.00     0.049 A 
ATOM     47  H   UNL A   1      42.390  27.707  29.207  1.00  0.00     0.167 HD
ATOM     48  C   UNL A   1      43.671  31.546  30.945  1.00  0.00     0.037 A 
ATOM     49  C   UNL A   1      42.750  25.085  28.313  1.00  0.00     0.037 A 
ATOM     50  C   UNL A   1      44.811  30.674  31.039  1.00  0.00     0.049 A 
ATOM     51  C   UNL A   1      44.070  25.536  28.881  1.00  0.00     0.074 A 
ATOM     52  C   UNL A   1      46.050  30.938  31.592  1.00  0.00     0.029 A 
ATOM     53  N   UNL A   1      44.854  29.372  30.559  1.00  0.00    -0.354 N 
ATOM     54  N   UNL A   1      44.385  26.691  29.420  1.00  0.00    -0.248 NA
ATOM     55  C   UNL A   1      45.173  24.568  28.845  1.00  0.00     0.031 C 
ATOM     56  C   UNL A   1      46.864  29.821  31.387  1.00  0.00     0.029 A 
ATOM     57  C   UNL A   1      46.108  28.830  30.778  1.00  0.00     0.049 A 
ATOM     58  H   UNL A   1      44.104  28.904  30.126  1.00  0.00     0.167 HD
ATOM     59  C   UNL A   1      45.711  26.572  29.825  1.00  0.00     0.074 A 
ATOM     60  C   UNL A   1      46.132  25.230  29.477  1.00  0.00     0.031 C 
ATOM     61  C   UNL A   1      46.506  27.487  30.435  1.00  0.00     0.037 A 
BRANCH  48  62
ATOM     62  C   UNL A   1      43.796  32.957  31.454  1.00  0.00     0.058 A 
ATOM     63  C   UNL A   1      44.288  33.997  30.647  1.00  0.00     0.135 A 
ATOM     64  C   UNL A   1      43.388  33.280  32.758  1.00  0.00     0.135 A 
ATOM     65  F   UNL A   1      44.714  33.743  29.399  1.00  0.00    -0.206 F 
ATOM     66  C   UNL A   1      44.396  35.299  31.123  1.00  0.00     0.059 A 
ATOM     67  C   UNL A   1      43.451  34.584  33.242  1.00  0.00     0.059 A 
ATOM     68  F   UNL A   1      42.917  32.327  33.576  1.00  0.00    -0.206 F 
ATOM     69  C   UNL A   1      43.969  35.584  32.421  1.00  0.00     0.060 A 
BRANCH  69  70
ATOM     70  S   UNL A   1      44.097  37.284  33.012  1.00  0.00     0.124 S 
ATOM     71  O   UNL A   1      43.020  37.331  33.998  1.00  0.00    -0.237 OA
ATOM     72  O   UNL A   1      45.452  37.323  33.551  1.00  0.00    -0.237 OA
ATOM     73  O   UNL A   1      43.879  38.080  31.809  1.00  0.00    -0.744 OA
ENDBRANCH  69  70
ENDBRANCH  48  62
BRANCH  49  74
ATOM     74  C   UNL A   1      42.585  23.719  27.744  1.00  0.00     0.058 A 
ATOM     75  C   UNL A   1      42.359  22.609  28.572  1.00  0.00     0.135 A 
ATOM     76  C   UNL A   1      42.648  23.496  26.359  1.00  0.00     0.135 A 
ATOM     77  F   UNL A   1      42.293  22.768  29.903  1.00  0.00    -0.206 F 
ATOM     78  C   UNL A   1      42.225  21.326  28.052  1.00  0.00     0.059 A 
ATOM     79  C   UNL A   1      42.484  22.226  25.813  1.00  0.00     0.059 A 
ATOM     80  F   UNL A   1      42.845  24.524  25.520  1.00  0.00    -0.206 F 
ATOM     81  C   UNL A   1      42.287  21.146  26.670  1.00  0.00     0.060 A 
BRANCH  81  82
ATOM     82  S   UNL A   1      42.074  19.480  26.005  1.00  0.00     0.124 S 
ATOM     83  O   UNL A   1      42.586  18.660  27.096  1.00  0.00    -0.237 OA
ATOM     84  O   UNL A   1      40.633  19.424  25.782  1.00  0.00    -0.237 OA
ATOM     85  O   UNL A   1      42.889  19.496  24.792  1.00  0.00    -0.744 OA
ENDBRANCH  81  82
ENDBRANCH  49  74
BRANCH  61  86
ATOM     86  C   UNL A   1      47.895  27.053  30.821  1.00  0.00     0.058 A 
ATOM     87  C   UNL A   1      48.158  26.351  32.007  1.00  0.00     0.135 A 
ATOM     88  C   UNL A   1      48.974  27.305  29.956  1.00  0.00     0.135 A 
ATOM     89  F   UNL A   1      47.164  26.087  32.871  1.00  0.00    -0.206 F 
ATOM     90  C   UNL A   1      49.445  25.943  32.339  1.00  0.00     0.059 A 
ATOM     91  C   UNL A   1      50.263  26.871  30.249  1.00  0.00     0.059 A 
ATOM     92  F   UNL A   1      48.779  27.960  28.801  1.00  0.00    -0.206 F 
ATOM     93  C   UNL A   1      50.490  26.204  31.451  1.00  0.00     0.060 A 
BRANCH  93  94
ATOM     94  S   UNL A   1      52.150  25.644  31.883  1.00  0.00     0.124 S 
ATOM     95  O   UNL A   1      52.878  25.899  30.644  1.00  0.00    -0.237 OA
ATOM     96  O   UNL A   1      52.487  26.512  33.008  1.00  0.00    -0.237 OA
ATOM     97  O   UNL A   1      51.959  24.237  32.220  1.00  0.00    -0.744 OA
ENDBRANCH  93  94
ENDBRANCH  61  86
ENDBRANCH  35  36
ENDBRANCH  27  30
ENDBRANCH  25  26
ENDBRANCH  24  25
ENDBRANCH   1  24
TORSDOF 17
ENDMDL
MODEL 2
REMARK VINA RESULT:     -11.3      1.201      8.323
REMARK SMILES N#Cc1cccc(C(=O)N2CCC(CC(=O)NCCCCNC(=O)c3ccc(-c4c5nc(c(-c6c(F)cc(S(=O)(=O)[O-])cc6F)c6ccc([nH]6)c(-c6c(F)cc(S(=O)(=O)[O-])cc6F)c6nc(c(-c7c(F)cc(S(=O)(=O)[O-])cc7F)c7ccc4[nH]7)C=C6)C=C5)cc3)CC2)c1
REMARK SMILES IDX 19 1 18 2 17 3 15 4 16 5 14 7 13 8 8 9 9 10 10 11 11 12
REMARK SMILES IDX 92 13 12 14 91 15 7 16 3 17 4 18 93 19 5 20 6 21 2 22 1 23
REMARK SMILES IDX 20 24 21 25 22 26 23 27 24 29 25 30 26 31 90 32 27 33 89 34
REMARK SMILES IDX 28 35 29 36 30 37 83 38 31 39 88 40 82 41 84 42 32 43 87 44
REMARK SMILES IDX 81 45 80 46 33 48 67 49 46 50 66 51 47 52 50 53 65 54 85 55
REMARK SMILES IDX 48 56 49 57 64 59 86 60 51 61 34 62 35 63 44 64 36 65 37 66
REMARK SMILES IDX 43 67 45 68 38 69 39 70 40 71 41 72 42 73 68 74 69 75 78 76
REMARK SMILES IDX 70 77 71 78 77 79 79 80 72 81 73 82 74 83 75 84 76 85 52 86
REMARK SMILES IDX 53 87 62 88 54 89 55 90 61 91 63 92 56 93 57 94 58 95 59 96
REMARK SMILES IDX 60 97
REMARK H PARENT 17 6 22 28 84 47 50 58
REMARK Flexibility Score: inf
ROOT
ATOM      1  C   UNL A   1      32.892  29.700  25.297  1.00  0.00     0.023 C 
ENDROOT
BRANCH   1   2
ATOM      2  C   UNL A   1      31.384  29.500  25.061  1.00  0.00     0.116 C 
BRANCH   2   3
ATOM      3  N   UNL A   1      31.091  29.047  23.709  1.00  0.00    -0.356 N 
ATOM      4  C   UNL A   1      30.854  27.801  23.200  1.00  0.00     0.220 C 
ATOM      5  O   UNL A   1      30.641  27.708  21.988  1.00  0.00    -0.275 OA
ATOM      6  H   UNL A   1      31.058  29.769  23.040  1.00  0.00     0.163 HD
BRANCH   4   7
ATOM      7  C   UNL A   1      30.844  26.548  24.080  1.00  0.00     0.103 C 
BRANCH   7   8
ATOM      8  C   UNL A   1      32.059  25.604  23.898  1.00  0.00     0.002 C 
ATOM      9  C   UNL A   1      32.725  21.660  24.821  1.00  0.00     0.253 C 
ATOM     10  O   UNL A   1      31.636  21.408  25.321  1.00  0.00    -0.269 OA
ATOM     11  N   UNL A   1      33.075  22.907  24.347  1.00  0.00    -0.339 N 
ATOM     12  C   UNL A   1      33.458  23.923  25.288  1.00  0.00     0.120 C 
ATOM     13  C   UNL A   1      32.818  23.340  22.984  1.00  0.00     0.120 C 
ATOM     14  C   UNL A   1      32.461  25.048  25.249  1.00  0.00     0.026 C 
ATOM     15  C   UNL A   1      31.766  24.455  22.918  1.00  0.00     0.026 C 
BRANCH   9  16
ATOM     16  C   UNL A   1      33.831  20.656  24.799  1.00  0.00     0.041 A 
ATOM     17  C   UNL A   1      34.595  18.369  24.501  1.00  0.00     0.053 A 
ATOM     18  C   UNL A   1      35.911  18.786  24.704  1.00  0.00     0.019 A 
ATOM     19  C   UNL A   1      33.560  19.304  24.547  1.00  0.00     0.033 A 
ATOM     20  C   UNL A   1      36.190  20.134  24.947  1.00  0.00     0.002 A 
ATOM     21  C   UNL A   1      35.152  21.070  24.995  1.00  0.00     0.014 A 
BRANCH  17  22
ATOM     22  C   UNL A   1      34.282  16.996  24.246  1.00  0.00     0.099 C 
ATOM     23  N   UNL A   1      34.051  15.871  24.064  1.00  0.00    -0.192 NA
ENDBRANCH  17  22
ENDBRANCH   9  16
ENDBRANCH   7   8
ENDBRANCH   4   7
ENDBRANCH   2   3
ENDBRANCH   1   2
BRANCH   1  24
ATOM     24  C   UNL A   1      33.672  28.466  25.689  1.00  0.00     0.023 C 
BRANCH  24  25
ATOM     25  C   UNL A   1      34.118  28.486  27.127  1.00  0.00     0.116 C 
BRANCH  25  26
ATOM     26  N   UNL A   1      33.949  29.792  27.755  1.00  0.00    -0.352 N 
ATOM     27  C   UNL A   1      34.872  30.498  28.490  1.00  0.00     0.251 C 
ATOM     28  H   UNL A   1      33.069  30.218  27.640  1.00  0.00     0.163 HD
ATOM     29  O   UNL A   1      34.554  31.511  29.100  1.00  0.00    -0.269 OA
BRANCH  27  30
ATOM     30  C   UNL A   1      36.246  29.968  28.550  1.00  0.00     0.039 A 
ATOM     31  C   UNL A   1      37.070  30.078  27.432  1.00  0.00     0.014 A 
ATOM     32  C   UNL A   1      36.744  29.498  29.768  1.00  0.00     0.014 A 
ATOM     33  C   UNL A   1      38.423  29.773  27.563  1.00  0.00     0.010 A 
ATOM     34  C   UNL A   1      38.109  29.346  29.929  1.00  0.00     0.010 A 
ATOM     35  C   UNL A   1      38.961  29.451  28.821  1.00  0.00    -0.014 A 
BRANCH  35  36
ATOM     36  C   UNL A   1      40.406  29.176  28.998  1.00  0.00     0.031 A 
ATOM     37  C   UNL A   1      40.949  27.820  28.634  1.00  0.00     0.074 A 
ATOM     38  C   UNL A   1      41.210  30.122  29.521  1.00  0.00     0.049 A 
ATOM     39  N   UNL A   1      42.171  27.367  28.739  1.00  0.00    -0.248 NA
ATOM     40  C   UNL A   1      39.990  26.828  28.116  1.00  0.00     0.031 C 
ATOM     41  C   UNL A   1      40.781  31.450  29.965  1.00  0.00     0.029 A 
ATOM     42  N   UNL A   1      42.559  30.113  29.766  1.00  0.00    -0.354 N 
ATOM     43  C   UNL A   1      42.121  26.047  28.309  1.00  0.00     0.074 A 
ATOM     44  C   UNL A   1      40.739  25.742  28.024  1.00  0.00     0.031 C 
ATOM     45  C   UNL A   1      41.852  32.143  30.384  1.00  0.00     0.029 A 
ATOM     46  C   UNL A   1      43.034  31.294  30.287  1.00  0.00     0.049 A 
ATOM     47  H   UNL A   1      43.134  29.334  29.585  1.00  0.00     0.167 HD
ATOM     48  C   UNL A   1      43.141  25.176  28.132  1.00  0.00     0.037 A 
ATOM     49  C   UNL A   1      44.283  31.647  30.649  1.00  0.00     0.037 A 
ATOM     50  C   UNL A   1      44.517  25.499  28.403  1.00  0.00     0.049 A 
ATOM     51  C   UNL A   1      45.399  30.654  30.464  1.00  0.00     0.074 A 
ATOM     52  C   UNL A   1      45.635  24.709  28.215  1.00  0.00     0.029 A 
ATOM     53  N   UNL A   1      44.959  26.705  28.927  1.00  0.00    -0.354 N 
ATOM     54  N   UNL A   1      45.345  29.430  29.992  1.00  0.00    -0.248 NA
ATOM     55  C   UNL A   1      46.746  31.090  30.852  1.00  0.00     0.031 C 
ATOM     56  C   UNL A   1      46.747  25.412  28.690  1.00  0.00     0.029 A 
ATOM     57  C   UNL A   1      46.332  26.671  29.096  1.00  0.00     0.049 A 
ATOM     58  H   UNL A   1      44.382  27.473  29.146  1.00  0.00     0.167 HD
ATOM     59  C   UNL A   1      46.656  28.966  29.987  1.00  0.00     0.074 A 
ATOM     60  C   UNL A   1      47.479  30.044  30.495  1.00  0.00     0.031 C 
ATOM     61  C   UNL A   1      47.137  27.760  29.593  1.00  0.00     0.037 A 
BRANCH  48  62
ATOM     62  C   UNL A   1      42.808  23.800  27.623  1.00  0.00     0.058 A 
ATOM     63  C   UNL A   1      42.727  23.515  26.248  1.00  0.00     0.135 A 
ATOM     64  C   UNL A   1      42.596  22.742  28.521  1.00  0.00     0.135 A 
ATOM     65  F   UNL A   1      42.898  24.492  25.343  1.00  0.00    -0.206 F 
ATOM     66  C   UNL A   1      42.423  22.240  25.786  1.00  0.00     0.059 A 
ATOM     67  C   UNL A   1      42.328  21.450  28.080  1.00  0.00     0.059 A 
ATOM     68  F   UNL A   1      42.652  22.956  29.845  1.00  0.00    -0.206 F 
ATOM     69  C   UNL A   1      42.230  21.212  26.710  1.00  0.00     0.060 A 
BRANCH  69  70
ATOM     70  S   UNL A   1      41.857  19.559  26.089  1.00  0.00     0.124 S 
ATOM     71  O   UNL A   1      42.184  18.732  27.247  1.00  0.00    -0.237 OA
ATOM     72  O   UNL A   1      40.439  19.663  25.763  1.00  0.00    -0.237 OA
ATOM     73  O   UNL A   1      42.752  19.415  24.945  1.00  0.00    -0.744 OA
ENDBRANCH  69  70
ENDBRANCH  48  62
BRANCH  49  74
ATOM     74  C   UNL A   1      44.546  33.005  31.202  1.00  0.00     0.058 A 
ATOM     75  C   UNL A   1      44.857  34.084  30.362  1.00  0.00     0.135 A 
ATOM     76  C   UNL A   1      44.490  33.251  32.584  1.00  0.00     0.135 A 
ATOM     77  F   UNL A   1      44.927  33.902  29.034  1.00  0.00    -0.206 F 
ATOM     78  C   UNL A   1      45.127  35.351  30.869  1.00  0.00     0.059 A 
ATOM     79  C   UNL A   1      44.723  34.517  33.113  1.00  0.00     0.059 A 
ATOM     80  F   UNL A   1      44.179  32.259  33.432  1.00  0.00    -0.206 F 
ATOM     81  C   UNL A   1      45.054  35.557  32.247  1.00  0.00     0.060 A 
BRANCH  81  82
ATOM     82  S   UNL A   1      45.369  37.215  32.891  1.00  0.00     0.124 S 
ATOM     83  O   UNL A   1      44.675  38.047  31.916  1.00  0.00    -0.237 OA
ATOM     84  O   UNL A   1      44.766  37.145  34.219  1.00  0.00    -0.237 OA
ATOM     85  O   UNL A   1      46.827  37.309  32.877  1.00  0.00    -0.744 OA
ENDBRANCH  81  82
ENDBRANCH  49  74
BRANCH  61  86
ATOM     86  C   UNL A   1      48.628  27.558  29.637  1.00  0.00     0.058 A 
ATOM     87  C   UNL A   1      49.262  26.887  30.693  1.00  0.00     0.135 A 
ATOM     88  C   UNL A   1      49.428  28.002  28.569  1.00  0.00     0.135 A 
ATOM     89  F   UNL A   1      48.546  26.444  31.740  1.00  0.00    -0.206 F 
ATOM     90  C   UNL A   1      50.639  26.693  30.707  1.00  0.00     0.059 A 
ATOM     91  C   UNL A   1      50.800  27.784  28.543  1.00  0.00     0.059 A 
ATOM     92  F   UNL A   1      48.872  28.637  27.525  1.00  0.00    -0.206 F 
ATOM     93  C   UNL A   1      51.399  27.142  29.626  1.00  0.00     0.060 A 
BRANCH  93  94
ATOM     94  S   UNL A   1      53.181  26.859  29.646  1.00  0.00     0.124 S 
ATOM     95  O   UNL A   1      53.365  26.053  28.443  1.00  0.00    -0.237 OA
ATOM     96  O   UNL A   1      53.711  28.218  29.587  1.00  0.00    -0.237 OA
ATOM     97  O   UNL A   1      53.402  26.161  30.909  1.00  0.00    -0.744 OA
ENDBRANCH  93  94
ENDBRANCH  61  86
ENDBRANCH  35  36
ENDBRANCH  27  30
ENDBRANCH  25  26
ENDBRANCH  24  25
ENDBRANCH   1  24
TORSDOF 17
ENDMDL
MODEL 3
REMARK VINA RESULT:     -11.3      2.789      9.511
REMARK SMILES N#Cc1cccc(C(=O)N2CCC(CC(=O)NCCCCNC(=O)c3ccc(-c4c5nc(c(-c6c(F)cc(S(=O)(=O)[O-])cc6F)c6ccc([nH]6)c(-c6c(F)cc(S(=O)(=O)[O-])cc6F)c6nc(c(-c7c(F)cc(S(=O)(=O)[O-])cc7F)c7ccc4[nH]7)C=C6)C=C5)cc3)CC2)c1
REMARK SMILES IDX 19 1 18 2 17 3 15 4 16 5 14 7 13 8 8 9 9 10 10 11 11 12
REMARK SMILES IDX 92 13 12 14 91 15 7 16 3 17 4 18 93 19 5 20 6 21 2 22 1 23
REMARK SMILES IDX 20 24 21 25 22 26 23 27 24 29 25 30 26 31 90 32 27 33 89 34
REMARK SMILES IDX 28 35 29 36 30 37 83 38 31 39 88 40 82 41 84 42 32 43 87 44
REMARK SMILES IDX 81 45 80 46 33 48 67 49 46 50 66 51 47 52 50 53 65 54 85 55
REMARK SMILES IDX 48 56 49 57 64 59 86 60 51 61 34 62 35 63 44 64 36 65 37 66
REMARK SMILES IDX 43 67 45 68 38 69 39 70 40 71 41 72 42 73 68 74 69 75 78 76
REMARK SMILES IDX 70 77 71 78 77 79 79 80 72 81 73 82 74 83 75 84 76 85 52 86
REMARK SMILES IDX 53 87 62 88 54 89 55 90 61 91 63 92 56 93 57 94 58 95 59 96
REMARK SMILES IDX 60 97
REMARK H PARENT 17 6 22 28 84 47 50 58
REMARK Flexibility Score: inf
ROOT
ATOM      1  C   UNL A   1      35.784  21.711  25.792  1.00  0.00     0.023 C 
ENDROOT
BRANCH   1   2
ATOM      2  C   UNL A   1      35.514  20.418  25.000  1.00  0.00     0.116 C 
BRANCH   2   3
ATOM      3  N   UNL A   1      34.247  19.802  25.364  1.00  0.00    -0.356 N 
ATOM      4  C   UNL A   1      32.992  19.921  24.833  1.00  0.00     0.220 C 
ATOM      5  O   UNL A   1      32.083  19.277  25.361  1.00  0.00    -0.275 OA
ATOM      6  H   UNL A   1      34.302  19.188  26.131  1.00  0.00     0.163 HD
BRANCH   4   7
ATOM      7  C   UNL A   1      32.700  20.814  23.624  1.00  0.00     0.103 C 
BRANCH   7   8
ATOM      8  C   UNL A   1      31.964  22.139  23.945  1.00  0.00     0.002 C 
ATOM      9  C   UNL A   1      33.209  26.032  24.333  1.00  0.00     0.253 C 
ATOM     10  O   UNL A   1      34.402  25.859  24.121  1.00  0.00    -0.269 OA
ATOM     11  N   UNL A   1      32.284  25.008  24.358  1.00  0.00    -0.339 N 
ATOM     12  C   UNL A   1      32.202  24.178  25.527  1.00  0.00     0.120 C 
ATOM     13  C   UNL A   1      31.578  24.546  23.175  1.00  0.00     0.120 C 
ATOM     14  C   UNL A   1      32.590  22.769  25.173  1.00  0.00     0.026 C 
ATOM     15  C   UNL A   1      31.997  23.127  22.767  1.00  0.00     0.026 C 
BRANCH   9  16
ATOM     16  C   UNL A   1      32.664  27.368  24.717  1.00  0.00     0.041 A 
ATOM     17  C   UNL A   1      32.869  29.450  25.953  1.00  0.00     0.053 A 
ATOM     18  C   UNL A   1      31.670  29.896  25.394  1.00  0.00     0.019 A 
ATOM     19  C   UNL A   1      33.363  28.191  25.612  1.00  0.00     0.033 A 
ATOM     20  C   UNL A   1      30.971  29.085  24.495  1.00  0.00     0.002 A 
ATOM     21  C   UNL A   1      31.467  27.822  24.155  1.00  0.00     0.014 A 
BRANCH  17  22
ATOM     22  C   UNL A   1      33.606  30.262  26.873  1.00  0.00     0.099 C 
ATOM     23  N   UNL A   1      34.174  30.934  27.633  1.00  0.00    -0.192 NA
ENDBRANCH  17  22
ENDBRANCH   9  16
ENDBRANCH   7   8
ENDBRANCH   4   7
ENDBRANCH   2   3
ENDBRANCH   1   2
BRANCH   1  24
ATOM     24  C   UNL A   1      35.918  22.975  24.973  1.00  0.00     0.023 C 
BRANCH  24  25
ATOM     25  C   UNL A   1      37.214  23.700  25.220  1.00  0.00     0.116 C 
BRANCH  25  26
ATOM     26  N   UNL A   1      38.340  22.794  25.428  1.00  0.00    -0.352 N 
ATOM     27  C   UNL A   1      39.513  23.051  26.095  1.00  0.00     0.251 C 
ATOM     28  H   UNL A   1      38.248  21.893  25.043  1.00  0.00     0.163 HD
ATOM     29  O   UNL A   1      40.448  22.260  26.061  1.00  0.00    -0.269 OA
BRANCH  27  30
ATOM     30  C   UNL A   1      39.622  24.330  26.818  1.00  0.00     0.039 A 
ATOM     31  C   UNL A   1      39.042  24.453  28.079  1.00  0.00     0.014 A 
ATOM     32  C   UNL A   1      40.424  25.346  26.294  1.00  0.00     0.014 A 
ATOM     33  C   UNL A   1      39.329  25.583  28.843  1.00  0.00     0.010 A 
ATOM     34  C   UNL A   1      40.826  26.386  27.113  1.00  0.00     0.010 A 
ATOM     35  C   UNL A   1      40.258  26.533  28.386  1.00  0.00    -0.014 A 
BRANCH  35  36
ATOM     36  C   UNL A   1      40.622  27.715  29.202  1.00  0.00     0.031 A 
ATOM     37  C   UNL A   1      41.939  27.732  29.932  1.00  0.00     0.074 A 
ATOM     38  C   UNL A   1      39.756  28.741  29.318  1.00  0.00     0.049 A 
ATOM     39  N   UNL A   1      42.432  28.652  30.718  1.00  0.00    -0.248 NA
ATOM     40  C   UNL A   1      42.802  26.546  29.789  1.00  0.00     0.031 C 
ATOM     41  C   UNL A   1      38.428  28.806  28.704  1.00  0.00     0.029 A 
ATOM     42  N   UNL A   1      39.865  29.931  29.992  1.00  0.00    -0.354 N 
ATOM     43  C   UNL A   1      43.649  28.153  31.163  1.00  0.00     0.074 A 
ATOM     44  C   UNL A   1      43.784  26.817  30.632  1.00  0.00     0.031 C 
ATOM     45  C   UNL A   1      37.866  29.991  28.990  1.00  0.00     0.029 A 
ATOM     46  C   UNL A   1      38.769  30.749  29.850  1.00  0.00     0.049 A 
ATOM     47  H   UNL A   1      40.655  30.176  30.528  1.00  0.00     0.167 HD
ATOM     48  C   UNL A   1      44.590  28.767  31.918  1.00  0.00     0.037 A 
ATOM     49  C   UNL A   1      38.522  31.971  30.360  1.00  0.00     0.037 A 
ATOM     50  C   UNL A   1      44.451  30.105  32.426  1.00  0.00     0.049 A 
ATOM     51  C   UNL A   1      39.574  32.625  31.216  1.00  0.00     0.074 A 
ATOM     52  C   UNL A   1      45.361  30.841  33.161  1.00  0.00     0.029 A 
ATOM     53  N   UNL A   1      43.328  30.904  32.258  1.00  0.00    -0.354 N 
ATOM     54  N   UNL A   1      40.751  32.166  31.571  1.00  0.00    -0.248 NA
ATOM     55  C   UNL A   1      39.270  33.965  31.731  1.00  0.00     0.031 C 
ATOM     56  C   UNL A   1      44.762  32.059  33.498  1.00  0.00     0.029 A 
ATOM     57  C   UNL A   1      43.511  32.115  32.902  1.00  0.00     0.049 A 
ATOM     58  H   UNL A   1      42.521  30.646  31.757  1.00  0.00     0.167 HD
ATOM     59  C   UNL A   1      41.344  33.178  32.318  1.00  0.00     0.074 A 
ATOM     60  C   UNL A   1      40.399  34.276  32.353  1.00  0.00     0.031 C 
ATOM     61  C   UNL A   1      42.562  33.201  32.916  1.00  0.00     0.037 A 
BRANCH  48  62
ATOM     62  C   UNL A   1      45.844  27.999  32.235  1.00  0.00     0.058 A 
ATOM     63  C   UNL A   1      45.969  27.230  33.406  1.00  0.00     0.135 A 
ATOM     64  C   UNL A   1      46.927  28.005  31.342  1.00  0.00     0.135 A 
ATOM     65  F   UNL A   1      44.974  27.204  34.308  1.00  0.00    -0.206 F 
ATOM     66  C   UNL A   1      47.129  26.519  33.690  1.00  0.00     0.059 A 
ATOM     67  C   UNL A   1      48.083  27.270  31.588  1.00  0.00     0.059 A 
ATOM     68  F   UNL A   1      46.868  28.726  30.212  1.00  0.00    -0.206 F 
ATOM     69  C   UNL A   1      48.180  26.541  32.772  1.00  0.00     0.060 A 
BRANCH  69  70
ATOM     70  S   UNL A   1      49.669  25.594  33.149  1.00  0.00     0.124 S 
ATOM     71  O   UNL A   1      49.105  24.405  33.781  1.00  0.00    -0.237 OA
ATOM     72  O   UNL A   1      50.251  25.394  31.826  1.00  0.00    -0.237 OA
ATOM     73  O   UNL A   1      50.419  26.478  34.035  1.00  0.00    -0.744 OA
ENDBRANCH  69  70
ENDBRANCH  48  62
BRANCH  49  74
ATOM     74  C   UNL A   1      37.237  32.661  30.059  1.00  0.00     0.058 A 
ATOM     75  C   UNL A   1      37.139  33.594  29.016  1.00  0.00     0.135 A 
ATOM     76  C   UNL A   1      36.078  32.401  30.809  1.00  0.00     0.135 A 
ATOM     77  F   UNL A   1      38.218  33.882  28.271  1.00  0.00    -0.206 F 
ATOM     78  C   UNL A   1      35.950  34.262  28.742  1.00  0.00     0.059 A 
ATOM     79  C   UNL A   1      34.869  33.030  30.533  1.00  0.00     0.059 A 
ATOM     80  F   UNL A   1      36.111  31.504  31.807  1.00  0.00    -0.206 F 
ATOM     81  C   UNL A   1      34.819  33.969  29.505  1.00  0.00     0.060 A 
BRANCH  81  82
ATOM     82  S   UNL A   1      33.271  34.814  29.114  1.00  0.00     0.124 S 
ATOM     83  O   UNL A   1      32.645  33.872  28.195  1.00  0.00    -0.237 OA
ATOM     84  O   UNL A   1      32.650  34.934  30.430  1.00  0.00    -0.237 OA
ATOM     85  O   UNL A   1      33.716  36.073  28.523  1.00  0.00    -0.744 OA
ENDBRANCH  81  82
ENDBRANCH  49  74
BRANCH  61  86
ATOM     86  C   UNL A   1      42.973  34.473  33.610  1.00  0.00     0.058 A 
ATOM     87  C   UNL A   1      42.796  34.665  34.988  1.00  0.00     0.135 A 
ATOM     88  C   UNL A   1      43.604  35.497  32.882  1.00  0.00     0.135 A 
ATOM     89  F   UNL A   1      42.195  33.721  35.731  1.00  0.00    -0.206 F 
ATOM     90  C   UNL A   1      43.198  35.839  35.615  1.00  0.00     0.059 A 
ATOM     91  C   UNL A   1      44.050  36.662  33.495  1.00  0.00     0.059 A 
ATOM     92  F   UNL A   1      43.812  35.361  31.563  1.00  0.00    -0.206 F 
ATOM     93  C   UNL A   1      43.828  36.830  34.861  1.00  0.00     0.060 A 
BRANCH  93  94
ATOM     94  S   UNL A   1      44.369  38.337  35.693  1.00  0.00     0.124 S 
ATOM     95  O   UNL A   1      45.816  38.153  35.724  1.00  0.00    -0.237 OA
ATOM     96  O   UNL A   1      43.880  39.379  34.796  1.00  0.00    -0.237 OA
ATOM     97  O   UNL A   1      43.700  38.269  36.990  1.00  0.00    -0.744 OA
ENDBRANCH  93  94
ENDBRANCH  61  86
ENDBRANCH  35  36
ENDBRANCH  27  30
ENDBRANCH  25  26
ENDBRANCH  24  25
ENDBRANCH   1  24
TORSDOF 17
ENDMDL
