MODEL 1
REMARK VINA RESULT:     -10.5      0.000      0.000
REMARK SMILES CCn1cc(S(=O)(=O)N2CCC(CCc3ccc(C(=O)NCCCCNC(=O)c4ccc(-c5c6nc(c(-c7c(F)cc(S(=O)(=O)[O-])cc7F)c7ccc([nH]7)c(-c7c(F)cc(S(=O)(=O)[O-])cc7F)c7nc(c(-c8c(F)cc(S(=O)(=O)[O-])cc8F)c8ccc5[nH]8)C=C7)C=C6)cc4)cc3)CC2)cn1
REMARK SMILES IDX 22 1 21 2 19 3 20 4 18 6 15 7 16 8 96 9 17 10 95 11 14 12
REMARK SMILES IDX 13 13 12 14 9 15 10 16 98 17 11 18 97 19 6 20 7 21 8 22 5 23
REMARK SMILES IDX 3 24 4 25 100 26 99 27 2 28 1 29 23 30 24 31 25 32 26 33
REMARK SMILES IDX 27 34 28 36 29 37 30 38 94 39 31 40 93 41 32 42 33 43 34 44
REMARK SMILES IDX 87 45 35 46 92 47 86 48 88 49 36 50 91 51 85 52 84 53 37 55
REMARK SMILES IDX 71 56 50 57 70 58 51 59 54 60 69 61 89 62 52 63 53 64 68 66
REMARK SMILES IDX 90 67 55 68 38 69 39 70 48 71 40 72 41 73 47 74 49 75 42 76
REMARK SMILES IDX 43 77 44 78 45 79 46 80 72 81 73 82 82 83 74 84 75 85 81 86
REMARK SMILES IDX 83 87 76 88 77 89 78 90 79 91 80 92 56 93 57 94 66 95 58 96
REMARK SMILES IDX 59 97 65 98 67 99 60 100 61 101 62 102 63 103 64 104
REMARK H PARENT 21 5 26 35 88 54 54 65
REMARK Flexibility Score: inf
ROOT
ATOM      1  C   UNL A   1      32.570  35.964  29.907  1.00  0.00     0.116 C 
ENDROOT
BRANCH   1   2
ATOM      2  N   UNL A   1      32.981  36.824  31.002  1.00  0.00    -0.352 N 
ATOM      3  C   UNL A   1      33.741  36.655  32.134  1.00  0.00     0.251 C 
ATOM      4  O   UNL A   1      33.777  37.606  32.918  1.00  0.00    -0.269 OA
ATOM      5  H   UNL A   1      32.634  37.741  30.912  1.00  0.00     0.163 HD
BRANCH   3   6
ATOM      6  C   UNL A   1      34.516  35.425  32.473  1.00  0.00     0.039 A 
ATOM      7  C   UNL A   1      35.863  32.998  33.104  1.00  0.00    -0.048 A 
ATOM      8  C   UNL A   1      34.471  33.075  33.183  1.00  0.00     0.004 A 
ATOM      9  C   UNL A   1      36.551  34.179  32.839  1.00  0.00     0.004 A 
ATOM     10  C   UNL A   1      33.810  34.286  32.903  1.00  0.00     0.014 A 
ATOM     11  C   UNL A   1      35.896  35.328  32.413  1.00  0.00     0.014 A 
BRANCH   7  12
ATOM     12  C   UNL A   1      36.618  31.699  33.280  1.00  0.00     0.036 C 
BRANCH  12  13
ATOM     13  C   UNL A   1      38.169  31.844  33.300  1.00  0.00     0.008 C 
BRANCH  13  14
ATOM     14  C   UNL A   1      38.833  31.963  34.691  1.00  0.00    -0.008 C 
ATOM     15  N   UNL A   1      39.644  33.065  37.248  1.00  0.00    -0.198 NA
ATOM     16  C   UNL A   1      40.575  33.117  36.099  1.00  0.00     0.103 C 
ATOM     17  C   UNL A   1      38.621  31.990  37.185  1.00  0.00     0.103 C 
ATOM     18  C   UNL A   1      39.805  33.147  34.783  1.00  0.00     0.020 C 
ATOM     19  C   UNL A   1      37.847  32.057  35.860  1.00  0.00     0.020 C 
BRANCH  15  20
ATOM     20  S   UNL A   1      40.372  33.327  38.768  1.00  0.00     0.246 S 
ATOM     21  O   UNL A   1      40.684  34.740  38.889  1.00  0.00    -0.207 OA
ATOM     22  O   UNL A   1      41.375  32.311  38.975  1.00  0.00    -0.207 OA
BRANCH  20  23
ATOM     23  C   UNL A   1      39.258  33.055  40.040  1.00  0.00     0.120 A 
ATOM     24  N   UNL A   1      38.091  32.303  41.723  1.00  0.00    -0.272 N 
ATOM     25  C   UNL A   1      39.224  32.063  40.997  1.00  0.00     0.130 A 
ATOM     26  N   UNL A   1      37.419  33.397  41.325  1.00  0.00    -0.180 NA
ATOM     27  C   UNL A   1      38.132  33.851  40.291  1.00  0.00     0.156 A 
BRANCH  24  28
ATOM     28  C   UNL A   1      37.495  31.410  42.702  1.00  0.00     0.141 C 
ATOM     29  C   UNL A   1      38.155  30.044  42.623  1.00  0.00     0.029 C 
ENDBRANCH  24  28
ENDBRANCH  20  23
ENDBRANCH  15  20
ENDBRANCH  13  14
ENDBRANCH  12  13
ENDBRANCH   7  12
ENDBRANCH   3   6
ENDBRANCH   1   2
BRANCH   1  30
ATOM     30  C   UNL A   1      33.786  35.477  29.109  1.00  0.00     0.023 C 
BRANCH  30  31
ATOM     31  C   UNL A   1      34.128  33.991  29.325  1.00  0.00     0.023 C 
BRANCH  31  32
ATOM     32  C   UNL A   1      34.527  33.239  28.057  1.00  0.00     0.116 C 
BRANCH  32  33
ATOM     33  N   UNL A   1      34.030  31.860  28.074  1.00  0.00    -0.352 N 
ATOM     34  C   UNL A   1      34.720  30.666  27.940  1.00  0.00     0.251 C 
ATOM     35  H   UNL A   1      33.058  31.768  28.200  1.00  0.00     0.163 HD
ATOM     36  O   UNL A   1      34.162  29.643  27.564  1.00  0.00    -0.269 OA
BRANCH  34  37
ATOM     37  C   UNL A   1      36.127  30.639  28.331  1.00  0.00     0.039 A 
ATOM     38  C   UNL A   1      36.661  31.414  29.367  1.00  0.00     0.014 A 
ATOM     39  C   UNL A   1      36.909  29.746  27.615  1.00  0.00     0.014 A 
ATOM     40  C   UNL A   1      37.995  31.221  29.711  1.00  0.00     0.010 A 
ATOM     41  C   UNL A   1      38.101  29.368  28.129  1.00  0.00     0.010 A 
ATOM     42  C   UNL A   1      38.693  30.190  29.078  1.00  0.00    -0.014 A 
BRANCH  42  43
ATOM     43  C   UNL A   1      40.073  29.856  29.352  1.00  0.00     0.031 A 
ATOM     44  C   UNL A   1      40.354  29.572  30.779  1.00  0.00     0.074 A 
ATOM     45  C   UNL A   1      40.854  29.447  28.329  1.00  0.00     0.049 A 
ATOM     46  N   UNL A   1      41.016  30.304  31.610  1.00  0.00    -0.248 NA
ATOM     47  C   UNL A   1      39.631  28.459  31.421  1.00  0.00     0.031 C 
ATOM     48  C   UNL A   1      40.504  29.304  26.905  1.00  0.00     0.029 A 
ATOM     49  N   UNL A   1      42.090  28.899  28.384  1.00  0.00    -0.354 N 
ATOM     50  C   UNL A   1      41.014  29.596  32.810  1.00  0.00     0.074 A 
ATOM     51  C   UNL A   1      39.924  28.665  32.706  1.00  0.00     0.031 C 
ATOM     52  C   UNL A   1      41.402  28.501  26.297  1.00  0.00     0.029 A 
ATOM     53  C   UNL A   1      42.466  28.207  27.234  1.00  0.00     0.049 A 
ATOM     54  H   UNL A   1      42.675  28.980  29.171  1.00  0.00     0.167 HD
ATOM     55  C   UNL A   1      42.082  29.629  33.657  1.00  0.00     0.037 A 
ATOM     56  C   UNL A   1      43.548  27.393  27.139  1.00  0.00     0.037 A 
ATOM     57  C   UNL A   1      43.030  30.632  33.223  1.00  0.00     0.049 A 
ATOM     58  C   UNL A   1      44.450  27.771  28.272  1.00  0.00     0.074 A 
ATOM     59  C   UNL A   1      42.967  31.998  33.021  1.00  0.00     0.029 A 
ATOM     60  N   UNL A   1      44.129  30.195  32.514  1.00  0.00    -0.354 N 
ATOM     61  N   UNL A   1      45.006  28.953  28.385  1.00  0.00    -0.248 NA
ATOM     62  C   UNL A   1      44.301  27.041  29.525  1.00  0.00     0.031 C 
ATOM     63  C   UNL A   1      43.714  32.226  31.828  1.00  0.00     0.029 A 
ATOM     64  C   UNL A   1      44.270  31.011  31.420  1.00  0.00     0.049 A 
ATOM     65  H   UNL A   1      44.707  29.434  32.750  1.00  0.00     0.167 HD
ATOM     66  C   UNL A   1      44.903  29.282  29.734  1.00  0.00     0.074 A 
ATOM     67  C   UNL A   1      44.519  28.034  30.395  1.00  0.00     0.031 C 
ATOM     68  C   UNL A   1      44.825  30.583  30.149  1.00  0.00     0.037 A 
BRANCH  55  69
ATOM     69  C   UNL A   1      42.483  28.541  34.631  1.00  0.00     0.058 A 
ATOM     70  C   UNL A   1      42.638  28.884  35.992  1.00  0.00     0.135 A 
ATOM     71  C   UNL A   1      42.970  27.265  34.275  1.00  0.00     0.135 A 
ATOM     72  F   UNL A   1      42.183  30.058  36.459  1.00  0.00    -0.206 F 
ATOM     73  C   UNL A   1      43.328  28.078  36.896  1.00  0.00     0.059 A 
ATOM     74  C   UNL A   1      43.612  26.420  35.174  1.00  0.00     0.059 A 
ATOM     75  F   UNL A   1      42.942  26.797  33.024  1.00  0.00    -0.206 F 
ATOM     76  C   UNL A   1      43.836  26.858  36.467  1.00  0.00     0.060 A 
BRANCH  76  77
ATOM     77  S   UNL A   1      44.851  25.880  37.585  1.00  0.00     0.124 S 
ATOM     78  O   UNL A   1      43.880  24.910  38.080  1.00  0.00    -0.237 OA
ATOM     79  O   UNL A   1      45.876  25.360  36.687  1.00  0.00    -0.237 OA
ATOM     80  O   UNL A   1      45.317  26.861  38.561  1.00  0.00    -0.744 OA
ENDBRANCH  76  77
ENDBRANCH  55  69
BRANCH  56  81
ATOM     81  C   UNL A   1      43.635  26.109  26.389  1.00  0.00     0.058 A 
ATOM     82  C   UNL A   1      44.646  25.876  25.442  1.00  0.00     0.135 A 
ATOM     83  C   UNL A   1      42.871  24.980  26.763  1.00  0.00     0.135 A 
ATOM     84  F   UNL A   1      45.436  26.884  25.041  1.00  0.00    -0.206 F 
ATOM     85  C   UNL A   1      44.912  24.599  24.927  1.00  0.00     0.059 A 
ATOM     86  C   UNL A   1      43.108  23.703  26.255  1.00  0.00     0.059 A 
ATOM     87  F   UNL A   1      41.921  25.065  27.706  1.00  0.00    -0.206 F 
ATOM     88  C   UNL A   1      44.147  23.513  25.356  1.00  0.00     0.060 A 
BRANCH  88  89
ATOM     89  S   UNL A   1      44.589  21.838  24.832  1.00  0.00     0.124 S 
ATOM     90  O   UNL A   1      44.612  21.971  23.380  1.00  0.00    -0.237 OA
ATOM     91  O   UNL A   1      45.883  21.645  25.477  1.00  0.00    -0.237 OA
ATOM     92  O   UNL A   1      43.503  21.020  25.366  1.00  0.00    -0.744 OA
ENDBRANCH  88  89
ENDBRANCH  56  81
BRANCH  68  93
ATOM     93  C   UNL A   1      45.106  31.687  29.155  1.00  0.00     0.058 A 
ATOM     94  C   UNL A   1      46.392  32.041  28.705  1.00  0.00     0.135 A 
ATOM     95  C   UNL A   1      44.021  32.249  28.469  1.00  0.00     0.135 A 
ATOM     96  F   UNL A   1      47.484  31.476  29.230  1.00  0.00    -0.206 F 
ATOM     97  C   UNL A   1      46.589  32.926  27.643  1.00  0.00     0.059 A 
ATOM     98  C   UNL A   1      44.191  33.110  27.388  1.00  0.00     0.059 A 
ATOM     99  F   UNL A   1      42.766  31.903  28.803  1.00  0.00    -0.206 F 
ATOM    100  C   UNL A   1      45.480  33.450  26.984  1.00  0.00     0.060 A 
BRANCH 100 101
ATOM    101  S   UNL A   1      45.734  34.516  25.549  1.00  0.00     0.124 S 
ATOM    102  O   UNL A   1      45.275  35.810  26.044  1.00  0.00    -0.237 OA
ATOM    103  O   UNL A   1      47.172  34.400  25.318  1.00  0.00    -0.237 OA
ATOM    104  O   UNL A   1      44.895  33.907  24.519  1.00  0.00    -0.744 OA
ENDBRANCH 100 101
ENDBRANCH  68  93
ENDBRANCH  42  43
ENDBRANCH  34  37
ENDBRANCH  32  33
ENDBRANCH  31  32
ENDBRANCH  30  31
ENDBRANCH   1  30
TORSDOF 20
ENDMDL
MODEL 2
REMARK VINA RESULT:     -10.1      3.865     11.917
REMARK SMILES CCn1cc(S(=O)(=O)N2CCC(CCc3ccc(C(=O)NCCCCNC(=O)c4ccc(-c5c6nc(c(-c7c(F)cc(S(=O)(=O)[O-])cc7F)c7ccc([nH]7)c(-c7c(F)cc(S(=O)(=O)[O-])cc7F)c7nc(c(-c8c(F)cc(S(=O)(=O)[O-])cc8F)c8ccc5[nH]8)C=C7)C=C6)cc4)cc3)CC2)cn1
REMARK SMILES IDX 22 1 21 2 19 3 20 4 18 6 15 7 16 8 96 9 17 10 95 11 14 12
REMARK SMILES IDX 13 13 12 14 9 15 10 16 98 17 11 18 97 19 6 20 7 21 8 22 5 23
REMARK SMILES IDX 3 24 4 25 100 26 99 27 2 28 1 29 23 30 24 31 25 32 26 33
REMARK SMILES IDX 27 34 28 36 29 37 30 38 94 39 31 40 93 41 32 42 33 43 34 44
REMARK SMILES IDX 87 45 35 46 92 47 86 48 88 49 36 50 91 51 85 52 84 53 37 55
REMARK SMILES IDX 71 56 50 57 70 58 51 59 54 60 69 61 89 62 52 63 53 64 68 66
REMARK SMILES IDX 90 67 55 68 38 69 39 70 48 71 40 72 41 73 47 74 49 75 42 76
REMARK SMILES IDX 43 77 44 78 45 79 46 80 72 81 73 82 82 83 74 84 75 85 81 86
REMARK SMILES IDX 83 87 76 88 77 89 78 90 79 91 80 92 56 93 57 94 66 95 58 96
REMARK SMILES IDX 59 97 65 98 67 99 60 100 61 101 62 102 63 103 64 104
REMARK H PARENT 21 5 26 35 88 54 54 65
REMARK Flexibility Score: inf
ROOT
ATOM      1  C   UNL A   1      45.625  24.514  25.049  1.00  0.00     0.116 C 
ENDROOT
BRANCH   1   2
ATOM      2  N   UNL A   1      46.970  24.489  25.593  1.00  0.00    -0.352 N 
ATOM      3  C   UNL A   1      47.513  24.660  26.844  1.00  0.00     0.251 C 
ATOM      4  O   UNL A   1      48.743  24.688  26.910  1.00  0.00    -0.269 OA
ATOM      5  H   UNL A   1      47.652  24.307  24.907  1.00  0.00     0.163 HD
BRANCH   3   6
ATOM      6  C   UNL A   1      46.730  24.808  28.107  1.00  0.00     0.039 A 
ATOM      7  C   UNL A   1      45.297  25.232  30.529  1.00  0.00    -0.048 A 
ATOM      8  C   UNL A   1      46.388  26.040  30.203  1.00  0.00     0.004 A 
ATOM      9  C   UNL A   1      45.037  24.149  29.695  1.00  0.00     0.004 A 
ATOM     10  C   UNL A   1      47.116  25.807  29.021  1.00  0.00     0.014 A 
ATOM     11  C   UNL A   1      45.652  24.013  28.457  1.00  0.00     0.014 A 
BRANCH   7  12
ATOM     12  C   UNL A   1      44.409  25.507  31.724  1.00  0.00     0.036 C 
BRANCH  12  13
ATOM     13  C   UNL A   1      45.173  25.773  33.055  1.00  0.00     0.008 C 
BRANCH  13  14
ATOM     14  C   UNL A   1      45.337  24.567  34.009  1.00  0.00    -0.008 C 
ATOM     15  N   UNL A   1      46.030  21.925  34.981  1.00  0.00    -0.198 NA
ATOM     16  C   UNL A   1      44.640  22.209  34.557  1.00  0.00     0.103 C 
ATOM     17  C   UNL A   1      46.817  23.110  35.406  1.00  0.00     0.103 C 
ATOM     18  C   UNL A   1      44.614  23.311  33.505  1.00  0.00     0.020 C 
ATOM     19  C   UNL A   1      46.790  24.195  34.319  1.00  0.00     0.020 C 
BRANCH  15  20
ATOM     20  S   UNL A   1      46.213  20.517  35.927  1.00  0.00     0.246 S 
ATOM     21  O   UNL A   1      45.963  19.363  35.083  1.00  0.00    -0.207 OA
ATOM     22  O   UNL A   1      45.511  20.709  37.172  1.00  0.00    -0.207 OA
BRANCH  20  23
ATOM     23  C   UNL A   1      47.842  20.309  36.413  1.00  0.00     0.120 A 
ATOM     24  N   UNL A   1      49.730  20.054  37.476  1.00  0.00    -0.272 N 
ATOM     25  C   UNL A   1      48.377  20.094  37.665  1.00  0.00     0.130 A 
ATOM     26  N   UNL A   1      50.097  20.189  36.190  1.00  0.00    -0.180 NA
ATOM     27  C   UNL A   1      48.940  20.352  35.543  1.00  0.00     0.156 A 
BRANCH  24  28
ATOM     28  C   UNL A   1      50.742  20.071  38.518  1.00  0.00     0.141 C 
ATOM     29  C   UNL A   1      51.198  21.498  38.770  1.00  0.00     0.029 C 
ENDBRANCH  24  28
ENDBRANCH  20  23
ENDBRANCH  15  20
ENDBRANCH  13  14
ENDBRANCH  12  13
ENDBRANCH   7  12
ENDBRANCH   3   6
ENDBRANCH   1   2
BRANCH   1  30
ATOM     30  C   UNL A   1      45.099  23.090  24.826  1.00  0.00     0.023 C 
BRANCH  30  31
ATOM     31  C   UNL A   1      43.826  22.756  25.626  1.00  0.00     0.023 C 
BRANCH  31  32
ATOM     32  C   UNL A   1      42.552  23.412  25.097  1.00  0.00     0.116 C 
BRANCH  32  33
ATOM     33  N   UNL A   1      41.353  22.790  25.668  1.00  0.00    -0.352 N 
ATOM     34  C   UNL A   1      40.688  23.065  26.852  1.00  0.00     0.251 C 
ATOM     35  H   UNL A   1      40.960  22.067  25.128  1.00  0.00     0.163 HD
ATOM     36  O   UNL A   1      39.979  22.229  27.397  1.00  0.00    -0.269 OA
BRANCH  34  37
ATOM     37  C   UNL A   1      40.798  24.413  27.404  1.00  0.00     0.039 A 
ATOM     38  C   UNL A   1      39.831  25.409  27.220  1.00  0.00     0.014 A 
ATOM     39  C   UNL A   1      41.933  24.635  28.168  1.00  0.00     0.014 A 
ATOM     40  C   UNL A   1      40.002  26.619  27.883  1.00  0.00     0.010 A 
ATOM     41  C   UNL A   1      41.950  25.687  29.017  1.00  0.00     0.010 A 
ATOM     42  C   UNL A   1      41.069  26.733  28.778  1.00  0.00    -0.014 A 
BRANCH  42  43
ATOM     43  C   UNL A   1      41.355  27.918  29.555  1.00  0.00     0.031 A 
ATOM     44  C   UNL A   1      42.364  28.814  28.942  1.00  0.00     0.074 A 
ATOM     45  C   UNL A   1      40.461  28.309  30.489  1.00  0.00     0.049 A 
ATOM     46  N   UNL A   1      43.575  29.020  29.337  1.00  0.00    -0.248 NA
ATOM     47  C   UNL A   1      42.076  29.376  27.610  1.00  0.00     0.031 C 
ATOM     48  C   UNL A   1      39.190  27.670  30.871  1.00  0.00     0.029 A 
ATOM     49  N   UNL A   1      40.421  29.475  31.176  1.00  0.00    -0.354 N 
ATOM     50  C   UNL A   1      44.103  29.950  28.446  1.00  0.00     0.074 A 
ATOM     51  C   UNL A   1      43.265  29.886  27.280  1.00  0.00     0.031 C 
ATOM     52  C   UNL A   1      38.414  28.559  31.523  1.00  0.00     0.029 A 
ATOM     53  C   UNL A   1      39.183  29.766  31.746  1.00  0.00     0.049 A 
ATOM     54  H   UNL A   1      41.201  30.069  31.264  1.00  0.00     0.167 HD
ATOM     55  C   UNL A   1      44.994  30.899  28.853  1.00  0.00     0.037 A 
ATOM     56  C   UNL A   1      38.839  30.965  32.280  1.00  0.00     0.037 A 
ATOM     57  C   UNL A   1      45.425  30.629  30.207  1.00  0.00     0.049 A 
ATOM     58  C   UNL A   1      40.126  31.676  32.561  1.00  0.00     0.074 A 
ATOM     59  C   UNL A   1      46.056  29.566  30.826  1.00  0.00     0.029 A 
ATOM     60  N   UNL A   1      44.822  31.351  31.215  1.00  0.00    -0.354 N 
ATOM     61  N   UNL A   1      41.015  31.241  33.420  1.00  0.00    -0.248 NA
ATOM     62  C   UNL A   1      40.654  32.551  31.522  1.00  0.00     0.031 C 
ATOM     63  C   UNL A   1      45.395  29.432  32.084  1.00  0.00     0.029 A 
ATOM     64  C   UNL A   1      44.468  30.469  32.206  1.00  0.00     0.049 A 
ATOM     65  H   UNL A   1      44.673  32.324  31.223  1.00  0.00     0.167 HD
ATOM     66  C   UNL A   1      42.249  31.443  32.807  1.00  0.00     0.074 A 
ATOM     67  C   UNL A   1      41.963  32.316  31.668  1.00  0.00     0.031 C 
ATOM     68  C   UNL A   1      43.325  30.643  33.082  1.00  0.00     0.037 A 
BRANCH  55  69
ATOM     69  C   UNL A   1      45.198  32.260  28.222  1.00  0.00     0.058 A 
ATOM     70  C   UNL A   1      46.485  32.590  27.743  1.00  0.00     0.135 A 
ATOM     71  C   UNL A   1      44.291  33.340  28.296  1.00  0.00     0.135 A 
ATOM     72  F   UNL A   1      47.426  31.643  27.595  1.00  0.00    -0.206 F 
ATOM     73  C   UNL A   1      46.874  33.902  27.475  1.00  0.00     0.059 A 
ATOM     74  C   UNL A   1      44.641  34.648  27.980  1.00  0.00     0.059 A 
ATOM     75  F   UNL A   1      43.046  33.215  28.766  1.00  0.00    -0.206 F 
ATOM     76  C   UNL A   1      45.949  34.929  27.625  1.00  0.00     0.060 A 
BRANCH  76  77
ATOM     77  S   UNL A   1      46.479  36.635  27.423  1.00  0.00     0.124 S 
ATOM     78  O   UNL A   1      47.674  36.469  26.603  1.00  0.00    -0.237 OA
ATOM     79  O   UNL A   1      45.326  37.235  26.762  1.00  0.00    -0.237 OA
ATOM     80  O   UNL A   1      46.711  37.079  28.795  1.00  0.00    -0.744 OA
ENDBRANCH  76  77
ENDBRANCH  55  69
BRANCH  56  81
ATOM     81  C   UNL A   1      37.513  31.636  32.186  1.00  0.00     0.058 A 
ATOM     82  C   UNL A   1      36.793  32.009  33.333  1.00  0.00     0.135 A 
ATOM     83  C   UNL A   1      37.029  32.152  30.962  1.00  0.00     0.135 A 
ATOM     84  F   UNL A   1      37.189  31.584  34.543  1.00  0.00    -0.206 F 
ATOM     85  C   UNL A   1      35.688  32.871  33.278  1.00  0.00     0.059 A 
ATOM     86  C   UNL A   1      35.925  33.000  30.881  1.00  0.00     0.059 A 
ATOM     87  F   UNL A   1      37.671  31.919  29.808  1.00  0.00    -0.206 F 
ATOM     88  C   UNL A   1      35.273  33.377  32.046  1.00  0.00     0.060 A 
BRANCH  88  89
ATOM     89  S   UNL A   1      33.961  34.622  31.979  1.00  0.00     0.124 S 
ATOM     90  O   UNL A   1      33.581  34.586  30.570  1.00  0.00    -0.237 OA
ATOM     91  O   UNL A   1      32.981  34.087  32.918  1.00  0.00    -0.237 OA
ATOM     92  O   UNL A   1      34.631  35.845  32.412  1.00  0.00    -0.744 OA
ENDBRANCH  88  89
ENDBRANCH  56  81
BRANCH  68  93
ATOM     93  C   UNL A   1      43.246  29.685  34.248  1.00  0.00     0.058 A 
ATOM     94  C   UNL A   1      42.724  28.381  34.169  1.00  0.00     0.135 A 
ATOM     95  C   UNL A   1      43.929  30.021  35.426  1.00  0.00     0.135 A 
ATOM     96  F   UNL A   1      42.148  27.937  33.047  1.00  0.00    -0.206 F 
ATOM     97  C   UNL A   1      42.852  27.464  35.216  1.00  0.00     0.059 A 
ATOM     98  C   UNL A   1      44.097  29.115  36.470  1.00  0.00     0.059 A 
ATOM     99  F   UNL A   1      44.510  31.226  35.542  1.00  0.00    -0.206 F 
ATOM    100  C   UNL A   1      43.549  27.839  36.362  1.00  0.00     0.060 A 
BRANCH 100 101
ATOM    101  S   UNL A   1      43.801  26.624  37.673  1.00  0.00     0.124 S 
ATOM    102  O   UNL A   1      42.457  26.080  37.848  1.00  0.00    -0.237 OA
ATOM    103  O   UNL A   1      44.779  25.715  37.080  1.00  0.00    -0.237 OA
ATOM    104  O   UNL A   1      44.301  27.424  38.788  1.00  0.00    -0.744 OA
ENDBRANCH 100 101
ENDBRANCH  68  93
ENDBRANCH  42  43
ENDBRANCH  34  37
ENDBRANCH  32  33
ENDBRANCH  31  32
ENDBRANCH  30  31
ENDBRANCH   1  30
TORSDOF 20
ENDMDL
MODEL 3
REMARK VINA RESULT:      -9.6      4.883     13.389
REMARK SMILES CCn1cc(S(=O)(=O)N2CCC(CCc3ccc(C(=O)NCCCCNC(=O)c4ccc(-c5c6nc(c(-c7c(F)cc(S(=O)(=O)[O-])cc7F)c7ccc([nH]7)c(-c7c(F)cc(S(=O)(=O)[O-])cc7F)c7nc(c(-c8c(F)cc(S(=O)(=O)[O-])cc8F)c8ccc5[nH]8)C=C7)C=C6)cc4)cc3)CC2)cn1
REMARK SMILES IDX 22 1 21 2 19 3 20 4 18 6 15 7 16 8 96 9 17 10 95 11 14 12
REMARK SMILES IDX 13 13 12 14 9 15 10 16 98 17 11 18 97 19 6 20 7 21 8 22 5 23
REMARK SMILES IDX 3 24 4 25 100 26 99 27 2 28 1 29 23 30 24 31 25 32 26 33
REMARK SMILES IDX 27 34 28 36 29 37 30 38 94 39 31 40 93 41 32 42 33 43 34 44
REMARK SMILES IDX 87 45 35 46 92 47 86 48 88 49 36 50 91 51 85 52 84 53 37 55
REMARK SMILES IDX 71 56 50 57 70 58 51 59 54 60 69 61 89 62 52 63 53 64 68 66
REMARK SMILES IDX 90 67 55 68 38 69 39 70 48 71 40 72 41 73 47 74 49 75 42 76
REMARK SMILES IDX 43 77 44 78 45 79 46 80 72 81 73 82 82 83 74 84 75 85 81 86
REMARK SMILES IDX 83 87 76 88 77 89 78 90 79 91 80 92 56 93 57 94 66 95 58 96
REMARK SMILES IDX 59 97 65 98 67 99 60 100 61 101 62 102 63 103 64 104
REMARK H PARENT 21 5 26 35 88 54 54 65
REMARK Flexibility Score: inf
ROOT
ATOM      1  C   UNL A   1      43.786  23.388  31.391  1.00  0.00     0.116 C 
ENDROOT
BRANCH   1   2
ATOM      2  N   UNL A   1      44.532  23.432  30.147  1.00  0.00    -0.352 N 
ATOM      3  C   UNL A   1      44.199  23.374  28.815  1.00  0.00     0.251 C 
ATOM      4  O   UNL A   1      45.136  23.320  28.016  1.00  0.00    -0.269 OA
ATOM      5  H   UNL A   1      45.501  23.524  30.291  1.00  0.00     0.163 HD
BRANCH   3   6
ATOM      6  C   UNL A   1      42.806  23.378  28.276  1.00  0.00     0.039 A 
ATOM      7  C   UNL A   1      40.159  23.538  27.242  1.00  0.00    -0.048 A 
ATOM      8  C   UNL A   1      40.771  24.664  27.798  1.00  0.00     0.004 A 
ATOM      9  C   UNL A   1      40.844  22.330  27.341  1.00  0.00     0.004 A 
ATOM     10  C   UNL A   1      42.067  24.574  28.339  1.00  0.00     0.014 A 
ATOM     11  C   UNL A   1      42.176  22.272  27.731  1.00  0.00     0.014 A 
BRANCH   7  12
ATOM     12  C   UNL A   1      38.819  23.601  26.543  1.00  0.00     0.036 C 
BRANCH  12  13
ATOM     13  C   UNL A   1      38.325  22.244  25.958  1.00  0.00     0.008 C 
BRANCH  13  14
ATOM     14  C   UNL A   1      36.896  22.226  25.368  1.00  0.00    -0.008 C 
ATOM     15  N   UNL A   1      34.029  21.845  25.160  1.00  0.00    -0.198 NA
ATOM     16  C   UNL A   1      34.947  20.816  24.621  1.00  0.00     0.103 C 
ATOM     17  C   UNL A   1      34.599  23.213  25.254  1.00  0.00     0.103 C 
ATOM     18  C   UNL A   1      36.270  20.825  25.378  1.00  0.00     0.020 C 
ATOM     19  C   UNL A   1      35.919  23.196  26.040  1.00  0.00     0.020 C 
BRANCH  15  20
ATOM     20  S   UNL A   1      32.423  21.732  24.597  1.00  0.00     0.246 S 
ATOM     21  O   UNL A   1      31.776  20.625  25.278  1.00  0.00    -0.207 OA
ATOM     22  O   UNL A   1      32.435  21.831  23.158  1.00  0.00    -0.207 OA
BRANCH  20  23
ATOM     23  C   UNL A   1      31.502  23.092  25.085  1.00  0.00     0.120 A 
ATOM     24  N   UNL A   1      30.402  24.968  25.252  1.00  0.00    -0.272 N 
ATOM     25  C   UNL A   1      31.023  24.153  24.348  1.00  0.00     0.130 A 
ATOM     26  N   UNL A   1      30.415  24.486  26.508  1.00  0.00    -0.180 NA
ATOM     27  C   UNL A   1      31.096  23.342  26.403  1.00  0.00     0.156 A 
BRANCH  24  28
ATOM     28  C   UNL A   1      29.931  26.320  25.007  1.00  0.00     0.141 C 
ATOM     29  C   UNL A   1      31.079  27.184  24.513  1.00  0.00     0.029 C 
ENDBRANCH  24  28
ENDBRANCH  20  23
ENDBRANCH  15  20
ENDBRANCH  13  14
ENDBRANCH  12  13
ENDBRANCH   7  12
ENDBRANCH   3   6
ENDBRANCH   1   2
BRANCH   1  30
ATOM     30  C   UNL A   1      44.718  23.575  32.595  1.00  0.00     0.023 C 
BRANCH  30  31
ATOM     31  C   UNL A   1      44.644  24.972  33.238  1.00  0.00     0.023 C 
BRANCH  31  32
ATOM     32  C   UNL A   1      44.483  24.964  34.757  1.00  0.00     0.116 C 
BRANCH  32  33
ATOM     33  N   UNL A   1      43.179  24.422  35.154  1.00  0.00    -0.352 N 
ATOM     34  C   UNL A   1      42.057  25.074  35.640  1.00  0.00     0.251 C 
ATOM     35  H   UNL A   1      43.087  23.447  35.061  1.00  0.00     0.163 HD
ATOM     36  O   UNL A   1      41.214  24.487  36.305  1.00  0.00    -0.269 OA
BRANCH  34  37
ATOM     37  C   UNL A   1      41.867  26.476  35.276  1.00  0.00     0.039 A 
ATOM     38  C   UNL A   1      41.467  26.901  34.003  1.00  0.00     0.014 A 
ATOM     39  C   UNL A   1      42.079  27.376  36.308  1.00  0.00     0.014 A 
ATOM     40  C   UNL A   1      41.219  28.256  33.811  1.00  0.00     0.010 A 
ATOM     41  C   UNL A   1      41.575  28.626  36.196  1.00  0.00     0.010 A 
ATOM     42  C   UNL A   1      41.278  29.098  34.925  1.00  0.00    -0.014 A 
BRANCH  42  43
ATOM     43  C   UNL A   1      41.020  30.520  34.882  1.00  0.00     0.031 A 
ATOM     44  C   UNL A   1      42.200  31.338  34.514  1.00  0.00     0.074 A 
ATOM     45  C   UNL A   1      39.742  30.941  34.774  1.00  0.00     0.049 A 
ATOM     46  N   UNL A   1      42.887  32.116  35.280  1.00  0.00    -0.248 NA
ATOM     47  C   UNL A   1      42.831  31.095  33.203  1.00  0.00     0.031 C 
ATOM     48  C   UNL A   1      38.510  30.136  34.714  1.00  0.00     0.029 A 
ATOM     49  N   UNL A   1      39.289  32.191  34.515  1.00  0.00    -0.354 N 
ATOM     50  C   UNL A   1      43.872  32.665  34.463  1.00  0.00     0.074 A 
ATOM     51  C   UNL A   1      43.964  31.789  33.328  1.00  0.00     0.031 C 
ATOM     52  C   UNL A   1      37.507  30.881  34.204  1.00  0.00     0.029 A 
ATOM     53  C   UNL A   1      37.975  32.244  34.056  1.00  0.00     0.049 A 
ATOM     54  H   UNL A   1      39.843  32.995  34.639  1.00  0.00     0.167 HD
ATOM     55  C   UNL A   1      44.314  33.943  34.642  1.00  0.00     0.037 A 
ATOM     56  C   UNL A   1      37.385  33.343  33.522  1.00  0.00     0.037 A 
ATOM     57  C   UNL A   1      43.783  34.485  35.874  1.00  0.00     0.049 A 
ATOM     58  C   UNL A   1      38.208  34.511  33.966  1.00  0.00     0.074 A 
ATOM     59  C   UNL A   1      43.864  34.118  37.204  1.00  0.00     0.029 A 
ATOM     60  N   UNL A   1      42.686  35.314  35.775  1.00  0.00    -0.354 N 
ATOM     61  N   UNL A   1      38.345  34.858  35.223  1.00  0.00    -0.248 NA
ATOM     62  C   UNL A   1      39.287  34.948  33.089  1.00  0.00     0.031 C 
ATOM     63  C   UNL A   1      42.554  34.338  37.724  1.00  0.00     0.029 A 
ATOM     64  C   UNL A   1      41.773  34.912  36.718  1.00  0.00     0.049 A 
ATOM     65  H   UNL A   1      42.578  36.061  35.143  1.00  0.00     0.167 HD
ATOM     66  C   UNL A   1      39.690  35.188  35.370  1.00  0.00     0.074 A 
ATOM     67  C   UNL A   1      40.203  35.288  34.003  1.00  0.00     0.031 C 
ATOM     68  C   UNL A   1      40.336  35.041  36.568  1.00  0.00     0.037 A 
BRANCH  55  69
ATOM     69  C   UNL A   1      44.889  34.846  33.572  1.00  0.00     0.058 A 
ATOM     70  C   UNL A   1      46.182  35.379  33.769  1.00  0.00     0.135 A 
ATOM     71  C   UNL A   1      44.159  35.422  32.509  1.00  0.00     0.135 A 
ATOM     72  F   UNL A   1      46.987  34.890  34.727  1.00  0.00    -0.206 F 
ATOM     73  C   UNL A   1      46.662  36.472  33.049  1.00  0.00     0.059 A 
ATOM     74  C   UNL A   1      44.641  36.477  31.742  1.00  0.00     0.059 A 
ATOM     75  F   UNL A   1      42.906  35.068  32.211  1.00  0.00    -0.206 F 
ATOM     76  C   UNL A   1      45.869  37.032  32.055  1.00  0.00     0.060 A 
BRANCH  76  77
ATOM     77  S   UNL A   1      46.418  38.529  31.223  1.00  0.00     0.124 S 
ATOM     78  O   UNL A   1      46.192  39.532  32.257  1.00  0.00    -0.237 OA
ATOM     79  O   UNL A   1      47.811  38.217  30.925  1.00  0.00    -0.237 OA
ATOM     80  O   UNL A   1      45.536  38.610  30.061  1.00  0.00    -0.744 OA
ENDBRANCH  76  77
ENDBRANCH  55  69
BRANCH  56  81
ATOM     81  C   UNL A   1      36.429  33.377  32.381  1.00  0.00     0.058 A 
ATOM     82  C   UNL A   1      35.086  33.754  32.555  1.00  0.00     0.135 A 
ATOM     83  C   UNL A   1      36.869  33.276  31.042  1.00  0.00     0.135 A 
ATOM     84  F   UNL A   1      34.583  33.894  33.791  1.00  0.00    -0.206 F 
ATOM     85  C   UNL A   1      34.245  34.052  31.473  1.00  0.00     0.059 A 
ATOM     86  C   UNL A   1      36.048  33.556  29.950  1.00  0.00     0.059 A 
ATOM     87  F   UNL A   1      38.147  32.988  30.751  1.00  0.00    -0.206 F 
ATOM     88  C   UNL A   1      34.742  33.969  30.173  1.00  0.00     0.060 A 
BRANCH  88  89
ATOM     89  S   UNL A   1      33.722  34.515  28.781  1.00  0.00     0.124 S 
ATOM     90  O   UNL A   1      32.535  35.025  29.458  1.00  0.00    -0.237 OA
ATOM     91  O   UNL A   1      34.576  35.514  28.148  1.00  0.00    -0.237 OA
ATOM     92  O   UNL A   1      33.522  33.292  28.008  1.00  0.00    -0.744 OA
ENDBRANCH  88  89
ENDBRANCH  56  81
BRANCH  68  93
ATOM     93  C   UNL A   1      39.522  34.753  37.808  1.00  0.00     0.058 A 
ATOM     94  C   UNL A   1      39.181  33.461  38.251  1.00  0.00     0.135 A 
ATOM     95  C   UNL A   1      39.276  35.810  38.696  1.00  0.00     0.135 A 
ATOM     96  F   UNL A   1      39.474  32.383  37.518  1.00  0.00    -0.206 F 
ATOM     97  C   UNL A   1      38.603  33.234  39.502  1.00  0.00     0.059 A 
ATOM     98  C   UNL A   1      38.729  35.605  39.960  1.00  0.00     0.059 A 
ATOM     99  F   UNL A   1      39.638  37.060  38.365  1.00  0.00    -0.206 F 
ATOM    100  C   UNL A   1      38.388  34.314  40.355  1.00  0.00     0.060 A 
BRANCH 100 101
ATOM    101  S   UNL A   1      37.733  34.009  42.010  1.00  0.00     0.124 S 
ATOM    102  O   UNL A   1      37.770  35.342  42.603  1.00  0.00    -0.237 OA
ATOM    103  O   UNL A   1      36.402  33.476  41.731  1.00  0.00    -0.237 OA
ATOM    104  O   UNL A   1      38.674  33.047  42.577  1.00  0.00    -0.744 OA
ENDBRANCH 100 101
ENDBRANCH  68  93
ENDBRANCH  42  43
ENDBRANCH  34  37
ENDBRANCH  32  33
ENDBRANCH  31  32
ENDBRANCH  30  31
ENDBRANCH   1  30
TORSDOF 20
ENDMDL
