MODEL 1
REMARK VINA RESULT:     -13.5      0.000      0.000
REMARK SMILES Cc1ccc2[nH]cc([C@@H](C(=O)NCCCCNC(=O)c3ccc(-c4c5nc(c(-c6c(F)cc(S(=O)(=O)[O-])cc6F)c6ccc([nH]6)c(-c6c(F)cc(S(=O)(=O)[O-])cc6F)c6nc(c(-c7c(F)cc(S(=O)(=O)[O-])cc7F)c7ccc4[nH]7)C=C6)C=C5)cc3)[NH+]3CCN(c4ccc(F)cc4)CC3)c2c1
REMARK SMILES IDX 15 1 14 2 13 3 12 4 10 5 11 6 9 8 8 9 1 10 2 11 3 12 100 13
REMARK SMILES IDX 4 14 99 15 5 16 6 17 7 18 86 20 87 21 98 22 88 24 97 25
REMARK SMILES IDX 89 26 90 27 91 28 96 29 92 30 95 31 93 32 94 33 16 34 17 35
REMARK SMILES IDX 18 36 19 38 20 39 21 40 85 41 22 42 84 43 23 44 24 45 25 46
REMARK SMILES IDX 78 47 26 48 83 49 77 50 79 51 27 52 82 53 76 54 75 55 28 57
REMARK SMILES IDX 62 58 41 59 61 60 42 61 45 62 60 63 80 64 43 65 44 66 59 68
REMARK SMILES IDX 81 69 46 70 29 71 30 72 39 73 31 74 32 75 38 76 40 77 33 78
REMARK SMILES IDX 34 79 35 80 36 81 37 82 63 83 64 84 73 85 65 86 66 87 72 88
REMARK SMILES IDX 74 89 67 90 68 91 69 92 70 93 71 94 47 95 48 96 57 97 49 98
REMARK SMILES IDX 50 99 56 100 58 101 51 102 52 103 53 104 54 105 55 106
REMARK H PARENT 12 7 6 19 86 23 17 37 79 56 45 67
REMARK Flexibility Score: inf
ROOT
ATOM      1  C   UNL A   1      37.495  23.689  25.516  1.00  0.00     0.023 C 
ENDROOT
BRANCH   1   2
ATOM      2  C   UNL A   1      36.217  23.067  26.067  1.00  0.00     0.023 C 
BRANCH   2   3
ATOM      3  C   UNL A   1      34.922  23.600  25.455  1.00  0.00     0.116 C 
BRANCH   3   4
ATOM      4  N   UNL A   1      33.920  23.878  26.462  1.00  0.00    -0.351 N 
ATOM      5  C   UNL A   1      32.674  24.438  26.319  1.00  0.00     0.283 C 
ATOM      6  O   UNL A   1      32.032  24.590  27.363  1.00  0.00    -0.268 OA
ATOM      7  H   UNL A   1      34.167  23.628  27.383  1.00  0.00     0.163 HD
BRANCH   5   8
ATOM      8  C   UNL A   1      32.127  24.771  24.887  1.00  0.00     0.307 C 
BRANCH   8   9
ATOM      9  C   UNL A   1      31.605  26.183  24.766  1.00  0.00     0.044 A 
ATOM     10  C   UNL A   1      34.956  29.129  27.304  1.00  0.00     0.044 C 
ATOM     11  C   UNL A   1      33.759  28.910  26.424  1.00  0.00    -0.050 A 
ATOM     12  C   UNL A   1      32.923  29.974  26.076  1.00  0.00     0.005 A 
ATOM     13  C   UNL A   1      33.443  27.610  25.993  1.00  0.00     0.014 A 
ATOM     14  C   UNL A   1      31.755  29.771  25.335  1.00  0.00     0.027 A 
ATOM     15  C   UNL A   1      32.254  27.370  25.270  1.00  0.00     0.009 A 
ATOM     16  C   UNL A   1      31.434  28.458  24.974  1.00  0.00     0.046 A 
ATOM     17  N   UNL A   1      30.323  27.967  24.332  1.00  0.00    -0.361 N 
ATOM     18  C   UNL A   1      30.383  26.602  24.265  1.00  0.00     0.094 A 
ATOM     19  H   UNL A   1      29.591  28.517  23.973  1.00  0.00     0.166 HD
ENDBRANCH   8   9
BRANCH   8  20
ATOM     20  N   UNL A   1      31.185  23.745  24.375  1.00  0.00    -0.318 N 
ATOM     21  C   UNL A   1      31.412  23.191  23.031  1.00  0.00     0.284 C 
ATOM     22  C   UNL A   1      30.858  22.669  25.324  1.00  0.00     0.284 C 
ATOM     23  H   UNL A   1      30.369  24.346  24.264  1.00  0.00     0.349 HD
ATOM     24  C   UNL A   1      32.286  21.925  22.911  1.00  0.00     0.178 C 
ATOM     25  C   UNL A   1      31.783  21.430  25.311  1.00  0.00     0.178 C 
ATOM     26  N   UNL A   1      31.989  20.925  23.945  1.00  0.00    -0.360 N 
BRANCH  26  27
ATOM     27  C   UNL A   1      32.690  19.721  23.866  1.00  0.00     0.037 A 
ATOM     28  C   UNL A   1      33.817  19.446  24.657  1.00  0.00     0.029 A 
ATOM     29  C   UNL A   1      32.259  18.744  22.961  1.00  0.00     0.029 A 
ATOM     30  C   UNL A   1      34.516  18.245  24.519  1.00  0.00     0.041 A 
ATOM     31  C   UNL A   1      32.956  17.543  22.815  1.00  0.00     0.041 A 
ATOM     32  C   UNL A   1      34.083  17.308  23.591  1.00  0.00     0.123 A 
ATOM     33  F   UNL A   1      34.761  16.162  23.443  1.00  0.00    -0.207 F 
ENDBRANCH  26  27
ENDBRANCH   8  20
ENDBRANCH   5   8
ENDBRANCH   3   4
ENDBRANCH   2   3
ENDBRANCH   1   2
BRANCH   1  34
ATOM     34  C   UNL A   1      38.469  24.167  26.578  1.00  0.00     0.116 C 
BRANCH  34  35
ATOM     35  N   UNL A   1      39.858  24.073  26.155  1.00  0.00    -0.352 N 
ATOM     36  C   UNL A   1      40.916  24.873  26.518  1.00  0.00     0.251 C 
ATOM     37  H   UNL A   1      40.067  23.342  25.529  1.00  0.00     0.163 HD
ATOM     38  O   UNL A   1      42.004  24.743  25.978  1.00  0.00    -0.269 OA
BRANCH  36  39
ATOM     39  C   UNL A   1      40.696  25.916  27.542  1.00  0.00     0.039 A 
ATOM     40  C   UNL A   1      39.755  25.684  28.545  1.00  0.00     0.014 A 
ATOM     41  C   UNL A   1      41.454  27.089  27.534  1.00  0.00     0.014 A 
ATOM     42  C   UNL A   1      39.613  26.613  29.576  1.00  0.00     0.010 A 
ATOM     43  C   UNL A   1      41.373  27.968  28.606  1.00  0.00     0.010 A 
ATOM     44  C   UNL A   1      40.442  27.746  29.631  1.00  0.00    -0.014 A 
BRANCH  44  45
ATOM     45  C   UNL A   1      40.331  28.724  30.739  1.00  0.00     0.031 A 
ATOM     46  C   UNL A   1      41.211  28.584  31.952  1.00  0.00     0.074 A 
ATOM     47  C   UNL A   1      39.404  29.700  30.678  1.00  0.00     0.049 A 
ATOM     48  N   UNL A   1      41.235  29.305  33.042  1.00  0.00    -0.248 NA
ATOM     49  C   UNL A   1      42.167  27.464  31.953  1.00  0.00     0.031 C 
ATOM     50  C   UNL A   1      38.451  29.897  29.582  1.00  0.00     0.029 A 
ATOM     51  N   UNL A   1      39.104  30.706  31.561  1.00  0.00    -0.354 N 
ATOM     52  C   UNL A   1      42.193  28.720  33.862  1.00  0.00     0.074 A 
ATOM     53  C   UNL A   1      42.684  27.549  33.169  1.00  0.00     0.031 C 
ATOM     54  C   UNL A   1      37.694  30.975  29.846  1.00  0.00     0.029 A 
ATOM     55  C   UNL A   1      38.084  31.525  31.140  1.00  0.00     0.049 A 
ATOM     56  H   UNL A   1      39.577  30.830  32.416  1.00  0.00     0.167 HD
ATOM     57  C   UNL A   1      42.645  29.136  35.067  1.00  0.00     0.037 A 
ATOM     58  C   UNL A   1      37.529  32.601  31.731  1.00  0.00     0.037 A 
ATOM     59  C   UNL A   1      42.175  30.322  35.733  1.00  0.00     0.049 A 
ATOM     60  C   UNL A   1      38.068  33.063  33.057  1.00  0.00     0.074 A 
ATOM     61  C   UNL A   1      42.608  30.868  36.928  1.00  0.00     0.029 A 
ATOM     62  N   UNL A   1      41.167  31.150  35.256  1.00  0.00    -0.354 N 
ATOM     63  N   UNL A   1      39.023  32.537  33.788  1.00  0.00    -0.248 NA
ATOM     64  C   UNL A   1      37.466  34.273  33.633  1.00  0.00     0.031 C 
ATOM     65  C   UNL A   1      41.838  32.006  37.191  1.00  0.00     0.029 A 
ATOM     66  C   UNL A   1      40.957  32.196  36.139  1.00  0.00     0.049 A 
ATOM     67  H   UNL A   1      40.676  31.013  34.415  1.00  0.00     0.167 HD
ATOM     68  C   UNL A   1      39.154  33.366  34.895  1.00  0.00     0.074 A 
ATOM     69  C   UNL A   1      38.191  34.436  34.732  1.00  0.00     0.031 C 
ATOM     70  C   UNL A   1      39.997  33.256  35.953  1.00  0.00     0.037 A 
BRANCH  57  71
ATOM     71  C   UNL A   1      43.707  28.308  35.736  1.00  0.00     0.058 A 
ATOM     72  C   UNL A   1      43.381  27.292  36.650  1.00  0.00     0.135 A 
ATOM     73  C   UNL A   1      45.064  28.515  35.447  1.00  0.00     0.135 A 
ATOM     74  F   UNL A   1      42.099  27.062  36.977  1.00  0.00    -0.206 F 
ATOM     75  C   UNL A   1      44.363  26.532  37.276  1.00  0.00     0.059 A 
ATOM     76  C   UNL A   1      46.064  27.748  36.040  1.00  0.00     0.059 A 
ATOM     77  F   UNL A   1      45.433  29.475  34.583  1.00  0.00    -0.206 F 
ATOM     78  C   UNL A   1      45.704  26.770  36.965  1.00  0.00     0.060 A 
BRANCH  78  79
ATOM     79  S   UNL A   1      46.966  25.774  37.784  1.00  0.00     0.124 S 
ATOM     80  O   UNL A   1      48.137  26.637  37.668  1.00  0.00    -0.237 OA
ATOM     81  O   UNL A   1      46.422  25.621  39.129  1.00  0.00    -0.237 OA
ATOM     82  O   UNL A   1      47.006  24.552  36.986  1.00  0.00    -0.744 OA
ENDBRANCH  78  79
ENDBRANCH  57  71
BRANCH  58  83
ATOM     83  C   UNL A   1      36.427  33.335  31.053  1.00  0.00     0.058 A 
ATOM     84  C   UNL A   1      35.116  33.285  31.547  1.00  0.00     0.135 A 
ATOM     85  C   UNL A   1      36.665  34.111  29.908  1.00  0.00     0.135 A 
ATOM     86  F   UNL A   1      34.838  32.554  32.637  1.00  0.00    -0.206 F 
ATOM     87  C   UNL A   1      34.074  33.963  30.923  1.00  0.00     0.059 A 
ATOM     88  C   UNL A   1      35.645  34.818  29.279  1.00  0.00     0.059 A 
ATOM     89  F   UNL A   1      37.906  34.207  29.407  1.00  0.00    -0.206 F 
ATOM     90  C   UNL A   1      34.349  34.729  29.788  1.00  0.00     0.060 A 
BRANCH  90  91
ATOM     91  S   UNL A   1      33.000  35.644  29.012  1.00  0.00     0.124 S 
ATOM     92  O   UNL A   1      33.725  36.686  28.296  1.00  0.00    -0.237 OA
ATOM     93  O   UNL A   1      32.370  34.619  28.184  1.00  0.00    -0.237 OA
ATOM     94  O   UNL A   1      32.204  36.094  30.150  1.00  0.00    -0.744 OA
ENDBRANCH  90  91
ENDBRANCH  58  83
BRANCH  70  95
ATOM     95  C   UNL A   1      39.943  34.338  36.993  1.00  0.00     0.058 A 
ATOM     96  C   UNL A   1      40.719  35.503  36.887  1.00  0.00     0.135 A 
ATOM     97  C   UNL A   1      39.072  34.225  38.088  1.00  0.00     0.135 A 
ATOM     98  F   UNL A   1      41.570  35.658  35.862  1.00  0.00    -0.206 F 
ATOM     99  C   UNL A   1      40.656  36.506  37.849  1.00  0.00     0.059 A 
ATOM    100  C   UNL A   1      38.972  35.228  39.048  1.00  0.00     0.059 A 
ATOM    101  F   UNL A   1      38.299  33.137  38.229  1.00  0.00    -0.206 F 
ATOM    102  C   UNL A   1      39.780  36.358  38.927  1.00  0.00     0.060 A 
BRANCH 102 103
ATOM    103  S   UNL A   1      39.692  37.674  40.160  1.00  0.00     0.124 S 
ATOM    104  O   UNL A   1      39.928  36.934  41.395  1.00  0.00    -0.237 OA
ATOM    105  O   UNL A   1      40.769  38.568  39.741  1.00  0.00    -0.237 OA
ATOM    106  O   UNL A   1      38.343  38.206  39.993  1.00  0.00    -0.744 OA
ENDBRANCH 102 103
ENDBRANCH  70  95
ENDBRANCH  44  45
ENDBRANCH  36  39
ENDBRANCH  34  35
ENDBRANCH   1  34
TORSDOF 17
ENDMDL
MODEL 2
REMARK VINA RESULT:     -13.3      6.556     12.157
REMARK SMILES Cc1ccc2[nH]cc([C@@H](C(=O)NCCCCNC(=O)c3ccc(-c4c5nc(c(-c6c(F)cc(S(=O)(=O)[O-])cc6F)c6ccc([nH]6)c(-c6c(F)cc(S(=O)(=O)[O-])cc6F)c6nc(c(-c7c(F)cc(S(=O)(=O)[O-])cc7F)c7ccc4[nH]7)C=C6)C=C5)cc3)[NH+]3CCN(c4ccc(F)cc4)CC3)c2c1
REMARK SMILES IDX 15 1 14 2 13 3 12 4 10 5 11 6 9 8 8 9 1 10 2 11 3 12 100 13
REMARK SMILES IDX 4 14 99 15 5 16 6 17 7 18 86 20 87 21 98 22 88 24 97 25
REMARK SMILES IDX 89 26 90 27 91 28 96 29 92 30 95 31 93 32 94 33 16 34 17 35
REMARK SMILES IDX 18 36 19 38 20 39 21 40 85 41 22 42 84 43 23 44 24 45 25 46
REMARK SMILES IDX 78 47 26 48 83 49 77 50 79 51 27 52 82 53 76 54 75 55 28 57
REMARK SMILES IDX 62 58 41 59 61 60 42 61 45 62 60 63 80 64 43 65 44 66 59 68
REMARK SMILES IDX 81 69 46 70 29 71 30 72 39 73 31 74 32 75 38 76 40 77 33 78
REMARK SMILES IDX 34 79 35 80 36 81 37 82 63 83 64 84 73 85 65 86 66 87 72 88
REMARK SMILES IDX 74 89 67 90 68 91 69 92 70 93 71 94 47 95 48 96 57 97 49 98
REMARK SMILES IDX 50 99 56 100 58 101 51 102 52 103 53 104 54 105 55 106
REMARK H PARENT 12 7 6 19 86 23 17 37 79 56 45 67
REMARK Flexibility Score: inf
ROOT
ATOM      1  C   UNL A   1      33.928  29.176  27.241  1.00  0.00     0.023 C 
ENDROOT
BRANCH   1   2
ATOM      2  C   UNL A   1      33.865  28.703  25.792  1.00  0.00     0.023 C 
BRANCH   2   3
ATOM      3  C   UNL A   1      33.428  27.251  25.606  1.00  0.00     0.116 C 
BRANCH   3   4
ATOM      4  N   UNL A   1      33.777  26.743  24.296  1.00  0.00    -0.351 N 
ATOM      5  C   UNL A   1      33.668  25.467  23.800  1.00  0.00     0.283 C 
ATOM      6  O   UNL A   1      34.075  25.305  22.645  1.00  0.00    -0.268 OA
ATOM      7  H   UNL A   1      34.146  27.409  23.670  1.00  0.00     0.163 HD
BRANCH   5   8
ATOM      8  C   UNL A   1      32.990  24.348  24.664  1.00  0.00     0.307 C 
BRANCH   8   9
ATOM      9  C   UNL A   1      33.745  23.041  24.640  1.00  0.00     0.044 A 
ATOM     10  C   UNL A   1      38.484  24.142  26.280  1.00  0.00     0.044 C 
ATOM     11  C   UNL A   1      37.396  23.197  25.855  1.00  0.00    -0.050 A 
ATOM     12  C   UNL A   1      37.664  21.841  25.655  1.00  0.00     0.005 A 
ATOM     13  C   UNL A   1      36.106  23.694  25.600  1.00  0.00     0.014 A 
ATOM     14  C   UNL A   1      36.686  20.968  25.171  1.00  0.00     0.027 A 
ATOM     15  C   UNL A   1      35.106  22.842  25.080  1.00  0.00     0.009 A 
ATOM     16  C   UNL A   1      35.429  21.503  24.866  1.00  0.00     0.046 A 
ATOM     17  N   UNL A   1      34.328  20.904  24.304  1.00  0.00    -0.361 N 
ATOM     18  C   UNL A   1      33.341  21.830  24.100  1.00  0.00     0.094 A 
ATOM     19  H   UNL A   1      34.259  19.949  24.080  1.00  0.00     0.166 HD
ENDBRANCH   8   9
BRANCH   8  20
ATOM     20  N   UNL A   1      31.540  24.200  24.384  1.00  0.00    -0.318 N 
ATOM     21  C   UNL A   1      30.577  24.731  25.361  1.00  0.00     0.284 C 
ATOM     22  C   UNL A   1      31.129  24.554  23.015  1.00  0.00     0.284 C 
ATOM     23  H   UNL A   1      31.477  23.188  24.495  1.00  0.00     0.349 HD
ATOM     24  C   UNL A   1      30.093  26.185  25.179  1.00  0.00     0.178 C 
ATOM     25  C   UNL A   1      30.745  26.032  22.769  1.00  0.00     0.178 C 
ATOM     26  N   UNL A   1      29.793  26.517  23.780  1.00  0.00    -0.360 N 
BRANCH  26  27
ATOM     27  C   UNL A   1      29.286  27.794  23.539  1.00  0.00     0.037 A 
ATOM     28  C   UNL A   1      30.091  28.944  23.541  1.00  0.00     0.029 A 
ATOM     29  C   UNL A   1      27.916  27.942  23.286  1.00  0.00     0.029 A 
ATOM     30  C   UNL A   1      29.538  30.209  23.335  1.00  0.00     0.041 A 
ATOM     31  C   UNL A   1      27.356  29.205  23.084  1.00  0.00     0.041 A 
ATOM     32  C   UNL A   1      28.172  30.328  23.118  1.00  0.00     0.123 A 
ATOM     33  F   UNL A   1      27.634  31.541  22.937  1.00  0.00    -0.207 F 
ENDBRANCH  26  27
ENDBRANCH   8  20
ENDBRANCH   5   8
ENDBRANCH   3   4
ENDBRANCH   2   3
ENDBRANCH   1   2
BRANCH   1  34
ATOM     34  C   UNL A   1      35.336  29.358  27.781  1.00  0.00     0.116 C 
BRANCH  34  35
ATOM     35  N   UNL A   1      35.370  30.098  29.033  1.00  0.00    -0.352 N 
ATOM     36  C   UNL A   1      36.431  30.278  29.888  1.00  0.00     0.251 C 
ATOM     37  H   UNL A   1      34.525  30.525  29.302  1.00  0.00     0.163 HD
ATOM     38  O   UNL A   1      36.270  30.823  30.969  1.00  0.00    -0.269 OA
BRANCH  36  39
ATOM     39  C   UNL A   1      37.758  29.762  29.489  1.00  0.00     0.039 A 
ATOM     40  C   UNL A   1      38.139  29.853  28.150  1.00  0.00     0.014 A 
ATOM     41  C   UNL A   1      38.632  29.239  30.444  1.00  0.00     0.014 A 
ATOM     42  C   UNL A   1      39.427  29.468  27.778  1.00  0.00     0.010 A 
ATOM     43  C   UNL A   1      39.941  28.937  30.087  1.00  0.00     0.010 A 
ATOM     44  C   UNL A   1      40.347  29.036  28.748  1.00  0.00    -0.014 A 
BRANCH  44  45
ATOM     45  C   UNL A   1      41.731  28.657  28.377  1.00  0.00     0.031 A 
ATOM     46  C   UNL A   1      42.809  29.707  28.337  1.00  0.00     0.074 A 
ATOM     47  C   UNL A   1      42.003  27.386  28.023  1.00  0.00     0.049 A 
ATOM     48  N   UNL A   1      44.064  29.588  27.994  1.00  0.00    -0.248 NA
ATOM     49  C   UNL A   1      42.414  31.078  28.699  1.00  0.00     0.031 C 
ATOM     50  C   UNL A   1      41.027  26.295  27.962  1.00  0.00     0.029 A 
ATOM     51  N   UNL A   1      43.181  26.796  27.641  1.00  0.00    -0.354 N 
ATOM     52  C   UNL A   1      44.604  30.866  28.084  1.00  0.00     0.074 A 
ATOM     53  C   UNL A   1      43.525  31.755  28.453  1.00  0.00     0.031 C 
ATOM     54  C   UNL A   1      41.652  25.165  27.593  1.00  0.00     0.029 A 
ATOM     55  C   UNL A   1      43.063  25.455  27.362  1.00  0.00     0.049 A 
ATOM     56  H   UNL A   1      44.031  27.288  27.573  1.00  0.00     0.167 HD
ATOM     57  C   UNL A   1      45.886  31.258  27.904  1.00  0.00     0.037 A 
ATOM     58  C   UNL A   1      43.992  24.562  26.967  1.00  0.00     0.037 A 
ATOM     59  C   UNL A   1      46.960  30.359  27.570  1.00  0.00     0.049 A 
ATOM     60  C   UNL A   1      45.416  25.015  26.804  1.00  0.00     0.074 A 
ATOM     61  C   UNL A   1      48.306  30.643  27.425  1.00  0.00     0.029 A 
ATOM     62  N   UNL A   1      46.808  29.000  27.335  1.00  0.00    -0.354 N 
ATOM     63  N   UNL A   1      45.923  26.215  26.959  1.00  0.00    -0.248 NA
ATOM     64  C   UNL A   1      46.399  23.991  26.426  1.00  0.00     0.031 C 
ATOM     65  C   UNL A   1      48.964  29.461  27.067  1.00  0.00     0.029 A 
ATOM     66  C   UNL A   1      48.035  28.433  27.033  1.00  0.00     0.049 A 
ATOM     67  H   UNL A   1      45.955  28.512  27.376  1.00  0.00     0.167 HD
ATOM     68  C   UNL A   1      47.287  26.086  26.724  1.00  0.00     0.074 A 
ATOM     69  C   UNL A   1      47.527  24.688  26.430  1.00  0.00     0.031 C 
ATOM     70  C   UNL A   1      48.255  27.036  26.752  1.00  0.00     0.037 A 
BRANCH  57  71
ATOM     71  C   UNL A   1      46.197  32.719  28.075  1.00  0.00     0.058 A 
ATOM     72  C   UNL A   1      46.054  33.631  27.016  1.00  0.00     0.135 A 
ATOM     73  C   UNL A   1      46.621  33.221  29.315  1.00  0.00     0.135 A 
ATOM     74  F   UNL A   1      45.669  33.204  25.803  1.00  0.00    -0.206 F 
ATOM     75  C   UNL A   1      46.351  34.981  27.172  1.00  0.00     0.059 A 
ATOM     76  C   UNL A   1      46.897  34.573  29.503  1.00  0.00     0.059 A 
ATOM     77  F   UNL A   1      46.778  32.393  30.362  1.00  0.00    -0.206 F 
ATOM     78  C   UNL A   1      46.774  35.442  28.420  1.00  0.00     0.060 A 
BRANCH  78  79
ATOM     79  S   UNL A   1      47.152  37.197  28.606  1.00  0.00     0.124 S 
ATOM     80  O   UNL A   1      48.558  37.234  28.214  1.00  0.00    -0.237 OA
ATOM     81  O   UNL A   1      46.218  37.820  27.675  1.00  0.00    -0.237 OA
ATOM     82  O   UNL A   1      46.888  37.453  30.019  1.00  0.00    -0.744 OA
ENDBRANCH  78  79
ENDBRANCH  57  71
BRANCH  58  83
ATOM     83  C   UNL A   1      43.607  23.143  26.740  1.00  0.00     0.058 A 
ATOM     84  C   UNL A   1      43.278  22.304  27.814  1.00  0.00     0.135 A 
ATOM     85  C   UNL A   1      43.547  22.603  25.445  1.00  0.00     0.135 A 
ATOM     86  F   UNL A   1      43.324  22.774  29.070  1.00  0.00    -0.206 F 
ATOM     87  C   UNL A   1      42.920  20.974  27.618  1.00  0.00     0.059 A 
ATOM     88  C   UNL A   1      43.168  21.283  25.222  1.00  0.00     0.059 A 
ATOM     89  F   UNL A   1      43.833  23.371  24.383  1.00  0.00    -0.206 F 
ATOM     90  C   UNL A   1      42.866  20.473  26.316  1.00  0.00     0.060 A 
BRANCH  90  91
ATOM     91  S   UNL A   1      42.353  18.759  26.068  1.00  0.00     0.124 S 
ATOM     92  O   UNL A   1      40.959  18.924  25.677  1.00  0.00    -0.237 OA
ATOM     93  O   UNL A   1      43.263  18.315  25.016  1.00  0.00    -0.237 OA
ATOM     94  O   UNL A   1      42.577  18.151  27.376  1.00  0.00    -0.744 OA
ENDBRANCH  90  91
ENDBRANCH  58  83
BRANCH  70  95
ATOM     95  C   UNL A   1      49.666  26.589  26.496  1.00  0.00     0.058 A 
ATOM     96  C   UNL A   1      50.469  26.059  27.518  1.00  0.00     0.135 A 
ATOM     97  C   UNL A   1      50.206  26.654  25.202  1.00  0.00     0.135 A 
ATOM     98  F   UNL A   1      50.001  25.979  28.773  1.00  0.00    -0.206 F 
ATOM     99  C   UNL A   1      51.772  25.637  27.272  1.00  0.00     0.059 A 
ATOM    100  C   UNL A   1      51.497  26.213  24.927  1.00  0.00     0.059 A 
ATOM    101  F   UNL A   1      49.475  27.141  24.187  1.00  0.00    -0.206 F 
ATOM    102  C   UNL A   1      52.277  25.720  25.972  1.00  0.00     0.060 A 
BRANCH 102 103
ATOM    103  S   UNL A   1      53.962  25.154  25.659  1.00  0.00     0.124 S 
ATOM    104  O   UNL A   1      54.238  25.757  24.360  1.00  0.00    -0.237 OA
ATOM    105  O   UNL A   1      54.697  25.718  26.789  1.00  0.00    -0.237 OA
ATOM    106  O   UNL A   1      53.838  23.699  25.664  1.00  0.00    -0.744 OA
ENDBRANCH 102 103
ENDBRANCH  70  95
ENDBRANCH  44  45
ENDBRANCH  36  39
ENDBRANCH  34  35
ENDBRANCH   1  34
TORSDOF 17
ENDMDL
MODEL 3
REMARK VINA RESULT:     -13.3      2.483      4.202
REMARK SMILES Cc1ccc2[nH]cc([C@@H](C(=O)NCCCCNC(=O)c3ccc(-c4c5nc(c(-c6c(F)cc(S(=O)(=O)[O-])cc6F)c6ccc([nH]6)c(-c6c(F)cc(S(=O)(=O)[O-])cc6F)c6nc(c(-c7c(F)cc(S(=O)(=O)[O-])cc7F)c7ccc4[nH]7)C=C6)C=C5)cc3)[NH+]3CCN(c4ccc(F)cc4)CC3)c2c1
REMARK SMILES IDX 15 1 14 2 13 3 12 4 10 5 11 6 9 8 8 9 1 10 2 11 3 12 100 13
REMARK SMILES IDX 4 14 99 15 5 16 6 17 7 18 86 20 87 21 98 22 88 24 97 25
REMARK SMILES IDX 89 26 90 27 91 28 96 29 92 30 95 31 93 32 94 33 16 34 17 35
REMARK SMILES IDX 18 36 19 38 20 39 21 40 85 41 22 42 84 43 23 44 24 45 25 46
REMARK SMILES IDX 78 47 26 48 83 49 77 50 79 51 27 52 82 53 76 54 75 55 28 57
REMARK SMILES IDX 62 58 41 59 61 60 42 61 45 62 60 63 80 64 43 65 44 66 59 68
REMARK SMILES IDX 81 69 46 70 29 71 30 72 39 73 31 74 32 75 38 76 40 77 33 78
REMARK SMILES IDX 34 79 35 80 36 81 37 82 63 83 64 84 73 85 65 86 66 87 72 88
REMARK SMILES IDX 74 89 67 90 68 91 69 92 70 93 71 94 47 95 48 96 57 97 49 98
REMARK SMILES IDX 50 99 56 100 58 101 51 102 52 103 53 104 54 105 55 106
REMARK H PARENT 12 7 6 19 86 23 17 37 79 56 45 67
REMARK Flexibility Score: inf
ROOT
ATOM      1  C   UNL A   1      37.815  23.082  25.948  1.00  0.00     0.023 C 
ENDROOT
BRANCH   1   2
ATOM      2  C   UNL A   1      36.896  23.554  24.827  1.00  0.00     0.023 C 
BRANCH   2   3
ATOM      3  C   UNL A   1      35.425  23.699  25.215  1.00  0.00     0.116 C 
BRANCH   3   4
ATOM      4  N   UNL A   1      34.540  23.192  24.188  1.00  0.00    -0.351 N 
ATOM      5  C   UNL A   1      33.592  23.857  23.450  1.00  0.00     0.283 C 
ATOM      6  O   UNL A   1      32.950  23.165  22.655  1.00  0.00    -0.268 OA
ATOM      7  H   UNL A   1      34.632  22.231  23.989  1.00  0.00     0.163 HD
BRANCH   5   8
ATOM      8  C   UNL A   1      33.435  25.411  23.597  1.00  0.00     0.307 C 
BRANCH   8   9
ATOM      9  C   UNL A   1      32.547  25.810  24.751  1.00  0.00     0.044 A 
ATOM     10  C   UNL A   1      35.044  29.577  27.187  1.00  0.00     0.044 C 
ATOM     11  C   UNL A   1      33.855  28.692  26.946  1.00  0.00    -0.050 A 
ATOM     12  C   UNL A   1      32.769  28.696  27.825  1.00  0.00     0.005 A 
ATOM     13  C   UNL A   1      33.859  27.807  25.853  1.00  0.00     0.014 A 
ATOM     14  C   UNL A   1      31.698  27.813  27.665  1.00  0.00     0.027 A 
ATOM     15  C   UNL A   1      32.805  26.881  25.684  1.00  0.00     0.009 A 
ATOM     16  C   UNL A   1      31.759  26.901  26.606  1.00  0.00     0.046 A 
ATOM     17  N   UNL A   1      30.903  25.879  26.271  1.00  0.00    -0.361 N 
ATOM     18  C   UNL A   1      31.401  25.179  25.207  1.00  0.00     0.094 A 
ATOM     19  H   UNL A   1      30.056  25.681  26.729  1.00  0.00     0.166 HD
ENDBRANCH   8   9
BRANCH   8  20
ATOM     20  N   UNL A   1      33.084  26.080  22.320  1.00  0.00    -0.318 N 
ATOM     21  C   UNL A   1      31.701  25.971  21.826  1.00  0.00     0.284 C 
ATOM     22  C   UNL A   1      33.568  27.463  22.186  1.00  0.00     0.284 C 
ATOM     23  H   UNL A   1      33.621  25.480  21.694  1.00  0.00     0.349 HD
ATOM     24  C   UNL A   1      30.696  27.061  22.253  1.00  0.00     0.178 C 
ATOM     25  C   UNL A   1      32.632  28.577  22.709  1.00  0.00     0.178 C 
ATOM     26  N   UNL A   1      31.262  28.415  22.198  1.00  0.00    -0.360 N 
BRANCH  26  27
ATOM     27  C   UNL A   1      30.396  29.465  22.505  1.00  0.00     0.037 A 
ATOM     28  C   UNL A   1      30.251  29.974  23.806  1.00  0.00     0.029 A 
ATOM     29  C   UNL A   1      29.635  30.037  21.478  1.00  0.00     0.029 A 
ATOM     30  C   UNL A   1      29.343  30.998  24.079  1.00  0.00     0.041 A 
ATOM     31  C   UNL A   1      28.721  31.059  21.746  1.00  0.00     0.041 A 
ATOM     32  C   UNL A   1      28.579  31.525  23.046  1.00  0.00     0.123 A 
ATOM     33  F   UNL A   1      27.694  32.496  23.307  1.00  0.00    -0.207 F 
ENDBRANCH  26  27
ENDBRANCH   8  20
ENDBRANCH   5   8
ENDBRANCH   3   4
ENDBRANCH   2   3
ENDBRANCH   1   2
BRANCH   1  34
ATOM     34  C   UNL A   1      38.681  24.174  26.552  1.00  0.00     0.116 C 
BRANCH  34  35
ATOM     35  N   UNL A   1      40.087  24.036  26.208  1.00  0.00    -0.352 N 
ATOM     36  C   UNL A   1      41.146  24.810  26.621  1.00  0.00     0.251 C 
ATOM     37  H   UNL A   1      40.310  23.293  25.602  1.00  0.00     0.163 HD
ATOM     38  O   UNL A   1      42.258  24.644  26.145  1.00  0.00    -0.269 OA
BRANCH  36  39
ATOM     39  C   UNL A   1      40.900  25.869  27.622  1.00  0.00     0.039 A 
ATOM     40  C   UNL A   1      39.881  25.687  28.557  1.00  0.00     0.014 A 
ATOM     41  C   UNL A   1      41.707  27.009  27.662  1.00  0.00     0.014 A 
ATOM     42  C   UNL A   1      39.707  26.629  29.571  1.00  0.00     0.010 A 
ATOM     43  C   UNL A   1      41.588  27.900  28.721  1.00  0.00     0.010 A 
ATOM     44  C   UNL A   1      40.579  27.726  29.678  1.00  0.00    -0.014 A 
BRANCH  44  45
ATOM     45  C   UNL A   1      40.432  28.717  30.771  1.00  0.00     0.031 A 
ATOM     46  C   UNL A   1      41.291  28.607  32.001  1.00  0.00     0.074 A 
ATOM     47  C   UNL A   1      39.492  29.678  30.679  1.00  0.00     0.049 A 
ATOM     48  N   UNL A   1      41.284  29.343  33.082  1.00  0.00    -0.248 NA
ATOM     49  C   UNL A   1      42.264  27.502  32.036  1.00  0.00     0.031 C 
ATOM     50  C   UNL A   1      38.557  29.846  29.563  1.00  0.00     0.029 A 
ATOM     51  N   UNL A   1      39.161  30.691  31.542  1.00  0.00    -0.354 N 
ATOM     52  C   UNL A   1      42.235  28.783  33.927  1.00  0.00     0.074 A 
ATOM     53  C   UNL A   1      42.757  27.611  33.259  1.00  0.00     0.031 C 
ATOM     54  C   UNL A   1      37.779  30.915  29.798  1.00  0.00     0.029 A 
ATOM     55  C   UNL A   1      38.136  31.489  31.091  1.00  0.00     0.049 A 
ATOM     56  H   UNL A   1      39.615  30.833  32.404  1.00  0.00     0.167 HD
ATOM     57  C   UNL A   1      42.658  29.223  35.135  1.00  0.00     0.037 A 
ATOM     58  C   UNL A   1      37.554  32.564  31.657  1.00  0.00     0.037 A 
ATOM     59  C   UNL A   1      42.158  30.411  35.775  1.00  0.00     0.049 A 
ATOM     60  C   UNL A   1      38.062  33.052  32.986  1.00  0.00     0.074 A 
ATOM     61  C   UNL A   1      42.560  30.979  36.971  1.00  0.00     0.029 A 
ATOM     62  N   UNL A   1      41.147  31.216  35.268  1.00  0.00    -0.354 N 
ATOM     63  N   UNL A   1      39.010  32.551  33.742  1.00  0.00    -0.248 NA
ATOM     64  C   UNL A   1      37.430  34.260  33.535  1.00  0.00     0.031 C 
ATOM     65  C   UNL A   1      41.769  32.109  37.204  1.00  0.00     0.029 A 
ATOM     66  C   UNL A   1      40.904  32.271  36.133  1.00  0.00     0.049 A 
ATOM     67  H   UNL A   1      40.673  31.060  34.420  1.00  0.00     0.167 HD
ATOM     68  C   UNL A   1      39.108  33.396  34.840  1.00  0.00     0.074 A 
ATOM     69  C   UNL A   1      38.132  34.449  34.644  1.00  0.00     0.031 C 
ATOM     70  C   UNL A   1      39.933  33.313  35.915  1.00  0.00     0.037 A 
BRANCH  57  71
ATOM     71  C   UNL A   1      43.719  28.420  35.835  1.00  0.00     0.058 A 
ATOM     72  C   UNL A   1      45.086  28.664  35.623  1.00  0.00     0.135 A 
ATOM     73  C   UNL A   1      43.370  27.410  36.744  1.00  0.00     0.135 A 
ATOM     74  F   UNL A   1      45.478  29.606  34.750  1.00  0.00    -0.206 F 
ATOM     75  C   UNL A   1      46.068  27.915  36.262  1.00  0.00     0.059 A 
ATOM     76  C   UNL A   1      44.336  26.665  37.417  1.00  0.00     0.059 A 
ATOM     77  F   UNL A   1      42.078  27.132  36.983  1.00  0.00    -0.206 F 
ATOM     78  C   UNL A   1      45.682  26.915  37.157  1.00  0.00     0.060 A 
BRANCH  78  79
ATOM     79  S   UNL A   1      46.968  25.954  37.981  1.00  0.00     0.124 S 
ATOM     80  O   UNL A   1      46.848  26.427  39.356  1.00  0.00    -0.237 OA
ATOM     81  O   UNL A   1      46.535  24.581  37.742  1.00  0.00    -0.237 OA
ATOM     82  O   UNL A   1      48.188  26.352  37.285  1.00  0.00    -0.744 OA
ENDBRANCH  78  79
ENDBRANCH  57  71
BRANCH  58  83
ATOM     83  C   UNL A   1      36.454  33.272  30.949  1.00  0.00     0.058 A 
ATOM     84  C   UNL A   1      35.126  33.159  31.383  1.00  0.00     0.135 A 
ATOM     85  C   UNL A   1      36.711  34.085  29.834  1.00  0.00     0.135 A 
ATOM     86  F   UNL A   1      34.831  32.390  32.443  1.00  0.00    -0.206 F 
ATOM     87  C   UNL A   1      34.086  33.811  30.730  1.00  0.00     0.059 A 
ATOM     88  C   UNL A   1      35.691  34.768  29.178  1.00  0.00     0.059 A 
ATOM     89  F   UNL A   1      37.967  34.242  29.391  1.00  0.00    -0.206 F 
ATOM     90  C   UNL A   1      34.379  34.616  29.627  1.00  0.00     0.060 A 
BRANCH  90  91
ATOM     91  S   UNL A   1      33.029  35.498  28.814  1.00  0.00     0.124 S 
ATOM     92  O   UNL A   1      32.311  36.050  29.955  1.00  0.00    -0.237 OA
ATOM     93  O   UNL A   1      33.747  36.461  27.984  1.00  0.00    -0.237 OA
ATOM     94  O   UNL A   1      32.336  34.444  28.079  1.00  0.00    -0.744 OA
ENDBRANCH  90  91
ENDBRANCH  58  83
BRANCH  70  95
ATOM     95  C   UNL A   1      39.843  34.409  36.939  1.00  0.00     0.058 A 
ATOM     96  C   UNL A   1      38.981  34.318  38.042  1.00  0.00     0.135 A 
ATOM     97  C   UNL A   1      40.661  35.545  36.834  1.00  0.00     0.135 A 
ATOM     98  F   UNL A   1      38.175  33.255  38.186  1.00  0.00    -0.206 F 
ATOM     99  C   UNL A   1      38.910  35.332  38.992  1.00  0.00     0.059 A 
ATOM    100  C   UNL A   1      40.627  36.559  37.786  1.00  0.00     0.059 A 
ATOM    101  F   UNL A   1      41.512  35.674  35.804  1.00  0.00    -0.206 F 
ATOM    102  C   UNL A   1      39.736  36.450  38.854  1.00  0.00     0.060 A 
BRANCH 102 103
ATOM    103  S   UNL A   1      39.650  37.752  40.101  1.00  0.00     0.124 S 
ATOM    104  O   UNL A   1      39.328  36.988  41.301  1.00  0.00    -0.237 OA
ATOM    105  O   UNL A   1      40.994  38.321  40.054  1.00  0.00    -0.237 OA
ATOM    106  O   UNL A   1      38.589  38.625  39.607  1.00  0.00    -0.744 OA
ENDBRANCH 102 103
ENDBRANCH  70  95
ENDBRANCH  44  45
ENDBRANCH  36  39
ENDBRANCH  34  35
ENDBRANCH   1  34
TORSDOF 17
ENDMDL
