MODEL 1
REMARK VINA RESULT:     -12.2      0.000      0.000
REMARK SMILES COc1ccccc1[C@@H]1C[N@@H+](Cc2cc(C(C)=O)cn2C)C[C@H]1C(=O)NCCCCNC(=O)c1ccc(-c2c3nc(c(-c4c(F)cc(S(=O)(=O)[O-])cc4F)c4ccc([nH]4)c(-c4c(F)cc(S(=O)(=O)[O-])cc4F)c4nc(c(-c5c(F)cc(S(=O)(=O)[O-])cc5F)c5ccc2[nH]5)C=C4)C=C3)cc1
REMARK SMILES IDX 28 1 27 2 26 3 24 4 25 5 23 7 9 8 10 9 11 10 22 11 8 13 3 14
REMARK SMILES IDX 4 15 5 16 7 17 6 18 2 19 1 20 12 21 13 22 14 23 20 24 15 25
REMARK SMILES IDX 19 26 21 27 16 28 17 29 18 30 29 31 30 32 31 33 32 34 33 36
REMARK SMILES IDX 34 37 35 38 99 39 36 40 98 41 37 42 38 43 39 44 92 45 40 46
REMARK SMILES IDX 97 47 91 48 93 49 41 50 96 51 90 52 89 53 42 55 76 56 55 57
REMARK SMILES IDX 75 58 56 59 59 60 74 61 94 62 57 63 58 64 73 66 95 67 60 68
REMARK SMILES IDX 43 69 44 70 53 71 45 72 46 73 52 74 54 75 47 76 48 77 49 78
REMARK SMILES IDX 50 79 51 80 77 81 78 82 87 83 79 84 80 85 86 86 88 87 81 88
REMARK SMILES IDX 82 89 83 90 84 91 85 92 61 93 62 94 71 95 63 96 64 97 70 98
REMARK SMILES IDX 72 99 65 100 66 101 67 102 68 103 69 104
REMARK H PARENT 26 6 11 12 31 35 93 54 59 65
REMARK Flexibility Score: inf
ROOT
ATOM      1  C   UNL A   1      31.732  29.140  26.035  1.00  0.00     0.023 C 
ENDROOT
BRANCH   1   2
ATOM      2  C   UNL A   1      31.846  27.875  26.904  1.00  0.00     0.116 C 
BRANCH   2   3
ATOM      3  N   UNL A   1      32.957  27.009  26.501  1.00  0.00    -0.356 N 
ATOM      4  C   UNL A   1      33.253  26.003  25.655  1.00  0.00     0.229 C 
ATOM      5  O   UNL A   1      34.459  26.031  25.335  1.00  0.00    -0.275 OA
ATOM      6  H   UNL A   1      33.757  27.241  27.025  1.00  0.00     0.163 HD
BRANCH   4   7
ATOM      7  C   UNL A   1      32.446  24.808  25.105  1.00  0.00     0.146 C 
ATOM      8  C   UNL A   1      31.910  24.924  23.679  1.00  0.00     0.096 C 
ATOM      9  C   UNL A   1      31.344  23.520  23.399  1.00  0.00     0.272 C 
ATOM     10  N   UNL A   1      32.144  22.573  24.192  1.00  0.00    -0.329 N 
ATOM     11  C   UNL A   1      32.810  23.336  25.270  1.00  0.00     0.276 C 
ATOM     12  H   UNL A   1      31.552  21.887  24.660  1.00  0.00     0.348 HD
BRANCH   8  13
ATOM     13  C   UNL A   1      30.926  26.063  23.470  1.00  0.00     0.004 A 
ATOM     14  C   UNL A   1      31.184  27.236  22.733  1.00  0.00     0.122 A 
ATOM     15  C   UNL A   1      30.206  28.225  22.585  1.00  0.00     0.047 A 
ATOM     16  C   UNL A   1      28.945  28.054  23.152  1.00  0.00     0.004 A 
ATOM     17  C   UNL A   1      29.644  25.916  24.031  1.00  0.00     0.008 A 
ATOM     18  C   UNL A   1      28.666  26.900  23.876  1.00  0.00     0.001 A 
BRANCH  14  19
ATOM     19  O   UNL A   1      32.430  27.528  22.244  1.00  0.00    -0.496 OA
ATOM     20  C   UNL A   1      32.975  28.726  22.794  1.00  0.00     0.278 C 
ENDBRANCH  14  19
ENDBRANCH   8  13
BRANCH  10  21
ATOM     21  C   UNL A   1      32.946  21.642  23.389  1.00  0.00     0.317 C 
BRANCH  21  22
ATOM     22  C   UNL A   1      33.263  20.389  24.134  1.00  0.00     0.073 A 
ATOM     23  C   UNL A   1      32.521  19.217  24.264  1.00  0.00     0.041 A 
ATOM     24  N   UNL A   1      34.491  20.136  24.686  1.00  0.00    -0.349 N 
ATOM     25  C   UNL A   1      33.472  18.170  24.393  1.00  0.00     0.035 A 
ATOM     26  C   UNL A   1      34.675  18.788  24.636  1.00  0.00     0.097 A 
ATOM     27  C   UNL A   1      35.497  21.087  25.104  1.00  0.00     0.149 C 
BRANCH  25  28
ATOM     28  C   UNL A   1      33.336  16.738  24.169  1.00  0.00     0.161 C 
ATOM     29  C   UNL A   1      32.812  15.887  25.287  1.00  0.00     0.093 C 
ATOM     30  O   UNL A   1      33.735  16.225  23.123  1.00  0.00    -0.294 OA
ENDBRANCH  25  28
ENDBRANCH  21  22
ENDBRANCH  10  21
ENDBRANCH   4   7
ENDBRANCH   2   3
ENDBRANCH   1   2
BRANCH   1  31
ATOM     31  C   UNL A   1      32.413  30.424  26.549  1.00  0.00     0.023 C 
BRANCH  31  32
ATOM     32  C   UNL A   1      33.768  30.346  27.251  1.00  0.00     0.116 C 
BRANCH  32  33
ATOM     33  N   UNL A   1      33.955  31.206  28.418  1.00  0.00    -0.352 N 
ATOM     34  C   UNL A   1      35.043  31.330  29.258  1.00  0.00     0.251 C 
ATOM     35  H   UNL A   1      33.188  31.784  28.640  1.00  0.00     0.163 HD
ATOM     36  O   UNL A   1      35.041  32.150  30.173  1.00  0.00    -0.269 OA
BRANCH  34  37
ATOM     37  C   UNL A   1      36.176  30.406  29.081  1.00  0.00     0.039 A 
ATOM     38  C   UNL A   1      36.824  30.370  27.844  1.00  0.00     0.014 A 
ATOM     39  C   UNL A   1      36.722  29.771  30.194  1.00  0.00     0.014 A 
ATOM     40  C   UNL A   1      38.111  29.836  27.767  1.00  0.00     0.010 A 
ATOM     41  C   UNL A   1      38.046  29.359  30.137  1.00  0.00     0.010 A 
ATOM     42  C   UNL A   1      38.771  29.416  28.933  1.00  0.00    -0.014 A 
BRANCH  42  43
ATOM     43  C   UNL A   1      40.224  29.078  28.940  1.00  0.00     0.031 A 
ATOM     44  C   UNL A   1      41.237  30.142  29.274  1.00  0.00     0.074 A 
ATOM     45  C   UNL A   1      40.645  27.861  28.529  1.00  0.00     0.049 A 
ATOM     46  N   UNL A   1      42.539  30.111  29.160  1.00  0.00    -0.248 NA
ATOM     47  C   UNL A   1      40.707  31.436  29.734  1.00  0.00     0.031 C 
ATOM     48  C   UNL A   1      39.784  26.759  28.088  1.00  0.00     0.029 A 
ATOM     49  N   UNL A   1      41.914  27.346  28.405  1.00  0.00    -0.354 N 
ATOM     50  C   UNL A   1      42.975  31.392  29.481  1.00  0.00     0.074 A 
ATOM     51  C   UNL A   1      41.794  32.191  29.726  1.00  0.00     0.031 C 
ATOM     52  C   UNL A   1      40.543  25.692  27.789  1.00  0.00     0.029 A 
ATOM     53  C   UNL A   1      41.947  26.039  27.972  1.00  0.00     0.049 A 
ATOM     54  H   UNL A   1      42.725  27.864  28.609  1.00  0.00     0.167 HD
ATOM     55  C   UNL A   1      44.241  31.854  29.604  1.00  0.00     0.037 A 
ATOM     56  C   UNL A   1      42.989  25.213  27.751  1.00  0.00     0.037 A 
ATOM     57  C   UNL A   1      45.412  31.034  29.456  1.00  0.00     0.049 A 
ATOM     58  C   UNL A   1      44.389  25.721  27.982  1.00  0.00     0.074 A 
ATOM     59  C   UNL A   1      46.736  31.381  29.653  1.00  0.00     0.029 A 
ATOM     60  N   UNL A   1      45.396  29.694  29.101  1.00  0.00    -0.354 N 
ATOM     61  N   UNL A   1      44.779  26.920  28.344  1.00  0.00    -0.248 NA
ATOM     62  C   UNL A   1      45.489  24.766  27.783  1.00  0.00     0.031 C 
ATOM     63  C   UNL A   1      47.524  30.252  29.404  1.00  0.00     0.029 A 
ATOM     64  C   UNL A   1      46.687  29.196  29.080  1.00  0.00     0.049 A 
ATOM     65  H   UNL A   1      44.586  29.173  28.895  1.00  0.00     0.167 HD
ATOM     66  C   UNL A   1      46.164  26.856  28.442  1.00  0.00     0.074 A 
ATOM     67  C   UNL A   1      46.544  25.498  28.110  1.00  0.00     0.031 C 
ATOM     68  C   UNL A   1      47.042  27.834  28.774  1.00  0.00     0.037 A 
BRANCH  55  69
ATOM     69  C   UNL A   1      44.414  33.307  29.950  1.00  0.00     0.058 A 
ATOM     70  C   UNL A   1      44.418  33.748  31.283  1.00  0.00     0.135 A 
ATOM     71  C   UNL A   1      44.571  34.271  28.941  1.00  0.00     0.135 A 
ATOM     72  F   UNL A   1      44.255  32.870  32.286  1.00  0.00    -0.206 F 
ATOM     73  C   UNL A   1      44.518  35.097  31.603  1.00  0.00     0.059 A 
ATOM     74  C   UNL A   1      44.706  35.624  29.240  1.00  0.00     0.059 A 
ATOM     75  F   UNL A   1      44.579  33.904  27.649  1.00  0.00    -0.206 F 
ATOM     76  C   UNL A   1      44.655  36.028  30.574  1.00  0.00     0.060 A 
BRANCH  76  77
ATOM     77  S   UNL A   1      44.760  37.778  31.003  1.00  0.00     0.124 S 
ATOM     78  O   UNL A   1      43.488  38.278  30.493  1.00  0.00    -0.237 OA
ATOM     79  O   UNL A   1      44.888  37.738  32.456  1.00  0.00    -0.237 OA
ATOM     80  O   UNL A   1      45.948  38.231  30.285  1.00  0.00    -0.744 OA
ENDBRANCH  76  77
ENDBRANCH  55  69
BRANCH  56  81
ATOM     81  C   UNL A   1      42.758  23.802  27.333  1.00  0.00     0.058 A 
ATOM     82  C   UNL A   1      42.546  22.800  28.292  1.00  0.00     0.135 A 
ATOM     83  C   UNL A   1      42.742  23.424  25.982  1.00  0.00     0.135 A 
ATOM     84  F   UNL A   1      42.558  23.110  29.598  1.00  0.00    -0.206 F 
ATOM     85  C   UNL A   1      42.348  21.471  27.931  1.00  0.00     0.059 A 
ATOM     86  C   UNL A   1      42.525  22.105  25.594  1.00  0.00     0.059 A 
ATOM     87  F   UNL A   1      42.923  24.347  25.024  1.00  0.00    -0.206 F 
ATOM     88  C   UNL A   1      42.339  21.133  26.577  1.00  0.00     0.060 A 
BRANCH  88  89
ATOM     89  S   UNL A   1      42.041  19.411  26.117  1.00  0.00     0.124 S 
ATOM     90  O   UNL A   1      42.381  18.713  27.350  1.00  0.00    -0.237 OA
ATOM     91  O   UNL A   1      40.623  19.430  25.763  1.00  0.00    -0.237 OA
ATOM     92  O   UNL A   1      42.954  19.201  24.997  1.00  0.00    -0.744 OA
ENDBRANCH  88  89
ENDBRANCH  56  81
BRANCH  68  93
ATOM     93  C   UNL A   1      48.497  27.470  28.840  1.00  0.00     0.058 A 
ATOM     94  C   UNL A   1      49.368  27.729  27.772  1.00  0.00     0.135 A 
ATOM     95  C   UNL A   1      49.039  26.933  30.019  1.00  0.00     0.135 A 
ATOM     96  F   UNL A   1      48.895  28.236  26.622  1.00  0.00    -0.206 F 
ATOM     97  C   UNL A   1      50.730  27.464  27.868  1.00  0.00     0.059 A 
ATOM     98  C   UNL A   1      50.400  26.680  30.144  1.00  0.00     0.059 A 
ATOM     99  F   UNL A   1      48.246  26.676  31.071  1.00  0.00    -0.206 F 
ATOM    100  C   UNL A   1      51.238  26.943  29.059  1.00  0.00     0.060 A 
BRANCH 100 101
ATOM    101  S   UNL A   1      53.015  26.662  29.194  1.00  0.00     0.124 S 
ATOM    102  O   UNL A   1      53.104  25.952  30.465  1.00  0.00    -0.237 OA
ATOM    103  O   UNL A   1      53.299  25.868  28.003  1.00  0.00    -0.237 OA
ATOM    104  O   UNL A   1      53.574  28.011  29.187  1.00  0.00    -0.744 OA
ENDBRANCH 100 101
ENDBRANCH  68  93
ENDBRANCH  42  43
ENDBRANCH  34  37
ENDBRANCH  32  33
ENDBRANCH  31  32
ENDBRANCH   1  31
TORSDOF 19
ENDMDL
MODEL 2
REMARK VINA RESULT:     -12.1      5.390      7.841
REMARK SMILES COc1ccccc1[C@@H]1C[N@@H+](Cc2cc(C(C)=O)cn2C)C[C@H]1C(=O)NCCCCNC(=O)c1ccc(-c2c3nc(c(-c4c(F)cc(S(=O)(=O)[O-])cc4F)c4ccc([nH]4)c(-c4c(F)cc(S(=O)(=O)[O-])cc4F)c4nc(c(-c5c(F)cc(S(=O)(=O)[O-])cc5F)c5ccc2[nH]5)C=C4)C=C3)cc1
REMARK SMILES IDX 28 1 27 2 26 3 24 4 25 5 23 7 9 8 10 9 11 10 22 11 8 13 3 14
REMARK SMILES IDX 4 15 5 16 7 17 6 18 2 19 1 20 12 21 13 22 14 23 20 24 15 25
REMARK SMILES IDX 19 26 21 27 16 28 17 29 18 30 29 31 30 32 31 33 32 34 33 36
REMARK SMILES IDX 34 37 35 38 99 39 36 40 98 41 37 42 38 43 39 44 92 45 40 46
REMARK SMILES IDX 97 47 91 48 93 49 41 50 96 51 90 52 89 53 42 55 76 56 55 57
REMARK SMILES IDX 75 58 56 59 59 60 74 61 94 62 57 63 58 64 73 66 95 67 60 68
REMARK SMILES IDX 43 69 44 70 53 71 45 72 46 73 52 74 54 75 47 76 48 77 49 78
REMARK SMILES IDX 50 79 51 80 77 81 78 82 87 83 79 84 80 85 86 86 88 87 81 88
REMARK SMILES IDX 82 89 83 90 84 91 85 92 61 93 62 94 71 95 63 96 64 97 70 98
REMARK SMILES IDX 72 99 65 100 66 101 67 102 68 103 69 104
REMARK H PARENT 26 6 11 12 31 35 93 54 59 65
REMARK Flexibility Score: inf
ROOT
ATOM      1  C   UNL A   1      34.979  30.489  27.401  1.00  0.00     0.023 C 
ENDROOT
BRANCH   1   2
ATOM      2  C   UNL A   1      34.699  29.039  27.837  1.00  0.00     0.116 C 
BRANCH   2   3
ATOM      3  N   UNL A   1      33.317  28.628  27.581  1.00  0.00    -0.356 N 
ATOM      4  C   UNL A   1      32.596  27.782  26.819  1.00  0.00     0.229 C 
ATOM      5  O   UNL A   1      31.542  27.448  27.399  1.00  0.00    -0.275 OA
ATOM      6  H   UNL A   1      32.711  29.142  28.161  1.00  0.00     0.163 HD
BRANCH   4   7
ATOM      7  C   UNL A   1      32.761  27.246  25.381  1.00  0.00     0.146 C 
ATOM      8  C   UNL A   1      32.204  25.855  25.086  1.00  0.00     0.096 C 
ATOM      9  C   UNL A   1      32.364  25.726  23.560  1.00  0.00     0.272 C 
ATOM     10  N   UNL A   1      32.259  27.086  23.006  1.00  0.00    -0.329 N 
ATOM     11  C   UNL A   1      32.530  28.042  24.101  1.00  0.00     0.276 C 
ATOM     12  H   UNL A   1      32.976  27.256  22.301  1.00  0.00     0.348 HD
BRANCH   8  13
ATOM     13  C   UNL A   1      32.848  24.738  25.892  1.00  0.00     0.004 A 
ATOM     14  C   UNL A   1      32.173  23.895  26.796  1.00  0.00     0.122 A 
ATOM     15  C   UNL A   1      32.853  22.882  27.483  1.00  0.00     0.047 A 
ATOM     16  C   UNL A   1      34.213  22.679  27.265  1.00  0.00     0.004 A 
ATOM     17  C   UNL A   1      34.222  24.510  25.690  1.00  0.00     0.008 A 
ATOM     18  C   UNL A   1      34.897  23.494  26.369  1.00  0.00     0.001 A 
BRANCH  14  19
ATOM     19  O   UNL A   1      30.866  24.104  27.149  1.00  0.00    -0.496 OA
ATOM     20  C   UNL A   1      30.033  22.977  26.890  1.00  0.00     0.278 C 
ENDBRANCH  14  19
ENDBRANCH   8  13
BRANCH  10  21
ATOM     21  C   UNL A   1      31.080  27.301  22.158  1.00  0.00     0.317 C 
BRANCH  21  22
ATOM     22  C   UNL A   1      30.084  28.205  22.803  1.00  0.00     0.073 A 
ATOM     23  C   UNL A   1      30.016  29.597  22.810  1.00  0.00     0.041 A 
ATOM     24  N   UNL A   1      28.919  27.756  23.367  1.00  0.00    -0.349 N 
ATOM     25  C   UNL A   1      28.634  29.917  22.877  1.00  0.00     0.035 A 
ATOM     26  C   UNL A   1      27.997  28.745  23.208  1.00  0.00     0.097 A 
ATOM     27  C   UNL A   1      28.630  26.441  23.895  1.00  0.00     0.149 C 
BRANCH  25  28
ATOM     28  C   UNL A   1      27.930  31.142  22.528  1.00  0.00     0.161 C 
ATOM     29  C   UNL A   1      28.298  31.837  21.251  1.00  0.00     0.093 C 
ATOM     30  O   UNL A   1      27.125  31.649  23.310  1.00  0.00    -0.294 OA
ENDBRANCH  25  28
ENDBRANCH  21  22
ENDBRANCH  10  21
ENDBRANCH   4   7
ENDBRANCH   2   3
ENDBRANCH   1   2
BRANCH   1  31
ATOM     31  C   UNL A   1      34.002  31.581  27.880  1.00  0.00     0.023 C 
BRANCH  31  32
ATOM     32  C   UNL A   1      34.257  33.045  27.528  1.00  0.00     0.116 C 
BRANCH  32  33
ATOM     33  N   UNL A   1      33.257  34.013  27.977  1.00  0.00    -0.352 N 
ATOM     34  C   UNL A   1      33.232  34.793  29.116  1.00  0.00     0.251 C 
ATOM     35  H   UNL A   1      32.484  34.126  27.377  1.00  0.00     0.163 HD
ATOM     36  O   UNL A   1      32.323  35.596  29.307  1.00  0.00    -0.269 OA
BRANCH  34  37
ATOM     37  C   UNL A   1      34.278  34.586  30.132  1.00  0.00     0.039 A 
ATOM     38  C   UNL A   1      33.968  33.838  31.269  1.00  0.00     0.014 A 
ATOM     39  C   UNL A   1      35.596  34.929  29.837  1.00  0.00     0.014 A 
ATOM     40  C   UNL A   1      35.005  33.288  32.024  1.00  0.00     0.010 A 
ATOM     41  C   UNL A   1      36.617  34.276  30.515  1.00  0.00     0.010 A 
ATOM     42  C   UNL A   1      36.336  33.420  31.596  1.00  0.00    -0.014 A 
BRANCH  42  43
ATOM     43  C   UNL A   1      37.447  32.647  32.220  1.00  0.00     0.031 A 
ATOM     44  C   UNL A   1      37.997  33.076  33.556  1.00  0.00     0.074 A 
ATOM     45  C   UNL A   1      38.047  31.642  31.544  1.00  0.00     0.049 A 
ATOM     46  N   UNL A   1      39.068  32.663  34.184  1.00  0.00    -0.248 NA
ATOM     47  C   UNL A   1      37.282  34.162  34.246  1.00  0.00     0.031 C 
ATOM     48  C   UNL A   1      37.683  31.174  30.203  1.00  0.00     0.029 A 
ATOM     49  N   UNL A   1      39.104  30.834  31.890  1.00  0.00    -0.354 N 
ATOM     50  C   UNL A   1      39.181  33.473  35.307  1.00  0.00     0.074 A 
ATOM     51  C   UNL A   1      38.111  34.444  35.238  1.00  0.00     0.031 C 
ATOM     52  C   UNL A   1      38.468  30.139  29.863  1.00  0.00     0.029 A 
ATOM     53  C   UNL A   1      39.422  29.891  30.938  1.00  0.00     0.049 A 
ATOM     54  H   UNL A   1      39.589  30.920  32.742  1.00  0.00     0.167 HD
ATOM     55  C   UNL A   1      40.067  33.394  36.327  1.00  0.00     0.037 A 
ATOM     56  C   UNL A   1      40.372  28.934  30.932  1.00  0.00     0.037 A 
ATOM     57  C   UNL A   1      41.068  32.369  36.443  1.00  0.00     0.049 A 
ATOM     58  C   UNL A   1      41.289  28.804  32.120  1.00  0.00     0.074 A 
ATOM     59  C   UNL A   1      41.952  32.142  37.482  1.00  0.00     0.029 A 
ATOM     60  N   UNL A   1      41.298  31.382  35.497  1.00  0.00    -0.354 N 
ATOM     61  N   UNL A   1      41.342  29.544  33.202  1.00  0.00    -0.248 NA
ATOM     62  C   UNL A   1      42.270  27.710  32.092  1.00  0.00     0.031 C 
ATOM     63  C   UNL A   1      42.727  31.024  37.158  1.00  0.00     0.029 A 
ATOM     64  C   UNL A   1      42.306  30.539  35.930  1.00  0.00     0.049 A 
ATOM     65  H   UNL A   1      40.815  31.294  34.642  1.00  0.00     0.167 HD
ATOM     66  C   UNL A   1      42.341  28.989  33.994  1.00  0.00     0.074 A 
ATOM     67  C   UNL A   1      42.860  27.846  33.270  1.00  0.00     0.031 C 
ATOM     68  C   UNL A   1      42.789  29.390  35.208  1.00  0.00     0.037 A 
BRANCH  55  69
ATOM     69  C   UNL A   1      39.962  34.428  37.414  1.00  0.00     0.058 A 
ATOM     70  C   UNL A   1      39.103  34.254  38.511  1.00  0.00     0.135 A 
ATOM     71  C   UNL A   1      40.721  35.608  37.358  1.00  0.00     0.135 A 
ATOM     72  F   UNL A   1      38.342  33.151  38.606  1.00  0.00    -0.206 F 
ATOM     73  C   UNL A   1      38.959  35.235  39.486  1.00  0.00     0.059 A 
ATOM     74  C   UNL A   1      40.617  36.589  38.340  1.00  0.00     0.059 A 
ATOM     75  F   UNL A   1      41.561  35.824  36.333  1.00  0.00    -0.206 F 
ATOM     76  C   UNL A   1      39.716  36.402  39.388  1.00  0.00     0.060 A 
BRANCH  76  77
ATOM     77  S   UNL A   1      39.501  37.676  40.648  1.00  0.00     0.124 S 
ATOM     78  O   UNL A   1      40.801  38.339  40.612  1.00  0.00    -0.237 OA
ATOM     79  O   UNL A   1      38.381  38.450  40.125  1.00  0.00    -0.237 OA
ATOM     80  O   UNL A   1      39.219  36.910  41.858  1.00  0.00    -0.744 OA
ENDBRANCH  76  77
ENDBRANCH  55  69
BRANCH  56  81
ATOM     81  C   UNL A   1      40.479  27.985  29.789  1.00  0.00     0.058 A 
ATOM     82  C   UNL A   1      39.590  26.904  29.674  1.00  0.00     0.135 A 
ATOM     83  C   UNL A   1      41.457  28.131  28.795  1.00  0.00     0.135 A 
ATOM     84  F   UNL A   1      38.640  26.717  30.603  1.00  0.00    -0.206 F 
ATOM     85  C   UNL A   1      39.680  25.991  28.628  1.00  0.00     0.059 A 
ATOM     86  C   UNL A   1      41.554  27.243  27.727  1.00  0.00     0.059 A 
ATOM     87  F   UNL A   1      42.321  29.157  28.849  1.00  0.00    -0.206 F 
ATOM     88  C   UNL A   1      40.667  26.169  27.658  1.00  0.00     0.060 A 
BRANCH  88  89
ATOM     89  S   UNL A   1      40.750  25.001  26.282  1.00  0.00     0.124 S 
ATOM     90  O   UNL A   1      41.205  25.859  25.195  1.00  0.00    -0.237 OA
ATOM     91  O   UNL A   1      41.715  24.019  26.769  1.00  0.00    -0.237 OA
ATOM     92  O   UNL A   1      39.377  24.516  26.172  1.00  0.00    -0.744 OA
ENDBRANCH  88  89
ENDBRANCH  56  81
BRANCH  68  93
ATOM     93  C   UNL A   1      43.865  28.570  35.859  1.00  0.00     0.058 A 
ATOM     94  C   UNL A   1      43.557  27.472  36.676  1.00  0.00     0.135 A 
ATOM     95  C   UNL A   1      45.217  28.837  35.594  1.00  0.00     0.135 A 
ATOM     96  F   UNL A   1      42.278  27.181  36.963  1.00  0.00    -0.206 F 
ATOM     97  C   UNL A   1      44.556  26.667  37.213  1.00  0.00     0.059 A 
ATOM     98  C   UNL A   1      46.231  28.033  36.103  1.00  0.00     0.059 A 
ATOM     99  F   UNL A   1      45.561  29.872  34.811  1.00  0.00    -0.206 F 
ATOM    100  C   UNL A   1      45.890  26.953  36.917  1.00  0.00     0.060 A 
BRANCH 100 101
ATOM    101  S   UNL A   1      47.174  25.864  37.568  1.00  0.00     0.124 S 
ATOM    102  O   UNL A   1      46.397  24.690  37.950  1.00  0.00    -0.237 OA
ATOM    103  O   UNL A   1      48.056  25.694  36.417  1.00  0.00    -0.237 OA
ATOM    104  O   UNL A   1      47.740  26.631  38.674  1.00  0.00    -0.744 OA
ENDBRANCH 100 101
ENDBRANCH  68  93
ENDBRANCH  42  43
ENDBRANCH  34  37
ENDBRANCH  32  33
ENDBRANCH  31  32
ENDBRANCH   1  31
TORSDOF 19
ENDMDL
MODEL 3
REMARK VINA RESULT:     -12.0      1.510      2.134
REMARK SMILES COc1ccccc1[C@@H]1C[N@@H+](Cc2cc(C(C)=O)cn2C)C[C@H]1C(=O)NCCCCNC(=O)c1ccc(-c2c3nc(c(-c4c(F)cc(S(=O)(=O)[O-])cc4F)c4ccc([nH]4)c(-c4c(F)cc(S(=O)(=O)[O-])cc4F)c4nc(c(-c5c(F)cc(S(=O)(=O)[O-])cc5F)c5ccc2[nH]5)C=C4)C=C3)cc1
REMARK SMILES IDX 28 1 27 2 26 3 24 4 25 5 23 7 9 8 10 9 11 10 22 11 8 13 3 14
REMARK SMILES IDX 4 15 5 16 7 17 6 18 2 19 1 20 12 21 13 22 14 23 20 24 15 25
REMARK SMILES IDX 19 26 21 27 16 28 17 29 18 30 29 31 30 32 31 33 32 34 33 36
REMARK SMILES IDX 34 37 35 38 99 39 36 40 98 41 37 42 38 43 39 44 92 45 40 46
REMARK SMILES IDX 97 47 91 48 93 49 41 50 96 51 90 52 89 53 42 55 76 56 55 57
REMARK SMILES IDX 75 58 56 59 59 60 74 61 94 62 57 63 58 64 73 66 95 67 60 68
REMARK SMILES IDX 43 69 44 70 53 71 45 72 46 73 52 74 54 75 47 76 48 77 49 78
REMARK SMILES IDX 50 79 51 80 77 81 78 82 87 83 79 84 80 85 86 86 88 87 81 88
REMARK SMILES IDX 82 89 83 90 84 91 85 92 61 93 62 94 71 95 63 96 64 97 70 98
REMARK SMILES IDX 72 99 65 100 66 101 67 102 68 103 69 104
REMARK H PARENT 26 6 11 12 31 35 93 54 59 65
REMARK Flexibility Score: inf
ROOT
ATOM      1  C   UNL A   1      31.975  29.780  27.082  1.00  0.00     0.023 C 
ENDROOT
BRANCH   1   2
ATOM      2  C   UNL A   1      31.479  30.197  25.686  1.00  0.00     0.116 C 
BRANCH   2   3
ATOM      3  N   UNL A   1      32.353  29.726  24.610  1.00  0.00    -0.356 N 
ATOM      4  C   UNL A   1      32.501  28.700  23.748  1.00  0.00     0.229 C 
ATOM      5  O   UNL A   1      33.067  29.076  22.701  1.00  0.00    -0.275 OA
ATOM      6  H   UNL A   1      33.076  30.378  24.467  1.00  0.00     0.163 HD
BRANCH   4   7
ATOM      7  C   UNL A   1      32.211  27.187  23.840  1.00  0.00     0.146 C 
ATOM      8  C   UNL A   1      31.151  26.620  22.898  1.00  0.00     0.096 C 
ATOM      9  C   UNL A   1      31.257  25.100  23.119  1.00  0.00     0.272 C 
ATOM     10  N   UNL A   1      32.655  24.822  23.486  1.00  0.00    -0.329 N 
ATOM     11  C   UNL A   1      33.257  26.085  23.964  1.00  0.00     0.276 C 
ATOM     12  H   UNL A   1      32.711  24.171  24.269  1.00  0.00     0.348 HD
BRANCH   8  13
ATOM     13  C   UNL A   1      29.760  27.199  23.099  1.00  0.00     0.004 A 
ATOM     14  C   UNL A   1      29.283  28.390  22.517  1.00  0.00     0.122 A 
ATOM     15  C   UNL A   1      27.977  28.836  22.752  1.00  0.00     0.047 A 
ATOM     16  C   UNL A   1      27.116  28.090  23.553  1.00  0.00     0.004 A 
ATOM     17  C   UNL A   1      28.868  26.465  23.903  1.00  0.00     0.008 A 
ATOM     18  C   UNL A   1      27.563  26.906  24.129  1.00  0.00     0.001 A 
BRANCH  14  19
ATOM     19  O   UNL A   1      30.101  29.234  21.813  1.00  0.00    -0.496 OA
ATOM     20  C   UNL A   1      29.540  30.534  21.638  1.00  0.00     0.278 C 
ENDBRANCH  14  19
ENDBRANCH   8  13
BRANCH  10  21
ATOM     21  C   UNL A   1      33.388  24.020  22.498  1.00  0.00     0.317 C 
BRANCH  21  22
ATOM     22  C   UNL A   1      34.403  23.134  23.138  1.00  0.00     0.073 A 
ATOM     23  C   UNL A   1      35.787  23.274  23.218  1.00  0.00     0.041 A 
ATOM     24  N   UNL A   1      34.072  22.077  23.944  1.00  0.00    -0.349 N 
ATOM     25  C   UNL A   1      36.168  22.667  24.445  1.00  0.00     0.035 A 
ATOM     26  C   UNL A   1      35.070  21.953  24.861  1.00  0.00     0.097 A 
ATOM     27  C   UNL A   1      32.843  21.315  23.961  1.00  0.00     0.149 C 
BRANCH  25  28
ATOM     28  C   UNL A   1      37.369  22.836  25.248  1.00  0.00     0.161 C 
ATOM     29  C   UNL A   1      38.215  21.630  25.531  1.00  0.00     0.093 C 
ATOM     30  O   UNL A   1      37.630  23.921  25.767  1.00  0.00    -0.294 OA
ENDBRANCH  25  28
ENDBRANCH  21  22
ENDBRANCH  10  21
ENDBRANCH   4   7
ENDBRANCH   2   3
ENDBRANCH   1   2
BRANCH   1  31
ATOM     31  C   UNL A   1      33.496  29.639  27.288  1.00  0.00     0.023 C 
BRANCH  31  32
ATOM     32  C   UNL A   1      34.359  30.881  27.505  1.00  0.00     0.116 C 
BRANCH  32  33
ATOM     33  N   UNL A   1      34.428  31.405  28.868  1.00  0.00    -0.352 N 
ATOM     34  C   UNL A   1      35.409  31.246  29.826  1.00  0.00     0.251 C 
ATOM     35  H   UNL A   1      33.658  31.954  29.145  1.00  0.00     0.163 HD
ATOM     36  O   UNL A   1      35.319  31.806  30.916  1.00  0.00    -0.269 OA
BRANCH  34  37
ATOM     37  C   UNL A   1      36.526  30.329  29.542  1.00  0.00     0.039 A 
ATOM     38  C   UNL A   1      37.115  30.364  28.277  1.00  0.00     0.014 A 
ATOM     39  C   UNL A   1      37.119  29.628  30.590  1.00  0.00     0.014 A 
ATOM     40  C   UNL A   1      38.394  29.830  28.108  1.00  0.00     0.010 A 
ATOM     41  C   UNL A   1      38.436  29.214  30.447  1.00  0.00     0.010 A 
ATOM     42  C   UNL A   1      39.105  29.340  29.215  1.00  0.00    -0.014 A 
BRANCH  42  43
ATOM     43  C   UNL A   1      40.554  28.996  29.134  1.00  0.00     0.031 A 
ATOM     44  C   UNL A   1      41.589  30.050  29.427  1.00  0.00     0.074 A 
ATOM     45  C   UNL A   1      40.946  27.784  28.682  1.00  0.00     0.049 A 
ATOM     46  N   UNL A   1      42.883  30.017  29.239  1.00  0.00    -0.248 NA
ATOM     47  C   UNL A   1      41.092  31.339  29.937  1.00  0.00     0.031 C 
ATOM     48  C   UNL A   1      40.055  26.693  28.273  1.00  0.00     0.029 A 
ATOM     49  N   UNL A   1      42.203  27.266  28.478  1.00  0.00    -0.354 N 
ATOM     50  C   UNL A   1      43.342  31.290  29.555  1.00  0.00     0.074 A 
ATOM     51  C   UNL A   1      42.181  32.090  29.879  1.00  0.00     0.031 C 
ATOM     52  C   UNL A   1      40.791  25.627  27.914  1.00  0.00     0.029 A 
ATOM     53  C   UNL A   1      42.205  25.966  28.023  1.00  0.00     0.049 A 
ATOM     54  H   UNL A   1      43.027  27.778  28.643  1.00  0.00     0.167 HD
ATOM     55  C   UNL A   1      44.615  31.746  29.613  1.00  0.00     0.037 A 
ATOM     56  C   UNL A   1      43.229  25.140  27.730  1.00  0.00     0.037 A 
ATOM     57  C   UNL A   1      45.772  30.924  29.386  1.00  0.00     0.049 A 
ATOM     58  C   UNL A   1      44.642  25.639  27.890  1.00  0.00     0.074 A 
ATOM     59  C   UNL A   1      47.107  31.262  29.513  1.00  0.00     0.029 A 
ATOM     60  N   UNL A   1      45.730  29.589  29.012  1.00  0.00    -0.354 N 
ATOM     61  N   UNL A   1      45.057  26.831  28.247  1.00  0.00    -0.248 NA
ATOM     62  C   UNL A   1      45.724  24.683  27.613  1.00  0.00     0.031 C 
ATOM     63  C   UNL A   1      47.874  30.134  29.202  1.00  0.00     0.029 A 
ATOM     64  C   UNL A   1      47.015  29.087  28.909  1.00  0.00     0.049 A 
ATOM     65  H   UNL A   1      44.907  29.075  28.844  1.00  0.00     0.167 HD
ATOM     66  C   UNL A   1      46.446  26.760  28.266  1.00  0.00     0.074 A 
ATOM     67  C   UNL A   1      46.800  25.406  27.891  1.00  0.00     0.031 C 
ATOM     68  C   UNL A   1      47.346  27.729  28.562  1.00  0.00     0.037 A 
BRANCH  55  69
ATOM     69  C   UNL A   1      44.815  33.193  29.971  1.00  0.00     0.058 A 
ATOM     70  C   UNL A   1      44.976  33.603  31.304  1.00  0.00     0.135 A 
ATOM     71  C   UNL A   1      44.838  34.181  28.974  1.00  0.00     0.135 A 
ATOM     72  F   UNL A   1      44.945  32.699  32.298  1.00  0.00    -0.206 F 
ATOM     73  C   UNL A   1      45.100  34.944  31.643  1.00  0.00     0.059 A 
ATOM     74  C   UNL A   1      44.994  35.529  29.288  1.00  0.00     0.059 A 
ATOM     75  F   UNL A   1      44.693  33.845  27.683  1.00  0.00    -0.206 F 
ATOM     76  C   UNL A   1      45.102  35.901  30.628  1.00  0.00     0.060 A 
BRANCH  76  77
ATOM     77  S   UNL A   1      45.241  37.641  31.085  1.00  0.00     0.124 S 
ATOM     78  O   UNL A   1      44.104  38.218  30.376  1.00  0.00    -0.237 OA
ATOM     79  O   UNL A   1      45.124  37.595  32.539  1.00  0.00    -0.237 OA
ATOM     80  O   UNL A   1      46.557  38.020  30.577  1.00  0.00    -0.744 OA
ENDBRANCH  76  77
ENDBRANCH  55  69
BRANCH  56  81
ATOM     81  C   UNL A   1      42.968  23.737  27.304  1.00  0.00     0.058 A 
ATOM     82  C   UNL A   1      42.794  22.723  28.258  1.00  0.00     0.135 A 
ATOM     83  C   UNL A   1      42.886  23.378  25.950  1.00  0.00     0.135 A 
ATOM     84  F   UNL A   1      42.870  23.014  29.566  1.00  0.00    -0.206 F 
ATOM     85  C   UNL A   1      42.570  21.400  27.888  1.00  0.00     0.059 A 
ATOM     86  C   UNL A   1      42.640  22.066  25.555  1.00  0.00     0.059 A 
ATOM     87  F   UNL A   1      43.028  24.313  24.998  1.00  0.00    -0.206 F 
ATOM     88  C   UNL A   1      42.494  21.081  26.532  1.00  0.00     0.060 A 
BRANCH  88  89
ATOM     89  S   UNL A   1      42.161  19.368  26.062  1.00  0.00     0.124 S 
ATOM     90  O   UNL A   1      42.629  18.645  27.238  1.00  0.00    -0.237 OA
ATOM     91  O   UNL A   1      40.716  19.383  25.853  1.00  0.00    -0.237 OA
ATOM     92  O   UNL A   1      42.959  19.193  24.852  1.00  0.00    -0.744 OA
ENDBRANCH  88  89
ENDBRANCH  56  81
BRANCH  68  93
ATOM     93  C   UNL A   1      48.800  27.358  28.540  1.00  0.00     0.058 A 
ATOM     94  C   UNL A   1      49.558  27.430  27.362  1.00  0.00     0.135 A 
ATOM     95  C   UNL A   1      49.459  27.009  29.729  1.00  0.00     0.135 A 
ATOM     96  F   UNL A   1      48.971  27.753  26.199  1.00  0.00    -0.206 F 
ATOM     97  C   UNL A   1      50.923  27.163  27.363  1.00  0.00     0.059 A 
ATOM     98  C   UNL A   1      50.827  26.758  29.757  1.00  0.00     0.059 A 
ATOM     99  F   UNL A   1      48.778  26.935  30.883  1.00  0.00    -0.206 F 
ATOM    100  C   UNL A   1      51.550  26.832  28.566  1.00  0.00     0.060 A 
BRANCH 100 101
ATOM    101  S   UNL A   1      53.332  26.549  28.565  1.00  0.00     0.124 S 
ATOM    102  O   UNL A   1      53.484  25.634  27.438  1.00  0.00    -0.237 OA
ATOM    103  O   UNL A   1      53.864  27.894  28.366  1.00  0.00    -0.237 OA
ATOM    104  O   UNL A   1      53.584  25.971  29.882  1.00  0.00    -0.744 OA
ENDBRANCH 100 101
ENDBRANCH  68  93
ENDBRANCH  42  43
ENDBRANCH  34  37
ENDBRANCH  32  33
ENDBRANCH  31  32
ENDBRANCH   1  31
TORSDOF 19
ENDMDL
