MODEL 1
REMARK VINA RESULT:     -11.4      0.000      0.000
REMARK SMILES O=C(CN(CC(F)(F)F)C(=O)Nc1ccccc1Cl)NCCCCNC(=O)c1ccc(-c2c3nc(c(-c4c(F)cc(S(=O)(=O)[O-])cc4F)c4ccc([nH]4)c(-c4c(F)cc(S(=O)(=O)[O-])cc4F)c4nc(c(-c5c(F)cc(S(=O)(=O)[O-])cc5F)c5ccc2[nH]5)C=C4)C=C3)cc1
REMARK SMILES IDX 22 1 21 2 20 3 1 4 2 5 3 7 4 8 5 9 6 10 7 11 8 12 9 13 10 14
REMARK SMILES IDX 11 15 12 16 13 18 14 19 18 20 15 21 17 22 19 23 16 24 23 25
REMARK SMILES IDX 24 26 25 27 26 28 27 30 28 31 29 32 93 33 30 34 92 35 31 36
REMARK SMILES IDX 32 37 33 38 86 39 34 40 91 41 85 42 87 43 35 44 90 45 84 46
REMARK SMILES IDX 83 47 36 49 70 50 49 51 69 52 50 53 53 54 68 55 88 56 51 57
REMARK SMILES IDX 52 58 67 60 89 61 54 62 37 63 38 64 47 65 39 66 40 67 46 68
REMARK SMILES IDX 48 69 41 70 42 71 43 72 44 73 45 74 71 75 72 76 81 77 73 78
REMARK SMILES IDX 74 79 80 80 82 81 75 82 76 83 77 84 78 85 79 86 55 87 56 88
REMARK SMILES IDX 65 89 57 90 58 91 64 92 66 93 59 94 60 95 61 96 62 97 63 98
REMARK H PARENT 20 6 12 17 25 29 87 48 53 59
REMARK Flexibility Score: inf
ROOT
ATOM      1  C   UNL A   1      37.410  22.051  25.001  1.00  0.00     0.023 C 
ENDROOT
BRANCH   1   2
ATOM      2  C   UNL A   1      36.216  21.274  25.553  1.00  0.00     0.116 C 
BRANCH   2   3
ATOM      3  N   UNL A   1      34.927  21.818  25.167  1.00  0.00    -0.355 N 
ATOM      4  O   UNL A   1      33.962  21.552  27.226  1.00  0.00    -0.273 OA
ATOM      5  C   UNL A   1      33.917  22.019  26.088  1.00  0.00     0.239 C 
ATOM      6  H   UNL A   1      34.768  22.051  24.223  1.00  0.00     0.163 HD
BRANCH   5   7
ATOM      7  C   UNL A   1      32.649  22.732  25.566  1.00  0.00     0.221 C 
BRANCH   7   8
ATOM      8  N   UNL A   1      32.520  24.163  25.911  1.00  0.00    -0.306 N 
BRANCH   8   9
ATOM      9  C   UNL A   1      33.669  25.022  25.517  1.00  0.00     0.237 C 
BRANCH   9  10
ATOM     10  C   UNL A   1      33.814  25.368  24.020  1.00  0.00     0.406 C 
ATOM     11  F   UNL A   1      34.162  26.648  23.800  1.00  0.00    -0.169 F 
ATOM     12  F   UNL A   1      34.777  24.597  23.461  1.00  0.00    -0.169 F 
ATOM     13  F   UNL A   1      32.675  25.135  23.331  1.00  0.00    -0.169 F 
ENDBRANCH   9  10
ENDBRANCH   8   9
BRANCH   8  14
ATOM     14  C   UNL A   1      31.383  24.480  26.628  1.00  0.00     0.322 C 
ATOM     15  O   UNL A   1      30.762  23.610  27.247  1.00  0.00    -0.248 OA
ATOM     16  N   UNL A   1      31.018  25.761  26.876  1.00  0.00    -0.306 N 
ATOM     17  H   UNL A   1      30.590  25.889  27.754  1.00  0.00     0.171 HD
BRANCH  16  18
ATOM     18  C   UNL A   1      31.131  26.937  26.128  1.00  0.00     0.061 A 
ATOM     19  C   UNL A   1      31.766  28.014  26.754  1.00  0.00     0.028 A 
ATOM     20  C   UNL A   1      30.647  27.085  24.822  1.00  0.00     0.064 A 
ATOM     21  C   UNL A   1      32.074  29.162  26.027  1.00  0.00     0.002 A 
ATOM     22  C   UNL A   1      30.968  28.231  24.090  1.00  0.00     0.023 A 
ATOM     23  Cl  UNL A   1      29.525  25.960  24.141  1.00  0.00    -0.082 Cl
ATOM     24  C   UNL A   1      31.709  29.255  24.684  1.00  0.00     0.002 A 
ENDBRANCH  16  18
ENDBRANCH   8  14
ENDBRANCH   7   8
ENDBRANCH   5   7
ENDBRANCH   2   3
ENDBRANCH   1   2
BRANCH   1  25
ATOM     25  C   UNL A   1      37.440  23.544  25.339  1.00  0.00     0.023 C 
BRANCH  25  26
ATOM     26  C   UNL A   1      38.349  23.953  26.496  1.00  0.00     0.116 C 
BRANCH  26  27
ATOM     27  N   UNL A   1      39.767  23.804  26.206  1.00  0.00    -0.352 N 
ATOM     28  C   UNL A   1      40.834  24.566  26.629  1.00  0.00     0.251 C 
ATOM     29  H   UNL A   1      39.998  23.046  25.622  1.00  0.00     0.163 HD
ATOM     30  O   UNL A   1      41.957  24.334  26.188  1.00  0.00    -0.269 OA
BRANCH  28  31
ATOM     31  C   UNL A   1      40.633  25.684  27.582  1.00  0.00     0.039 A 
ATOM     32  C   UNL A   1      39.637  25.569  28.556  1.00  0.00     0.014 A 
ATOM     33  C   UNL A   1      41.415  26.841  27.525  1.00  0.00     0.014 A 
ATOM     34  C   UNL A   1      39.479  26.573  29.518  1.00  0.00     0.010 A 
ATOM     35  C   UNL A   1      41.306  27.807  28.526  1.00  0.00     0.010 A 
ATOM     36  C   UNL A   1      40.341  27.681  29.538  1.00  0.00    -0.014 A 
BRANCH  36  37
ATOM     37  C   UNL A   1      40.265  28.703  30.618  1.00  0.00     0.031 A 
ATOM     38  C   UNL A   1      41.126  28.580  31.848  1.00  0.00     0.074 A 
ATOM     39  C   UNL A   1      39.370  29.707  30.526  1.00  0.00     0.049 A 
ATOM     40  N   UNL A   1      41.137  29.321  32.926  1.00  0.00    -0.248 NA
ATOM     41  C   UNL A   1      42.081  27.461  31.879  1.00  0.00     0.031 C 
ATOM     42  C   UNL A   1      38.443  29.915  29.411  1.00  0.00     0.029 A 
ATOM     43  N   UNL A   1      39.079  30.735  31.390  1.00  0.00    -0.354 N 
ATOM     44  C   UNL A   1      42.090  28.757  33.767  1.00  0.00     0.074 A 
ATOM     45  C   UNL A   1      42.593  27.576  33.096  1.00  0.00     0.031 C 
ATOM     46  C   UNL A   1      37.701  31.008  29.651  1.00  0.00     0.029 A 
ATOM     47  C   UNL A   1      38.068  31.558  30.953  1.00  0.00     0.049 A 
ATOM     48  H   UNL A   1      39.552  30.870  32.244  1.00  0.00     0.167 HD
ATOM     49  C   UNL A   1      42.522  29.192  34.974  1.00  0.00     0.037 A 
ATOM     50  C   UNL A   1      37.489  32.627  31.536  1.00  0.00     0.037 A 
ATOM     51  C   UNL A   1      42.034  30.377  35.630  1.00  0.00     0.049 A 
ATOM     52  C   UNL A   1      37.981  33.089  32.881  1.00  0.00     0.074 A 
ATOM     53  C   UNL A   1      42.445  30.927  36.833  1.00  0.00     0.029 A 
ATOM     54  N   UNL A   1      41.026  31.198  35.142  1.00  0.00    -0.354 N 
ATOM     55  N   UNL A   1      38.921  32.572  33.636  1.00  0.00    -0.248 NA
ATOM     56  C   UNL A   1      37.341  34.283  33.450  1.00  0.00     0.031 C 
ATOM     57  C   UNL A   1      41.656  32.052  37.094  1.00  0.00     0.029 A 
ATOM     58  C   UNL A   1      40.788  32.236  36.030  1.00  0.00     0.049 A 
ATOM     59  H   UNL A   1      40.550  31.062  34.292  1.00  0.00     0.167 HD
ATOM     60  C   UNL A   1      39.003  33.393  34.756  1.00  0.00     0.074 A 
ATOM     61  C   UNL A   1      38.026  34.446  34.573  1.00  0.00     0.031 C 
ATOM     62  C   UNL A   1      39.816  33.283  35.836  1.00  0.00     0.037 A 
BRANCH  49  63
ATOM     63  C   UNL A   1      43.586  28.381  35.668  1.00  0.00     0.058 A 
ATOM     64  C   UNL A   1      43.260  27.364  36.580  1.00  0.00     0.135 A 
ATOM     65  C   UNL A   1      44.945  28.601  35.393  1.00  0.00     0.135 A 
ATOM     66  F   UNL A   1      41.976  27.120  36.890  1.00  0.00    -0.206 F 
ATOM     67  C   UNL A   1      44.243  26.619  37.222  1.00  0.00     0.059 A 
ATOM     68  C   UNL A   1      45.945  27.846  36.000  1.00  0.00     0.059 A 
ATOM     69  F   UNL A   1      45.315  29.558  34.528  1.00  0.00    -0.206 F 
ATOM     70  C   UNL A   1      45.584  26.868  36.926  1.00  0.00     0.060 A 
BRANCH  70  71
ATOM     71  S   UNL A   1      46.848  25.898  37.775  1.00  0.00     0.124 S 
ATOM     72  O   UNL A   1      46.922  24.714  36.926  1.00  0.00    -0.237 OA
ATOM     73  O   UNL A   1      48.005  26.785  37.727  1.00  0.00    -0.237 OA
ATOM     74  O   UNL A   1      46.278  25.684  39.101  1.00  0.00    -0.744 OA
ENDBRANCH  70  71
ENDBRANCH  49  63
BRANCH  50  75
ATOM     75  C   UNL A   1      36.386  33.343  30.839  1.00  0.00     0.058 A 
ATOM     76  C   UNL A   1      35.060  33.237  31.285  1.00  0.00     0.135 A 
ATOM     77  C   UNL A   1      36.638  34.160  29.726  1.00  0.00     0.135 A 
ATOM     78  F   UNL A   1      34.768  32.462  32.341  1.00  0.00    -0.206 F 
ATOM     79  C   UNL A   1      34.020  33.903  30.645  1.00  0.00     0.059 A 
ATOM     80  C   UNL A   1      35.619  34.857  29.085  1.00  0.00     0.059 A 
ATOM     81  F   UNL A   1      37.892  34.308  29.270  1.00  0.00    -0.206 F 
ATOM     82  C   UNL A   1      34.311  34.714  29.547  1.00  0.00     0.060 A 
BRANCH  82  83
ATOM     83  S   UNL A   1      32.961  35.618  28.756  1.00  0.00     0.124 S 
ATOM     84  O   UNL A   1      32.197  36.072  29.912  1.00  0.00    -0.237 OA
ATOM     85  O   UNL A   1      33.677  36.652  28.016  1.00  0.00    -0.237 OA
ATOM     86  O   UNL A   1      32.316  34.600  27.930  1.00  0.00    -0.744 OA
ENDBRANCH  82  83
ENDBRANCH  50  75
BRANCH  62  87
ATOM     87  C   UNL A   1      39.710  34.347  36.895  1.00  0.00     0.058 A 
ATOM     88  C   UNL A   1      38.925  34.171  38.044  1.00  0.00     0.135 A 
ATOM     89  C   UNL A   1      40.448  35.537  36.782  1.00  0.00     0.135 A 
ATOM     90  F   UNL A   1      38.195  33.055  38.200  1.00  0.00    -0.206 F 
ATOM     91  C   UNL A   1      38.856  35.145  39.035  1.00  0.00     0.059 A 
ATOM     92  C   UNL A   1      40.417  36.513  37.773  1.00  0.00     0.059 A 
ATOM     93  F   UNL A   1      41.224  35.751  35.708  1.00  0.00    -0.206 F 
ATOM     94  C   UNL A   1      39.609  36.313  38.891  1.00  0.00     0.060 A 
BRANCH  94  95
ATOM     95  S   UNL A   1      39.540  37.555  40.200  1.00  0.00     0.124 S 
ATOM     96  O   UNL A   1      38.956  36.792  41.298  1.00  0.00    -0.237 OA
ATOM     97  O   UNL A   1      40.945  37.921  40.357  1.00  0.00    -0.237 OA
ATOM     98  O   UNL A   1      38.687  38.597  39.636  1.00  0.00    -0.744 OA
ENDBRANCH  94  95
ENDBRANCH  62  87
ENDBRANCH  36  37
ENDBRANCH  28  31
ENDBRANCH  26  27
ENDBRANCH  25  26
ENDBRANCH   1  25
TORSDOF 19
ENDMDL
MODEL 2
REMARK VINA RESULT:     -11.3      4.890     10.549
REMARK SMILES O=C(CN(CC(F)(F)F)C(=O)Nc1ccccc1Cl)NCCCCNC(=O)c1ccc(-c2c3nc(c(-c4c(F)cc(S(=O)(=O)[O-])cc4F)c4ccc([nH]4)c(-c4c(F)cc(S(=O)(=O)[O-])cc4F)c4nc(c(-c5c(F)cc(S(=O)(=O)[O-])cc5F)c5ccc2[nH]5)C=C4)C=C3)cc1
REMARK SMILES IDX 22 1 21 2 20 3 1 4 2 5 3 7 4 8 5 9 6 10 7 11 8 12 9 13 10 14
REMARK SMILES IDX 11 15 12 16 13 18 14 19 18 20 15 21 17 22 19 23 16 24 23 25
REMARK SMILES IDX 24 26 25 27 26 28 27 30 28 31 29 32 93 33 30 34 92 35 31 36
REMARK SMILES IDX 32 37 33 38 86 39 34 40 91 41 85 42 87 43 35 44 90 45 84 46
REMARK SMILES IDX 83 47 36 49 70 50 49 51 69 52 50 53 53 54 68 55 88 56 51 57
REMARK SMILES IDX 52 58 67 60 89 61 54 62 37 63 38 64 47 65 39 66 40 67 46 68
REMARK SMILES IDX 48 69 41 70 42 71 43 72 44 73 45 74 71 75 72 76 81 77 73 78
REMARK SMILES IDX 74 79 80 80 82 81 75 82 76 83 77 84 78 85 79 86 55 87 56 88
REMARK SMILES IDX 65 89 57 90 58 91 64 92 66 93 59 94 60 95 61 96 62 97 63 98
REMARK H PARENT 20 6 12 17 25 29 87 48 53 59
REMARK Flexibility Score: inf
ROOT
ATOM      1  C   UNL A   1      32.318  29.006  24.786  1.00  0.00     0.023 C 
ENDROOT
BRANCH   1   2
ATOM      2  C   UNL A   1      32.401  28.125  23.541  1.00  0.00     0.116 C 
BRANCH   2   3
ATOM      3  N   UNL A   1      32.972  26.813  23.783  1.00  0.00    -0.355 N 
ATOM      4  O   UNL A   1      33.735  26.518  21.644  1.00  0.00    -0.273 OA
ATOM      5  C   UNL A   1      33.706  26.150  22.818  1.00  0.00     0.239 C 
ATOM      6  H   UNL A   1      32.833  26.384  24.659  1.00  0.00     0.163 HD
BRANCH   5   7
ATOM      7  C   UNL A   1      34.371  24.826  23.256  1.00  0.00     0.221 C 
BRANCH   7   8
ATOM      8  N   UNL A   1      33.593  23.986  24.191  1.00  0.00    -0.306 N 
BRANCH   8   9
ATOM      9  C   UNL A   1      32.492  23.197  23.577  1.00  0.00     0.237 C 
BRANCH   9  10
ATOM     10  C   UNL A   1      31.050  23.533  24.014  1.00  0.00     0.406 C 
ATOM     11  F   UNL A   1      30.143  23.363  23.036  1.00  0.00    -0.169 F 
ATOM     12  F   UNL A   1      30.681  22.728  25.038  1.00  0.00    -0.169 F 
ATOM     13  F   UNL A   1      30.935  24.806  24.454  1.00  0.00    -0.169 F 
ENDBRANCH   9  10
ENDBRANCH   8   9
BRANCH   8  14
ATOM     14  C   UNL A   1      33.950  24.123  25.518  1.00  0.00     0.322 C 
ATOM     15  O   UNL A   1      33.493  25.043  26.205  1.00  0.00    -0.248 OA
ATOM     16  N   UNL A   1      34.623  23.157  26.190  1.00  0.00    -0.306 N 
ATOM     17  H   UNL A   1      34.367  23.081  27.138  1.00  0.00     0.171 HD
BRANCH  16  18
ATOM     18  C   UNL A   1      35.609  22.248  25.798  1.00  0.00     0.061 A 
ATOM     19  C   UNL A   1      35.184  20.942  25.537  1.00  0.00     0.028 A 
ATOM     20  C   UNL A   1      36.966  22.572  25.665  1.00  0.00     0.064 A 
ATOM     21  C   UNL A   1      36.066  20.018  24.979  1.00  0.00     0.002 A 
ATOM     22  C   UNL A   1      37.846  21.649  25.093  1.00  0.00     0.023 A 
ATOM     23  Cl  UNL A   1      37.619  24.025  26.338  1.00  0.00    -0.082 Cl
ATOM     24  C   UNL A   1      37.387  20.384  24.721  1.00  0.00     0.002 A 
ENDBRANCH  16  18
ENDBRANCH   8  14
ENDBRANCH   7   8
ENDBRANCH   5   7
ENDBRANCH   2   3
ENDBRANCH   1   2
BRANCH   1  25
ATOM     25  C   UNL A   1      32.386  28.268  26.125  1.00  0.00     0.023 C 
BRANCH  25  26
ATOM     26  C   UNL A   1      33.545  28.648  27.045  1.00  0.00     0.116 C 
BRANCH  26  27
ATOM     27  N   UNL A   1      33.452  29.999  27.575  1.00  0.00    -0.352 N 
ATOM     28  C   UNL A   1      34.394  30.743  28.251  1.00  0.00     0.251 C 
ATOM     29  H   UNL A   1      32.589  30.449  27.428  1.00  0.00     0.163 HD
ATOM     30  O   UNL A   1      34.085  31.840  28.709  1.00  0.00    -0.269 OA
BRANCH  28  31
ATOM     31  C   UNL A   1      35.764  30.217  28.461  1.00  0.00     0.039 A 
ATOM     32  C   UNL A   1      36.676  30.266  27.402  1.00  0.00     0.014 A 
ATOM     33  C   UNL A   1      36.158  29.675  29.688  1.00  0.00     0.014 A 
ATOM     34  C   UNL A   1      37.997  29.851  27.596  1.00  0.00     0.010 A 
ATOM     35  C   UNL A   1      37.493  29.330  29.902  1.00  0.00     0.010 A 
ATOM     36  C   UNL A   1      38.429  29.420  28.860  1.00  0.00    -0.014 A 
BRANCH  36  37
ATOM     37  C   UNL A   1      39.856  29.082  29.118  1.00  0.00     0.031 A 
ATOM     38  C   UNL A   1      40.801  30.121  29.662  1.00  0.00     0.074 A 
ATOM     39  C   UNL A   1      40.321  27.857  28.797  1.00  0.00     0.049 A 
ATOM     40  N   UNL A   1      42.090  30.037  29.869  1.00  0.00    -0.248 NA
ATOM     41  C   UNL A   1      40.225  31.434  29.990  1.00  0.00     0.031 C 
ATOM     42  C   UNL A   1      39.523  26.773  28.220  1.00  0.00     0.029 A 
ATOM     43  N   UNL A   1      41.581  27.319  28.897  1.00  0.00    -0.354 N 
ATOM     44  C   UNL A   1      42.482  31.284  30.343  1.00  0.00     0.074 A 
ATOM     45  C   UNL A   1      41.302  32.124  30.336  1.00  0.00     0.031 C 
ATOM     46  C   UNL A   1      40.306  25.699  28.032  1.00  0.00     0.029 A 
ATOM     47  C   UNL A   1      41.671  26.026  28.437  1.00  0.00     0.049 A 
ATOM     48  H   UNL A   1      42.350  27.814  29.264  1.00  0.00     0.167 HD
ATOM     49  C   UNL A   1      43.704  31.688  30.765  1.00  0.00     0.037 A 
ATOM     50  C   UNL A   1      42.730  25.198  28.338  1.00  0.00     0.037 A 
ATOM     51  C   UNL A   1      44.872  30.845  30.789  1.00  0.00     0.049 A 
ATOM     52  C   UNL A   1      44.080  25.669  28.807  1.00  0.00     0.074 A 
ATOM     53  C   UNL A   1      46.144  31.148  31.245  1.00  0.00     0.029 A 
ATOM     54  N   UNL A   1      44.914  29.533  30.337  1.00  0.00    -0.354 N 
ATOM     55  N   UNL A   1      44.418  26.836  29.303  1.00  0.00    -0.248 NA
ATOM     56  C   UNL A   1      45.190  24.711  28.712  1.00  0.00     0.031 C 
ATOM     57  C   UNL A   1      46.965  30.037  31.027  1.00  0.00     0.029 A 
ATOM     58  C   UNL A   1      46.194  29.022  30.485  1.00  0.00     0.049 A 
ATOM     59  H   UNL A   1      44.148  29.039  29.966  1.00  0.00     0.167 HD
ATOM     60  C   UNL A   1      45.773  26.743  29.603  1.00  0.00     0.074 A 
ATOM     61  C   UNL A   1      46.188  25.403  29.244  1.00  0.00     0.031 C 
ATOM     62  C   UNL A   1      46.597  27.683  30.129  1.00  0.00     0.037 A 
BRANCH  49  63
ATOM     63  C   UNL A   1      43.842  33.109  31.243  1.00  0.00     0.058 A 
ATOM     64  C   UNL A   1      44.175  34.154  30.365  1.00  0.00     0.135 A 
ATOM     65  C   UNL A   1      43.607  33.437  32.588  1.00  0.00     0.135 A 
ATOM     66  F   UNL A   1      44.424  33.895  29.071  1.00  0.00    -0.206 F 
ATOM     67  C   UNL A   1      44.305  35.465  30.809  1.00  0.00     0.059 A 
ATOM     68  C   UNL A   1      43.702  34.748  33.049  1.00  0.00     0.059 A 
ATOM     69  F   UNL A   1      43.283  32.480  33.472  1.00  0.00    -0.206 F 
ATOM     70  C   UNL A   1      44.068  35.752  32.154  1.00  0.00     0.060 A 
BRANCH  70  71
ATOM     71  S   UNL A   1      44.251  37.458  32.716  1.00  0.00     0.124 S 
ATOM     72  O   UNL A   1      43.216  37.537  33.743  1.00  0.00    -0.237 OA
ATOM     73  O   UNL A   1      45.627  37.481  33.200  1.00  0.00    -0.237 OA
ATOM     74  O   UNL A   1      43.998  38.241  31.511  1.00  0.00    -0.744 OA
ENDBRANCH  70  71
ENDBRANCH  49  63
BRANCH  50  75
ATOM     75  C   UNL A   1      42.550  23.829  27.782  1.00  0.00     0.058 A 
ATOM     76  C   UNL A   1      42.524  23.609  26.397  1.00  0.00     0.135 A 
ATOM     77  C   UNL A   1      42.419  22.714  28.623  1.00  0.00     0.135 A 
ATOM     78  F   UNL A   1      42.638  24.645  25.551  1.00  0.00    -0.206 F 
ATOM     79  C   UNL A   1      42.360  22.335  25.864  1.00  0.00     0.059 A 
ATOM     80  C   UNL A   1      42.280  21.426  28.115  1.00  0.00     0.059 A 
ATOM     81  F   UNL A   1      42.454  22.868  29.956  1.00  0.00    -0.206 F 
ATOM     82  C   UNL A   1      42.242  21.249  26.732  1.00  0.00     0.060 A 
BRANCH  82  83
ATOM     83  S   UNL A   1      42.083  19.592  26.030  1.00  0.00     0.124 S 
ATOM     84  O   UNL A   1      43.016  19.657  24.911  1.00  0.00    -0.237 OA
ATOM     85  O   UNL A   1      42.485  18.745  27.149  1.00  0.00    -0.237 OA
ATOM     86  O   UNL A   1      40.669  19.514  25.672  1.00  0.00    -0.744 OA
ENDBRANCH  82  83
ENDBRANCH  50  75
BRANCH  62  87
ATOM     87  C   UNL A   1      48.027  27.290  30.382  1.00  0.00     0.058 A 
ATOM     88  C   UNL A   1      49.010  27.396  29.388  1.00  0.00     0.135 A 
ATOM     89  C   UNL A   1      48.427  26.851  31.656  1.00  0.00     0.135 A 
ATOM     90  F   UNL A   1      48.681  27.805  28.152  1.00  0.00    -0.206 F 
ATOM     91  C   UNL A   1      50.337  27.061  29.638  1.00  0.00     0.059 A 
ATOM     92  C   UNL A   1      49.753  26.537  31.937  1.00  0.00     0.059 A 
ATOM     93  F   UNL A   1      47.528  26.741  32.646  1.00  0.00    -0.206 F 
ATOM     94  C   UNL A   1      50.699  26.634  30.918  1.00  0.00     0.060 A 
BRANCH  94  95
ATOM     95  S   UNL A   1      52.431  26.236  31.240  1.00  0.00     0.124 S 
ATOM     96  O   UNL A   1      52.317  24.933  31.887  1.00  0.00    -0.237 OA
ATOM     97  O   UNL A   1      53.004  26.230  29.897  1.00  0.00    -0.237 OA
ATOM     98  O   UNL A   1      52.876  27.328  32.100  1.00  0.00    -0.744 OA
ENDBRANCH  94  95
ENDBRANCH  62  87
ENDBRANCH  36  37
ENDBRANCH  28  31
ENDBRANCH  26  27
ENDBRANCH  25  26
ENDBRANCH   1  25
TORSDOF 19
ENDMDL
MODEL 3
REMARK VINA RESULT:     -11.1      6.421     10.918
REMARK SMILES O=C(CN(CC(F)(F)F)C(=O)Nc1ccccc1Cl)NCCCCNC(=O)c1ccc(-c2c3nc(c(-c4c(F)cc(S(=O)(=O)[O-])cc4F)c4ccc([nH]4)c(-c4c(F)cc(S(=O)(=O)[O-])cc4F)c4nc(c(-c5c(F)cc(S(=O)(=O)[O-])cc5F)c5ccc2[nH]5)C=C4)C=C3)cc1
REMARK SMILES IDX 22 1 21 2 20 3 1 4 2 5 3 7 4 8 5 9 6 10 7 11 8 12 9 13 10 14
REMARK SMILES IDX 11 15 12 16 13 18 14 19 18 20 15 21 17 22 19 23 16 24 23 25
REMARK SMILES IDX 24 26 25 27 26 28 27 30 28 31 29 32 93 33 30 34 92 35 31 36
REMARK SMILES IDX 32 37 33 38 86 39 34 40 91 41 85 42 87 43 35 44 90 45 84 46
REMARK SMILES IDX 83 47 36 49 70 50 49 51 69 52 50 53 53 54 68 55 88 56 51 57
REMARK SMILES IDX 52 58 67 60 89 61 54 62 37 63 38 64 47 65 39 66 40 67 46 68
REMARK SMILES IDX 48 69 41 70 42 71 43 72 44 73 45 74 71 75 72 76 81 77 73 78
REMARK SMILES IDX 74 79 80 80 82 81 75 82 76 83 77 84 78 85 79 86 55 87 56 88
REMARK SMILES IDX 65 89 57 90 58 91 64 92 66 93 59 94 60 95 61 96 62 97 63 98
REMARK H PARENT 20 6 12 17 25 29 87 48 53 59
REMARK Flexibility Score: inf
ROOT
ATOM      1  C   UNL A   1      37.241  21.304  24.977  1.00  0.00     0.023 C 
ENDROOT
BRANCH   1   2
ATOM      2  C   UNL A   1      35.767  20.927  25.114  1.00  0.00     0.116 C 
BRANCH   2   3
ATOM      3  N   UNL A   1      34.875  22.064  25.246  1.00  0.00    -0.355 N 
ATOM      4  O   UNL A   1      33.494  21.071  26.779  1.00  0.00    -0.273 OA
ATOM      5  C   UNL A   1      33.851  22.081  26.174  1.00  0.00     0.239 C 
ATOM      6  H   UNL A   1      35.004  22.844  24.660  1.00  0.00     0.163 HD
BRANCH   5   7
ATOM      7  C   UNL A   1      33.068  23.407  26.301  1.00  0.00     0.221 C 
BRANCH   7   8
ATOM      8  N   UNL A   1      31.723  23.429  25.692  1.00  0.00    -0.306 N 
BRANCH   8   9
ATOM      9  C   UNL A   1      31.647  22.935  24.291  1.00  0.00     0.237 C 
BRANCH   9  10
ATOM     10  C   UNL A   1      32.188  23.862  23.182  1.00  0.00     0.406 C 
ATOM     11  F   UNL A   1      32.902  23.214  22.246  1.00  0.00    -0.169 F 
ATOM     12  F   UNL A   1      31.157  24.465  22.544  1.00  0.00    -0.169 F 
ATOM     13  F   UNL A   1      32.971  24.846  23.678  1.00  0.00    -0.169 F 
ENDBRANCH   9  10
ENDBRANCH   8   9
BRANCH   8  14
ATOM     14  C   UNL A   1      30.741  23.987  26.488  1.00  0.00     0.322 C 
ATOM     15  O   UNL A   1      30.198  23.326  27.379  1.00  0.00    -0.248 OA
ATOM     16  N   UNL A   1      30.484  25.317  26.493  1.00  0.00    -0.306 N 
ATOM     17  H   UNL A   1      30.220  25.667  27.375  1.00  0.00     0.171 HD
BRANCH  16  18
ATOM     18  C   UNL A   1      30.520  26.289  25.489  1.00  0.00     0.061 A 
ATOM     19  C   UNL A   1      29.492  26.244  24.542  1.00  0.00     0.028 A 
ATOM     20  C   UNL A   1      31.511  27.274  25.386  1.00  0.00     0.064 A 
ATOM     21  C   UNL A   1      29.354  27.272  23.612  1.00  0.00     0.002 A 
ATOM     22  C   UNL A   1      31.363  28.311  24.461  1.00  0.00     0.023 A 
ATOM     23  Cl  UNL A   1      32.998  27.155  26.260  1.00  0.00    -0.082 Cl
ATOM     24  C   UNL A   1      30.267  28.326  23.597  1.00  0.00     0.002 A 
ENDBRANCH  16  18
ENDBRANCH   8  14
ENDBRANCH   7   8
ENDBRANCH   5   7
ENDBRANCH   2   3
ENDBRANCH   1   2
BRANCH   1  25
ATOM     25  C   UNL A   1      38.233  20.143  25.080  1.00  0.00     0.023 C 
BRANCH  25  26
ATOM     26  C   UNL A   1      39.410  20.346  26.032  1.00  0.00     0.116 C 
BRANCH  26  27
ATOM     27  N   UNL A   1      40.387  19.269  25.991  1.00  0.00    -0.352 N 
ATOM     28  C   UNL A   1      41.757  19.322  26.120  1.00  0.00     0.251 C 
ATOM     29  H   UNL A   1      40.014  18.369  25.851  1.00  0.00     0.163 HD
ATOM     30  O   UNL A   1      42.421  18.302  25.954  1.00  0.00    -0.269 OA
BRANCH  28  31
ATOM     31  C   UNL A   1      42.439  20.603  26.421  1.00  0.00     0.039 A 
ATOM     32  C   UNL A   1      43.013  21.325  25.370  1.00  0.00     0.014 A 
ATOM     33  C   UNL A   1      42.519  21.099  27.725  1.00  0.00     0.014 A 
ATOM     34  C   UNL A   1      43.592  22.575  25.614  1.00  0.00     0.010 A 
ATOM     35  C   UNL A   1      43.030  22.377  27.956  1.00  0.00     0.010 A 
ATOM     36  C   UNL A   1      43.567  23.132  26.902  1.00  0.00    -0.014 A 
BRANCH  36  37
ATOM     37  C   UNL A   1      44.074  24.508  27.162  1.00  0.00     0.031 A 
ATOM     38  C   UNL A   1      43.127  25.610  27.556  1.00  0.00     0.074 A 
ATOM     39  C   UNL A   1      45.381  24.784  26.974  1.00  0.00     0.049 A 
ATOM     40  N   UNL A   1      43.370  26.882  27.740  1.00  0.00    -0.248 NA
ATOM     41  C   UNL A   1      41.716  25.236  27.743  1.00  0.00     0.031 C 
ATOM     42  C   UNL A   1      46.397  23.820  26.547  1.00  0.00     0.029 A 
ATOM     43  N   UNL A   1      46.079  25.961  27.104  1.00  0.00    -0.354 N 
ATOM     44  C   UNL A   1      42.146  27.462  28.054  1.00  0.00     0.074 A 
ATOM     45  C   UNL A   1      41.152  26.412  27.980  1.00  0.00     0.031 C 
ATOM     46  C   UNL A   1      47.586  24.438  26.467  1.00  0.00     0.029 A 
ATOM     47  C   UNL A   1      47.414  25.850  26.796  1.00  0.00     0.049 A 
ATOM     48  H   UNL A   1      45.661  26.805  27.392  1.00  0.00     0.167 HD
ATOM     49  C   UNL A   1      41.876  28.745  28.396  1.00  0.00     0.037 A 
ATOM     50  C   UNL A   1      48.391  26.779  26.768  1.00  0.00     0.037 A 
ATOM     51  C   UNL A   1      42.870  29.784  28.489  1.00  0.00     0.049 A 
ATOM     52  C   UNL A   1      48.068  28.200  27.145  1.00  0.00     0.074 A 
ATOM     53  C   UNL A   1      42.702  31.104  28.875  1.00  0.00     0.029 A 
ATOM     54  N   UNL A   1      44.216  29.626  28.192  1.00  0.00    -0.354 N 
ATOM     55  N   UNL A   1      46.913  28.717  27.492  1.00  0.00    -0.248 NA
ATOM     56  C   UNL A   1      49.179  29.161  27.135  1.00  0.00     0.031 C 
ATOM     57  C   UNL A   1      43.936  31.753  28.767  1.00  0.00     0.029 A 
ATOM     58  C   UNL A   1      44.885  30.827  28.367  1.00  0.00     0.049 A 
ATOM     59  H   UNL A   1      44.634  28.783  27.901  1.00  0.00     0.167 HD
ATOM     60  C   UNL A   1      47.165  30.057  27.767  1.00  0.00     0.074 A 
ATOM     61  C   UNL A   1      48.582  30.267  27.557  1.00  0.00     0.031 C 
ATOM     62  C   UNL A   1      46.299  31.025  28.160  1.00  0.00     0.037 A 
BRANCH  49  63
ATOM     63  C   UNL A   1      40.445  29.099  28.702  1.00  0.00     0.058 A 
ATOM     64  C   UNL A   1      39.972  29.182  30.022  1.00  0.00     0.135 A 
ATOM     65  C   UNL A   1      39.543  29.391  27.666  1.00  0.00     0.135 A 
ATOM     66  F   UNL A   1      40.787  28.900  31.051  1.00  0.00    -0.206 F 
ATOM     67  C   UNL A   1      38.649  29.506  30.303  1.00  0.00     0.059 A 
ATOM     68  C   UNL A   1      38.222  29.747  27.925  1.00  0.00     0.059 A 
ATOM     69  F   UNL A   1      39.940  29.330  26.385  1.00  0.00    -0.206 F 
ATOM     70  C   UNL A   1      37.781  29.785  29.247  1.00  0.00     0.060 A 
BRANCH  70  71
ATOM     71  S   UNL A   1      36.064  30.194  29.628  1.00  0.00     0.124 S 
ATOM     72  O   UNL A   1      35.921  29.626  30.965  1.00  0.00    -0.237 OA
ATOM     73  O   UNL A   1      36.068  31.651  29.556  1.00  0.00    -0.237 OA
ATOM     74  O   UNL A   1      35.312  29.518  28.576  1.00  0.00    -0.744 OA
ENDBRANCH  70  71
ENDBRANCH  49  63
BRANCH  50  75
ATOM     75  C   UNL A   1      49.774  26.389  26.380  1.00  0.00     0.058 A 
ATOM     76  C   UNL A   1      50.681  25.900  27.332  1.00  0.00     0.135 A 
ATOM     77  C   UNL A   1      50.209  26.480  25.049  1.00  0.00     0.135 A 
ATOM     78  F   UNL A   1      50.315  25.802  28.619  1.00  0.00    -0.206 F 
ATOM     79  C   UNL A   1      51.975  25.529  26.982  1.00  0.00     0.059 A 
ATOM     80  C   UNL A   1      51.489  26.090  24.669  1.00  0.00     0.059 A 
ATOM     81  F   UNL A   1      49.374  26.925  24.097  1.00  0.00    -0.206 F 
ATOM     82  C   UNL A   1      52.369  25.625  25.646  1.00  0.00     0.060 A 
BRANCH  82  83
ATOM     83  S   UNL A   1      54.034  25.090  25.194  1.00  0.00     0.124 S 
ATOM     84  O   UNL A   1      54.259  25.842  23.964  1.00  0.00    -0.237 OA
ATOM     85  O   UNL A   1      54.816  25.510  26.352  1.00  0.00    -0.237 OA
ATOM     86  O   UNL A   1      53.890  23.645  25.035  1.00  0.00    -0.744 OA
ENDBRANCH  82  83
ENDBRANCH  50  75
BRANCH  62  87
ATOM     87  C   UNL A   1      46.861  32.396  28.421  1.00  0.00     0.058 A 
ATOM     88  C   UNL A   1      46.907  33.379  27.422  1.00  0.00     0.135 A 
ATOM     89  C   UNL A   1      47.312  32.744  29.705  1.00  0.00     0.135 A 
ATOM     90  F   UNL A   1      46.494  33.097  26.176  1.00  0.00    -0.206 F 
ATOM     91  C   UNL A   1      47.399  34.655  27.679  1.00  0.00     0.059 A 
ATOM     92  C   UNL A   1      47.782  34.022  29.993  1.00  0.00     0.059 A 
ATOM     93  F   UNL A   1      47.281  31.844  30.700  1.00  0.00    -0.206 F 
ATOM     94  C   UNL A   1      47.833  34.967  28.969  1.00  0.00     0.060 A 
BRANCH  94  95
ATOM     95  S   UNL A   1      48.436  36.637  29.299  1.00  0.00     0.124 S 
ATOM     96  O   UNL A   1      49.848  36.514  28.950  1.00  0.00    -0.237 OA
ATOM     97  O   UNL A   1      47.626  37.446  28.393  1.00  0.00    -0.237 OA
ATOM     98  O   UNL A   1      48.154  36.826  30.719  1.00  0.00    -0.744 OA
ENDBRANCH  94  95
ENDBRANCH  62  87
ENDBRANCH  36  37
ENDBRANCH  28  31
ENDBRANCH  26  27
ENDBRANCH  25  26
ENDBRANCH   1  25
TORSDOF 19
ENDMDL
