MODEL 1
REMARK VINA RESULT:     -12.2      0.000      0.000
REMARK SMILES O=C(NCCCCNC(=O)c1ccc(S(=O)(=O)Cc2ncccn2)c(F)c1)c1ccc(-c2c3nc(c(-c4c(F)cc(S(=O)(=O)[O-])cc4F)c4ccc([nH]4)c(-c4c(F)cc(S(=O)(=O)[O-])cc4F)c4nc(c(-c5c(F)cc(S(=O)(=O)[O-])cc5F)c5ccc2[nH]5)C=C4)C=C3)cc1
REMARK SMILES IDX 5 1 4 2 3 3 1 4 2 5 28 7 29 8 93 9 30 10 92 11 31 12 32 13
REMARK SMILES IDX 33 14 86 15 34 16 91 17 85 18 87 19 35 20 90 21 84 22 83 23
REMARK SMILES IDX 36 25 70 26 49 27 69 28 50 29 53 30 68 31 88 32 51 33 52 34
REMARK SMILES IDX 67 36 89 37 54 38 37 39 38 40 47 41 39 42 40 43 46 44 48 45
REMARK SMILES IDX 41 46 42 47 43 48 44 49 45 50 71 51 72 52 81 53 73 54 74 55
REMARK SMILES IDX 80 56 82 57 75 58 76 59 77 60 78 61 79 62 55 63 56 64 65 65
REMARK SMILES IDX 57 66 58 67 64 68 66 69 59 70 60 71 61 72 62 73 63 74 6 75
REMARK SMILES IDX 7 76 8 77 9 78 10 80 11 81 12 82 27 83 13 84 25 85 14 86
REMARK SMILES IDX 26 87 15 88 16 89 17 90 18 91 19 92 20 93 24 94 21 95 23 96
REMARK SMILES IDX 22 97
REMARK H PARENT 3 6 87 24 53 35 8 79
REMARK Flexibility Score: inf
ROOT
ATOM      1  C   UNL A   1      34.306  31.345  27.688  1.00  0.00     0.023 C 
ENDROOT
BRANCH   1   2
ATOM      2  C   UNL A   1      35.636  31.312  28.431  1.00  0.00     0.116 C 
BRANCH   2   3
ATOM      3  N   UNL A   1      35.491  31.062  29.856  1.00  0.00    -0.352 N 
ATOM      4  O   UNL A   1      36.047  30.274  31.891  1.00  0.00    -0.269 OA
ATOM      5  C   UNL A   1      36.395  30.525  30.742  1.00  0.00     0.251 C 
ATOM      6  H   UNL A   1      34.620  31.312  30.242  1.00  0.00     0.163 HD
BRANCH   5   7
ATOM      7  C   UNL A   1      37.775  30.220  30.300  1.00  0.00     0.039 A 
ATOM      8  C   UNL A   1      38.136  30.326  28.954  1.00  0.00     0.014 A 
ATOM      9  C   UNL A   1      38.721  29.824  31.250  1.00  0.00     0.014 A 
ATOM     10  C   UNL A   1      39.397  29.905  28.542  1.00  0.00     0.010 A 
ATOM     11  C   UNL A   1      40.013  29.472  30.843  1.00  0.00     0.010 A 
ATOM     12  C   UNL A   1      40.352  29.481  29.482  1.00  0.00    -0.014 A 
BRANCH  12  13
ATOM     13  C   UNL A   1      41.712  29.104  29.019  1.00  0.00     0.031 A 
ATOM     14  C   UNL A   1      42.861  30.068  29.116  1.00  0.00     0.074 A 
ATOM     15  C   UNL A   1      41.912  27.856  28.554  1.00  0.00     0.049 A 
ATOM     16  N   UNL A   1      44.114  29.889  28.779  1.00  0.00    -0.248 NA
ATOM     17  C   UNL A   1      42.574  31.407  29.655  1.00  0.00     0.031 C 
ATOM     18  C   UNL A   1      40.871  26.833  28.419  1.00  0.00     0.029 A 
ATOM     19  N   UNL A   1      43.054  27.223  28.134  1.00  0.00    -0.354 N 
ATOM     20  C   UNL A   1      44.761  31.087  29.055  1.00  0.00     0.074 A 
ATOM     21  C   UNL A   1      43.758  31.998  29.565  1.00  0.00     0.031 C 
ATOM     22  C   UNL A   1      41.431  25.687  28.007  1.00  0.00     0.029 A 
ATOM     23  C   UNL A   1      42.858  25.907  27.789  1.00  0.00     0.049 A 
ATOM     24  H   UNL A   1      43.930  27.668  28.085  1.00  0.00     0.167 HD
ATOM     25  C   UNL A   1      46.073  31.392  28.906  1.00  0.00     0.037 A 
ATOM     26  C   UNL A   1      43.724  24.980  27.341  1.00  0.00     0.037 A 
ATOM     27  C   UNL A   1      47.068  30.475  28.412  1.00  0.00     0.049 A 
ATOM     28  C   UNL A   1      45.164  25.354  27.154  1.00  0.00     0.074 A 
ATOM     29  C   UNL A   1      48.423  30.691  28.232  1.00  0.00     0.029 A 
ATOM     30  N   UNL A   1      46.819  29.166  28.022  1.00  0.00    -0.354 N 
ATOM     31  N   UNL A   1      45.755  26.496  27.412  1.00  0.00    -0.248 NA
ATOM     32  C   UNL A   1      46.053  24.323  26.604  1.00  0.00     0.031 C 
ATOM     33  C   UNL A   1      48.988  29.525  27.705  1.00  0.00     0.029 A 
ATOM     34  C   UNL A   1      47.992  28.570  27.589  1.00  0.00     0.049 A 
ATOM     35  H   UNL A   1      45.938  28.728  28.048  1.00  0.00     0.167 HD
ATOM     36  C   UNL A   1      47.086  26.321  27.059  1.00  0.00     0.074 A 
ATOM     37  C   UNL A   1      47.219  24.957  26.587  1.00  0.00     0.031 C 
ATOM     38  C   UNL A   1      48.105  27.213  27.116  1.00  0.00     0.037 A 
BRANCH  25  39
ATOM     39  C   UNL A   1      46.520  32.778  29.281  1.00  0.00     0.058 A 
ATOM     40  C   UNL A   1      46.543  33.804  28.323  1.00  0.00     0.135 A 
ATOM     41  C   UNL A   1      46.995  33.072  30.568  1.00  0.00     0.135 A 
ATOM     42  F   UNL A   1      46.096  33.577  27.078  1.00  0.00    -0.206 F 
ATOM     43  C   UNL A   1      47.035  35.070  28.625  1.00  0.00     0.059 A 
ATOM     44  C   UNL A   1      47.473  34.337  30.898  1.00  0.00     0.059 A 
ATOM     45  F   UNL A   1      46.974  32.131  31.527  1.00  0.00    -0.206 F 
ATOM     46  C   UNL A   1      47.502  35.326  29.915  1.00  0.00     0.060 A 
BRANCH  46  47
ATOM     47  S   UNL A   1      48.109  36.983  30.302  1.00  0.00     0.124 S 
ATOM     48  O   UNL A   1      48.488  36.845  31.704  1.00  0.00    -0.237 OA
ATOM     49  O   UNL A   1      49.211  37.136  29.356  1.00  0.00    -0.237 OA
ATOM     50  O   UNL A   1      46.951  37.835  30.042  1.00  0.00    -0.744 OA
ENDBRANCH  46  47
ENDBRANCH  25  39
BRANCH  26  51
ATOM     51  C   UNL A   1      43.237  23.608  27.050  1.00  0.00     0.058 A 
ATOM     52  C   UNL A   1      43.023  22.678  28.080  1.00  0.00     0.135 A 
ATOM     53  C   UNL A   1      43.034  23.182  25.729  1.00  0.00     0.135 A 
ATOM     54  F   UNL A   1      43.215  23.036  29.359  1.00  0.00    -0.206 F 
ATOM     55  C   UNL A   1      42.661  21.365  27.810  1.00  0.00     0.059 A 
ATOM     56  C   UNL A   1      42.646  21.878  25.435  1.00  0.00     0.059 A 
ATOM     57  F   UNL A   1      43.214  24.040  24.714  1.00  0.00    -0.206 F 
ATOM     58  C   UNL A   1      42.483  20.971  26.483  1.00  0.00     0.060 A 
BRANCH  58  59
ATOM     59  S   UNL A   1      42.036  19.254  26.148  1.00  0.00     0.124 S 
ATOM     60  O   UNL A   1      42.432  18.605  27.393  1.00  0.00    -0.237 OA
ATOM     61  O   UNL A   1      40.600  19.351  25.911  1.00  0.00    -0.237 OA
ATOM     62  O   UNL A   1      42.842  18.920  24.979  1.00  0.00    -0.744 OA
ENDBRANCH  58  59
ENDBRANCH  26  51
BRANCH  38  63
ATOM     63  C   UNL A   1      49.456  26.745  26.660  1.00  0.00     0.058 A 
ATOM     64  C   UNL A   1      49.854  26.907  25.325  1.00  0.00     0.135 A 
ATOM     65  C   UNL A   1      50.331  26.080  27.534  1.00  0.00     0.135 A 
ATOM     66  F   UNL A   1      49.052  27.534  24.451  1.00  0.00    -0.206 F 
ATOM     67  C   UNL A   1      51.068  26.410  24.865  1.00  0.00     0.059 A 
ATOM     68  C   UNL A   1      51.560  25.593  27.100  1.00  0.00     0.059 A 
ATOM     69  F   UNL A   1      49.999  25.915  28.824  1.00  0.00    -0.206 F 
ATOM     70  C   UNL A   1      51.913  25.749  25.759  1.00  0.00     0.060 A 
BRANCH  70  71
ATOM     71  S   UNL A   1      53.492  25.121  25.152  1.00  0.00     0.124 S 
ATOM     72  O   UNL A   1      53.520  25.648  23.792  1.00  0.00    -0.237 OA
ATOM     73  O   UNL A   1      54.443  25.718  26.085  1.00  0.00    -0.237 OA
ATOM     74  O   UNL A   1      53.344  23.673  25.262  1.00  0.00    -0.744 OA
ENDBRANCH  70  71
ENDBRANCH  38  63
ENDBRANCH  12  13
ENDBRANCH   5   7
ENDBRANCH   2   3
ENDBRANCH   1   2
BRANCH   1  75
ATOM     75  C   UNL A   1      33.831  30.005  27.124  1.00  0.00     0.023 C 
BRANCH  75  76
ATOM     76  C   UNL A   1      32.779  30.099  26.020  1.00  0.00     0.116 C 
BRANCH  76  77
ATOM     77  N   UNL A   1      33.309  29.739  24.713  1.00  0.00    -0.352 N 
ATOM     78  C   UNL A   1      33.406  28.500  24.135  1.00  0.00     0.251 C 
ATOM     79  H   UNL A   1      33.644  30.489  24.170  1.00  0.00     0.163 HD
ATOM     80  O   UNL A   1      33.971  28.332  23.061  1.00  0.00    -0.269 OA
BRANCH  78  81
ATOM     81  C   UNL A   1      32.833  27.342  24.837  1.00  0.00     0.042 A 
ATOM     82  C   UNL A   1      33.659  26.498  25.590  1.00  0.00     0.015 A 
ATOM     83  C   UNL A   1      31.467  27.088  24.708  1.00  0.00     0.054 A 
ATOM     84  C   UNL A   1      33.115  25.355  26.176  1.00  0.00     0.024 A 
ATOM     85  C   UNL A   1      30.940  25.936  25.278  1.00  0.00     0.142 A 
ATOM     86  C   UNL A   1      31.752  25.071  26.003  1.00  0.00     0.103 A 
ATOM     87  F   UNL A   1      29.648  25.657  25.069  1.00  0.00    -0.206 F 
BRANCH  86  88
ATOM     88  S   UNL A   1      31.115  23.547  26.624  1.00  0.00     0.188 S 
ATOM     89  O   UNL A   1      32.155  23.050  27.513  1.00  0.00    -0.223 OA
ATOM     90  O   UNL A   1      29.804  23.833  27.188  1.00  0.00    -0.223 OA
BRANCH  88  91
ATOM     91  C   UNL A   1      30.927  22.364  25.337  1.00  0.00     0.219 C 
BRANCH  91  92
ATOM     92  C   UNL A   1      32.142  21.515  25.175  1.00  0.00     0.143 A 
ATOM     93  N   UNL A   1      33.293  22.058  24.749  1.00  0.00    -0.240 NA
ATOM     94  N   UNL A   1      31.970  20.191  25.375  1.00  0.00    -0.240 NA
ATOM     95  C   UNL A   1      34.331  21.219  24.555  1.00  0.00     0.115 A 
ATOM     96  C   UNL A   1      33.036  19.395  25.169  1.00  0.00     0.115 A 
ATOM     97  C   UNL A   1      34.256  19.862  24.753  1.00  0.00     0.040 A 
ENDBRANCH  91  92
ENDBRANCH  88  91
ENDBRANCH  86  88
ENDBRANCH  78  81
ENDBRANCH  76  77
ENDBRANCH  75  76
ENDBRANCH   1  75
TORSDOF 17
ENDMDL
MODEL 2
REMARK VINA RESULT:     -12.1      2.896      3.833
REMARK SMILES O=C(NCCCCNC(=O)c1ccc(S(=O)(=O)Cc2ncccn2)c(F)c1)c1ccc(-c2c3nc(c(-c4c(F)cc(S(=O)(=O)[O-])cc4F)c4ccc([nH]4)c(-c4c(F)cc(S(=O)(=O)[O-])cc4F)c4nc(c(-c5c(F)cc(S(=O)(=O)[O-])cc5F)c5ccc2[nH]5)C=C4)C=C3)cc1
REMARK SMILES IDX 5 1 4 2 3 3 1 4 2 5 28 7 29 8 93 9 30 10 92 11 31 12 32 13
REMARK SMILES IDX 33 14 86 15 34 16 91 17 85 18 87 19 35 20 90 21 84 22 83 23
REMARK SMILES IDX 36 25 70 26 49 27 69 28 50 29 53 30 68 31 88 32 51 33 52 34
REMARK SMILES IDX 67 36 89 37 54 38 37 39 38 40 47 41 39 42 40 43 46 44 48 45
REMARK SMILES IDX 41 46 42 47 43 48 44 49 45 50 71 51 72 52 81 53 73 54 74 55
REMARK SMILES IDX 80 56 82 57 75 58 76 59 77 60 78 61 79 62 55 63 56 64 65 65
REMARK SMILES IDX 57 66 58 67 64 68 66 69 59 70 60 71 61 72 62 73 63 74 6 75
REMARK SMILES IDX 7 76 8 77 9 78 10 80 11 81 12 82 27 83 13 84 25 85 14 86
REMARK SMILES IDX 26 87 15 88 16 89 17 90 18 91 19 92 20 93 24 94 21 95 23 96
REMARK SMILES IDX 22 97
REMARK H PARENT 3 6 87 24 53 35 8 79
REMARK Flexibility Score: inf
ROOT
ATOM      1  C   UNL A   1      33.149  28.049  25.493  1.00  0.00     0.023 C 
ENDROOT
BRANCH   1   2
ATOM      2  C   UNL A   1      33.821  28.282  26.841  1.00  0.00     0.116 C 
BRANCH   2   3
ATOM      3  N   UNL A   1      33.581  29.612  27.379  1.00  0.00    -0.352 N 
ATOM      4  O   UNL A   1      34.008  31.477  28.566  1.00  0.00    -0.269 OA
ATOM      5  C   UNL A   1      34.431  30.430  28.085  1.00  0.00     0.251 C 
ATOM      6  H   UNL A   1      32.682  29.978  27.213  1.00  0.00     0.163 HD
BRANCH   5   7
ATOM      7  C   UNL A   1      35.842  30.033  28.292  1.00  0.00     0.039 A 
ATOM      8  C   UNL A   1      36.277  29.550  29.528  1.00  0.00     0.014 A 
ATOM      9  C   UNL A   1      36.742  30.146  27.228  1.00  0.00     0.014 A 
ATOM     10  C   UNL A   1      37.631  29.312  29.740  1.00  0.00     0.010 A 
ATOM     11  C   UNL A   1      38.093  29.835  27.421  1.00  0.00     0.010 A 
ATOM     12  C   UNL A   1      38.553  29.444  28.687  1.00  0.00    -0.014 A 
BRANCH  12  13
ATOM     13  C   UNL A   1      39.982  29.116  28.925  1.00  0.00     0.031 A 
ATOM     14  C   UNL A   1      40.900  30.089  29.611  1.00  0.00     0.074 A 
ATOM     15  C   UNL A   1      40.435  27.901  28.558  1.00  0.00     0.049 A 
ATOM     16  N   UNL A   1      42.165  29.949  29.917  1.00  0.00    -0.248 NA
ATOM     17  C   UNL A   1      40.331  31.388  30.005  1.00  0.00     0.031 C 
ATOM     18  C   UNL A   1      39.633  26.873  27.888  1.00  0.00     0.029 A 
ATOM     19  N   UNL A   1      41.663  27.312  28.716  1.00  0.00    -0.354 N 
ATOM     20  C   UNL A   1      42.547  31.138  30.527  1.00  0.00     0.074 A 
ATOM     21  C   UNL A   1      41.385  32.001  30.528  1.00  0.00     0.031 C 
ATOM     22  C   UNL A   1      40.371  25.763  27.747  1.00  0.00     0.029 A 
ATOM     23  C   UNL A   1      41.714  26.017  28.259  1.00  0.00     0.049 A 
ATOM     24  H   UNL A   1      42.434  27.773  29.118  1.00  0.00     0.167 HD
ATOM     25  C   UNL A   1      43.753  31.471  31.047  1.00  0.00     0.037 A 
ATOM     26  C   UNL A   1      42.728  25.132  28.244  1.00  0.00     0.037 A 
ATOM     27  C   UNL A   1      44.901  30.601  31.055  1.00  0.00     0.049 A 
ATOM     28  C   UNL A   1      44.061  25.539  28.797  1.00  0.00     0.074 A 
ATOM     29  C   UNL A   1      46.164  30.847  31.565  1.00  0.00     0.029 A 
ATOM     30  N   UNL A   1      44.927  29.315  30.533  1.00  0.00    -0.354 N 
ATOM     31  N   UNL A   1      44.406  26.671  29.361  1.00  0.00    -0.248 NA
ATOM     32  C   UNL A   1      45.149  24.556  28.700  1.00  0.00     0.031 C 
ATOM     33  C   UNL A   1      46.962  29.724  31.325  1.00  0.00     0.029 A 
ATOM     34  C   UNL A   1      46.188  28.763  30.696  1.00  0.00     0.049 A 
ATOM     35  H   UNL A   1      44.163  28.862  30.108  1.00  0.00     0.167 HD
ATOM     36  C   UNL A   1      45.748  26.538  29.690  1.00  0.00     0.074 A 
ATOM     37  C   UNL A   1      46.150  25.208  29.279  1.00  0.00     0.031 C 
ATOM     38  C   UNL A   1      46.572  27.439  30.276  1.00  0.00     0.037 A 
BRANCH  25  39
ATOM     39  C   UNL A   1      43.904  32.838  31.655  1.00  0.00     0.058 A 
ATOM     40  C   UNL A   1      43.639  33.044  33.018  1.00  0.00     0.135 A 
ATOM     41  C   UNL A   1      44.240  33.955  30.876  1.00  0.00     0.135 A 
ATOM     42  F   UNL A   1      43.318  32.010  33.810  1.00  0.00    -0.206 F 
ATOM     43  C   UNL A   1      43.687  34.315  33.584  1.00  0.00     0.059 A 
ATOM     44  C   UNL A   1      44.313  35.232  31.424  1.00  0.00     0.059 A 
ATOM     45  F   UNL A   1      44.523  33.807  29.571  1.00  0.00    -0.206 F 
ATOM     46  C   UNL A   1      44.022  35.404  32.778  1.00  0.00     0.060 A 
BRANCH  46  47
ATOM     47  S   UNL A   1      44.111  37.043  33.531  1.00  0.00     0.124 S 
ATOM     48  O   UNL A   1      45.246  36.896  34.437  1.00  0.00    -0.237 OA
ATOM     49  O   UNL A   1      44.327  37.904  32.372  1.00  0.00    -0.237 OA
ATOM     50  O   UNL A   1      42.807  37.190  34.174  1.00  0.00    -0.744 OA
ENDBRANCH  46  47
ENDBRANCH  25  39
BRANCH  26  51
ATOM     51  C   UNL A   1      42.501  23.773  27.691  1.00  0.00     0.058 A 
ATOM     52  C   UNL A   1      42.316  22.666  28.533  1.00  0.00     0.135 A 
ATOM     53  C   UNL A   1      42.526  23.547  26.307  1.00  0.00     0.135 A 
ATOM     54  F   UNL A   1      42.296  22.831  29.865  1.00  0.00    -0.206 F 
ATOM     55  C   UNL A   1      42.199  21.378  28.027  1.00  0.00     0.059 A 
ATOM     56  C   UNL A   1      42.387  22.269  25.774  1.00  0.00     0.059 A 
ATOM     57  F   UNL A   1      42.689  24.577  25.463  1.00  0.00    -0.206 F 
ATOM     58  C   UNL A   1      42.245  21.188  26.645  1.00  0.00     0.060 A 
BRANCH  58  59
ATOM     59  S   UNL A   1      42.116  19.505  26.004  1.00  0.00     0.124 S 
ATOM     60  O   UNL A   1      42.646  18.730  27.120  1.00  0.00    -0.237 OA
ATOM     61  O   UNL A   1      40.684  19.376  25.763  1.00  0.00    -0.237 OA
ATOM     62  O   UNL A   1      42.951  19.537  24.808  1.00  0.00    -0.744 OA
ENDBRANCH  58  59
ENDBRANCH  26  51
BRANCH  38  63
ATOM     63  C   UNL A   1      47.994  27.021  30.510  1.00  0.00     0.058 A 
ATOM     64  C   UNL A   1      48.333  26.234  31.622  1.00  0.00     0.135 A 
ATOM     65  C   UNL A   1      49.030  27.452  29.667  1.00  0.00     0.135 A 
ATOM     66  F   UNL A   1      47.379  25.799  32.458  1.00  0.00    -0.206 F 
ATOM     67  C   UNL A   1      49.654  25.903  31.899  1.00  0.00     0.059 A 
ATOM     68  C   UNL A   1      50.358  27.115  29.914  1.00  0.00     0.059 A 
ATOM     69  F   UNL A   1      48.753  28.194  28.583  1.00  0.00    -0.206 F 
ATOM     70  C   UNL A   1      50.661  26.352  31.043  1.00  0.00     0.060 A 
BRANCH  70  71
ATOM     71  S   UNL A   1      52.371  25.903  31.408  1.00  0.00     0.124 S 
ATOM     72  O   UNL A   1      52.208  24.600  32.042  1.00  0.00    -0.237 OA
ATOM     73  O   UNL A   1      52.979  25.892  30.081  1.00  0.00    -0.237 OA
ATOM     74  O   UNL A   1      52.822  26.979  32.286  1.00  0.00    -0.744 OA
ENDBRANCH  70  71
ENDBRANCH  38  63
ENDBRANCH  12  13
ENDBRANCH   5   7
ENDBRANCH   2   3
ENDBRANCH   1   2
BRANCH   1  75
ATOM     75  C   UNL A   1      31.897  27.171  25.520  1.00  0.00     0.023 C 
BRANCH  75  76
ATOM     76  C   UNL A   1      31.314  26.825  24.152  1.00  0.00     0.116 C 
BRANCH  76  77
ATOM     77  N   UNL A   1      32.231  27.125  23.062  1.00  0.00    -0.352 N 
ATOM     78  C   UNL A   1      33.235  26.349  22.544  1.00  0.00     0.251 C 
ATOM     79  H   UNL A   1      32.114  28.007  22.639  1.00  0.00     0.163 HD
ATOM     80  O   UNL A   1      34.001  26.772  21.687  1.00  0.00    -0.269 OA
BRANCH  78  81
ATOM     81  C   UNL A   1      33.407  24.979  23.051  1.00  0.00     0.042 A 
ATOM     82  C   UNL A   1      32.692  23.922  22.477  1.00  0.00     0.015 A 
ATOM     83  C   UNL A   1      34.265  24.767  24.131  1.00  0.00     0.054 A 
ATOM     84  C   UNL A   1      32.799  22.645  23.028  1.00  0.00     0.024 A 
ATOM     85  C   UNL A   1      34.348  23.496  24.685  1.00  0.00     0.142 A 
ATOM     86  C   UNL A   1      33.621  22.441  24.145  1.00  0.00     0.103 A 
ATOM     87  F   UNL A   1      35.104  23.326  25.777  1.00  0.00    -0.206 F 
BRANCH  86  88
ATOM     88  S   UNL A   1      33.628  20.855  24.919  1.00  0.00     0.188 S 
ATOM     89  O   UNL A   1      34.993  20.374  24.756  1.00  0.00    -0.223 OA
ATOM     90  O   UNL A   1      33.119  21.038  26.269  1.00  0.00    -0.223 OA
BRANCH  88  91
ATOM     91  C   UNL A   1      32.578  19.728  24.070  1.00  0.00     0.219 C 
BRANCH  91  92
ATOM     92  C   UNL A   1      32.911  18.309  24.382  1.00  0.00     0.143 A 
ATOM     93  N   UNL A   1      33.692  17.600  23.551  1.00  0.00    -0.240 NA
ATOM     94  N   UNL A   1      32.300  17.781  25.464  1.00  0.00    -0.240 NA
ATOM     95  C   UNL A   1      33.891  16.302  23.857  1.00  0.00     0.115 A 
ATOM     96  C   UNL A   1      32.532  16.482  25.728  1.00  0.00     0.115 A 
ATOM     97  C   UNL A   1      33.329  15.685  24.948  1.00  0.00     0.040 A 
ENDBRANCH  91  92
ENDBRANCH  88  91
ENDBRANCH  86  88
ENDBRANCH  78  81
ENDBRANCH  76  77
ENDBRANCH  75  76
ENDBRANCH   1  75
TORSDOF 17
ENDMDL
MODEL 3
REMARK VINA RESULT:     -12.1      4.280     10.622
REMARK SMILES O=C(NCCCCNC(=O)c1ccc(S(=O)(=O)Cc2ncccn2)c(F)c1)c1ccc(-c2c3nc(c(-c4c(F)cc(S(=O)(=O)[O-])cc4F)c4ccc([nH]4)c(-c4c(F)cc(S(=O)(=O)[O-])cc4F)c4nc(c(-c5c(F)cc(S(=O)(=O)[O-])cc5F)c5ccc2[nH]5)C=C4)C=C3)cc1
REMARK SMILES IDX 5 1 4 2 3 3 1 4 2 5 28 7 29 8 93 9 30 10 92 11 31 12 32 13
REMARK SMILES IDX 33 14 86 15 34 16 91 17 85 18 87 19 35 20 90 21 84 22 83 23
REMARK SMILES IDX 36 25 70 26 49 27 69 28 50 29 53 30 68 31 88 32 51 33 52 34
REMARK SMILES IDX 67 36 89 37 54 38 37 39 38 40 47 41 39 42 40 43 46 44 48 45
REMARK SMILES IDX 41 46 42 47 43 48 44 49 45 50 71 51 72 52 81 53 73 54 74 55
REMARK SMILES IDX 80 56 82 57 75 58 76 59 77 60 78 61 79 62 55 63 56 64 65 65
REMARK SMILES IDX 57 66 58 67 64 68 66 69 59 70 60 71 61 72 62 73 63 74 6 75
REMARK SMILES IDX 7 76 8 77 9 78 10 80 11 81 12 82 27 83 13 84 25 85 14 86
REMARK SMILES IDX 26 87 15 88 16 89 17 90 18 91 19 92 20 93 24 94 21 95 23 96
REMARK SMILES IDX 22 97
REMARK H PARENT 3 6 87 24 53 35 8 79
REMARK Flexibility Score: inf
ROOT
ATOM      1  C   UNL A   1      34.998  32.837  29.655  1.00  0.00     0.023 C 
ENDROOT
BRANCH   1   2
ATOM      2  C   UNL A   1      34.662  32.533  28.200  1.00  0.00     0.116 C 
BRANCH   2   3
ATOM      3  N   UNL A   1      33.970  31.266  28.023  1.00  0.00    -0.352 N 
ATOM      4  O   UNL A   1      33.754  29.046  27.712  1.00  0.00    -0.269 OA
ATOM      5  C   UNL A   1      34.483  29.991  27.997  1.00  0.00     0.251 C 
ATOM      6  H   UNL A   1      32.995  31.331  27.905  1.00  0.00     0.163 HD
BRANCH   5   7
ATOM      7  C   UNL A   1      35.919  29.764  28.279  1.00  0.00     0.039 A 
ATOM      8  C   UNL A   1      36.889  30.011  27.305  1.00  0.00     0.014 A 
ATOM      9  C   UNL A   1      36.297  29.296  29.542  1.00  0.00     0.014 A 
ATOM     10  C   UNL A   1      38.214  29.662  27.545  1.00  0.00     0.010 A 
ATOM     11  C   UNL A   1      37.642  29.016  29.807  1.00  0.00     0.010 A 
ATOM     12  C   UNL A   1      38.607  29.169  28.801  1.00  0.00    -0.014 A 
BRANCH  12  13
ATOM     13  C   UNL A   1      40.041  28.871  29.050  1.00  0.00     0.031 A 
ATOM     14  C   UNL A   1      40.637  27.544  28.669  1.00  0.00     0.074 A 
ATOM     15  C   UNL A   1      40.817  29.835  29.583  1.00  0.00     0.049 A 
ATOM     16  N   UNL A   1      41.874  27.133  28.796  1.00  0.00    -0.248 NA
ATOM     17  C   UNL A   1      39.735  26.547  28.072  1.00  0.00     0.031 C 
ATOM     18  C   UNL A   1      40.347  31.163  29.988  1.00  0.00     0.029 A 
ATOM     19  N   UNL A   1      42.162  29.862  29.851  1.00  0.00    -0.354 N 
ATOM     20  C   UNL A   1      41.899  25.833  28.306  1.00  0.00     0.074 A 
ATOM     21  C   UNL A   1      40.546  25.512  27.900  1.00  0.00     0.031 C 
ATOM     22  C   UNL A   1      41.395  31.893  30.397  1.00  0.00     0.029 A 
ATOM     23  C   UNL A   1      42.599  31.070  30.341  1.00  0.00     0.049 A 
ATOM     24  H   UNL A   1      42.757  29.092  29.707  1.00  0.00     0.167 HD
ATOM     25  C   UNL A   1      42.955  24.992  28.195  1.00  0.00     0.037 A 
ATOM     26  C   UNL A   1      43.829  31.472  30.712  1.00  0.00     0.037 A 
ATOM     27  C   UNL A   1      44.301  25.325  28.588  1.00  0.00     0.049 A 
ATOM     28  C   UNL A   1      44.974  30.510  30.610  1.00  0.00     0.074 A 
ATOM     29  C   UNL A   1      45.439  24.541  28.508  1.00  0.00     0.029 A 
ATOM     30  N   UNL A   1      44.693  26.540  29.130  1.00  0.00    -0.354 N 
ATOM     31  N   UNL A   1      44.976  29.281  30.152  1.00  0.00    -0.248 NA
ATOM     32  C   UNL A   1      46.282  30.980  31.086  1.00  0.00     0.031 C 
ATOM     33  C   UNL A   1      46.512  25.269  29.030  1.00  0.00     0.029 A 
ATOM     34  C   UNL A   1      46.051  26.522  29.403  1.00  0.00     0.049 A 
ATOM     35  H   UNL A   1      44.094  27.303  29.298  1.00  0.00     0.167 HD
ATOM     36  C   UNL A   1      46.282  28.830  30.281  1.00  0.00     0.074 A 
ATOM     37  C   UNL A   1      47.049  29.925  30.843  1.00  0.00     0.031 C 
ATOM     38  C   UNL A   1      46.798  27.618  29.967  1.00  0.00     0.037 A 
BRANCH  25  39
ATOM     39  C   UNL A   1      42.708  23.623  27.626  1.00  0.00     0.058 A 
ATOM     40  C   UNL A   1      42.472  22.529  28.474  1.00  0.00     0.135 A 
ATOM     41  C   UNL A   1      42.777  23.378  26.246  1.00  0.00     0.135 A 
ATOM     42  F   UNL A   1      42.392  22.708  29.802  1.00  0.00    -0.206 F 
ATOM     43  C   UNL A   1      42.328  21.239  27.974  1.00  0.00     0.059 A 
ATOM     44  C   UNL A   1      42.616  22.099  25.722  1.00  0.00     0.059 A 
ATOM     45  F   UNL A   1      42.979  24.394  25.390  1.00  0.00    -0.206 F 
ATOM     46  C   UNL A   1      42.406  21.032  26.596  1.00  0.00     0.060 A 
BRANCH  46  47
ATOM     47  S   UNL A   1      42.186  19.357  25.959  1.00  0.00     0.124 S 
ATOM     48  O   UNL A   1      42.703  18.547  27.056  1.00  0.00    -0.237 OA
ATOM     49  O   UNL A   1      40.744  19.295  25.745  1.00  0.00    -0.237 OA
ATOM     50  O   UNL A   1      42.991  19.353  24.739  1.00  0.00    -0.744 OA
ENDBRANCH  46  47
ENDBRANCH  25  39
BRANCH  26  51
ATOM     51  C   UNL A   1      44.024  32.859  31.205  1.00  0.00     0.058 A 
ATOM     52  C   UNL A   1      44.283  33.916  30.318  1.00  0.00     0.135 A 
ATOM     53  C   UNL A   1      44.016  33.142  32.578  1.00  0.00     0.135 A 
ATOM     54  F   UNL A   1      44.311  33.692  28.995  1.00  0.00    -0.206 F 
ATOM     55  C   UNL A   1      44.562  35.197  30.776  1.00  0.00     0.059 A 
ATOM     56  C   UNL A   1      44.269  34.423  33.061  1.00  0.00     0.059 A 
ATOM     57  F   UNL A   1      43.762  32.165  33.462  1.00  0.00    -0.206 F 
ATOM     58  C   UNL A   1      44.561  35.439  32.150  1.00  0.00     0.060 A 
BRANCH  58  59
ATOM     59  S   UNL A   1      44.950  37.104  32.730  1.00  0.00     0.124 S 
ATOM     60  O   UNL A   1      46.174  37.389  31.988  1.00  0.00    -0.237 OA
ATOM     61  O   UNL A   1      43.769  37.856  32.322  1.00  0.00    -0.237 OA
ATOM     62  O   UNL A   1      45.113  36.929  34.169  1.00  0.00    -0.744 OA
ENDBRANCH  58  59
ENDBRANCH  26  51
BRANCH  38  63
ATOM     63  C   UNL A   1      48.262  27.405  30.220  1.00  0.00     0.058 A 
ATOM     64  C   UNL A   1      49.211  27.736  29.242  1.00  0.00     0.135 A 
ATOM     65  C   UNL A   1      48.718  26.815  31.410  1.00  0.00     0.135 A 
ATOM     66  F   UNL A   1      48.824  28.301  28.088  1.00  0.00    -0.206 F 
ATOM     67  C   UNL A   1      50.564  27.474  29.426  1.00  0.00     0.059 A 
ATOM     68  C   UNL A   1      50.070  26.562  31.624  1.00  0.00     0.059 A 
ATOM     69  F   UNL A   1      47.849  26.495  32.381  1.00  0.00    -0.206 F 
ATOM     70  C   UNL A   1      50.984  26.881  30.619  1.00  0.00     0.060 A 
BRANCH  70  71
ATOM     71  S   UNL A   1      52.744  26.559  30.850  1.00  0.00     0.124 S 
ATOM     72  O   UNL A   1      53.192  26.349  29.478  1.00  0.00    -0.237 OA
ATOM     73  O   UNL A   1      53.204  27.789  31.487  1.00  0.00    -0.237 OA
ATOM     74  O   UNL A   1      52.761  25.376  31.706  1.00  0.00    -0.744 OA
ENDBRANCH  70  71
ENDBRANCH  38  63
ENDBRANCH  12  13
ENDBRANCH   5   7
ENDBRANCH   2   3
ENDBRANCH   1   2
BRANCH   1  75
ATOM     75  C   UNL A   1      36.486  32.832  30.005  1.00  0.00     0.023 C 
BRANCH  75  76
ATOM     76  C   UNL A   1      36.927  33.911  30.993  1.00  0.00     0.116 C 
BRANCH  76  77
ATOM     77  N   UNL A   1      36.161  33.881  32.230  1.00  0.00    -0.352 N 
ATOM     78  C   UNL A   1      36.311  33.057  33.316  1.00  0.00     0.251 C 
ATOM     79  H   UNL A   1      35.435  34.543  32.296  1.00  0.00     0.163 HD
ATOM     80  O   UNL A   1      35.524  33.077  34.254  1.00  0.00    -0.269 OA
BRANCH  78  81
ATOM     81  C   UNL A   1      37.437  32.111  33.339  1.00  0.00     0.042 A 
ATOM     82  C   UNL A   1      37.225  30.759  33.042  1.00  0.00     0.015 A 
ATOM     83  C   UNL A   1      38.701  32.583  33.693  1.00  0.00     0.054 A 
ATOM     84  C   UNL A   1      38.286  29.861  33.156  1.00  0.00     0.024 A 
ATOM     85  C   UNL A   1      39.745  31.676  33.824  1.00  0.00     0.142 A 
ATOM     86  C   UNL A   1      39.545  30.326  33.563  1.00  0.00     0.103 A 
ATOM     87  F   UNL A   1      40.930  32.127  34.254  1.00  0.00    -0.206 F 
BRANCH  86  88
ATOM     88  S   UNL A   1      40.834  29.154  33.845  1.00  0.00     0.188 S 
ATOM     89  O   UNL A   1      40.229  27.863  33.547  1.00  0.00    -0.223 OA
ATOM     90  O   UNL A   1      41.976  29.579  33.050  1.00  0.00    -0.223 OA
BRANCH  88  91
ATOM     91  C   UNL A   1      41.307  29.123  35.539  1.00  0.00     0.219 C 
BRANCH  91  92
ATOM     92  C   UNL A   1      41.802  27.781  35.957  1.00  0.00     0.143 A 
ATOM     93  N   UNL A   1      42.806  27.193  35.288  1.00  0.00    -0.240 NA
ATOM     94  N   UNL A   1      41.115  27.179  36.952  1.00  0.00    -0.240 NA
ATOM     95  C   UNL A   1      43.153  25.948  35.675  1.00  0.00     0.115 A 
ATOM     96  C   UNL A   1      41.500  25.938  37.302  1.00  0.00     0.115 A 
ATOM     97  C   UNL A   1      42.527  25.266  36.689  1.00  0.00     0.040 A 
ENDBRANCH  91  92
ENDBRANCH  88  91
ENDBRANCH  86  88
ENDBRANCH  78  81
ENDBRANCH  76  77
ENDBRANCH  75  76
ENDBRANCH   1  75
TORSDOF 17
ENDMDL
