MODEL 1
REMARK VINA RESULT:     -12.2      0.000      0.000
REMARK SMILES COc1cccc(C(=O)NNC(=O)[C@H]2CC(C)=C(C)C[C@@H]2C(=O)NCCCCNC(=O)c2ccc(-c3c4nc(c(-c5c(F)cc(S(=O)(=O)[O-])cc5F)c5ccc([nH]5)c(-c5c(F)cc(S(=O)(=O)[O-])cc5F)c5nc(c(-c6c(F)cc(S(=O)(=O)[O-])cc6F)c6ccc3[nH]6)C=C5)C=C4)cc2)c1
REMARK SMILES IDX 26 1 25 2 24 3 22 4 23 5 21 7 14 8 15 9 16 10 20 11 17 12
REMARK SMILES IDX 18 13 19 14 12 15 11 16 13 18 10 19 8 20 9 21 7 23 3 24 4 25
REMARK SMILES IDX 98 26 5 27 6 28 2 29 1 30 27 31 28 32 29 33 30 34 31 36
REMARK SMILES IDX 32 37 33 38 97 39 34 40 96 41 35 42 36 43 37 44 90 45 38 46
REMARK SMILES IDX 95 47 89 48 91 49 39 50 94 51 88 52 87 53 40 55 74 56 53 57
REMARK SMILES IDX 73 58 54 59 57 60 72 61 92 62 55 63 56 64 71 66 93 67 58 68
REMARK SMILES IDX 41 69 42 70 51 71 43 72 44 73 50 74 52 75 45 76 46 77 47 78
REMARK SMILES IDX 48 79 49 80 75 81 76 82 85 83 77 84 78 85 84 86 86 87 79 88
REMARK SMILES IDX 80 89 81 90 82 91 83 92 59 93 60 94 69 95 61 96 62 97 68 98
REMARK SMILES IDX 70 99 63 100 64 101 65 102 66 103 67 104
REMARK H PARENT 24 6 11 17 10 22 29 35 91 54 57 65
REMARK Flexibility Score: inf
ROOT
ATOM      1  C   UNL A   1      31.714  26.668  26.518  1.00  0.00     0.023 C 
ENDROOT
BRANCH   1   2
ATOM      2  C   UNL A   1      30.337  26.256  26.017  1.00  0.00     0.116 C 
BRANCH   2   3
ATOM      3  N   UNL A   1      30.238  24.900  25.506  1.00  0.00    -0.356 N 
ATOM      4  C   UNL A   1      30.805  24.329  24.400  1.00  0.00     0.224 C 
ATOM      5  O   UNL A   1      30.627  23.114  24.253  1.00  0.00    -0.275 OA
ATOM      6  H   UNL A   1      29.673  24.297  26.040  1.00  0.00     0.163 HD
BRANCH   4   7
ATOM      7  C   UNL A   1      31.490  25.165  23.298  1.00  0.00     0.095 C 
ATOM      8  C   UNL A   1      33.028  25.241  23.534  1.00  0.00     0.097 C 
ATOM      9  C   UNL A   1      33.683  26.635  23.566  1.00  0.00     0.045 C 
ATOM     10  C   UNL A   1      32.904  27.821  23.065  1.00  0.00    -0.074 C 
ATOM     11  C   UNL A   1      30.805  26.502  23.006  1.00  0.00     0.045 C 
ATOM     12  C   UNL A   1      33.682  29.113  23.031  1.00  0.00     0.039 C 
ATOM     13  C   UNL A   1      31.599  27.743  22.763  1.00  0.00    -0.074 C 
ATOM     14  C   UNL A   1      30.777  28.898  22.248  1.00  0.00     0.039 C 
BRANCH   8  15
ATOM     15  C   UNL A   1      33.658  24.348  22.458  1.00  0.00     0.242 C 
ATOM     16  N   UNL A   1      34.602  23.422  22.848  1.00  0.00    -0.267 N 
ATOM     17  H   UNL A   1      34.726  22.619  22.291  1.00  0.00     0.191 HD
ATOM     18  O   UNL A   1      33.266  24.341  21.290  1.00  0.00    -0.273 OA
BRANCH  16  19
ATOM     19  N   UNL A   1      35.391  23.560  23.987  1.00  0.00    -0.263 N 
ATOM     20  C   UNL A   1      35.517  22.628  25.005  1.00  0.00     0.269 C 
ATOM     21  O   UNL A   1      36.301  22.842  25.929  1.00  0.00    -0.267 OA
ATOM     22  H   UNL A   1      35.905  24.395  24.077  1.00  0.00     0.191 HD
BRANCH  20  23
ATOM     23  C   UNL A   1      34.660  21.406  25.075  1.00  0.00     0.045 A 
ATOM     24  C   UNL A   1      34.188  19.053  24.716  1.00  0.00     0.119 A 
ATOM     25  C   UNL A   1      32.865  19.261  25.112  1.00  0.00     0.046 A 
ATOM     26  C   UNL A   1      35.096  20.117  24.747  1.00  0.00     0.060 A 
ATOM     27  C   UNL A   1      32.438  20.522  25.520  1.00  0.00     0.005 A 
ATOM     28  C   UNL A   1      33.331  21.593  25.492  1.00  0.00     0.014 A 
BRANCH  24  29
ATOM     29  O   UNL A   1      34.470  17.774  24.321  1.00  0.00    -0.497 OA
ATOM     30  C   UNL A   1      33.806  17.304  23.152  1.00  0.00     0.278 C 
ENDBRANCH  24  29
ENDBRANCH  20  23
ENDBRANCH  16  19
ENDBRANCH   8  15
ENDBRANCH   4   7
ENDBRANCH   2   3
ENDBRANCH   1   2
BRANCH   1  31
ATOM     31  C   UNL A   1      31.947  28.162  26.713  1.00  0.00     0.023 C 
BRANCH  31  32
ATOM     32  C   UNL A   1      33.279  28.561  27.340  1.00  0.00     0.116 C 
BRANCH  32  33
ATOM     33  N   UNL A   1      33.354  29.966  27.719  1.00  0.00    -0.352 N 
ATOM     34  C   UNL A   1      34.411  30.688  28.225  1.00  0.00     0.251 C 
ATOM     35  H   UNL A   1      32.521  30.476  27.594  1.00  0.00     0.163 HD
ATOM     36  O   UNL A   1      34.245  31.857  28.569  1.00  0.00    -0.269 OA
BRANCH  34  37
ATOM     37  C   UNL A   1      35.730  30.044  28.399  1.00  0.00     0.039 A 
ATOM     38  C   UNL A   1      36.624  30.036  27.326  1.00  0.00     0.014 A 
ATOM     39  C   UNL A   1      36.102  29.500  29.630  1.00  0.00     0.014 A 
ATOM     40  C   UNL A   1      37.933  29.587  27.523  1.00  0.00     0.010 A 
ATOM     41  C   UNL A   1      37.428  29.131  29.845  1.00  0.00     0.010 A 
ATOM     42  C   UNL A   1      38.362  29.189  28.800  1.00  0.00    -0.014 A 
BRANCH  42  43
ATOM     43  C   UNL A   1      39.788  28.874  29.076  1.00  0.00     0.031 A 
ATOM     44  C   UNL A   1      40.709  29.935  29.614  1.00  0.00     0.074 A 
ATOM     45  C   UNL A   1      40.274  27.658  28.750  1.00  0.00     0.049 A 
ATOM     46  N   UNL A   1      42.000  29.880  29.819  1.00  0.00    -0.248 NA
ATOM     47  C   UNL A   1      40.106  31.238  29.934  1.00  0.00     0.031 C 
ATOM     48  C   UNL A   1      39.498  26.564  28.158  1.00  0.00     0.029 A 
ATOM     49  N   UNL A   1      41.543  27.141  28.851  1.00  0.00    -0.354 N 
ATOM     50  C   UNL A   1      42.367  31.141  30.272  1.00  0.00     0.074 A 
ATOM     51  C   UNL A   1      41.170  31.956  30.269  1.00  0.00     0.031 C 
ATOM     52  C   UNL A   1      40.301  25.505  27.965  1.00  0.00     0.029 A 
ATOM     53  C   UNL A   1      41.656  25.852  28.380  1.00  0.00     0.049 A 
ATOM     54  H   UNL A   1      42.301  27.644  29.227  1.00  0.00     0.167 HD
ATOM     55  C   UNL A   1      43.585  31.574  30.674  1.00  0.00     0.037 A 
ATOM     56  C   UNL A   1      42.731  25.046  28.280  1.00  0.00     0.037 A 
ATOM     57  C   UNL A   1      44.763  30.748  30.713  1.00  0.00     0.049 A 
ATOM     58  C   UNL A   1      44.069  25.546  28.753  1.00  0.00     0.074 A 
ATOM     59  C   UNL A   1      46.024  31.072  31.183  1.00  0.00     0.029 A 
ATOM     60  N   UNL A   1      44.828  29.437  30.266  1.00  0.00    -0.354 N 
ATOM     61  N   UNL A   1      44.378  26.719  29.254  1.00  0.00    -0.248 NA
ATOM     62  C   UNL A   1      45.202  24.616  28.652  1.00  0.00     0.031 C 
ATOM     63  C   UNL A   1      46.861  29.970  30.984  1.00  0.00     0.029 A 
ATOM     64  C   UNL A   1      46.112  28.945  30.429  1.00  0.00     0.049 A 
ATOM     65  H   UNL A   1      44.073  28.932  29.887  1.00  0.00     0.167 HD
ATOM     66  C   UNL A   1      45.736  26.658  29.547  1.00  0.00     0.074 A 
ATOM     67  C   UNL A   1      46.185  25.330  29.183  1.00  0.00     0.031 C 
ATOM     68  C   UNL A   1      46.540  27.618  30.068  1.00  0.00     0.037 A 
BRANCH  55  69
ATOM     69  C   UNL A   1      43.708  33.004  31.122  1.00  0.00     0.058 A 
ATOM     70  C   UNL A   1      43.572  33.365  32.472  1.00  0.00     0.135 A 
ATOM     71  C   UNL A   1      44.022  34.017  30.201  1.00  0.00     0.135 A 
ATOM     72  F   UNL A   1      43.257  32.440  33.391  1.00  0.00    -0.206 F 
ATOM     73  C   UNL A   1      43.726  34.682  32.891  1.00  0.00     0.059 A 
ATOM     74  C   UNL A   1      44.205  35.336  30.602  1.00  0.00     0.059 A 
ATOM     75  F   UNL A   1      44.160  33.725  28.898  1.00  0.00    -0.206 F 
ATOM     76  C   UNL A   1      44.045  35.660  31.949  1.00  0.00     0.060 A 
BRANCH  76  77
ATOM     77  S   UNL A   1      44.266  37.361  32.514  1.00  0.00     0.124 S 
ATOM     78  O   UNL A   1      44.124  38.103  31.266  1.00  0.00    -0.237 OA
ATOM     79  O   UNL A   1      43.175  37.515  33.471  1.00  0.00    -0.237 OA
ATOM     80  O   UNL A   1      45.607  37.355  33.092  1.00  0.00    -0.744 OA
ENDBRANCH  76  77
ENDBRANCH  55  69
BRANCH  56  81
ATOM     81  C   UNL A   1      42.589  23.676  27.716  1.00  0.00     0.058 A 
ATOM     82  C   UNL A   1      42.420  22.565  28.555  1.00  0.00     0.135 A 
ATOM     83  C   UNL A   1      42.624  23.451  26.332  1.00  0.00     0.135 A 
ATOM     84  F   UNL A   1      42.385  22.728  29.886  1.00  0.00    -0.206 F 
ATOM     85  C   UNL A   1      42.313  21.275  28.044  1.00  0.00     0.059 A 
ATOM     86  C   UNL A   1      42.495  22.174  25.795  1.00  0.00     0.059 A 
ATOM     87  F   UNL A   1      42.765  24.484  25.484  1.00  0.00    -0.206 F 
ATOM     88  C   UNL A   1      42.353  21.090  26.660  1.00  0.00     0.060 A 
BRANCH  88  89
ATOM     89  S   UNL A   1      42.178  19.417  26.003  1.00  0.00     0.124 S 
ATOM     90  O   UNL A   1      40.736  19.327  25.808  1.00  0.00    -0.237 OA
ATOM     91  O   UNL A   1      42.985  19.477  24.789  1.00  0.00    -0.237 OA
ATOM     92  O   UNL A   1      42.727  18.582  27.069  1.00  0.00    -0.744 OA
ENDBRANCH  88  89
ENDBRANCH  56  81
BRANCH  68  93
ATOM     93  C   UNL A   1      47.981  27.262  30.301  1.00  0.00     0.058 A 
ATOM     94  C   UNL A   1      48.964  27.507  29.330  1.00  0.00     0.135 A 
ATOM     95  C   UNL A   1      48.391  26.721  31.530  1.00  0.00     0.135 A 
ATOM     96  F   UNL A   1      48.623  28.016  28.136  1.00  0.00    -0.206 F 
ATOM     97  C   UNL A   1      50.304  27.212  29.564  1.00  0.00     0.059 A 
ATOM     98  C   UNL A   1      49.728  26.443  31.795  1.00  0.00     0.059 A 
ATOM     99  F   UNL A   1      47.491  26.477  32.496  1.00  0.00    -0.206 F 
ATOM    100  C   UNL A   1      50.676  26.682  30.801  1.00  0.00     0.060 A 
BRANCH 100 101
ATOM    101  S   UNL A   1      52.422  26.342  31.108  1.00  0.00     0.124 S 
ATOM    102  O   UNL A   1      52.804  27.488  31.927  1.00  0.00    -0.237 OA
ATOM    103  O   UNL A   1      52.376  25.057  31.798  1.00  0.00    -0.237 OA
ATOM    104  O   UNL A   1      53.001  26.306  29.768  1.00  0.00    -0.744 OA
ENDBRANCH 100 101
ENDBRANCH  68  93
ENDBRANCH  42  43
ENDBRANCH  34  37
ENDBRANCH  32  33
ENDBRANCH  31  32
ENDBRANCH   1  31
TORSDOF 18
ENDMDL
MODEL 2
REMARK VINA RESULT:     -12.0      2.823      4.075
REMARK SMILES COc1cccc(C(=O)NNC(=O)[C@H]2CC(C)=C(C)C[C@@H]2C(=O)NCCCCNC(=O)c2ccc(-c3c4nc(c(-c5c(F)cc(S(=O)(=O)[O-])cc5F)c5ccc([nH]5)c(-c5c(F)cc(S(=O)(=O)[O-])cc5F)c5nc(c(-c6c(F)cc(S(=O)(=O)[O-])cc6F)c6ccc3[nH]6)C=C5)C=C4)cc2)c1
REMARK SMILES IDX 26 1 25 2 24 3 22 4 23 5 21 7 14 8 15 9 16 10 20 11 17 12
REMARK SMILES IDX 18 13 19 14 12 15 11 16 13 18 10 19 8 20 9 21 7 23 3 24 4 25
REMARK SMILES IDX 98 26 5 27 6 28 2 29 1 30 27 31 28 32 29 33 30 34 31 36
REMARK SMILES IDX 32 37 33 38 97 39 34 40 96 41 35 42 36 43 37 44 90 45 38 46
REMARK SMILES IDX 95 47 89 48 91 49 39 50 94 51 88 52 87 53 40 55 74 56 53 57
REMARK SMILES IDX 73 58 54 59 57 60 72 61 92 62 55 63 56 64 71 66 93 67 58 68
REMARK SMILES IDX 41 69 42 70 51 71 43 72 44 73 50 74 52 75 45 76 46 77 47 78
REMARK SMILES IDX 48 79 49 80 75 81 76 82 85 83 77 84 78 85 84 86 86 87 79 88
REMARK SMILES IDX 80 89 81 90 82 91 83 92 59 93 60 94 69 95 61 96 62 97 68 98
REMARK SMILES IDX 70 99 63 100 64 101 65 102 66 103 67 104
REMARK H PARENT 24 6 11 17 10 22 29 35 91 54 57 65
REMARK Flexibility Score: inf
ROOT
ATOM      1  C   UNL A   1      34.751  30.125  27.521  1.00  0.00     0.023 C 
ENDROOT
BRANCH   1   2
ATOM      2  C   UNL A   1      33.617  29.715  26.593  1.00  0.00     0.116 C 
BRANCH   2   3
ATOM      3  N   UNL A   1      34.023  29.246  25.279  1.00  0.00    -0.356 N 
ATOM      4  C   UNL A   1      33.268  28.921  24.186  1.00  0.00     0.224 C 
ATOM      5  O   UNL A   1      33.887  28.639  23.153  1.00  0.00    -0.275 OA
ATOM      6  H   UNL A   1      34.994  29.148  25.157  1.00  0.00     0.163 HD
BRANCH   4   7
ATOM      7  C   UNL A   1      31.737  28.745  24.262  1.00  0.00     0.095 C 
ATOM      8  C   UNL A   1      31.234  27.774  23.151  1.00  0.00     0.097 C 
ATOM      9  C   UNL A   1      30.101  28.264  22.228  1.00  0.00     0.045 C 
ATOM     10  C   UNL A   1      29.319  29.489  22.614  1.00  0.00    -0.074 C 
ATOM     11  C   UNL A   1      30.958  30.056  24.388  1.00  0.00     0.045 C 
ATOM     12  C   UNL A   1      28.160  29.807  21.704  1.00  0.00     0.039 C 
ATOM     13  C   UNL A   1      29.688  30.279  23.635  1.00  0.00    -0.074 C 
ATOM     14  C   UNL A   1      28.934  31.512  24.070  1.00  0.00     0.039 C 
BRANCH   8  15
ATOM     15  C   UNL A   1      30.851  26.478  23.874  1.00  0.00     0.242 C 
ATOM     16  N   UNL A   1      31.486  25.311  23.504  1.00  0.00    -0.267 N 
ATOM     17  H   UNL A   1      31.553  24.586  24.167  1.00  0.00     0.191 HD
ATOM     18  O   UNL A   1      30.095  26.461  24.847  1.00  0.00    -0.273 OA
BRANCH  16  19
ATOM     19  N   UNL A   1      32.037  25.101  22.243  1.00  0.00    -0.263 N 
ATOM     20  C   UNL A   1      32.939  24.104  21.906  1.00  0.00     0.269 C 
ATOM     21  O   UNL A   1      33.302  23.984  20.736  1.00  0.00    -0.267 OA
ATOM     22  H   UNL A   1      31.763  25.718  21.526  1.00  0.00     0.191 HD
BRANCH  20  23
ATOM     23  C   UNL A   1      33.567  23.221  22.935  1.00  0.00     0.045 A 
ATOM     24  C   UNL A   1      35.373  22.529  24.401  1.00  0.00     0.119 A 
ATOM     25  C   UNL A   1      34.663  21.369  24.723  1.00  0.00     0.046 A 
ATOM     26  C   UNL A   1      34.800  23.478  23.548  1.00  0.00     0.060 A 
ATOM     27  C   UNL A   1      33.400  21.141  24.185  1.00  0.00     0.005 A 
ATOM     28  C   UNL A   1      32.858  22.060  23.287  1.00  0.00     0.014 A 
BRANCH  24  29
ATOM     29  O   UNL A   1      36.608  22.620  24.982  1.00  0.00    -0.497 OA
ATOM     30  C   UNL A   1      37.445  21.471  24.889  1.00  0.00     0.278 C 
ENDBRANCH  24  29
ENDBRANCH  20  23
ENDBRANCH  16  19
ENDBRANCH   8  15
ENDBRANCH   4   7
ENDBRANCH   2   3
ENDBRANCH   1   2
BRANCH   1  31
ATOM     31  C   UNL A   1      34.865  31.611  27.842  1.00  0.00     0.023 C 
BRANCH  31  32
ATOM     32  C   UNL A   1      35.828  31.988  28.962  1.00  0.00     0.116 C 
BRANCH  32  33
ATOM     33  N   UNL A   1      35.685  31.172  30.161  1.00  0.00    -0.352 N 
ATOM     34  C   UNL A   1      36.597  30.350  30.783  1.00  0.00     0.251 C 
ATOM     35  H   UNL A   1      34.800  31.215  30.591  1.00  0.00     0.163 HD
ATOM     36  O   UNL A   1      36.251  29.669  31.747  1.00  0.00    -0.269 OA
BRANCH  34  37
ATOM     37  C   UNL A   1      37.977  30.252  30.263  1.00  0.00     0.039 A 
ATOM     38  C   UNL A   1      39.046  30.426  31.145  1.00  0.00     0.014 A 
ATOM     39  C   UNL A   1      38.215  29.936  28.924  1.00  0.00     0.014 A 
ATOM     40  C   UNL A   1      40.349  30.168  30.711  1.00  0.00     0.010 A 
ATOM     41  C   UNL A   1      39.503  29.599  28.515  1.00  0.00     0.010 A 
ATOM     42  C   UNL A   1      40.581  29.693  29.409  1.00  0.00    -0.014 A 
BRANCH  42  43
ATOM     43  C   UNL A   1      41.931  29.246  28.976  1.00  0.00     0.031 A 
ATOM     44  C   UNL A   1      43.054  30.239  28.846  1.00  0.00     0.074 A 
ATOM     45  C   UNL A   1      42.118  27.961  28.609  1.00  0.00     0.049 A 
ATOM     46  N   UNL A   1      44.265  30.058  28.388  1.00  0.00    -0.248 NA
ATOM     47  C   UNL A   1      42.768  31.623  29.255  1.00  0.00     0.031 C 
ATOM     48  C   UNL A   1      41.091  26.914  28.626  1.00  0.00     0.029 A 
ATOM     49  N   UNL A   1      43.233  27.316  28.131  1.00  0.00    -0.354 N 
ATOM     50  C   UNL A   1      44.879  31.303  28.434  1.00  0.00     0.074 A 
ATOM     51  C   UNL A   1      43.892  32.243  28.923  1.00  0.00     0.031 C 
ATOM     52  C   UNL A   1      41.627  25.761  28.194  1.00  0.00     0.029 A 
ATOM     53  C   UNL A   1      43.022  25.989  27.833  1.00  0.00     0.049 A 
ATOM     54  H   UNL A   1      44.103  27.762  28.012  1.00  0.00     0.167 HD
ATOM     55  C   UNL A   1      46.154  31.630  28.119  1.00  0.00     0.037 A 
ATOM     56  C   UNL A   1      43.853  25.063  27.315  1.00  0.00     0.037 A 
ATOM     57  C   UNL A   1      47.142  30.685  27.671  1.00  0.00     0.049 A 
ATOM     58  C   UNL A   1      45.271  25.449  26.993  1.00  0.00     0.074 A 
ATOM     59  C   UNL A   1      48.483  30.905  27.407  1.00  0.00     0.029 A 
ATOM     60  N   UNL A   1      46.901  29.343  27.421  1.00  0.00    -0.354 N 
ATOM     61  N   UNL A   1      45.855  26.617  27.121  1.00  0.00    -0.248 NA
ATOM     62  C   UNL A   1      46.144  24.394  26.461  1.00  0.00     0.031 C 
ATOM     63  C   UNL A   1      49.044  29.704  26.959  1.00  0.00     0.029 A 
ATOM     64  C   UNL A   1      48.062  28.726  26.985  1.00  0.00     0.049 A 
ATOM     65  H   UNL A   1      46.032  28.895  27.535  1.00  0.00     0.167 HD
ATOM     66  C   UNL A   1      47.168  26.431  26.705  1.00  0.00     0.074 A 
ATOM     67  C   UNL A   1      47.298  25.036  26.337  1.00  0.00     0.031 C 
ATOM     68  C   UNL A   1      48.175  27.335  26.631  1.00  0.00     0.037 A 
BRANCH  55  69
ATOM     69  C   UNL A   1      46.564  33.070  28.261  1.00  0.00     0.058 A 
ATOM     70  C   UNL A   1      47.102  33.566  29.459  1.00  0.00     0.135 A 
ATOM     71  C   UNL A   1      46.473  33.950  27.170  1.00  0.00     0.135 A 
ATOM     72  F   UNL A   1      47.197  32.772  30.537  1.00  0.00    -0.206 F 
ATOM     73  C   UNL A   1      47.519  34.887  29.578  1.00  0.00     0.059 A 
ATOM     74  C   UNL A   1      46.906  35.269  27.259  1.00  0.00     0.059 A 
ATOM     75  F   UNL A   1      45.963  33.528  26.003  1.00  0.00    -0.206 F 
ATOM     76  C   UNL A   1      47.419  35.730  28.470  1.00  0.00     0.060 A 
BRANCH  76  77
ATOM     77  S   UNL A   1      47.989  37.436  28.634  1.00  0.00     0.124 S 
ATOM     78  O   UNL A   1      49.178  37.427  27.790  1.00  0.00    -0.237 OA
ATOM     79  O   UNL A   1      46.853  38.195  28.120  1.00  0.00    -0.237 OA
ATOM     80  O   UNL A   1      48.236  37.577  30.065  1.00  0.00    -0.744 OA
ENDBRANCH  76  77
ENDBRANCH  55  69
BRANCH  56  81
ATOM     81  C   UNL A   1      43.370  23.676  27.076  1.00  0.00     0.058 A 
ATOM     82  C   UNL A   1      43.070  23.231  25.780  1.00  0.00     0.135 A 
ATOM     83  C   UNL A   1      43.196  22.772  28.134  1.00  0.00     0.135 A 
ATOM     84  F   UNL A   1      43.215  24.059  24.735  1.00  0.00    -0.206 F 
ATOM     85  C   UNL A   1      42.591  21.945  25.543  1.00  0.00     0.059 A 
ATOM     86  C   UNL A   1      42.742  21.474  27.921  1.00  0.00     0.059 A 
ATOM     87  F   UNL A   1      43.487  23.142  29.392  1.00  0.00    -0.206 F 
ATOM     88  C   UNL A   1      42.430  21.074  26.622  1.00  0.00     0.060 A 
BRANCH  88  89
ATOM     89  S   UNL A   1      41.842  19.397  26.302  1.00  0.00     0.124 S 
ATOM     90  O   UNL A   1      40.402  19.604  26.201  1.00  0.00    -0.237 OA
ATOM     91  O   UNL A   1      42.528  19.062  25.058  1.00  0.00    -0.237 OA
ATOM     92  O   UNL A   1      42.294  18.656  27.476  1.00  0.00    -0.744 OA
ENDBRANCH  88  89
ENDBRANCH  56  81
BRANCH  68  93
ATOM     93  C   UNL A   1      49.514  26.842  26.159  1.00  0.00     0.058 A 
ATOM     94  C   UNL A   1      49.902  26.943  24.815  1.00  0.00     0.135 A 
ATOM     95  C   UNL A   1      50.440  26.314  27.073  1.00  0.00     0.135 A 
ATOM     96  F   UNL A   1      49.051  27.434  23.900  1.00  0.00    -0.206 F 
ATOM     97  C   UNL A   1      51.157  26.521  24.388  1.00  0.00     0.059 A 
ATOM     98  C   UNL A   1      51.710  25.910  26.673  1.00  0.00     0.059 A 
ATOM     99  F   UNL A   1      50.122  26.205  28.373  1.00  0.00    -0.206 F 
ATOM    100  C   UNL A   1      52.056  26.008  25.326  1.00  0.00     0.060 A 
BRANCH 100 101
ATOM    101  S   UNL A   1      53.697  25.502  24.768  1.00  0.00     0.124 S 
ATOM    102  O   UNL A   1      53.563  24.049  24.746  1.00  0.00    -0.237 OA
ATOM    103  O   UNL A   1      53.798  26.149  23.464  1.00  0.00    -0.237 OA
ATOM    104  O   UNL A   1      54.584  26.037  25.796  1.00  0.00    -0.744 OA
ENDBRANCH 100 101
ENDBRANCH  68  93
ENDBRANCH  42  43
ENDBRANCH  34  37
ENDBRANCH  32  33
ENDBRANCH  31  32
ENDBRANCH   1  31
TORSDOF 18
ENDMDL
MODEL 3
REMARK VINA RESULT:     -11.8      4.495     10.422
REMARK SMILES COc1cccc(C(=O)NNC(=O)[C@H]2CC(C)=C(C)C[C@@H]2C(=O)NCCCCNC(=O)c2ccc(-c3c4nc(c(-c5c(F)cc(S(=O)(=O)[O-])cc5F)c5ccc([nH]5)c(-c5c(F)cc(S(=O)(=O)[O-])cc5F)c5nc(c(-c6c(F)cc(S(=O)(=O)[O-])cc6F)c6ccc3[nH]6)C=C5)C=C4)cc2)c1
REMARK SMILES IDX 26 1 25 2 24 3 22 4 23 5 21 7 14 8 15 9 16 10 20 11 17 12
REMARK SMILES IDX 18 13 19 14 12 15 11 16 13 18 10 19 8 20 9 21 7 23 3 24 4 25
REMARK SMILES IDX 98 26 5 27 6 28 2 29 1 30 27 31 28 32 29 33 30 34 31 36
REMARK SMILES IDX 32 37 33 38 97 39 34 40 96 41 35 42 36 43 37 44 90 45 38 46
REMARK SMILES IDX 95 47 89 48 91 49 39 50 94 51 88 52 87 53 40 55 74 56 53 57
REMARK SMILES IDX 73 58 54 59 57 60 72 61 92 62 55 63 56 64 71 66 93 67 58 68
REMARK SMILES IDX 41 69 42 70 51 71 43 72 44 73 50 74 52 75 45 76 46 77 47 78
REMARK SMILES IDX 48 79 49 80 75 81 76 82 85 83 77 84 78 85 84 86 86 87 79 88
REMARK SMILES IDX 80 89 81 90 82 91 83 92 59 93 60 94 69 95 61 96 62 97 68 98
REMARK SMILES IDX 70 99 63 100 64 101 65 102 66 103 67 104
REMARK H PARENT 24 6 11 17 10 22 29 35 91 54 57 65
REMARK Flexibility Score: inf
ROOT
ATOM      1  C   UNL A   1      38.072  23.900  25.739  1.00  0.00     0.023 C 
ENDROOT
BRANCH   1   2
ATOM      2  C   UNL A   1      36.598  23.712  25.410  1.00  0.00     0.116 C 
BRANCH   2   3
ATOM      3  N   UNL A   1      35.767  23.243  26.505  1.00  0.00    -0.356 N 
ATOM      4  C   UNL A   1      34.884  22.201  26.560  1.00  0.00     0.224 C 
ATOM      5  O   UNL A   1      34.376  21.966  27.663  1.00  0.00    -0.275 OA
ATOM      6  H   UNL A   1      35.855  23.757  27.340  1.00  0.00     0.163 HD
BRANCH   4   7
ATOM      7  C   UNL A   1      34.405  21.456  25.296  1.00  0.00     0.095 C 
ATOM      8  C   UNL A   1      32.849  21.466  25.202  1.00  0.00     0.097 C 
ATOM      9  C   UNL A   1      32.132  20.114  25.021  1.00  0.00     0.045 C 
ATOM     10  C   UNL A   1      32.937  18.904  24.629  1.00  0.00    -0.074 C 
ATOM     11  C   UNL A   1      35.067  20.093  25.080  1.00  0.00     0.045 C 
ATOM     12  C   UNL A   1      32.119  17.666  24.363  1.00  0.00     0.039 C 
ATOM     13  C   UNL A   1      34.279  18.915  24.610  1.00  0.00    -0.074 C 
ATOM     14  C   UNL A   1      35.131  17.734  24.215  1.00  0.00     0.039 C 
BRANCH   8  15
ATOM     15  C   UNL A   1      32.508  22.441  24.069  1.00  0.00     0.242 C 
ATOM     16  N   UNL A   1      31.863  23.616  24.392  1.00  0.00    -0.267 N 
ATOM     17  H   UNL A   1      31.976  24.389  23.792  1.00  0.00     0.191 HD
ATOM     18  O   UNL A   1      32.894  22.272  22.911  1.00  0.00    -0.273 OA
BRANCH  16  19
ATOM     19  N   UNL A   1      31.059  23.769  25.517  1.00  0.00    -0.263 N 
ATOM     20  C   UNL A   1      30.317  24.895  25.838  1.00  0.00     0.269 C 
ATOM     21  O   UNL A   1      29.592  24.881  26.833  1.00  0.00    -0.267 OA
ATOM     22  H   UNL A   1      31.013  23.010  26.142  1.00  0.00     0.191 HD
BRANCH  20  23
ATOM     23  C   UNL A   1      30.439  26.172  25.072  1.00  0.00     0.045 A 
ATOM     24  C   UNL A   1      31.358  28.378  24.647  1.00  0.00     0.119 A 
ATOM     25  C   UNL A   1      30.413  28.574  23.637  1.00  0.00     0.046 A 
ATOM     26  C   UNL A   1      31.402  27.156  25.327  1.00  0.00     0.060 A 
ATOM     27  C   UNL A   1      29.502  27.570  23.316  1.00  0.00     0.005 A 
ATOM     28  C   UNL A   1      29.510  26.377  24.039  1.00  0.00     0.014 A 
BRANCH  24  29
ATOM     29  O   UNL A   1      32.179  29.448  24.873  1.00  0.00    -0.497 OA
ATOM     30  C   UNL A   1      32.119  30.037  26.169  1.00  0.00     0.278 C 
ENDBRANCH  24  29
ENDBRANCH  20  23
ENDBRANCH  16  19
ENDBRANCH   8  15
ENDBRANCH   4   7
ENDBRANCH   2   3
ENDBRANCH   1   2
BRANCH   1  31
ATOM     31  C   UNL A   1      38.819  22.670  26.242  1.00  0.00     0.023 C 
BRANCH  31  32
ATOM     32  C   UNL A   1      40.110  22.931  27.011  1.00  0.00     0.116 C 
BRANCH  32  33
ATOM     33  N   UNL A   1      41.222  23.350  26.168  1.00  0.00    -0.352 N 
ATOM     34  C   UNL A   1      41.877  24.559  26.106  1.00  0.00     0.251 C 
ATOM     35  H   UNL A   1      41.556  22.662  25.547  1.00  0.00     0.163 HD
ATOM     36  O   UNL A   1      42.744  24.743  25.254  1.00  0.00    -0.269 OA
BRANCH  34  37
ATOM     37  C   UNL A   1      41.504  25.648  27.032  1.00  0.00     0.039 A 
ATOM     38  C   UNL A   1      40.556  25.395  28.026  1.00  0.00     0.014 A 
ATOM     39  C   UNL A   1      42.126  26.896  26.955  1.00  0.00     0.014 A 
ATOM     40  C   UNL A   1      40.318  26.356  29.014  1.00  0.00     0.010 A 
ATOM     41  C   UNL A   1      41.949  27.817  27.984  1.00  0.00     0.010 A 
ATOM     42  C   UNL A   1      41.059  27.550  29.034  1.00  0.00    -0.014 A 
BRANCH  42  43
ATOM     43  C   UNL A   1      40.953  28.508  30.165  1.00  0.00     0.031 A 
ATOM     44  C   UNL A   1      41.840  28.361  31.371  1.00  0.00     0.074 A 
ATOM     45  C   UNL A   1      39.989  29.453  30.146  1.00  0.00     0.049 A 
ATOM     46  N   UNL A   1      41.825  29.032  32.493  1.00  0.00    -0.248 NA
ATOM     47  C   UNL A   1      42.858  27.300  31.321  1.00  0.00     0.031 C 
ATOM     48  C   UNL A   1      39.021  29.656  29.064  1.00  0.00     0.029 A 
ATOM     49  N   UNL A   1      39.650  30.410  31.072  1.00  0.00    -0.354 N 
ATOM     50  C   UNL A   1      42.812  28.465  33.289  1.00  0.00     0.074 A 
ATOM     51  C   UNL A   1      43.379  27.364  32.539  1.00  0.00     0.031 C 
ATOM     52  C   UNL A   1      38.211  30.680  29.381  1.00  0.00     0.029 A 
ATOM     53  C   UNL A   1      38.573  31.183  30.702  1.00  0.00     0.049 A 
ATOM     54  H   UNL A   1      40.133  30.532  31.920  1.00  0.00     0.167 HD
ATOM     55  C   UNL A   1      43.224  28.841  34.523  1.00  0.00     0.037 A 
ATOM     56  C   UNL A   1      37.939  32.175  31.357  1.00  0.00     0.037 A 
ATOM     57  C   UNL A   1      42.685  29.961  35.247  1.00  0.00     0.049 A 
ATOM     58  C   UNL A   1      38.430  32.586  32.718  1.00  0.00     0.074 A 
ATOM     59  C   UNL A   1      43.093  30.472  36.467  1.00  0.00     0.029 A 
ATOM     60  N   UNL A   1      41.622  30.744  34.822  1.00  0.00    -0.354 N 
ATOM     61  N   UNL A   1      39.421  32.087  33.420  1.00  0.00    -0.248 NA
ATOM     62  C   UNL A   1      37.725  33.694  33.376  1.00  0.00     0.031 C 
ATOM     63  C   UNL A   1      42.252  31.540  36.798  1.00  0.00     0.029 A 
ATOM     64  C   UNL A   1      41.347  31.720  35.765  1.00  0.00     0.049 A 
ATOM     65  H   UNL A   1      41.135  30.623  33.975  1.00  0.00     0.167 HD
ATOM     66  C   UNL A   1      39.468  32.835  34.591  1.00  0.00     0.074 A 
ATOM     67  C   UNL A   1      38.420  33.829  34.497  1.00  0.00     0.031 C 
ATOM     68  C   UNL A   1      40.304  32.708  35.651  1.00  0.00     0.037 A 
BRANCH  55  69
ATOM     69  C   UNL A   1      44.325  28.045  35.167  1.00  0.00     0.058 A 
ATOM     70  C   UNL A   1      45.675  28.403  35.018  1.00  0.00     0.135 A 
ATOM     71  C   UNL A   1      44.026  26.947  35.989  1.00  0.00     0.135 A 
ATOM     72  F   UNL A   1      46.018  29.435  34.231  1.00  0.00    -0.206 F 
ATOM     73  C   UNL A   1      46.689  27.691  35.647  1.00  0.00     0.059 A 
ATOM     74  C   UNL A   1      45.023  26.235  36.648  1.00  0.00     0.059 A 
ATOM     75  F   UNL A   1      42.752  26.560  36.163  1.00  0.00    -0.206 F 
ATOM     76  C   UNL A   1      46.353  26.609  36.462  1.00  0.00     0.060 A 
BRANCH  76  77
ATOM     77  S   UNL A   1      47.682  25.711  37.292  1.00  0.00     0.124 S 
ATOM     78  O   UNL A   1      47.870  26.516  38.494  1.00  0.00    -0.237 OA
ATOM     79  O   UNL A   1      47.087  24.394  37.498  1.00  0.00    -0.237 OA
ATOM     80  O   UNL A   1      48.777  25.757  36.328  1.00  0.00    -0.744 OA
ENDBRANCH  76  77
ENDBRANCH  55  69
BRANCH  56  81
ATOM     81  C   UNL A   1      36.773  32.858  30.733  1.00  0.00     0.058 A 
ATOM     82  C   UNL A   1      36.954  33.838  29.746  1.00  0.00     0.135 A 
ATOM     83  C   UNL A   1      35.459  32.548  31.113  1.00  0.00     0.135 A 
ATOM     84  F   UNL A   1      38.192  34.172  29.353  1.00  0.00    -0.206 F 
ATOM     85  C   UNL A   1      35.875  34.504  29.173  1.00  0.00     0.059 A 
ATOM     86  C   UNL A   1      34.362  33.184  30.538  1.00  0.00     0.059 A 
ATOM     87  F   UNL A   1      35.230  31.604  32.041  1.00  0.00    -0.206 F 
ATOM     88  C   UNL A   1      34.582  34.170  29.578  1.00  0.00     0.060 A 
BRANCH  88  89
ATOM     89  S   UNL A   1      33.185  35.015  28.804  1.00  0.00     0.124 S 
ATOM     90  O   UNL A   1      32.363  35.344  29.962  1.00  0.00    -0.237 OA
ATOM     91  O   UNL A   1      33.836  36.141  28.141  1.00  0.00    -0.237 OA
ATOM     92  O   UNL A   1      32.638  34.001  27.907  1.00  0.00    -0.744 OA
ENDBRANCH  88  89
ENDBRANCH  56  81
BRANCH  68  93
ATOM     93  C   UNL A   1      40.138  33.681  36.784  1.00  0.00     0.058 A 
ATOM     94  C   UNL A   1      40.841  34.894  36.819  1.00  0.00     0.135 A 
ATOM     95  C   UNL A   1      39.223  33.421  37.817  1.00  0.00     0.135 A 
ATOM     96  F   UNL A   1      41.733  35.187  35.859  1.00  0.00    -0.206 F 
ATOM     97  C   UNL A   1      40.656  35.810  37.849  1.00  0.00     0.059 A 
ATOM     98  C   UNL A   1      39.003  34.334  38.843  1.00  0.00     0.059 A 
ATOM     99  F   UNL A   1      38.517  32.279  37.825  1.00  0.00    -0.206 F 
ATOM    100  C   UNL A   1      39.733  35.522  38.856  1.00  0.00     0.060 A 
BRANCH 100 101
ATOM    101  S   UNL A   1      39.471  36.737  40.166  1.00  0.00     0.124 S 
ATOM    102  O   UNL A   1      39.157  37.935  39.394  1.00  0.00    -0.237 OA
ATOM    103  O   UNL A   1      38.361  36.157  40.915  1.00  0.00    -0.237 OA
ATOM    104  O   UNL A   1      40.750  36.759  40.868  1.00  0.00    -0.744 OA
ENDBRANCH 100 101
ENDBRANCH  68  93
ENDBRANCH  42  43
ENDBRANCH  34  37
ENDBRANCH  32  33
ENDBRANCH  31  32
ENDBRANCH   1  31
TORSDOF 18
ENDMDL
