MODEL 1
REMARK VINA RESULT:     -11.7      0.000      0.000
REMARK SMILES COc1ccc(NC(=O)[C@@H]2[C@@H](C(=O)NCCCCNC(=O)c3ccc(-c4c5nc(c(-c6c(F)cc(S(=O)(=O)[O-])cc6F)c6ccc([nH]6)c(-c6c(F)cc(S(=O)(=O)[O-])cc6F)c6nc(c(-c7c(F)cc(S(=O)(=O)[O-])cc7F)c7ccc4[nH]7)C=C6)C=C5)cc3)[C@@H]3CC[C@H]2C3=C(C)C)cc1
REMARK SMILES IDX 16 1 15 2 14 3 12 4 13 5 11 7 10 8 91 9 88 10 90 11 92 12
REMARK SMILES IDX 89 13 93 14 94 15 95 16 8 17 7 18 9 20 6 21 3 22 4 23 97 24
REMARK SMILES IDX 5 25 96 26 2 27 1 28 17 29 18 30 19 31 20 32 21 34 22 35
REMARK SMILES IDX 23 36 87 37 24 38 86 39 25 40 26 41 27 42 80 43 28 44 85 45
REMARK SMILES IDX 79 46 81 47 29 48 84 49 78 50 77 51 30 53 64 54 43 55 63 56
REMARK SMILES IDX 44 57 47 58 62 59 82 60 45 61 46 62 61 64 83 65 48 66 31 67
REMARK SMILES IDX 32 68 41 69 33 70 34 71 40 72 42 73 35 74 36 75 37 76 38 77
REMARK SMILES IDX 39 78 65 79 66 80 75 81 67 82 68 83 74 84 76 85 69 86 70 87
REMARK SMILES IDX 71 88 72 89 73 90 49 91 50 92 59 93 51 94 52 95 58 96 60 97
REMARK SMILES IDX 53 98 54 99 55 100 56 101 57 102
REMARK H PARENT 14 6 7 19 19 33 81 52 47 63
REMARK Flexibility Score: inf
ROOT
ATOM      1  C   UNL A   1      31.811  26.829  26.697  1.00  0.00     0.023 C 
ENDROOT
BRANCH   1   2
ATOM      2  C   UNL A   1      31.246  25.432  26.454  1.00  0.00     0.116 C 
BRANCH   2   3
ATOM      3  N   UNL A   1      32.087  24.405  27.035  1.00  0.00    -0.356 N 
ATOM      4  C   UNL A   1      32.906  23.498  26.435  1.00  0.00     0.224 C 
ATOM      5  O   UNL A   1      33.581  22.776  27.170  1.00  0.00    -0.275 OA
ATOM      6  H   UNL A   1      32.062  24.355  28.018  1.00  0.00     0.163 HD
BRANCH   4   7
ATOM      7  C   UNL A   1      33.001  23.462  24.913  1.00  0.00     0.098 C 
ATOM      8  C   UNL A   1      33.346  22.068  24.307  1.00  0.00     0.099 C 
ATOM      9  C   UNL A   1      34.687  22.334  23.566  1.00  0.00     0.028 C 
ATOM     10  C   UNL A   1      34.224  24.330  24.540  1.00  0.00     0.028 C 
ATOM     11  C   UNL A   1      34.629  23.326  22.396  1.00  0.00     0.009 C 
ATOM     12  C   UNL A   1      35.294  23.268  24.583  1.00  0.00    -0.064 C 
ATOM     13  C   UNL A   1      34.201  24.647  23.044  1.00  0.00     0.009 C 
ATOM     14  C   UNL A   1      36.379  23.124  25.362  1.00  0.00    -0.077 C 
ATOM     15  C   UNL A   1      36.776  24.117  26.419  1.00  0.00     0.039 C 
ATOM     16  C   UNL A   1      37.231  21.888  25.293  1.00  0.00     0.039 C 
BRANCH   8  17
ATOM     17  C   UNL A   1      32.221  21.541  23.420  1.00  0.00     0.228 C 
ATOM     18  N   UNL A   1      32.026  20.221  23.134  1.00  0.00    -0.326 N 
ATOM     19  H   UNL A   1      31.309  20.090  22.472  1.00  0.00     0.169 HD
ATOM     20  O   UNL A   1      31.400  22.309  22.907  1.00  0.00    -0.274 OA
BRANCH  18  21
ATOM     21  C   UNL A   1      32.590  19.002  23.546  1.00  0.00     0.041 A 
ATOM     22  C   UNL A   1      33.721  16.612  24.556  1.00  0.00     0.119 A 
ATOM     23  C   UNL A   1      33.701  16.870  23.194  1.00  0.00     0.048 A 
ATOM     24  C   UNL A   1      33.201  17.562  25.430  1.00  0.00     0.048 A 
ATOM     25  C   UNL A   1      33.134  18.049  22.703  1.00  0.00     0.030 A 
ATOM     26  C   UNL A   1      32.647  18.752  24.926  1.00  0.00     0.030 A 
BRANCH  22  27
ATOM     27  O   UNL A   1      34.322  15.439  24.908  1.00  0.00    -0.497 OA
ATOM     28  C   UNL A   1      35.639  15.552  25.423  1.00  0.00     0.278 C 
ENDBRANCH  22  27
ENDBRANCH  18  21
ENDBRANCH   8  17
ENDBRANCH   4   7
ENDBRANCH   2   3
ENDBRANCH   1   2
BRANCH   1  29
ATOM     29  C   UNL A   1      33.017  27.201  25.829  1.00  0.00     0.023 C 
BRANCH  29  30
ATOM     30  C   UNL A   1      34.128  27.965  26.543  1.00  0.00     0.116 C 
BRANCH  30  31
ATOM     31  N   UNL A   1      33.699  29.271  27.017  1.00  0.00    -0.352 N 
ATOM     32  C   UNL A   1      34.377  30.189  27.785  1.00  0.00     0.251 C 
ATOM     33  H   UNL A   1      32.790  29.537  26.748  1.00  0.00     0.163 HD
ATOM     34  O   UNL A   1      33.786  31.175  28.210  1.00  0.00    -0.269 OA
BRANCH  32  35
ATOM     35  C   UNL A   1      35.803  29.972  28.124  1.00  0.00     0.039 A 
ATOM     36  C   UNL A   1      36.130  29.540  29.412  1.00  0.00     0.014 A 
ATOM     37  C   UNL A   1      36.814  30.196  27.186  1.00  0.00     0.014 A 
ATOM     38  C   UNL A   1      37.462  29.270  29.738  1.00  0.00     0.010 A 
ATOM     39  C   UNL A   1      38.130  29.851  27.487  1.00  0.00     0.010 A 
ATOM     40  C   UNL A   1      38.471  29.387  28.767  1.00  0.00    -0.014 A 
BRANCH  40  41
ATOM     41  C   UNL A   1      39.880  29.019  29.071  1.00  0.00     0.031 A 
ATOM     42  C   UNL A   1      40.821  30.030  29.668  1.00  0.00     0.074 A 
ATOM     43  C   UNL A   1      40.332  27.790  28.748  1.00  0.00     0.049 A 
ATOM     44  N   UNL A   1      42.093  29.910  29.953  1.00  0.00    -0.248 NA
ATOM     45  C   UNL A   1      40.266  31.361  29.960  1.00  0.00     0.031 C 
ATOM     46  C   UNL A   1      39.536  26.737  28.115  1.00  0.00     0.029 A 
ATOM     47  N   UNL A   1      41.573  27.222  28.895  1.00  0.00    -0.354 N 
ATOM     48  C   UNL A   1      42.493  31.149  30.439  1.00  0.00     0.074 A 
ATOM     49  C   UNL A   1      41.342  32.022  30.360  1.00  0.00     0.031 C 
ATOM     50  C   UNL A   1      40.301  25.646  27.948  1.00  0.00     0.029 A 
ATOM     51  C   UNL A   1      41.652  25.933  28.423  1.00  0.00     0.049 A 
ATOM     52  H   UNL A   1      42.337  27.694  29.301  1.00  0.00     0.167 HD
ATOM     53  C   UNL A   1      43.702  31.519  30.928  1.00  0.00     0.037 A 
ATOM     54  C   UNL A   1      42.693  25.080  28.366  1.00  0.00     0.037 A 
ATOM     55  C   UNL A   1      44.839  30.639  31.017  1.00  0.00     0.049 A 
ATOM     56  C   UNL A   1      44.027  25.510  28.912  1.00  0.00     0.074 A 
ATOM     57  C   UNL A   1      46.088  30.898  31.557  1.00  0.00     0.029 A 
ATOM     58  N   UNL A   1      44.874  29.333  30.546  1.00  0.00    -0.354 N 
ATOM     59  N   UNL A   1      44.367  26.662  29.442  1.00  0.00    -0.248 NA
ATOM     60  C   UNL A   1      45.116  24.525  28.864  1.00  0.00     0.031 C 
ATOM     61  C   UNL A   1      46.893  29.771  31.359  1.00  0.00     0.029 A 
ATOM     62  C   UNL A   1      46.129  28.786  30.754  1.00  0.00     0.049 A 
ATOM     63  H   UNL A   1      44.117  28.866  30.124  1.00  0.00     0.167 HD
ATOM     64  C   UNL A   1      45.702  26.531  29.812  1.00  0.00     0.074 A 
ATOM     65  C   UNL A   1      46.102  25.184  29.458  1.00  0.00     0.031 C 
ATOM     66  C   UNL A   1      46.520  27.443  30.395  1.00  0.00     0.037 A 
BRANCH  53  67
ATOM     67  C   UNL A   1      43.858  32.944  31.392  1.00  0.00     0.058 A 
ATOM     68  C   UNL A   1      43.677  33.312  32.736  1.00  0.00     0.135 A 
ATOM     69  C   UNL A   1      44.210  33.956  30.483  1.00  0.00     0.135 A 
ATOM     70  F   UNL A   1      43.330  32.390  33.648  1.00  0.00    -0.206 F 
ATOM     71  C   UNL A   1      43.792  34.634  33.152  1.00  0.00     0.059 A 
ATOM     72  C   UNL A   1      44.364  35.280  30.884  1.00  0.00     0.059 A 
ATOM     73  F   UNL A   1      44.401  33.664  29.187  1.00  0.00    -0.206 F 
ATOM     74  C   UNL A   1      44.132  35.612  32.218  1.00  0.00     0.060 A 
BRANCH  74  75
ATOM     75  S   UNL A   1      44.258  37.326  32.771  1.00  0.00     0.124 S 
ATOM     76  O   UNL A   1      43.055  37.455  33.588  1.00  0.00    -0.237 OA
ATOM     77  O   UNL A   1      45.522  37.326  33.500  1.00  0.00    -0.237 OA
ATOM     78  O   UNL A   1      44.254  38.087  31.526  1.00  0.00    -0.744 OA
ENDBRANCH  74  75
ENDBRANCH  53  67
BRANCH  54  79
ATOM     79  C   UNL A   1      42.500  23.722  27.788  1.00  0.00     0.058 A 
ATOM     80  C   UNL A   1      42.494  23.521  26.400  1.00  0.00     0.135 A 
ATOM     81  C   UNL A   1      42.362  22.594  28.612  1.00  0.00     0.135 A 
ATOM     82  F   UNL A   1      42.615  24.568  25.569  1.00  0.00    -0.206 F 
ATOM     83  C   UNL A   1      42.352  22.252  25.848  1.00  0.00     0.059 A 
ATOM     84  C   UNL A   1      42.246  21.311  28.084  1.00  0.00     0.059 A 
ATOM     85  F   UNL A   1      42.377  22.730  29.947  1.00  0.00    -0.206 F 
ATOM     86  C   UNL A   1      42.239  21.151  26.700  1.00  0.00     0.060 A 
BRANCH  86  87
ATOM     87  S   UNL A   1      42.132  19.502  25.972  1.00  0.00     0.124 S 
ATOM     88  O   UNL A   1      40.710  19.405  25.664  1.00  0.00    -0.237 OA
ATOM     89  O   UNL A   1      43.029  19.617  24.825  1.00  0.00    -0.237 OA
ATOM     90  O   UNL A   1      42.608  18.630  27.043  1.00  0.00    -0.744 OA
ENDBRANCH  86  87
ENDBRANCH  54  79
BRANCH  66  91
ATOM     91  C   UNL A   1      47.924  27.010  30.722  1.00  0.00     0.058 A 
ATOM     92  C   UNL A   1      48.995  27.238  29.843  1.00  0.00     0.135 A 
ATOM     93  C   UNL A   1      48.210  26.404  31.956  1.00  0.00     0.135 A 
ATOM     94  F   UNL A   1      48.777  27.807  28.647  1.00  0.00    -0.206 F 
ATOM     95  C   UNL A   1      50.293  26.856  30.165  1.00  0.00     0.059 A 
ATOM     96  C   UNL A   1      49.506  26.043  32.312  1.00  0.00     0.059 A 
ATOM     97  F   UNL A   1      47.227  26.172  32.840  1.00  0.00    -0.206 F 
ATOM     98  C   UNL A   1      50.541  26.262  31.403  1.00  0.00     0.060 A 
BRANCH  98  99
ATOM     99  S   UNL A   1      52.235  25.801  31.821  1.00  0.00     0.124 S 
ATOM    100  O   UNL A   1      52.520  26.704  32.933  1.00  0.00    -0.237 OA
ATOM    101  O   UNL A   1      52.097  24.391  32.170  1.00  0.00    -0.237 OA
ATOM    102  O   UNL A   1      52.975  26.068  30.592  1.00  0.00    -0.744 OA
ENDBRANCH  98  99
ENDBRANCH  66  91
ENDBRANCH  40  41
ENDBRANCH  32  35
ENDBRANCH  30  31
ENDBRANCH  29  30
ENDBRANCH   1  29
TORSDOF 17
ENDMDL
MODEL 2
REMARK VINA RESULT:     -11.7      2.937      4.137
REMARK SMILES COc1ccc(NC(=O)[C@@H]2[C@@H](C(=O)NCCCCNC(=O)c3ccc(-c4c5nc(c(-c6c(F)cc(S(=O)(=O)[O-])cc6F)c6ccc([nH]6)c(-c6c(F)cc(S(=O)(=O)[O-])cc6F)c6nc(c(-c7c(F)cc(S(=O)(=O)[O-])cc7F)c7ccc4[nH]7)C=C6)C=C5)cc3)[C@@H]3CC[C@H]2C3=C(C)C)cc1
REMARK SMILES IDX 16 1 15 2 14 3 12 4 13 5 11 7 10 8 91 9 88 10 90 11 92 12
REMARK SMILES IDX 89 13 93 14 94 15 95 16 8 17 7 18 9 20 6 21 3 22 4 23 97 24
REMARK SMILES IDX 5 25 96 26 2 27 1 28 17 29 18 30 19 31 20 32 21 34 22 35
REMARK SMILES IDX 23 36 87 37 24 38 86 39 25 40 26 41 27 42 80 43 28 44 85 45
REMARK SMILES IDX 79 46 81 47 29 48 84 49 78 50 77 51 30 53 64 54 43 55 63 56
REMARK SMILES IDX 44 57 47 58 62 59 82 60 45 61 46 62 61 64 83 65 48 66 31 67
REMARK SMILES IDX 32 68 41 69 33 70 34 71 40 72 42 73 35 74 36 75 37 76 38 77
REMARK SMILES IDX 39 78 65 79 66 80 75 81 67 82 68 83 74 84 76 85 69 86 70 87
REMARK SMILES IDX 71 88 72 89 73 90 49 91 50 92 59 93 51 94 52 95 58 96 60 97
REMARK SMILES IDX 53 98 54 99 55 100 56 101 57 102
REMARK H PARENT 14 6 7 19 19 33 81 52 47 63
REMARK Flexibility Score: inf
ROOT
ATOM      1  C   UNL A   1      33.306  30.984  27.573  1.00  0.00     0.023 C 
ENDROOT
BRANCH   1   2
ATOM      2  C   UNL A   1      32.519  29.726  27.213  1.00  0.00     0.116 C 
BRANCH   2   3
ATOM      3  N   UNL A   1      33.395  28.609  26.922  1.00  0.00    -0.356 N 
ATOM      4  C   UNL A   1      33.138  27.434  26.287  1.00  0.00     0.224 C 
ATOM      5  O   UNL A   1      34.090  26.676  26.096  1.00  0.00    -0.275 OA
ATOM      6  H   UNL A   1      34.323  28.718  27.234  1.00  0.00     0.163 HD
BRANCH   4   7
ATOM      7  C   UNL A   1      31.727  27.142  25.787  1.00  0.00     0.098 C 
ATOM      8  C   UNL A   1      31.526  25.727  25.166  1.00  0.00     0.099 C 
ATOM      9  C   UNL A   1      31.095  26.046  23.706  1.00  0.00     0.028 C 
ATOM     10  C   UNL A   1      31.489  28.096  24.594  1.00  0.00     0.028 C 
ATOM     11  C   UNL A   1      29.765  26.796  23.543  1.00  0.00     0.009 C 
ATOM     12  C   UNL A   1      32.011  27.223  23.481  1.00  0.00    -0.064 C 
ATOM     13  C   UNL A   1      30.000  28.136  24.248  1.00  0.00     0.009 C 
ATOM     14  C   UNL A   1      33.042  27.377  22.634  1.00  0.00    -0.077 C 
ATOM     15  C   UNL A   1      33.933  28.588  22.626  1.00  0.00     0.039 C 
ATOM     16  C   UNL A   1      33.442  26.283  21.684  1.00  0.00     0.039 C 
BRANCH   8  17
ATOM     17  C   UNL A   1      30.524  24.895  25.960  1.00  0.00     0.228 C 
ATOM     18  N   UNL A   1      30.600  23.541  26.110  1.00  0.00    -0.326 N 
ATOM     19  H   UNL A   1      29.812  23.176  26.575  1.00  0.00     0.169 HD
ATOM     20  O   UNL A   1      29.565  25.426  26.532  1.00  0.00    -0.274 OA
BRANCH  18  21
ATOM     21  C   UNL A   1      31.520  22.535  25.768  1.00  0.00     0.041 A 
ATOM     22  C   UNL A   1      33.480  20.567  25.227  1.00  0.00     0.119 A 
ATOM     23  C   UNL A   1      32.469  20.834  24.316  1.00  0.00     0.048 A 
ATOM     24  C   UNL A   1      33.538  21.303  26.406  1.00  0.00     0.048 A 
ATOM     25  C   UNL A   1      31.501  21.802  24.595  1.00  0.00     0.030 A 
ATOM     26  C   UNL A   1      32.567  22.286  26.669  1.00  0.00     0.030 A 
BRANCH  22  27
ATOM     27  O   UNL A   1      34.374  19.617  24.827  1.00  0.00    -0.497 OA
ATOM     28  C   UNL A   1      33.814  18.382  24.408  1.00  0.00     0.278 C 
ENDBRANCH  22  27
ENDBRANCH  18  21
ENDBRANCH   8  17
ENDBRANCH   4   7
ENDBRANCH   2   3
ENDBRANCH   1   2
BRANCH   1  29
ATOM     29  C   UNL A   1      34.818  30.890  27.344  1.00  0.00     0.023 C 
BRANCH  29  30
ATOM     30  C   UNL A   1      35.680  31.662  28.338  1.00  0.00     0.116 C 
BRANCH  30  31
ATOM     31  N   UNL A   1      35.499  31.212  29.709  1.00  0.00    -0.352 N 
ATOM     32  C   UNL A   1      36.360  30.511  30.521  1.00  0.00     0.251 C 
ATOM     33  H   UNL A   1      34.633  31.444  30.115  1.00  0.00     0.163 HD
ATOM     34  O   UNL A   1      35.963  30.091  31.602  1.00  0.00    -0.269 OA
BRANCH  32  35
ATOM     35  C   UNL A   1      37.747  30.237  30.079  1.00  0.00     0.039 A 
ATOM     36  C   UNL A   1      38.751  30.129  31.044  1.00  0.00     0.014 A 
ATOM     37  C   UNL A   1      38.062  30.091  28.726  1.00  0.00     0.014 A 
ATOM     38  C   UNL A   1      40.056  29.811  30.658  1.00  0.00     0.010 A 
ATOM     39  C   UNL A   1      39.345  29.696  28.349  1.00  0.00     0.010 A 
ATOM     40  C   UNL A   1      40.358  29.554  29.310  1.00  0.00    -0.014 A 
BRANCH  40  41
ATOM     41  C   UNL A   1      41.721  29.128  28.893  1.00  0.00     0.031 A 
ATOM     42  C   UNL A   1      42.845  30.126  28.824  1.00  0.00     0.074 A 
ATOM     43  C   UNL A   1      41.932  27.852  28.510  1.00  0.00     0.049 A 
ATOM     44  N   UNL A   1      44.083  29.953  28.435  1.00  0.00    -0.248 NA
ATOM     45  C   UNL A   1      42.531  31.507  29.222  1.00  0.00     0.031 C 
ATOM     46  C   UNL A   1      40.913  26.800  28.479  1.00  0.00     0.029 A 
ATOM     47  N   UNL A   1      43.068  27.224  28.064  1.00  0.00    -0.354 N 
ATOM     48  C   UNL A   1      44.688  31.201  28.523  1.00  0.00     0.074 A 
ATOM     49  C   UNL A   1      43.667  32.132  28.951  1.00  0.00     0.031 C 
ATOM     50  C   UNL A   1      41.474  25.656  28.058  1.00  0.00     0.029 A 
ATOM     51  C   UNL A   1      42.881  25.898  27.750  1.00  0.00     0.049 A 
ATOM     52  H   UNL A   1      43.936  27.681  27.977  1.00  0.00     0.167 HD
ATOM     53  C   UNL A   1      45.981  31.536  28.290  1.00  0.00     0.037 A 
ATOM     54  C   UNL A   1      43.738  24.982  27.260  1.00  0.00     0.037 A 
ATOM     55  C   UNL A   1      46.995  30.599  27.879  1.00  0.00     0.049 A 
ATOM     56  C   UNL A   1      45.168  25.373  27.007  1.00  0.00     0.074 A 
ATOM     57  C   UNL A   1      48.346  30.825  27.681  1.00  0.00     0.029 A 
ATOM     58  N   UNL A   1      46.770  29.260  27.589  1.00  0.00    -0.354 N 
ATOM     59  N   UNL A   1      45.743  26.543  27.171  1.00  0.00    -0.248 NA
ATOM     60  C   UNL A   1      46.069  24.324  26.513  1.00  0.00     0.031 C 
ATOM     61  C   UNL A   1      48.926  29.639  27.217  1.00  0.00     0.029 A 
ATOM     62  C   UNL A   1      47.950  28.656  27.186  1.00  0.00     0.049 A 
ATOM     63  H   UNL A   1      45.899  28.806  27.659  1.00  0.00     0.167 HD
ATOM     64  C   UNL A   1      47.078  26.361  26.824  1.00  0.00     0.074 A 
ATOM     65  C   UNL A   1      47.227  24.969  26.454  1.00  0.00     0.031 C 
ATOM     66  C   UNL A   1      48.088  27.268  26.816  1.00  0.00     0.037 A 
BRANCH  53  67
ATOM     67  C   UNL A   1      46.367  32.982  28.465  1.00  0.00     0.058 A 
ATOM     68  C   UNL A   1      46.812  33.489  29.697  1.00  0.00     0.135 A 
ATOM     69  C   UNL A   1      46.306  33.872  27.380  1.00  0.00     0.135 A 
ATOM     70  F   UNL A   1      46.880  32.687  30.773  1.00  0.00    -0.206 F 
ATOM     71  C   UNL A   1      47.137  34.831  29.859  1.00  0.00     0.059 A 
ATOM     72  C   UNL A   1      46.659  35.212  27.511  1.00  0.00     0.059 A 
ATOM     73  F   UNL A   1      45.893  33.445  26.176  1.00  0.00    -0.206 F 
ATOM     74  C   UNL A   1      47.053  35.687  28.760  1.00  0.00     0.060 A 
BRANCH  74  75
ATOM     75  S   UNL A   1      47.460  37.431  28.992  1.00  0.00     0.124 S 
ATOM     76  O   UNL A   1      46.681  38.053  27.926  1.00  0.00    -0.237 OA
ATOM     77  O   UNL A   1      46.990  37.682  30.350  1.00  0.00    -0.237 OA
ATOM     78  O   UNL A   1      48.908  37.469  28.815  1.00  0.00    -0.744 OA
ENDBRANCH  74  75
ENDBRANCH  53  67
BRANCH  54  79
ATOM     79  C   UNL A   1      43.263  23.596  27.000  1.00  0.00     0.058 A 
ATOM     80  C   UNL A   1      43.016  23.149  25.693  1.00  0.00     0.135 A 
ATOM     81  C   UNL A   1      43.088  22.678  28.048  1.00  0.00     0.135 A 
ATOM     82  F   UNL A   1      43.161  23.989  24.657  1.00  0.00    -0.206 F 
ATOM     83  C   UNL A   1      42.608  21.844  25.435  1.00  0.00     0.059 A 
ATOM     84  C   UNL A   1      42.707  21.361  27.812  1.00  0.00     0.059 A 
ATOM     85  F   UNL A   1      43.326  23.052  29.315  1.00  0.00    -0.206 F 
ATOM     86  C   UNL A   1      42.466  20.954  26.501  1.00  0.00     0.060 A 
BRANCH  86  87
ATOM     87  S   UNL A   1      42.010  19.243  26.145  1.00  0.00     0.124 S 
ATOM     88  O   UNL A   1      40.575  19.361  25.914  1.00  0.00    -0.237 OA
ATOM     89  O   UNL A   1      42.825  18.949  24.970  1.00  0.00    -0.237 OA
ATOM     90  O   UNL A   1      42.399  18.532  27.360  1.00  0.00    -0.744 OA
ENDBRANCH  86  87
ENDBRANCH  54  79
BRANCH  66  91
ATOM     91  C   UNL A   1      49.458  26.778  26.427  1.00  0.00     0.058 A 
ATOM     92  C   UNL A   1      50.307  26.141  27.346  1.00  0.00     0.135 A 
ATOM     93  C   UNL A   1      49.906  26.902  25.102  1.00  0.00     0.135 A 
ATOM     94  F   UNL A   1      49.933  26.002  28.628  1.00  0.00    -0.206 F 
ATOM     95  C   UNL A   1      51.561  25.670  26.972  1.00  0.00     0.059 A 
ATOM     96  C   UNL A   1      51.143  26.409  24.698  1.00  0.00     0.059 A 
ATOM     97  F   UNL A   1      49.131  27.493  24.179  1.00  0.00    -0.206 F 
ATOM     98  C   UNL A   1      51.970  25.805  25.644  1.00  0.00     0.060 A 
BRANCH  98  99
ATOM     99  S   UNL A   1      53.586  25.161  25.164  1.00  0.00     0.124 S 
ATOM    100  O   UNL A   1      53.698  25.641  23.790  1.00  0.00    -0.237 OA
ATOM    101  O   UNL A   1      54.475  25.796  26.132  1.00  0.00    -0.237 OA
ATOM    102  O   UNL A   1      53.436  23.716  25.313  1.00  0.00    -0.744 OA
ENDBRANCH  98  99
ENDBRANCH  66  91
ENDBRANCH  40  41
ENDBRANCH  32  35
ENDBRANCH  30  31
ENDBRANCH  29  30
ENDBRANCH   1  29
TORSDOF 17
ENDMDL
MODEL 3
REMARK VINA RESULT:     -11.5      3.501      9.556
REMARK SMILES COc1ccc(NC(=O)[C@@H]2[C@@H](C(=O)NCCCCNC(=O)c3ccc(-c4c5nc(c(-c6c(F)cc(S(=O)(=O)[O-])cc6F)c6ccc([nH]6)c(-c6c(F)cc(S(=O)(=O)[O-])cc6F)c6nc(c(-c7c(F)cc(S(=O)(=O)[O-])cc7F)c7ccc4[nH]7)C=C6)C=C5)cc3)[C@@H]3CC[C@H]2C3=C(C)C)cc1
REMARK SMILES IDX 16 1 15 2 14 3 12 4 13 5 11 7 10 8 91 9 88 10 90 11 92 12
REMARK SMILES IDX 89 13 93 14 94 15 95 16 8 17 7 18 9 20 6 21 3 22 4 23 97 24
REMARK SMILES IDX 5 25 96 26 2 27 1 28 17 29 18 30 19 31 20 32 21 34 22 35
REMARK SMILES IDX 23 36 87 37 24 38 86 39 25 40 26 41 27 42 80 43 28 44 85 45
REMARK SMILES IDX 79 46 81 47 29 48 84 49 78 50 77 51 30 53 64 54 43 55 63 56
REMARK SMILES IDX 44 57 47 58 62 59 82 60 45 61 46 62 61 64 83 65 48 66 31 67
REMARK SMILES IDX 32 68 41 69 33 70 34 71 40 72 42 73 35 74 36 75 37 76 38 77
REMARK SMILES IDX 39 78 65 79 66 80 75 81 67 82 68 83 74 84 76 85 69 86 70 87
REMARK SMILES IDX 71 88 72 89 73 90 49 91 50 92 59 93 51 94 52 95 58 96 60 97
REMARK SMILES IDX 53 98 54 99 55 100 56 101 57 102
REMARK H PARENT 14 6 7 19 19 33 81 52 47 63
REMARK Flexibility Score: inf
ROOT
ATOM      1  C   UNL A   1      33.135  29.929  27.310  1.00  0.00     0.023 C 
ENDROOT
BRANCH   1   2
ATOM      2  C   UNL A   1      33.482  28.481  26.971  1.00  0.00     0.116 C 
BRANCH   2   3
ATOM      3  N   UNL A   1      32.296  27.653  26.880  1.00  0.00    -0.356 N 
ATOM      4  C   UNL A   1      32.031  26.585  26.078  1.00  0.00     0.224 C 
ATOM      5  O   UNL A   1      30.962  26.000  26.256  1.00  0.00    -0.275 OA
ATOM      6  H   UNL A   1      31.567  27.903  27.494  1.00  0.00     0.163 HD
BRANCH   4   7
ATOM      7  C   UNL A   1      33.075  26.127  25.066  1.00  0.00     0.098 C 
ATOM      8  C   UNL A   1      32.499  25.456  23.782  1.00  0.00     0.099 C 
ATOM      9  C   UNL A   1      33.114  24.028  23.832  1.00  0.00     0.028 C 
ATOM     10  C   UNL A   1      33.861  24.985  25.748  1.00  0.00     0.028 C 
ATOM     11  C   UNL A   1      34.643  23.946  23.728  1.00  0.00     0.009 C 
ATOM     12  C   UNL A   1      33.007  23.818  25.322  1.00  0.00    -0.064 C 
ATOM     13  C   UNL A   1      35.145  24.697  24.967  1.00  0.00     0.009 C 
ATOM     14  C   UNL A   1      32.278  22.940  26.030  1.00  0.00    -0.077 C 
ATOM     15  C   UNL A   1      32.200  22.949  27.531  1.00  0.00     0.039 C 
ATOM     16  C   UNL A   1      31.395  21.930  25.350  1.00  0.00     0.039 C 
BRANCH   8  17
ATOM     17  C   UNL A   1      32.836  26.252  22.525  1.00  0.00     0.228 C 
ATOM     18  N   UNL A   1      32.035  27.219  21.993  1.00  0.00    -0.326 N 
ATOM     19  H   UNL A   1      32.378  27.551  21.132  1.00  0.00     0.169 HD
ATOM     20  O   UNL A   1      33.891  26.057  21.910  1.00  0.00    -0.274 OA
BRANCH  18  21
ATOM     21  C   UNL A   1      30.842  27.863  22.365  1.00  0.00     0.041 A 
ATOM     22  C   UNL A   1      28.518  29.324  23.056  1.00  0.00     0.119 A 
ATOM     23  C   UNL A   1      28.682  28.009  23.468  1.00  0.00     0.048 A 
ATOM     24  C   UNL A   1      29.529  29.930  22.318  1.00  0.00     0.048 A 
ATOM     25  C   UNL A   1      29.829  27.293  23.116  1.00  0.00     0.030 A 
ATOM     26  C   UNL A   1      30.687  29.205  21.983  1.00  0.00     0.030 A 
BRANCH  22  27
ATOM     27  O   UNL A   1      27.367  29.918  23.483  1.00  0.00    -0.497 OA
ATOM     28  C   UNL A   1      27.425  31.327  23.645  1.00  0.00     0.278 C 
ENDBRANCH  22  27
ENDBRANCH  18  21
ENDBRANCH   8  17
ENDBRANCH   4   7
ENDBRANCH   2   3
ENDBRANCH   1   2
BRANCH   1  29
ATOM     29  C   UNL A   1      34.337  30.838  27.579  1.00  0.00     0.023 C 
BRANCH  29  30
ATOM     30  C   UNL A   1      35.548  30.155  28.207  1.00  0.00     0.116 C 
BRANCH  30  31
ATOM     31  N   UNL A   1      35.531  30.203  29.660  1.00  0.00    -0.352 N 
ATOM     32  C   UNL A   1      36.554  29.992  30.555  1.00  0.00     0.251 C 
ATOM     33  H   UNL A   1      34.659  30.419  30.063  1.00  0.00     0.163 HD
ATOM     34  O   UNL A   1      36.305  29.929  31.753  1.00  0.00    -0.269 OA
BRANCH  32  35
ATOM     35  C   UNL A   1      37.943  29.812  30.072  1.00  0.00     0.039 A 
ATOM     36  C   UNL A   1      38.917  29.375  30.974  1.00  0.00     0.014 A 
ATOM     37  C   UNL A   1      38.290  30.074  28.744  1.00  0.00     0.014 A 
ATOM     38  C   UNL A   1      40.221  29.139  30.529  1.00  0.00     0.010 A 
ATOM     39  C   UNL A   1      39.569  29.763  28.285  1.00  0.00     0.010 A 
ATOM     40  C   UNL A   1      40.550  29.294  29.172  1.00  0.00    -0.014 A 
BRANCH  40  41
ATOM     41  C   UNL A   1      41.910  28.962  28.666  1.00  0.00     0.031 A 
ATOM     42  C   UNL A   1      42.235  27.564  28.214  1.00  0.00     0.074 A 
ATOM     43  C   UNL A   1      42.872  29.907  28.675  1.00  0.00     0.049 A 
ATOM     44  N   UNL A   1      43.374  27.076  27.792  1.00  0.00    -0.248 NA
ATOM     45  C   UNL A   1      41.144  26.579  28.267  1.00  0.00     0.031 C 
ATOM     46  C   UNL A   1      42.700  31.285  29.139  1.00  0.00     0.029 A 
ATOM     47  N   UNL A   1      44.190  29.850  28.293  1.00  0.00    -0.354 N 
ATOM     48  C   UNL A   1      43.142  25.727  27.547  1.00  0.00     0.074 A 
ATOM     49  C   UNL A   1      41.769  25.464  27.920  1.00  0.00     0.031 C 
ATOM     50  C   UNL A   1      43.858  31.946  28.996  1.00  0.00     0.029 A 
ATOM     51  C   UNL A   1      44.868  31.033  28.469  1.00  0.00     0.049 A 
ATOM     52  H   UNL A   1      44.610  29.037  27.928  1.00  0.00     0.167 HD
ATOM     53  C   UNL A   1      43.989  24.799  27.039  1.00  0.00     0.037 A 
ATOM     54  C   UNL A   1      46.159  31.347  28.244  1.00  0.00     0.037 A 
ATOM     55  C   UNL A   1      45.350  25.073  26.656  1.00  0.00     0.049 A 
ATOM     56  C   UNL A   1      47.083  30.303  27.680  1.00  0.00     0.074 A 
ATOM     57  C   UNL A   1      46.269  24.218  26.070  1.00  0.00     0.029 A 
ATOM     58  N   UNL A   1      45.996  26.290  26.832  1.00  0.00    -0.354 N 
ATOM     59  N   UNL A   1      46.826  29.051  27.380  1.00  0.00    -0.248 NA
ATOM     60  C   UNL A   1      48.468  30.712  27.414  1.00  0.00     0.031 C 
ATOM     61  C   UNL A   1      47.484  24.900  25.946  1.00  0.00     0.029 A 
ATOM     62  C   UNL A   1      47.308  26.199  26.394  1.00  0.00     0.049 A 
ATOM     63  H   UNL A   1      45.583  27.098  27.213  1.00  0.00     0.167 HD
ATOM     64  C   UNL A   1      48.010  28.531  26.868  1.00  0.00     0.074 A 
ATOM     65  C   UNL A   1      48.979  29.608  26.886  1.00  0.00     0.031 C 
ATOM     66  C   UNL A   1      48.268  27.277  26.419  1.00  0.00     0.037 A 
BRANCH  53  67
ATOM     67  C   UNL A   1      43.466  23.395  26.877  1.00  0.00     0.058 A 
ATOM     68  C   UNL A   1      43.295  22.535  27.975  1.00  0.00     0.135 A 
ATOM     69  C   UNL A   1      43.115  22.906  25.607  1.00  0.00     0.135 A 
ATOM     70  F   UNL A   1      43.624  22.943  29.211  1.00  0.00    -0.206 F 
ATOM     71  C   UNL A   1      42.842  21.230  27.815  1.00  0.00     0.059 A 
ATOM     72  C   UNL A   1      42.627  21.615  25.429  1.00  0.00     0.059 A 
ATOM     73  F   UNL A   1      43.252  23.684  24.522  1.00  0.00    -0.206 F 
ATOM     74  C   UNL A   1      42.514  20.777  26.536  1.00  0.00     0.060 A 
BRANCH  74  75
ATOM     75  S   UNL A   1      41.945  19.074  26.344  1.00  0.00     0.124 S 
ATOM     76  O   UNL A   1      42.876  18.571  25.338  1.00  0.00    -0.237 OA
ATOM     77  O   UNL A   1      42.115  18.535  27.689  1.00  0.00    -0.237 OA
ATOM     78  O   UNL A   1      40.563  19.225  25.901  1.00  0.00    -0.744 OA
ENDBRANCH  74  75
ENDBRANCH  53  67
BRANCH  54  79
ATOM     79  C   UNL A   1      46.641  32.725  28.533  1.00  0.00     0.058 A 
ATOM     80  C   UNL A   1      47.157  33.061  29.794  1.00  0.00     0.135 A 
ATOM     81  C   UNL A   1      46.636  33.720  27.542  1.00  0.00     0.135 A 
ATOM     82  F   UNL A   1      47.176  32.148  30.776  1.00  0.00    -0.206 F 
ATOM     83  C   UNL A   1      47.645  34.336  30.064  1.00  0.00     0.059 A 
ATOM     84  C   UNL A   1      47.144  34.994  27.781  1.00  0.00     0.059 A 
ATOM     85  F   UNL A   1      46.168  33.445  26.316  1.00  0.00    -0.206 F 
ATOM     86  C   UNL A   1      47.644  35.293  29.048  1.00  0.00     0.060 A 
BRANCH  86  87
ATOM     87  S   UNL A   1      48.351  36.919  29.390  1.00  0.00     0.124 S 
ATOM     88  O   UNL A   1      49.303  37.064  28.295  1.00  0.00    -0.237 OA
ATOM     89  O   UNL A   1      47.173  37.781  29.331  1.00  0.00    -0.237 OA
ATOM     90  O   UNL A   1      48.933  36.760  30.719  1.00  0.00    -0.744 OA
ENDBRANCH  86  87
ENDBRANCH  54  79
BRANCH  66  91
ATOM     91  C   UNL A   1      49.645  27.002  25.877  1.00  0.00     0.058 A 
ATOM     92  C   UNL A   1      50.677  26.505  26.689  1.00  0.00     0.135 A 
ATOM     93  C   UNL A   1      49.921  27.190  24.513  1.00  0.00     0.135 A 
ATOM     94  F   UNL A   1      50.471  26.313  28.002  1.00  0.00    -0.206 F 
ATOM     95  C   UNL A   1      51.940  26.230  26.174  1.00  0.00     0.059 A 
ATOM     96  C   UNL A   1      51.167  26.891  23.970  1.00  0.00     0.059 A 
ATOM     97  F   UNL A   1      48.969  27.652  23.687  1.00  0.00    -0.206 F 
ATOM     98  C   UNL A   1      52.175  26.423  24.812  1.00  0.00     0.060 A 
BRANCH  98  99
ATOM     99  S   UNL A   1      53.808  26.033  24.150  1.00  0.00     0.124 S 
ATOM    100  O   UNL A   1      53.587  26.182  22.714  1.00  0.00    -0.237 OA
ATOM    101  O   UNL A   1      54.648  27.052  24.771  1.00  0.00    -0.237 OA
ATOM    102  O   UNL A   1      54.045  24.668  24.609  1.00  0.00    -0.744 OA
ENDBRANCH  98  99
ENDBRANCH  66  91
ENDBRANCH  40  41
ENDBRANCH  32  35
ENDBRANCH  30  31
ENDBRANCH  29  30
ENDBRANCH   1  29
TORSDOF 17
ENDMDL
