MODEL 1
REMARK VINA RESULT:     -11.8      0.000      0.000
REMARK SMILES O=C(C[C@@H]1COc2ccccc2N1Cc1ccccc1)NCCCCNC(=O)c1ccc(-c2c3nc(c(-c4c(F)cc(S(=O)(=O)[O-])cc4F)c4ccc([nH]4)c(-c4c(F)cc(S(=O)(=O)[O-])cc4F)c4nc(c(-c5c(F)cc(S(=O)(=O)[O-])cc5F)c5ccc2[nH]5)C=C4)C=C3)cc1
REMARK SMILES IDX 23 1 22 2 21 3 1 4 2 5 3 7 4 8 5 9 13 10 6 11 12 12 7 13
REMARK SMILES IDX 11 14 8 15 10 16 9 17 14 18 15 19 16 20 20 21 17 22 19 23
REMARK SMILES IDX 18 24 24 25 25 26 26 27 27 28 28 30 29 31 30 32 94 33 31 34
REMARK SMILES IDX 93 35 32 36 33 37 34 38 87 39 35 40 92 41 86 42 88 43 36 44
REMARK SMILES IDX 91 45 85 46 84 47 37 49 71 50 50 51 70 52 51 53 54 54 69 55
REMARK SMILES IDX 89 56 52 57 53 58 68 60 90 61 55 62 38 63 39 64 48 65 40 66
REMARK SMILES IDX 41 67 47 68 49 69 42 70 43 71 44 72 45 73 46 74 72 75 73 76
REMARK SMILES IDX 82 77 74 78 75 79 81 80 83 81 76 82 77 83 78 84 79 85 80 86
REMARK SMILES IDX 56 87 57 88 66 89 58 90 59 91 65 92 67 93 60 94 61 95 62 96
REMARK SMILES IDX 63 97 64 98
REMARK H PARENT 21 6 26 29 88 48 54 59
REMARK Flexibility Score: inf
ROOT
ATOM      1  C   UNL A   1      33.428  27.767  24.729  1.00  0.00     0.023 C 
ENDROOT
BRANCH   1   2
ATOM      2  C   UNL A   1      32.686  27.038  23.610  1.00  0.00     0.116 C 
BRANCH   2   3
ATOM      3  N   UNL A   1      32.984  25.618  23.602  1.00  0.00    -0.356 N 
ATOM      4  O   UNL A   1      30.791  24.967  23.497  1.00  0.00    -0.275 OA
ATOM      5  C   UNL A   1      31.982  24.676  23.541  1.00  0.00     0.222 C 
ATOM      6  H   UNL A   1      33.922  25.323  23.640  1.00  0.00     0.163 HD
BRANCH   5   7
ATOM      7  C   UNL A   1      32.448  23.243  23.593  1.00  0.00     0.128 C 
BRANCH   7   8
ATOM      8  C   UNL A   1      32.518  22.615  24.999  1.00  0.00     0.129 C 
ATOM      9  C   UNL A   1      32.750  23.581  26.175  1.00  0.00     0.255 C 
ATOM     10  N   UNL A   1      33.608  21.616  24.999  1.00  0.00    -0.357 N 
ATOM     11  O   UNL A   1      33.978  24.300  26.081  1.00  0.00    -0.489 OA
ATOM     12  C   UNL A   1      34.877  22.216  25.129  1.00  0.00     0.080 A 
ATOM     13  C   UNL A   1      35.029  23.513  25.668  1.00  0.00     0.142 A 
ATOM     14  C   UNL A   1      36.035  21.605  24.638  1.00  0.00     0.030 A 
ATOM     15  C   UNL A   1      36.285  24.122  25.772  1.00  0.00     0.048 A 
ATOM     16  C   UNL A   1      37.296  22.201  24.752  1.00  0.00     0.002 A 
ATOM     17  C   UNL A   1      37.423  23.457  25.330  1.00  0.00     0.004 A 
BRANCH  10  18
ATOM     18  C   UNL A   1      33.360  20.283  25.575  1.00  0.00     0.152 C 
BRANCH  18  19
ATOM     19  C   UNL A   1      33.460  19.167  24.556  1.00  0.00    -0.029 A 
ATOM     20  C   UNL A   1      34.448  18.177  24.663  1.00  0.00     0.005 A 
ATOM     21  C   UNL A   1      32.533  19.079  23.505  1.00  0.00     0.005 A 
ATOM     22  C   UNL A   1      34.465  17.096  23.777  1.00  0.00     0.000 A 
ATOM     23  C   UNL A   1      32.522  17.974  22.653  1.00  0.00     0.000 A 
ATOM     24  C   UNL A   1      33.485  16.980  22.793  1.00  0.00     0.000 A 
ENDBRANCH  18  19
ENDBRANCH  10  18
ENDBRANCH   7   8
ENDBRANCH   5   7
ENDBRANCH   2   3
ENDBRANCH   1   2
BRANCH   1  25
ATOM     25  C   UNL A   1      32.649  27.879  26.042  1.00  0.00     0.023 C 
BRANCH  25  26
ATOM     26  C   UNL A   1      33.469  28.318  27.251  1.00  0.00     0.116 C 
BRANCH  26  27
ATOM     27  N   UNL A   1      33.422  29.755  27.473  1.00  0.00    -0.352 N 
ATOM     28  C   UNL A   1      34.387  30.586  27.988  1.00  0.00     0.251 C 
ATOM     29  H   UNL A   1      32.578  30.193  27.219  1.00  0.00     0.163 HD
ATOM     30  O   UNL A   1      34.109  31.756  28.246  1.00  0.00    -0.269 OA
BRANCH  28  31
ATOM     31  C   UNL A   1      35.747  30.070  28.261  1.00  0.00     0.039 A 
ATOM     32  C   UNL A   1      36.695  30.089  27.236  1.00  0.00     0.014 A 
ATOM     33  C   UNL A   1      36.092  29.576  29.522  1.00  0.00     0.014 A 
ATOM     34  C   UNL A   1      38.006  29.678  27.495  1.00  0.00     0.010 A 
ATOM     35  C   UNL A   1      37.416  29.241  29.799  1.00  0.00     0.010 A 
ATOM     36  C   UNL A   1      38.389  29.290  28.789  1.00  0.00    -0.014 A 
BRANCH  36  37
ATOM     37  C   UNL A   1      39.802  28.946  29.106  1.00  0.00     0.031 A 
ATOM     38  C   UNL A   1      40.710  29.967  29.740  1.00  0.00     0.074 A 
ATOM     39  C   UNL A   1      40.286  27.735  28.765  1.00  0.00     0.049 A 
ATOM     40  N   UNL A   1      41.982  29.874  30.029  1.00  0.00    -0.248 NA
ATOM     41  C   UNL A   1      40.116  31.273  30.069  1.00  0.00     0.031 C 
ATOM     42  C   UNL A   1      39.521  26.672  28.107  1.00  0.00     0.029 A 
ATOM     43  N   UNL A   1      41.539  27.192  28.915  1.00  0.00    -0.354 N 
ATOM     44  C   UNL A   1      42.345  31.107  30.559  1.00  0.00     0.074 A 
ATOM     45  C   UNL A   1      41.171  31.949  30.503  1.00  0.00     0.031 C 
ATOM     46  C   UNL A   1      40.312  25.601  27.935  1.00  0.00     0.029 A 
ATOM     47  C   UNL A   1      41.650  25.910  28.427  1.00  0.00     0.049 A 
ATOM     48  H   UNL A   1      42.288  27.676  29.333  1.00  0.00     0.167 HD
ATOM     49  C   UNL A   1      43.540  31.494  31.064  1.00  0.00     0.037 A 
ATOM     50  C   UNL A   1      42.711  25.081  28.373  1.00  0.00     0.037 A 
ATOM     51  C   UNL A   1      44.700  30.641  31.140  1.00  0.00     0.049 A 
ATOM     52  C   UNL A   1      44.033  25.541  28.928  1.00  0.00     0.074 A 
ATOM     53  C   UNL A   1      45.937  30.923  31.693  1.00  0.00     0.029 A 
ATOM     54  N   UNL A   1      44.769  29.349  30.644  1.00  0.00    -0.354 N 
ATOM     55  N   UNL A   1      44.338  26.688  29.488  1.00  0.00    -0.248 NA
ATOM     56  C   UNL A   1      45.153  24.594  28.851  1.00  0.00     0.031 C 
ATOM     57  C   UNL A   1      46.772  29.821  31.481  1.00  0.00     0.029 A 
ATOM     58  C   UNL A   1      46.037  28.829  30.851  1.00  0.00     0.049 A 
ATOM     59  H   UNL A   1      44.027  28.870  30.208  1.00  0.00     0.167 HD
ATOM     60  C   UNL A   1      45.675  26.587  29.858  1.00  0.00     0.074 A 
ATOM     61  C   UNL A   1      46.116  25.263  29.469  1.00  0.00     0.031 C 
ATOM     62  C   UNL A   1      46.464  27.506  30.468  1.00  0.00     0.037 A 
BRANCH  49  63
ATOM     63  C   UNL A   1      43.662  32.904  31.579  1.00  0.00     0.058 A 
ATOM     64  C   UNL A   1      44.054  33.965  30.748  1.00  0.00     0.135 A 
ATOM     65  C   UNL A   1      43.333  33.206  32.911  1.00  0.00     0.135 A 
ATOM     66  F   UNL A   1      44.394  33.733  29.470  1.00  0.00    -0.206 F 
ATOM     67  C   UNL A   1      44.143  35.269  31.224  1.00  0.00     0.059 A 
ATOM     68  C   UNL A   1      43.384  34.508  33.402  1.00  0.00     0.059 A 
ATOM     69  F   UNL A   1      42.951  32.231  33.752  1.00  0.00    -0.206 F 
ATOM     70  C   UNL A   1      43.804  35.531  32.553  1.00  0.00     0.060 A 
BRANCH  70  71
ATOM     71  S   UNL A   1      43.915  37.230  33.151  1.00  0.00     0.124 S 
ATOM     72  O   UNL A   1      43.867  37.983  31.900  1.00  0.00    -0.237 OA
ATOM     73  O   UNL A   1      42.733  37.338  34.001  1.00  0.00    -0.237 OA
ATOM     74  O   UNL A   1      45.194  37.262  33.853  1.00  0.00    -0.744 OA
ENDBRANCH  70  71
ENDBRANCH  49  63
BRANCH  50  75
ATOM     75  C   UNL A   1      42.566  23.722  27.784  1.00  0.00     0.058 A 
ATOM     76  C   UNL A   1      42.360  22.599  28.601  1.00  0.00     0.135 A 
ATOM     77  C   UNL A   1      42.631  23.514  26.397  1.00  0.00     0.135 A 
ATOM     78  F   UNL A   1      42.299  22.743  29.934  1.00  0.00    -0.206 F 
ATOM     79  C   UNL A   1      42.245  21.320  28.068  1.00  0.00     0.059 A 
ATOM     80  C   UNL A   1      42.489  22.248  25.838  1.00  0.00     0.059 A 
ATOM     81  F   UNL A   1      42.811  24.556  25.569  1.00  0.00    -0.206 F 
ATOM     82  C   UNL A   1      42.308  21.155  26.684  1.00  0.00     0.060 A 
BRANCH  82  83
ATOM     83  S   UNL A   1      42.118  19.494  26.000  1.00  0.00     0.124 S 
ATOM     84  O   UNL A   1      42.612  18.667  27.095  1.00  0.00    -0.237 OA
ATOM     85  O   UNL A   1      40.682  19.431  25.748  1.00  0.00    -0.237 OA
ATOM     86  O   UNL A   1      42.956  19.526  24.805  1.00  0.00    -0.744 OA
ENDBRANCH  82  83
ENDBRANCH  50  75
BRANCH  62  87
ATOM     87  C   UNL A   1      47.877  27.104  30.793  1.00  0.00     0.058 A 
ATOM     88  C   UNL A   1      48.227  26.561  32.040  1.00  0.00     0.135 A 
ATOM     89  C   UNL A   1      48.887  27.213  29.821  1.00  0.00     0.135 A 
ATOM     90  F   UNL A   1      47.303  26.440  33.006  1.00  0.00    -0.206 F 
ATOM     91  C   UNL A   1      49.531  26.167  32.320  1.00  0.00     0.059 A 
ATOM     92  C   UNL A   1      50.190  26.795  30.070  1.00  0.00     0.059 A 
ATOM     93  F   UNL A   1      48.606  27.715  28.608  1.00  0.00    -0.206 F 
ATOM     94  C   UNL A   1      50.505  26.284  31.327  1.00  0.00     0.060 A 
BRANCH  94  95
ATOM     95  S   UNL A   1      52.184  25.733  31.694  1.00  0.00     0.124 S 
ATOM     96  O   UNL A   1      51.982  24.307  31.925  1.00  0.00    -0.237 OA
ATOM     97  O   UNL A   1      52.902  26.082  30.471  1.00  0.00    -0.237 OA
ATOM     98  O   UNL A   1      52.550  26.514  32.872  1.00  0.00    -0.744 OA
ENDBRANCH  94  95
ENDBRANCH  62  87
ENDBRANCH  36  37
ENDBRANCH  28  31
ENDBRANCH  26  27
ENDBRANCH  25  26
ENDBRANCH   1  25
TORSDOF 17
ENDMDL
MODEL 2
REMARK VINA RESULT:     -11.8      1.245      2.992
REMARK SMILES O=C(C[C@@H]1COc2ccccc2N1Cc1ccccc1)NCCCCNC(=O)c1ccc(-c2c3nc(c(-c4c(F)cc(S(=O)(=O)[O-])cc4F)c4ccc([nH]4)c(-c4c(F)cc(S(=O)(=O)[O-])cc4F)c4nc(c(-c5c(F)cc(S(=O)(=O)[O-])cc5F)c5ccc2[nH]5)C=C4)C=C3)cc1
REMARK SMILES IDX 23 1 22 2 21 3 1 4 2 5 3 7 4 8 5 9 13 10 6 11 12 12 7 13
REMARK SMILES IDX 11 14 8 15 10 16 9 17 14 18 15 19 16 20 20 21 17 22 19 23
REMARK SMILES IDX 18 24 24 25 25 26 26 27 27 28 28 30 29 31 30 32 94 33 31 34
REMARK SMILES IDX 93 35 32 36 33 37 34 38 87 39 35 40 92 41 86 42 88 43 36 44
REMARK SMILES IDX 91 45 85 46 84 47 37 49 71 50 50 51 70 52 51 53 54 54 69 55
REMARK SMILES IDX 89 56 52 57 53 58 68 60 90 61 55 62 38 63 39 64 48 65 40 66
REMARK SMILES IDX 41 67 47 68 49 69 42 70 43 71 44 72 45 73 46 74 72 75 73 76
REMARK SMILES IDX 82 77 74 78 75 79 81 80 83 81 76 82 77 83 78 84 79 85 80 86
REMARK SMILES IDX 56 87 57 88 66 89 58 90 59 91 65 92 67 93 60 94 61 95 62 96
REMARK SMILES IDX 63 97 64 98
REMARK H PARENT 21 6 26 29 88 48 54 59
REMARK Flexibility Score: inf
ROOT
ATOM      1  C   UNL A   1      31.903  27.712  26.805  1.00  0.00     0.023 C 
ENDROOT
BRANCH   1   2
ATOM      2  C   UNL A   1      31.040  26.488  26.506  1.00  0.00     0.116 C 
BRANCH   2   3
ATOM      3  N   UNL A   1      31.847  25.318  26.216  1.00  0.00    -0.356 N 
ATOM      4  O   UNL A   1      30.426  23.850  27.251  1.00  0.00    -0.275 OA
ATOM      5  C   UNL A   1      31.458  24.062  26.622  1.00  0.00     0.222 C 
ATOM      6  H   UNL A   1      32.689  25.425  25.718  1.00  0.00     0.163 HD
BRANCH   5   7
ATOM      7  C   UNL A   1      32.427  22.954  26.291  1.00  0.00     0.128 C 
BRANCH   7   8
ATOM      8  C   UNL A   1      32.286  22.341  24.884  1.00  0.00     0.129 C 
ATOM      9  C   UNL A   1      32.425  20.812  24.782  1.00  0.00     0.255 C 
ATOM     10  N   UNL A   1      33.308  22.958  24.012  1.00  0.00    -0.357 N 
ATOM     11  O   UNL A   1      33.694  20.330  25.218  1.00  0.00    -0.489 OA
ATOM     12  C   UNL A   1      34.583  22.389  24.207  1.00  0.00     0.080 A 
ATOM     13  C   UNL A   1      34.741  21.109  24.782  1.00  0.00     0.142 A 
ATOM     14  C   UNL A   1      35.757  23.101  23.938  1.00  0.00     0.030 A 
ATOM     15  C   UNL A   1      36.007  20.554  25.002  1.00  0.00     0.048 A 
ATOM     16  C   UNL A   1      37.026  22.548  24.142  1.00  0.00     0.002 A 
ATOM     17  C   UNL A   1      37.151  21.268  24.664  1.00  0.00     0.004 A 
BRANCH  10  18
ATOM     18  C   UNL A   1      32.915  23.448  22.680  1.00  0.00     0.152 C 
BRANCH  18  19
ATOM     19  C   UNL A   1      32.606  24.930  22.659  1.00  0.00    -0.029 A 
ATOM     20  C   UNL A   1      31.285  25.394  22.739  1.00  0.00     0.005 A 
ATOM     21  C   UNL A   1      33.645  25.872  22.602  1.00  0.00     0.005 A 
ATOM     22  C   UNL A   1      31.020  26.764  22.824  1.00  0.00     0.000 A 
ATOM     23  C   UNL A   1      33.383  27.236  22.736  1.00  0.00     0.000 A 
ATOM     24  C   UNL A   1      32.069  27.681  22.853  1.00  0.00     0.000 A 
ENDBRANCH  18  19
ENDBRANCH  10  18
ENDBRANCH   7   8
ENDBRANCH   5   7
ENDBRANCH   2   3
ENDBRANCH   1   2
BRANCH   1  25
ATOM     25  C   UNL A   1      33.400  27.514  26.552  1.00  0.00     0.023 C 
BRANCH  25  26
ATOM     26  C   UNL A   1      34.154  28.759  26.097  1.00  0.00     0.116 C 
BRANCH  26  27
ATOM     27  N   UNL A   1      33.893  29.916  26.938  1.00  0.00    -0.352 N 
ATOM     28  C   UNL A   1      34.670  30.461  27.931  1.00  0.00     0.251 C 
ATOM     29  H   UNL A   1      33.038  30.375  26.771  1.00  0.00     0.163 HD
ATOM     30  O   UNL A   1      34.212  31.353  28.643  1.00  0.00    -0.269 OA
BRANCH  28  31
ATOM     31  C   UNL A   1      36.041  29.955  28.167  1.00  0.00     0.039 A 
ATOM     32  C   UNL A   1      36.996  30.099  27.159  1.00  0.00     0.014 A 
ATOM     33  C   UNL A   1      36.388  29.347  29.377  1.00  0.00     0.014 A 
ATOM     34  C   UNL A   1      38.316  29.699  27.391  1.00  0.00     0.010 A 
ATOM     35  C   UNL A   1      37.718  29.020  29.634  1.00  0.00     0.010 A 
ATOM     36  C   UNL A   1      38.698  29.194  28.644  1.00  0.00    -0.014 A 
BRANCH  36  37
ATOM     37  C   UNL A   1      40.117  28.856  28.941  1.00  0.00     0.031 A 
ATOM     38  C   UNL A   1      41.030  29.882  29.557  1.00  0.00     0.074 A 
ATOM     39  C   UNL A   1      40.600  27.645  28.596  1.00  0.00     0.049 A 
ATOM     40  N   UNL A   1      42.308  29.794  29.827  1.00  0.00    -0.248 NA
ATOM     41  C   UNL A   1      40.437  31.187  29.891  1.00  0.00     0.031 C 
ATOM     42  C   UNL A   1      39.829  26.578  27.953  1.00  0.00     0.029 A 
ATOM     43  N   UNL A   1      41.858  27.108  28.729  1.00  0.00    -0.354 N 
ATOM     44  C   UNL A   1      42.673  31.031  30.348  1.00  0.00     0.074 A 
ATOM     45  C   UNL A   1      41.495  31.869  30.307  1.00  0.00     0.031 C 
ATOM     46  C   UNL A   1      40.621  25.508  27.773  1.00  0.00     0.029 A 
ATOM     47  C   UNL A   1      41.965  25.825  28.244  1.00  0.00     0.049 A 
ATOM     48  H   UNL A   1      42.611  27.596  29.134  1.00  0.00     0.167 HD
ATOM     49  C   UNL A   1      43.875  31.423  30.834  1.00  0.00     0.037 A 
ATOM     50  C   UNL A   1      43.028  24.999  28.176  1.00  0.00     0.037 A 
ATOM     51  C   UNL A   1      45.038  30.576  30.895  1.00  0.00     0.049 A 
ATOM     52  C   UNL A   1      44.357  25.466  28.710  1.00  0.00     0.074 A 
ATOM     53  C   UNL A   1      46.283  30.863  31.428  1.00  0.00     0.029 A 
ATOM     54  N   UNL A   1      45.105  29.281  30.402  1.00  0.00    -0.354 N 
ATOM     55  N   UNL A   1      44.666  26.615  29.261  1.00  0.00    -0.248 NA
ATOM     56  C   UNL A   1      45.480  24.522  28.619  1.00  0.00     0.031 C 
ATOM     57  C   UNL A   1      47.118  29.764  31.207  1.00  0.00     0.029 A 
ATOM     58  C   UNL A   1      46.378  28.767  30.592  1.00  0.00     0.049 A 
ATOM     59  H   UNL A   1      44.359  28.799  29.979  1.00  0.00     0.167 HD
ATOM     60  C   UNL A   1      46.009  26.520  29.612  1.00  0.00     0.074 A 
ATOM     61  C   UNL A   1      46.449  25.197  29.221  1.00  0.00     0.031 C 
ATOM     62  C   UNL A   1      46.804  27.444  30.206  1.00  0.00     0.037 A 
BRANCH  49  63
ATOM     63  C   UNL A   1      43.999  32.836  31.342  1.00  0.00     0.058 A 
ATOM     64  C   UNL A   1      43.773  33.163  32.688  1.00  0.00     0.135 A 
ATOM     65  C   UNL A   1      44.400  33.869  30.478  1.00  0.00     0.135 A 
ATOM     66  F   UNL A   1      43.375  32.218  33.556  1.00  0.00    -0.206 F 
ATOM     67  C   UNL A   1      43.911  34.466  33.155  1.00  0.00     0.059 A 
ATOM     68  C   UNL A   1      44.575  35.175  30.929  1.00  0.00     0.059 A 
ATOM     69  F   UNL A   1      44.630  33.616  29.180  1.00  0.00    -0.206 F 
ATOM     70  C   UNL A   1      44.315  35.466  32.268  1.00  0.00     0.060 A 
BRANCH  70  71
ATOM     71  S   UNL A   1      44.500  37.149  32.893  1.00  0.00     0.124 S 
ATOM     72  O   UNL A   1      45.400  36.942  34.024  1.00  0.00    -0.237 OA
ATOM     73  O   UNL A   1      45.074  37.844  31.745  1.00  0.00    -0.237 OA
ATOM     74  O   UNL A   1      43.136  37.535  33.239  1.00  0.00    -0.744 OA
ENDBRANCH  70  71
ENDBRANCH  49  63
BRANCH  50  75
ATOM     75  C   UNL A   1      42.880  23.637  27.594  1.00  0.00     0.058 A 
ATOM     76  C   UNL A   1      43.134  23.402  26.233  1.00  0.00     0.135 A 
ATOM     77  C   UNL A   1      42.483  22.544  28.380  1.00  0.00     0.135 A 
ATOM     78  F   UNL A   1      43.508  24.415  25.437  1.00  0.00    -0.206 F 
ATOM     79  C   UNL A   1      42.979  22.140  25.669  1.00  0.00     0.059 A 
ATOM     80  C   UNL A   1      42.350  21.267  27.846  1.00  0.00     0.059 A 
ATOM     81  F   UNL A   1      42.243  22.711  29.691  1.00  0.00    -0.206 F 
ATOM     82  C   UNL A   1      42.588  21.077  26.486  1.00  0.00     0.060 A 
BRANCH  82  83
ATOM     83  S   UNL A   1      42.429  19.436  25.751  1.00  0.00     0.124 S 
ATOM     84  O   UNL A   1      42.821  18.577  26.862  1.00  0.00    -0.237 OA
ATOM     85  O   UNL A   1      41.016  19.402  25.385  1.00  0.00    -0.237 OA
ATOM     86  O   UNL A   1      43.359  19.480  24.627  1.00  0.00    -0.744 OA
ENDBRANCH  82  83
ENDBRANCH  50  75
BRANCH  62  87
ATOM     87  C   UNL A   1      48.223  27.049  30.512  1.00  0.00     0.058 A 
ATOM     88  C   UNL A   1      49.288  27.387  29.661  1.00  0.00     0.135 A 
ATOM     89  C   UNL A   1      48.529  26.366  31.702  1.00  0.00     0.135 A 
ATOM     90  F   UNL A   1      49.052  28.033  28.508  1.00  0.00    -0.206 F 
ATOM     91  C   UNL A   1      50.600  27.041  29.967  1.00  0.00     0.059 A 
ATOM     92  C   UNL A   1      49.837  26.039  32.042  1.00  0.00     0.059 A 
ATOM     93  F   UNL A   1      47.550  26.027  32.557  1.00  0.00    -0.206 F 
ATOM     94  C   UNL A   1      50.865  26.370  31.163  1.00  0.00     0.060 A 
BRANCH  94  95
ATOM     95  S   UNL A   1      52.577  25.960  31.563  1.00  0.00     0.124 S 
ATOM     96  O   UNL A   1      52.432  24.632  32.150  1.00  0.00    -0.237 OA
ATOM     97  O   UNL A   1      53.223  26.008  30.255  1.00  0.00    -0.237 OA
ATOM     98  O   UNL A   1      52.972  27.017  32.490  1.00  0.00    -0.744 OA
ENDBRANCH  94  95
ENDBRANCH  62  87
ENDBRANCH  36  37
ENDBRANCH  28  31
ENDBRANCH  26  27
ENDBRANCH  25  26
ENDBRANCH   1  25
TORSDOF 17
ENDMDL
MODEL 3
REMARK VINA RESULT:     -11.6      1.006      8.504
REMARK SMILES O=C(C[C@@H]1COc2ccccc2N1Cc1ccccc1)NCCCCNC(=O)c1ccc(-c2c3nc(c(-c4c(F)cc(S(=O)(=O)[O-])cc4F)c4ccc([nH]4)c(-c4c(F)cc(S(=O)(=O)[O-])cc4F)c4nc(c(-c5c(F)cc(S(=O)(=O)[O-])cc5F)c5ccc2[nH]5)C=C4)C=C3)cc1
REMARK SMILES IDX 23 1 22 2 21 3 1 4 2 5 3 7 4 8 5 9 13 10 6 11 12 12 7 13
REMARK SMILES IDX 11 14 8 15 10 16 9 17 14 18 15 19 16 20 20 21 17 22 19 23
REMARK SMILES IDX 18 24 24 25 25 26 26 27 27 28 28 30 29 31 30 32 94 33 31 34
REMARK SMILES IDX 93 35 32 36 33 37 34 38 87 39 35 40 92 41 86 42 88 43 36 44
REMARK SMILES IDX 91 45 85 46 84 47 37 49 71 50 50 51 70 52 51 53 54 54 69 55
REMARK SMILES IDX 89 56 52 57 53 58 68 60 90 61 55 62 38 63 39 64 48 65 40 66
REMARK SMILES IDX 41 67 47 68 49 69 42 70 43 71 44 72 45 73 46 74 72 75 73 76
REMARK SMILES IDX 82 77 74 78 75 79 81 80 83 81 76 82 77 83 78 84 79 85 80 86
REMARK SMILES IDX 56 87 57 88 66 89 58 90 59 91 65 92 67 93 60 94 61 95 62 96
REMARK SMILES IDX 63 97 64 98
REMARK H PARENT 21 6 26 29 88 48 54 59
REMARK Flexibility Score: inf
ROOT
ATOM      1  C   UNL A   1      33.761  27.898  24.460  1.00  0.00     0.023 C 
ENDROOT
BRANCH   1   2
ATOM      2  C   UNL A   1      33.459  26.732  23.520  1.00  0.00     0.116 C 
BRANCH   2   3
ATOM      3  N   UNL A   1      34.053  25.494  23.987  1.00  0.00    -0.356 N 
ATOM      4  O   UNL A   1      33.713  24.370  22.022  1.00  0.00    -0.275 OA
ATOM      5  C   UNL A   1      34.135  24.387  23.173  1.00  0.00     0.222 C 
ATOM      6  H   UNL A   1      34.406  25.446  24.905  1.00  0.00     0.163 HD
BRANCH   5   7
ATOM      7  C   UNL A   1      34.731  23.162  23.819  1.00  0.00     0.128 C 
BRANCH   7   8
ATOM      8  C   UNL A   1      34.131  22.767  25.183  1.00  0.00     0.129 C 
ATOM      9  C   UNL A   1      35.041  21.962  26.129  1.00  0.00     0.255 C 
ATOM     10  N   UNL A   1      32.909  21.974  24.931  1.00  0.00    -0.357 N 
ATOM     11  O   UNL A   1      35.457  20.712  25.584  1.00  0.00    -0.489 OA
ATOM     12  C   UNL A   1      33.205  20.637  24.597  1.00  0.00     0.080 A 
ATOM     13  C   UNL A   1      34.442  20.047  24.936  1.00  0.00     0.142 A 
ATOM     14  C   UNL A   1      32.334  19.861  23.824  1.00  0.00     0.030 A 
ATOM     15  C   UNL A   1      34.748  18.728  24.580  1.00  0.00     0.048 A 
ATOM     16  C   UNL A   1      32.627  18.538  23.476  1.00  0.00     0.002 A 
ATOM     17  C   UNL A   1      33.831  17.966  23.864  1.00  0.00     0.004 A 
BRANCH  10  18
ATOM     18  C   UNL A   1      31.680  22.293  25.678  1.00  0.00     0.152 C 
BRANCH  18  19
ATOM     19  C   UNL A   1      30.988  23.543  25.178  1.00  0.00    -0.029 A 
ATOM     20  C   UNL A   1      30.603  24.560  26.064  1.00  0.00     0.005 A 
ATOM     21  C   UNL A   1      30.759  23.728  23.805  1.00  0.00     0.005 A 
ATOM     22  C   UNL A   1      30.060  25.753  25.579  1.00  0.00     0.000 A 
ATOM     23  C   UNL A   1      30.263  24.938  23.319  1.00  0.00     0.000 A 
ATOM     24  C   UNL A   1      29.919  25.953  24.207  1.00  0.00     0.000 A 
ENDBRANCH  18  19
ENDBRANCH  10  18
ENDBRANCH   7   8
ENDBRANCH   5   7
ENDBRANCH   2   3
ENDBRANCH   1   2
BRANCH   1  25
ATOM     25  C   UNL A   1      32.951  27.895  25.759  1.00  0.00     0.023 C 
BRANCH  25  26
ATOM     26  C   UNL A   1      33.743  28.221  27.021  1.00  0.00     0.116 C 
BRANCH  26  27
ATOM     27  N   UNL A   1      33.578  29.601  27.450  1.00  0.00    -0.352 N 
ATOM     28  C   UNL A   1      34.473  30.425  28.089  1.00  0.00     0.251 C 
ATOM     29  H   UNL A   1      32.700  30.002  27.254  1.00  0.00     0.163 HD
ATOM     30  O   UNL A   1      34.100  31.518  28.512  1.00  0.00    -0.269 OA
BRANCH  28  31
ATOM     31  C   UNL A   1      35.871  29.987  28.298  1.00  0.00     0.039 A 
ATOM     32  C   UNL A   1      36.772  30.077  27.234  1.00  0.00     0.014 A 
ATOM     33  C   UNL A   1      36.298  29.497  29.535  1.00  0.00     0.014 A 
ATOM     34  C   UNL A   1      38.115  29.742  27.433  1.00  0.00     0.010 A 
ATOM     35  C   UNL A   1      37.650  29.238  29.751  1.00  0.00     0.010 A 
ATOM     36  C   UNL A   1      38.575  29.360  28.703  1.00  0.00    -0.014 A 
BRANCH  36  37
ATOM     37  C   UNL A   1      40.018  29.096  28.956  1.00  0.00     0.031 A 
ATOM     38  C   UNL A   1      40.619  27.760  28.610  1.00  0.00     0.074 A 
ATOM     39  C   UNL A   1      40.772  30.039  29.556  1.00  0.00     0.049 A 
ATOM     40  N   UNL A   1      41.836  27.324  28.815  1.00  0.00    -0.248 NA
ATOM     41  C   UNL A   1      39.731  26.775  27.973  1.00  0.00     0.031 C 
ATOM     42  C   UNL A   1      40.299  31.359  29.981  1.00  0.00     0.029 A 
ATOM     43  N   UNL A   1      42.097  30.032  29.922  1.00  0.00    -0.354 N 
ATOM     44  C   UNL A   1      41.856  26.015  28.347  1.00  0.00     0.074 A 
ATOM     45  C   UNL A   1      40.516  25.709  27.895  1.00  0.00     0.031 C 
ATOM     46  C   UNL A   1      41.320  32.041  30.523  1.00  0.00     0.029 A 
ATOM     47  C   UNL A   1      42.510  31.196  30.527  1.00  0.00     0.049 A 
ATOM     48  H   UNL A   1      42.694  29.265  29.765  1.00  0.00     0.167 HD
ATOM     49  C   UNL A   1      42.900  25.155  28.280  1.00  0.00     0.037 A 
ATOM     50  C   UNL A   1      43.708  31.542  31.039  1.00  0.00     0.037 A 
ATOM     51  C   UNL A   1      44.239  25.474  28.708  1.00  0.00     0.049 A 
ATOM     52  C   UNL A   1      44.848  30.562  30.966  1.00  0.00     0.074 A 
ATOM     53  C   UNL A   1      45.377  24.691  28.623  1.00  0.00     0.029 A 
ATOM     54  N   UNL A   1      44.618  26.665  29.308  1.00  0.00    -0.354 N 
ATOM     55  N   UNL A   1      44.865  29.352  30.457  1.00  0.00    -0.248 NA
ATOM     56  C   UNL A   1      46.135  30.993  31.530  1.00  0.00     0.031 C 
ATOM     57  C   UNL A   1      46.432  25.386  29.221  1.00  0.00     0.029 A 
ATOM     58  C   UNL A   1      45.967  26.628  29.624  1.00  0.00     0.049 A 
ATOM     59  H   UNL A   1      44.018  27.426  29.483  1.00  0.00     0.167 HD
ATOM     60  C   UNL A   1      46.169  28.893  30.611  1.00  0.00     0.074 A 
ATOM     61  C   UNL A   1      46.914  29.959  31.249  1.00  0.00     0.031 C 
ATOM     62  C   UNL A   1      46.702  27.698  30.253  1.00  0.00     0.037 A 
BRANCH  49  63
ATOM     63  C   UNL A   1      42.643  23.780  27.723  1.00  0.00     0.058 A 
ATOM     64  C   UNL A   1      42.616  23.531  26.342  1.00  0.00     0.135 A 
ATOM     65  C   UNL A   1      42.470  22.684  28.587  1.00  0.00     0.135 A 
ATOM     66  F   UNL A   1      42.762  24.543  25.471  1.00  0.00    -0.206 F 
ATOM     67  C   UNL A   1      42.400  22.255  25.835  1.00  0.00     0.059 A 
ATOM     68  C   UNL A   1      42.283  21.393  28.102  1.00  0.00     0.059 A 
ATOM     69  F   UNL A   1      42.485  22.862  29.917  1.00  0.00    -0.206 F 
ATOM     70  C   UNL A   1      42.237  21.190  26.723  1.00  0.00     0.060 A 
BRANCH  70  71
ATOM     71  S   UNL A   1      41.967  19.538  26.048  1.00  0.00     0.124 S 
ATOM     72  O   UNL A   1      42.376  18.696  27.169  1.00  0.00    -0.237 OA
ATOM     73  O   UNL A   1      40.538  19.552  25.755  1.00  0.00    -0.237 OA
ATOM     74  O   UNL A   1      42.844  19.499  24.883  1.00  0.00    -0.744 OA
ENDBRANCH  70  71
ENDBRANCH  49  63
BRANCH  50  75
ATOM     75  C   UNL A   1      43.899  32.885  31.652  1.00  0.00     0.058 A 
ATOM     76  C   UNL A   1      43.735  33.078  33.033  1.00  0.00     0.135 A 
ATOM     77  C   UNL A   1      44.248  34.001  30.875  1.00  0.00     0.135 A 
ATOM     78  F   UNL A   1      43.394  32.045  33.818  1.00  0.00    -0.206 F 
ATOM     79  C   UNL A   1      43.889  34.330  33.618  1.00  0.00     0.059 A 
ATOM     80  C   UNL A   1      44.436  35.258  31.442  1.00  0.00     0.059 A 
ATOM     81  F   UNL A   1      44.432  33.869  29.552  1.00  0.00    -0.206 F 
ATOM     82  C   UNL A   1      44.242  35.415  32.813  1.00  0.00     0.060 A 
BRANCH  82  83
ATOM     83  S   UNL A   1      44.477  37.028  33.589  1.00  0.00     0.124 S 
ATOM     84  O   UNL A   1      43.103  37.415  33.885  1.00  0.00    -0.237 OA
ATOM     85  O   UNL A   1      45.310  36.694  34.741  1.00  0.00    -0.237 OA
ATOM     86  O   UNL A   1      45.143  37.806  32.549  1.00  0.00    -0.744 OA
ENDBRANCH  82  83
ENDBRANCH  50  75
BRANCH  62  87
ATOM     87  C   UNL A   1      48.170  27.488  30.502  1.00  0.00     0.058 A 
ATOM     88  C   UNL A   1      49.145  27.870  29.567  1.00  0.00     0.135 A 
ATOM     89  C   UNL A   1      48.611  26.943  31.721  1.00  0.00     0.135 A 
ATOM     90  F   UNL A   1      48.780  28.389  28.385  1.00  0.00    -0.206 F 
ATOM     91  C   UNL A   1      50.502  27.697  29.820  1.00  0.00     0.059 A 
ATOM     92  C   UNL A   1      49.964  26.792  32.007  1.00  0.00     0.059 A 
ATOM     93  F   UNL A   1      47.723  26.570  32.656  1.00  0.00    -0.206 F 
ATOM     94  C   UNL A   1      50.902  27.160  31.046  1.00  0.00     0.060 A 
BRANCH  94  95
ATOM     95  S   UNL A   1      52.667  26.975  31.374  1.00  0.00     0.124 S 
ATOM     96  O   UNL A   1      52.821  27.751  32.600  1.00  0.00    -0.237 OA
ATOM     97  O   UNL A   1      52.809  25.529  31.516  1.00  0.00    -0.237 OA
ATOM     98  O   UNL A   1      53.296  27.547  30.187  1.00  0.00    -0.744 OA
ENDBRANCH  94  95
ENDBRANCH  62  87
ENDBRANCH  36  37
ENDBRANCH  28  31
ENDBRANCH  26  27
ENDBRANCH  25  26
ENDBRANCH   1  25
TORSDOF 17
ENDMDL
