MODEL 1
REMARK VINA RESULT:     -10.4      0.000      0.000
REMARK SMILES CC[C@@H](C)SCc1cc(F)cc(/C=C/C(=O)NCCCCNC(=O)c2ccc(-c3c4nc(c(-c5c(F)cc(S(=O)(=O)[O-])cc5F)c5ccc([nH]5)c(-c5c(F)cc(S(=O)(=O)[O-])cc5F)c5nc(c(-c6c(F)cc(S(=O)(=O)[O-])cc6F)c6ccc3[nH]6)C=C5)C=C4)cc2)c1
REMARK SMILES IDX 18 1 17 2 15 3 16 4 14 6 13 7 12 8 7 9 8 10 91 11 9 12 10 13
REMARK SMILES IDX 11 14 6 15 5 16 3 17 4 18 2 19 1 20 19 21 20 22 21 23 22 24
REMARK SMILES IDX 23 25 24 27 25 28 26 29 90 30 27 31 89 32 28 33 29 34 30 35
REMARK SMILES IDX 83 36 31 37 88 38 82 39 84 40 32 41 87 42 81 43 80 44 33 46
REMARK SMILES IDX 67 47 46 48 66 49 47 50 50 51 65 52 85 53 48 54 49 55 64 57
REMARK SMILES IDX 86 58 51 59 34 60 35 61 44 62 36 63 37 64 43 65 45 66 38 67
REMARK SMILES IDX 39 68 40 69 41 70 42 71 68 72 69 73 78 74 70 75 71 76 77 77
REMARK SMILES IDX 79 78 72 79 73 80 74 81 75 82 76 83 52 84 53 85 62 86 54 87
REMARK SMILES IDX 55 88 61 89 63 90 56 91 57 92 58 93 59 94 60 95
REMARK H PARENT 17 5 22 26 84 45 50 56
REMARK Flexibility Score: inf
ROOT
ATOM      1  C   UNL A   1      32.804  22.377  25.719  1.00  0.00     0.116 C 
ENDROOT
BRANCH   1   2
ATOM      2  N   UNL A   1      31.651  22.416  26.602  1.00  0.00    -0.353 N 
ATOM      3  C   UNL A   1      30.708  23.379  26.786  1.00  0.00     0.243 C 
ATOM      4  O   UNL A   1      29.747  23.168  27.522  1.00  0.00    -0.270 OA
ATOM      5  H   UNL A   1      31.533  21.613  27.161  1.00  0.00     0.163 HD
BRANCH   3   6
ATOM      6  C   UNL A   1      30.779  24.661  26.048  1.00  0.00     0.072 C 
ATOM      7  C   UNL A   1      29.971  24.959  25.023  1.00  0.00     0.014 C 
BRANCH   7   8
ATOM      8  C   UNL A   1      30.019  26.205  24.254  1.00  0.00    -0.022 A 
ATOM      9  C   UNL A   1      31.368  28.130  23.565  1.00  0.00    -0.035 A 
ATOM     10  C   UNL A   1      30.208  28.739  23.069  1.00  0.00     0.043 A 
ATOM     11  C   UNL A   1      31.263  26.836  24.104  1.00  0.00     0.013 A 
ATOM     12  C   UNL A   1      28.981  28.091  23.178  1.00  0.00     0.124 A 
ATOM     13  F   UNL A   1      27.877  28.706  22.733  1.00  0.00    -0.207 F 
ATOM     14  C   UNL A   1      28.872  26.843  23.780  1.00  0.00     0.047 A 
BRANCH   9  15
ATOM     15  C   UNL A   1      32.685  28.860  23.535  1.00  0.00     0.105 C 
BRANCH  15  16
ATOM     16  S   UNL A   1      33.999  28.139  24.582  1.00  0.00    -0.154 SA
BRANCH  16  17
ATOM     17  C   UNL A   1      33.620  28.767  26.278  1.00  0.00     0.043 C 
ATOM     18  C   UNL A   1      34.841  29.343  26.992  1.00  0.00     0.019 C 
BRANCH  17  19
ATOM     19  C   UNL A   1      32.844  27.743  27.116  1.00  0.00     0.011 C 
ATOM     20  C   UNL A   1      31.480  28.255  27.563  1.00  0.00     0.005 C 
ENDBRANCH  17  19
ENDBRANCH  16  17
ENDBRANCH  15  16
ENDBRANCH   9  15
ENDBRANCH   7   8
ENDBRANCH   3   6
ENDBRANCH   1   2
BRANCH   1  21
ATOM     21  C   UNL A   1      34.049  22.938  26.408  1.00  0.00     0.023 C 
BRANCH  21  22
ATOM     22  C   UNL A   1      34.948  23.785  25.501  1.00  0.00     0.023 C 
BRANCH  22  23
ATOM     23  C   UNL A   1      36.338  24.077  26.058  1.00  0.00     0.116 C 
BRANCH  23  24
ATOM     24  N   UNL A   1      37.222  22.924  26.028  1.00  0.00    -0.352 N 
ATOM     25  C   UNL A   1      38.568  22.870  26.311  1.00  0.00     0.251 C 
ATOM     26  H   UNL A   1      36.804  22.071  25.771  1.00  0.00     0.163 HD
ATOM     27  O   UNL A   1      39.192  21.835  26.130  1.00  0.00    -0.269 OA
BRANCH  25  28
ATOM     28  C   UNL A   1      39.257  24.085  26.799  1.00  0.00     0.039 A 
ATOM     29  C   UNL A   1      39.909  24.905  25.874  1.00  0.00     0.014 A 
ATOM     30  C   UNL A   1      39.253  24.419  28.156  1.00  0.00     0.014 A 
ATOM     31  C   UNL A   1      40.515  26.087  26.304  1.00  0.00     0.010 A 
ATOM     32  C   UNL A   1      39.799  25.630  28.572  1.00  0.00     0.010 A 
ATOM     33  C   UNL A   1      40.443  26.471  27.653  1.00  0.00    -0.014 A 
BRANCH  33  34
ATOM     34  C   UNL A   1      41.065  27.732  28.127  1.00  0.00     0.031 A 
ATOM     35  C   UNL A   1      42.556  27.914  28.032  1.00  0.00     0.074 A 
ATOM     36  C   UNL A   1      40.299  28.692  28.681  1.00  0.00     0.049 A 
ATOM     37  N   UNL A   1      43.294  28.912  28.444  1.00  0.00    -0.248 NA
ATOM     38  C   UNL A   1      43.321  26.816  27.416  1.00  0.00     0.031 C 
ATOM     39  C   UNL A   1      38.848  28.614  28.866  1.00  0.00     0.029 A 
ATOM     40  N   UNL A   1      40.632  29.920  29.193  1.00  0.00    -0.354 N 
ATOM     41  C   UNL A   1      44.606  28.559  28.150  1.00  0.00     0.074 A 
ATOM     42  C   UNL A   1      44.569  27.231  27.577  1.00  0.00     0.031 C 
ATOM     43  C   UNL A   1      38.413  29.757  29.420  1.00  0.00     0.029 A 
ATOM     44  C   UNL A   1      39.554  30.636  29.660  1.00  0.00     0.049 A 
ATOM     45  H   UNL A   1      41.556  30.258  29.225  1.00  0.00     0.167 HD
ATOM     46  C   UNL A   1      45.737  29.285  28.316  1.00  0.00     0.037 A 
ATOM     47  C   UNL A   1      39.493  31.864  30.211  1.00  0.00     0.037 A 
ATOM     48  C   UNL A   1      45.762  30.620  28.855  1.00  0.00     0.049 A 
ATOM     49  C   UNL A   1      40.758  32.664  30.362  1.00  0.00     0.074 A 
ATOM     50  C   UNL A   1      46.852  31.453  29.038  1.00  0.00     0.029 A 
ATOM     51  N   UNL A   1      44.645  31.322  29.284  1.00  0.00    -0.354 N 
ATOM     52  N   UNL A   1      41.988  32.324  30.055  1.00  0.00    -0.248 NA
ATOM     53  C   UNL A   1      40.630  34.015  30.923  1.00  0.00     0.031 C 
ATOM     54  C   UNL A   1      46.397  32.650  29.601  1.00  0.00     0.029 A 
ATOM     55  C   UNL A   1      45.019  32.579  29.728  1.00  0.00     0.049 A 
ATOM     56  H   UNL A   1      43.723  30.977  29.274  1.00  0.00     0.167 HD
ATOM     57  C   UNL A   1      42.774  33.432  30.353  1.00  0.00     0.074 A 
ATOM     58  C   UNL A   1      41.880  34.453  30.862  1.00  0.00     0.031 C 
ATOM     59  C   UNL A   1      44.113  33.589  30.212  1.00  0.00     0.037 A 
BRANCH  46  60
ATOM     60  C   UNL A   1      47.036  28.662  27.889  1.00  0.00     0.058 A 
ATOM     61  C   UNL A   1      47.842  27.980  28.815  1.00  0.00     0.135 A 
ATOM     62  C   UNL A   1      47.505  28.774  26.570  1.00  0.00     0.135 A 
ATOM     63  F   UNL A   1      47.440  27.836  30.087  1.00  0.00    -0.206 F 
ATOM     64  C   UNL A   1      49.072  27.442  28.450  1.00  0.00     0.059 A 
ATOM     65  C   UNL A   1      48.719  28.220  26.177  1.00  0.00     0.059 A 
ATOM     66  F   UNL A   1      46.761  29.394  25.641  1.00  0.00    -0.206 F 
ATOM     67  C   UNL A   1      49.503  27.567  27.127  1.00  0.00     0.060 A 
BRANCH  67  68
ATOM     68  S   UNL A   1      51.079  26.825  26.658  1.00  0.00     0.124 S 
ATOM     69  O   UNL A   1      50.879  26.569  25.236  1.00  0.00    -0.237 OA
ATOM     70  O   UNL A   1      52.028  27.885  26.987  1.00  0.00    -0.237 OA
ATOM     71  O   UNL A   1      51.161  25.640  27.507  1.00  0.00    -0.744 OA
ENDBRANCH  67  68
ENDBRANCH  46  60
BRANCH  47  72
ATOM     72  C   UNL A   1      38.175  32.431  30.601  1.00  0.00     0.058 A 
ATOM     73  C   UNL A   1      37.420  33.209  29.711  1.00  0.00     0.135 A 
ATOM     74  C   UNL A   1      37.665  32.235  31.894  1.00  0.00     0.135 A 
ATOM     75  F   UNL A   1      37.869  33.437  28.468  1.00  0.00    -0.206 F 
ATOM     76  C   UNL A   1      36.216  33.790  30.094  1.00  0.00     0.059 A 
ATOM     77  C   UNL A   1      36.452  32.786  32.294  1.00  0.00     0.059 A 
ATOM     78  F   UNL A   1      38.348  31.490  32.776  1.00  0.00    -0.206 F 
ATOM     79  C   UNL A   1      35.742  33.577  31.390  1.00  0.00     0.060 A 
BRANCH  79  80
ATOM     80  S   UNL A   1      34.185  34.353  31.874  1.00  0.00     0.124 S 
ATOM     81  O   UNL A   1      33.493  34.440  30.592  1.00  0.00    -0.237 OA
ATOM     82  O   UNL A   1      33.644  33.387  32.824  1.00  0.00    -0.237 OA
ATOM     83  O   UNL A   1      34.607  35.626  32.449  1.00  0.00    -0.744 OA
ENDBRANCH  79  80
ENDBRANCH  47  72
BRANCH  59  84
ATOM     84  C   UNL A   1      44.699  34.928  30.564  1.00  0.00     0.058 A 
ATOM     85  C   UNL A   1      45.163  35.173  31.867  1.00  0.00     0.135 A 
ATOM     86  C   UNL A   1      44.734  35.986  29.643  1.00  0.00     0.135 A 
ATOM     87  F   UNL A   1      45.145  34.196  32.787  1.00  0.00    -0.206 F 
ATOM     88  C   UNL A   1      45.630  36.426  32.247  1.00  0.00     0.059 A 
ATOM     89  C   UNL A   1      45.220  37.241  29.996  1.00  0.00     0.059 A 
ATOM     90  F   UNL A   1      44.310  35.798  28.383  1.00  0.00    -0.206 F 
ATOM     91  C   UNL A   1      45.652  37.456  31.305  1.00  0.00     0.060 A 
BRANCH  91  92
ATOM     92  S   UNL A   1      46.281  39.071  31.811  1.00  0.00     0.124 S 
ATOM     93  O   UNL A   1      47.582  39.103  31.152  1.00  0.00    -0.237 OA
ATOM     94  O   UNL A   1      45.272  39.979  31.272  1.00  0.00    -0.237 OA
ATOM     95  O   UNL A   1      46.315  38.978  33.267  1.00  0.00    -0.744 OA
ENDBRANCH  91  92
ENDBRANCH  59  84
ENDBRANCH  33  34
ENDBRANCH  25  28
ENDBRANCH  23  24
ENDBRANCH  22  23
ENDBRANCH  21  22
ENDBRANCH   1  21
TORSDOF 19
ENDMDL
MODEL 2
REMARK VINA RESULT:     -10.4      5.187      6.972
REMARK SMILES CC[C@@H](C)SCc1cc(F)cc(/C=C/C(=O)NCCCCNC(=O)c2ccc(-c3c4nc(c(-c5c(F)cc(S(=O)(=O)[O-])cc5F)c5ccc([nH]5)c(-c5c(F)cc(S(=O)(=O)[O-])cc5F)c5nc(c(-c6c(F)cc(S(=O)(=O)[O-])cc6F)c6ccc3[nH]6)C=C5)C=C4)cc2)c1
REMARK SMILES IDX 18 1 17 2 15 3 16 4 14 6 13 7 12 8 7 9 8 10 91 11 9 12 10 13
REMARK SMILES IDX 11 14 6 15 5 16 3 17 4 18 2 19 1 20 19 21 20 22 21 23 22 24
REMARK SMILES IDX 23 25 24 27 25 28 26 29 90 30 27 31 89 32 28 33 29 34 30 35
REMARK SMILES IDX 83 36 31 37 88 38 82 39 84 40 32 41 87 42 81 43 80 44 33 46
REMARK SMILES IDX 67 47 46 48 66 49 47 50 50 51 65 52 85 53 48 54 49 55 64 57
REMARK SMILES IDX 86 58 51 59 34 60 35 61 44 62 36 63 37 64 43 65 45 66 38 67
REMARK SMILES IDX 39 68 40 69 41 70 42 71 68 72 69 73 78 74 70 75 71 76 77 77
REMARK SMILES IDX 79 78 72 79 73 80 74 81 75 82 76 83 52 84 53 85 62 86 54 87
REMARK SMILES IDX 55 88 61 89 63 90 56 91 57 92 58 93 59 94 60 95
REMARK H PARENT 17 5 22 26 84 45 50 56
REMARK Flexibility Score: inf
ROOT
ATOM      1  C   UNL A   1      39.917  21.320  26.497  1.00  0.00     0.116 C 
ENDROOT
BRANCH   1   2
ATOM      2  N   UNL A   1      39.438  22.687  26.620  1.00  0.00    -0.353 N 
ATOM      3  C   UNL A   1      38.280  23.261  26.195  1.00  0.00     0.243 C 
ATOM      4  O   UNL A   1      38.026  24.426  26.493  1.00  0.00    -0.270 OA
ATOM      5  H   UNL A   1      40.053  23.298  27.088  1.00  0.00     0.163 HD
BRANCH   3   6
ATOM      6  C   UNL A   1      37.278  22.478  25.439  1.00  0.00     0.072 C 
ATOM      7  C   UNL A   1      35.972  22.485  25.733  1.00  0.00     0.014 C 
BRANCH   7   8
ATOM      8  C   UNL A   1      34.949  21.711  25.025  1.00  0.00    -0.022 A 
ATOM      9  C   UNL A   1      32.904  21.778  23.680  1.00  0.00    -0.035 A 
ATOM     10  C   UNL A   1      32.764  20.396  23.859  1.00  0.00     0.043 A 
ATOM     11  C   UNL A   1      34.035  22.410  24.224  1.00  0.00     0.013 A 
ATOM     12  C   UNL A   1      33.698  19.696  24.617  1.00  0.00     0.124 A 
ATOM     13  F   UNL A   1      33.528  18.380  24.810  1.00  0.00    -0.207 F 
ATOM     14  C   UNL A   1      34.775  20.340  25.216  1.00  0.00     0.047 A 
BRANCH   9  15
ATOM     15  C   UNL A   1      31.851  22.560  22.939  1.00  0.00     0.105 C 
BRANCH  15  16
ATOM     16  S   UNL A   1      31.226  24.043  23.808  1.00  0.00    -0.154 SA
BRANCH  16  17
ATOM     17  C   UNL A   1      31.822  25.455  22.777  1.00  0.00     0.043 C 
ATOM     18  C   UNL A   1      33.300  25.775  22.993  1.00  0.00     0.019 C 
BRANCH  17  19
ATOM     19  C   UNL A   1      30.906  26.680  22.885  1.00  0.00     0.011 C 
ATOM     20  C   UNL A   1      30.111  26.713  24.185  1.00  0.00     0.005 C 
ENDBRANCH  17  19
ENDBRANCH  16  17
ENDBRANCH  15  16
ENDBRANCH   9  15
ENDBRANCH   7   8
ENDBRANCH   3   6
ENDBRANCH   1   2
BRANCH   1  21
ATOM     21  C   UNL A   1      41.373  21.201  26.951  1.00  0.00     0.023 C 
BRANCH  21  22
ATOM     22  C   UNL A   1      41.789  22.218  28.018  1.00  0.00     0.023 C 
BRANCH  22  23
ATOM     23  C   UNL A   1      42.830  23.239  27.569  1.00  0.00     0.116 C 
BRANCH  23  24
ATOM     24  N   UNL A   1      42.476  23.913  26.330  1.00  0.00    -0.352 N 
ATOM     25  C   UNL A   1      41.942  25.169  26.162  1.00  0.00     0.251 C 
ATOM     26  H   UNL A   1      42.639  23.403  25.504  1.00  0.00     0.163 HD
ATOM     27  O   UNL A   1      41.597  25.546  25.051  1.00  0.00    -0.269 OA
BRANCH  25  28
ATOM     28  C   UNL A   1      41.753  26.043  27.341  1.00  0.00     0.039 A 
ATOM     29  C   UNL A   1      42.634  27.109  27.535  1.00  0.00     0.014 A 
ATOM     30  C   UNL A   1      40.710  25.817  28.244  1.00  0.00     0.014 A 
ATOM     31  C   UNL A   1      42.439  27.981  28.609  1.00  0.00     0.010 A 
ATOM     32  C   UNL A   1      40.477  26.725  29.273  1.00  0.00     0.010 A 
ATOM     33  C   UNL A   1      41.345  27.809  29.471  1.00  0.00    -0.014 A 
BRANCH  33  34
ATOM     34  C   UNL A   1      41.109  28.735  30.607  1.00  0.00     0.031 A 
ATOM     35  C   UNL A   1      41.988  28.663  31.827  1.00  0.00     0.074 A 
ATOM     36  C   UNL A   1      40.083  29.608  30.561  1.00  0.00     0.049 A 
ATOM     37  N   UNL A   1      41.908  29.339  32.943  1.00  0.00    -0.248 NA
ATOM     38  C   UNL A   1      43.084  27.681  31.798  1.00  0.00     0.031 C 
ATOM     39  C   UNL A   1      39.138  29.743  29.450  1.00  0.00     0.029 A 
ATOM     40  N   UNL A   1      39.662  30.544  31.471  1.00  0.00    -0.354 N 
ATOM     41  C   UNL A   1      42.931  28.858  33.751  1.00  0.00     0.074 A 
ATOM     42  C   UNL A   1      43.582  27.793  33.021  1.00  0.00     0.031 C 
ATOM     43  C   UNL A   1      38.267  30.727  29.731  1.00  0.00     0.029 A 
ATOM     44  C   UNL A   1      38.571  31.271  31.052  1.00  0.00     0.049 A 
ATOM     45  H   UNL A   1      40.097  30.683  32.342  1.00  0.00     0.167 HD
ATOM     46  C   UNL A   1      43.312  29.283  34.979  1.00  0.00     0.037 A 
ATOM     47  C   UNL A   1      37.898  32.267  31.661  1.00  0.00     0.037 A 
ATOM     48  C   UNL A   1      42.681  30.366  35.686  1.00  0.00     0.049 A 
ATOM     49  C   UNL A   1      38.355  32.740  33.014  1.00  0.00     0.074 A 
ATOM     50  C   UNL A   1      43.010  30.893  36.923  1.00  0.00     0.029 A 
ATOM     51  N   UNL A   1      41.602  31.099  35.213  1.00  0.00    -0.354 N 
ATOM     52  N   UNL A   1      39.341  32.290  33.753  1.00  0.00    -0.248 NA
ATOM     53  C   UNL A   1      37.618  33.861  33.612  1.00  0.00     0.031 C 
ATOM     54  C   UNL A   1      42.113  31.928  37.209  1.00  0.00     0.029 A 
ATOM     55  C   UNL A   1      41.254  32.074  36.131  1.00  0.00     0.049 A 
ATOM     56  H   UNL A   1      41.151  30.947  34.351  1.00  0.00     0.167 HD
ATOM     57  C   UNL A   1      39.365  33.095  34.887  1.00  0.00     0.074 A 
ATOM     58  C   UNL A   1      38.295  34.061  34.734  1.00  0.00     0.031 C 
ATOM     59  C   UNL A   1      40.200  33.041  35.953  1.00  0.00     0.037 A 
BRANCH  46  60
ATOM     60  C   UNL A   1      44.479  28.591  35.627  1.00  0.00     0.058 A 
ATOM     61  C   UNL A   1      44.280  27.478  36.460  1.00  0.00     0.135 A 
ATOM     62  C   UNL A   1      45.793  29.053  35.455  1.00  0.00     0.135 A 
ATOM     63  F   UNL A   1      43.046  26.989  36.654  1.00  0.00    -0.206 F 
ATOM     64  C   UNL A   1      45.342  26.857  37.109  1.00  0.00     0.059 A 
ATOM     65  C   UNL A   1      46.874  28.430  36.073  1.00  0.00     0.059 A 
ATOM     66  F   UNL A   1      46.041  30.098  34.649  1.00  0.00    -0.206 F 
ATOM     67  C   UNL A   1      46.637  27.340  36.909  1.00  0.00     0.060 A 
BRANCH  67  68
ATOM     68  S   UNL A   1      48.010  26.497  37.721  1.00  0.00     0.124 S 
ATOM     69  O   UNL A   1      47.794  26.851  39.119  1.00  0.00    -0.237 OA
ATOM     70  O   UNL A   1      47.763  25.101  37.372  1.00  0.00    -0.237 OA
ATOM     71  O   UNL A   1      49.189  27.089  37.094  1.00  0.00    -0.744 OA
ENDBRANCH  67  68
ENDBRANCH  46  60
BRANCH  47  72
ATOM     72  C   UNL A   1      36.760  32.920  30.963  1.00  0.00     0.058 A 
ATOM     73  C   UNL A   1      36.968  33.845  29.929  1.00  0.00     0.135 A 
ATOM     74  C   UNL A   1      35.437  32.658  31.349  1.00  0.00     0.135 A 
ATOM     75  F   UNL A   1      38.215  34.140  29.530  1.00  0.00    -0.206 F 
ATOM     76  C   UNL A   1      35.907  34.502  29.315  1.00  0.00     0.059 A 
ATOM     77  C   UNL A   1      34.357  33.285  30.736  1.00  0.00     0.059 A 
ATOM     78  F   UNL A   1      35.188  31.775  32.328  1.00  0.00    -0.206 F 
ATOM     79  C   UNL A   1      34.604  34.219  29.730  1.00  0.00     0.060 A 
BRANCH  79  80
ATOM     80  S   UNL A   1      33.240  35.095  28.933  1.00  0.00     0.124 S 
ATOM     81  O   UNL A   1      32.409  35.442  30.081  1.00  0.00    -0.237 OA
ATOM     82  O   UNL A   1      33.927  36.207  28.286  1.00  0.00    -0.237 OA
ATOM     83  O   UNL A   1      32.679  34.096  28.029  1.00  0.00    -0.744 OA
ENDBRANCH  79  80
ENDBRANCH  47  72
BRANCH  59  84
ATOM     84  C   UNL A   1      40.032  34.083  37.024  1.00  0.00     0.058 A 
ATOM     85  C   UNL A   1      39.162  33.851  38.102  1.00  0.00     0.135 A 
ATOM     86  C   UNL A   1      40.669  35.331  36.949  1.00  0.00     0.135 A 
ATOM     87  F   UNL A   1      38.525  32.676  38.216  1.00  0.00    -0.206 F 
ATOM     88  C   UNL A   1      38.919  34.827  39.061  1.00  0.00     0.059 A 
ATOM     89  C   UNL A   1      40.459  36.313  37.911  1.00  0.00     0.059 A 
ATOM     90  F   UNL A   1      41.517  35.596  35.942  1.00  0.00    -0.206 F 
ATOM     91  C   UNL A   1      39.570  36.057  38.956  1.00  0.00     0.060 A 
BRANCH  91  92
ATOM     92  S   UNL A   1      39.259  37.306  40.222  1.00  0.00     0.124 S 
ATOM     93  O   UNL A   1      38.418  38.257  39.502  1.00  0.00    -0.237 OA
ATOM     94  O   UNL A   1      38.593  36.532  41.266  1.00  0.00    -0.237 OA
ATOM     95  O   UNL A   1      40.596  37.781  40.562  1.00  0.00    -0.744 OA
ENDBRANCH  91  92
ENDBRANCH  59  84
ENDBRANCH  33  34
ENDBRANCH  25  28
ENDBRANCH  23  24
ENDBRANCH  22  23
ENDBRANCH  21  22
ENDBRANCH   1  21
TORSDOF 19
ENDMDL
MODEL 3
REMARK VINA RESULT:     -10.3      5.907     10.918
REMARK SMILES CC[C@@H](C)SCc1cc(F)cc(/C=C/C(=O)NCCCCNC(=O)c2ccc(-c3c4nc(c(-c5c(F)cc(S(=O)(=O)[O-])cc5F)c5ccc([nH]5)c(-c5c(F)cc(S(=O)(=O)[O-])cc5F)c5nc(c(-c6c(F)cc(S(=O)(=O)[O-])cc6F)c6ccc3[nH]6)C=C5)C=C4)cc2)c1
REMARK SMILES IDX 18 1 17 2 15 3 16 4 14 6 13 7 12 8 7 9 8 10 91 11 9 12 10 13
REMARK SMILES IDX 11 14 6 15 5 16 3 17 4 18 2 19 1 20 19 21 20 22 21 23 22 24
REMARK SMILES IDX 23 25 24 27 25 28 26 29 90 30 27 31 89 32 28 33 29 34 30 35
REMARK SMILES IDX 83 36 31 37 88 38 82 39 84 40 32 41 87 42 81 43 80 44 33 46
REMARK SMILES IDX 67 47 46 48 66 49 47 50 50 51 65 52 85 53 48 54 49 55 64 57
REMARK SMILES IDX 86 58 51 59 34 60 35 61 44 62 36 63 37 64 43 65 45 66 38 67
REMARK SMILES IDX 39 68 40 69 41 70 42 71 68 72 69 73 78 74 70 75 71 76 77 77
REMARK SMILES IDX 79 78 72 79 73 80 74 81 75 82 76 83 52 84 53 85 62 86 54 87
REMARK SMILES IDX 55 88 61 89 63 90 56 91 57 92 58 93 59 94 60 95
REMARK H PARENT 17 5 22 26 84 45 50 56
REMARK Flexibility Score: inf
ROOT
ATOM      1  C   UNL A   1      34.879  32.396  27.774  1.00  0.00     0.116 C 
ENDROOT
BRANCH   1   2
ATOM      2  N   UNL A   1      35.701  31.242  28.095  1.00  0.00    -0.353 N 
ATOM      3  C   UNL A   1      35.483  29.915  27.888  1.00  0.00     0.243 C 
ATOM      4  O   UNL A   1      36.363  29.099  28.150  1.00  0.00    -0.270 OA
ATOM      5  H   UNL A   1      36.555  31.455  28.535  1.00  0.00     0.163 HD
BRANCH   3   6
ATOM      6  C   UNL A   1      34.223  29.439  27.275  1.00  0.00     0.072 C 
ATOM      7  C   UNL A   1      34.157  28.366  26.478  1.00  0.00     0.014 C 
BRANCH   7   8
ATOM      8  C   UNL A   1      32.937  27.872  25.835  1.00  0.00    -0.022 A 
ATOM      9  C   UNL A   1      31.190  28.294  24.172  1.00  0.00    -0.035 A 
ATOM     10  C   UNL A   1      30.459  27.222  24.696  1.00  0.00     0.043 A 
ATOM     11  C   UNL A   1      32.455  28.570  24.718  1.00  0.00     0.013 A 
ATOM     12  C   UNL A   1      30.960  26.501  25.777  1.00  0.00     0.124 A 
ATOM     13  F   UNL A   1      30.228  25.503  26.292  1.00  0.00    -0.207 F 
ATOM     14  C   UNL A   1      32.178  26.826  26.362  1.00  0.00     0.047 A 
BRANCH   9  15
ATOM     15  C   UNL A   1      30.617  29.137  23.063  1.00  0.00     0.105 C 
BRANCH  15  16
ATOM     16  S   UNL A   1      29.565  30.531  23.607  1.00  0.00    -0.154 SA
BRANCH  16  17
ATOM     17  C   UNL A   1      27.986  30.293  22.679  1.00  0.00     0.043 C 
ATOM     18  C   UNL A   1      27.257  29.004  23.054  1.00  0.00     0.019 C 
BRANCH  17  19
ATOM     19  C   UNL A   1      28.168  30.478  21.167  1.00  0.00     0.011 C 
ATOM     20  C   UNL A   1      27.931  31.914  20.713  1.00  0.00     0.005 C 
ENDBRANCH  17  19
ENDBRANCH  16  17
ENDBRANCH  15  16
ENDBRANCH   9  15
ENDBRANCH   7   8
ENDBRANCH   3   6
ENDBRANCH   1   2
BRANCH   1  21
ATOM     21  C   UNL A   1      34.602  33.242  29.018  1.00  0.00     0.023 C 
BRANCH  21  22
ATOM     22  C   UNL A   1      33.364  34.138  28.913  1.00  0.00     0.023 C 
BRANCH  22  23
ATOM     23  C   UNL A   1      33.556  35.569  29.408  1.00  0.00     0.116 C 
BRANCH  23  24
ATOM     24  N   UNL A   1      32.654  35.928  30.490  1.00  0.00    -0.352 N 
ATOM     25  C   UNL A   1      32.768  35.639  31.830  1.00  0.00     0.251 C 
ATOM     26  H   UNL A   1      31.857  36.444  30.229  1.00  0.00     0.163 HD
ATOM     27  O   UNL A   1      31.860  35.922  32.598  1.00  0.00    -0.269 OA
BRANCH  25  28
ATOM     28  C   UNL A   1      33.980  34.951  32.325  1.00  0.00     0.039 A 
ATOM     29  C   UNL A   1      33.863  33.644  32.802  1.00  0.00     0.014 A 
ATOM     30  C   UNL A   1      35.225  35.586  32.310  1.00  0.00     0.014 A 
ATOM     31  C   UNL A   1      35.004  32.954  33.219  1.00  0.00     0.010 A 
ATOM     32  C   UNL A   1      36.369  34.876  32.661  1.00  0.00     0.010 A 
ATOM     33  C   UNL A   1      36.269  33.557  33.128  1.00  0.00    -0.014 A 
BRANCH  33  34
ATOM     34  C   UNL A   1      37.496  32.835  33.548  1.00  0.00     0.031 A 
ATOM     35  C   UNL A   1      38.165  33.189  34.849  1.00  0.00     0.074 A 
ATOM     36  C   UNL A   1      38.032  31.897  32.743  1.00  0.00     0.049 A 
ATOM     37  N   UNL A   1      39.272  32.719  35.363  1.00  0.00    -0.248 NA
ATOM     38  C   UNL A   1      37.516  34.226  35.668  1.00  0.00     0.031 C 
ATOM     39  C   UNL A   1      37.498  31.496  31.439  1.00  0.00     0.029 A 
ATOM     40  N   UNL A   1      39.146  31.111  32.900  1.00  0.00    -0.354 N 
ATOM     41  C   UNL A   1      39.459  33.410  36.554  1.00  0.00     0.074 A 
ATOM     42  C   UNL A   1      38.383  34.371  36.660  1.00  0.00     0.031 C 
ATOM     43  C   UNL A   1      38.267  30.519  30.931  1.00  0.00     0.029 A 
ATOM     44  C   UNL A   1      39.363  30.244  31.855  1.00  0.00     0.049 A 
ATOM     45  H   UNL A   1      39.735  31.163  33.687  1.00  0.00     0.167 HD
ATOM     46  C   UNL A   1      40.424  33.241  37.489  1.00  0.00     0.037 A 
ATOM     47  C   UNL A   1      40.333  29.327  31.667  1.00  0.00     0.037 A 
ATOM     48  C   UNL A   1      41.472  32.259  37.393  1.00  0.00     0.049 A 
ATOM     49  C   UNL A   1      41.380  29.139  32.730  1.00  0.00     0.074 A 
ATOM     50  C   UNL A   1      42.481  31.988  38.301  1.00  0.00     0.029 A 
ATOM     51  N   UNL A   1      41.637  31.378  36.334  1.00  0.00    -0.354 N 
ATOM     52  N   UNL A   1      41.527  29.784  33.863  1.00  0.00    -0.248 NA
ATOM     53  C   UNL A   1      42.385  28.093  32.499  1.00  0.00     0.031 C 
ATOM     54  C   UNL A   1      43.272  30.959  37.779  1.00  0.00     0.029 A 
ATOM     55  C   UNL A   1      42.730  30.560  36.567  1.00  0.00     0.049 A 
ATOM     56  H   UNL A   1      41.062  31.340  35.537  1.00  0.00     0.167 HD
ATOM     57  C   UNL A   1      42.619  29.199  34.495  1.00  0.00     0.074 A 
ATOM     58  C   UNL A   1      43.093  28.147  33.619  1.00  0.00     0.031 C 
ATOM     59  C   UNL A   1      43.174  29.504  35.694  1.00  0.00     0.037 A 
BRANCH  46  60
ATOM     60  C   UNL A   1      40.377  34.121  38.707  1.00  0.00     0.058 A 
ATOM     61  C   UNL A   1      39.612  33.757  39.826  1.00  0.00     0.135 A 
ATOM     62  C   UNL A   1      41.059  35.348  38.751  1.00  0.00     0.135 A 
ATOM     63  F   UNL A   1      38.945  32.593  39.842  1.00  0.00    -0.206 F 
ATOM     64  C   UNL A   1      39.515  34.584  40.941  1.00  0.00     0.059 A 
ATOM     65  C   UNL A   1      40.999  36.178  39.866  1.00  0.00     0.059 A 
ATOM     66  F   UNL A   1      41.825  35.731  37.717  1.00  0.00    -0.206 F 
ATOM     67  C   UNL A   1      40.214  35.793  40.952  1.00  0.00     0.060 A 
BRANCH  67  68
ATOM     68  S   UNL A   1      40.116  36.835  42.422  1.00  0.00     0.124 S 
ATOM     69  O   UNL A   1      39.729  38.121  41.854  1.00  0.00    -0.237 OA
ATOM     70  O   UNL A   1      39.094  36.155  43.214  1.00  0.00    -0.237 OA
ATOM     71  O   UNL A   1      41.466  36.769  42.974  1.00  0.00    -0.744 OA
ENDBRANCH  67  68
ENDBRANCH  46  60
BRANCH  47  72
ATOM     72  C   UNL A   1      40.317  28.479  30.446  1.00  0.00     0.058 A 
ATOM     73  C   UNL A   1      39.451  27.382  30.328  1.00  0.00     0.135 A 
ATOM     74  C   UNL A   1      41.203  28.729  29.387  1.00  0.00     0.135 A 
ATOM     75  F   UNL A   1      38.593  27.091  31.318  1.00  0.00    -0.206 F 
ATOM     76  C   UNL A   1      39.476  26.551  29.213  1.00  0.00     0.059 A 
ATOM     77  C   UNL A   1      41.232  27.927  28.251  1.00  0.00     0.059 A 
ATOM     78  F   UNL A   1      42.044  29.773  29.452  1.00  0.00    -0.206 F 
ATOM     79  C   UNL A   1      40.375  26.829  28.181  1.00  0.00     0.060 A 
BRANCH  79  80
ATOM     80  S   UNL A   1      40.405  25.730  26.749  1.00  0.00     0.124 S 
ATOM     81  O   UNL A   1      41.387  24.734  27.168  1.00  0.00    -0.237 OA
ATOM     82  O   UNL A   1      39.022  25.271  26.686  1.00  0.00    -0.237 OA
ATOM     83  O   UNL A   1      40.823  26.606  25.659  1.00  0.00    -0.744 OA
ENDBRANCH  79  80
ENDBRANCH  47  72
BRANCH  59  84
ATOM     84  C   UNL A   1      44.328  28.662  36.162  1.00  0.00     0.058 A 
ATOM     85  C   UNL A   1      44.093  27.511  36.933  1.00  0.00     0.135 A 
ATOM     86  C   UNL A   1      45.660  29.028  35.916  1.00  0.00     0.135 A 
ATOM     87  F   UNL A   1      42.837  27.122  37.201  1.00  0.00    -0.206 F 
ATOM     88  C   UNL A   1      45.140  26.760  37.454  1.00  0.00     0.059 A 
ATOM     89  C   UNL A   1      46.723  28.276  36.407  1.00  0.00     0.059 A 
ATOM     90  F   UNL A   1      45.935  30.114  35.177  1.00  0.00    -0.206 F 
ATOM     91  C   UNL A   1      46.453  27.152  37.188  1.00  0.00     0.060 A 
BRANCH  91  92
ATOM     92  S   UNL A   1      47.801  26.153  37.855  1.00  0.00     0.124 S 
ATOM     93  O   UNL A   1      47.304  25.837  39.191  1.00  0.00    -0.237 OA
ATOM     94  O   UNL A   1      47.855  25.037  36.916  1.00  0.00    -0.237 OA
ATOM     95  O   UNL A   1      48.945  27.058  37.808  1.00  0.00    -0.744 OA
ENDBRANCH  91  92
ENDBRANCH  59  84
ENDBRANCH  33  34
ENDBRANCH  25  28
ENDBRANCH  23  24
ENDBRANCH  22  23
ENDBRANCH  21  22
ENDBRANCH   1  21
TORSDOF 19
ENDMDL
