MODEL 1
REMARK VINA RESULT:     -12.4      0.000      0.000
REMARK SMILES O=C(NCCCCNC(=O)c1cc2cnc(Cl)cc2[nH]1)c1ccc(-c2c3nc(c(-c4c(F)cc(S(=O)(=O)[O-])cc4F)c4ccc([nH]4)c(-c4c(F)cc(S(=O)(=O)[O-])cc4F)c4nc(c(-c5c(F)cc(S(=O)(=O)[O-])cc5F)c5ccc2[nH]5)C=C4)C=C3)cc1
REMARK SMILES IDX 4 1 3 2 1 3 2 4 21 6 22 7 86 8 23 9 85 10 24 11 25 12 26 13
REMARK SMILES IDX 79 14 27 15 84 16 78 17 80 18 28 19 83 20 77 21 76 22 29 24
REMARK SMILES IDX 63 25 42 26 62 27 43 28 46 29 61 30 81 31 44 32 45 33 60 35
REMARK SMILES IDX 82 36 47 37 30 38 31 39 40 40 32 41 33 42 39 43 41 44 34 45
REMARK SMILES IDX 35 46 36 47 37 48 38 49 64 50 65 51 74 52 66 53 67 54 73 55
REMARK SMILES IDX 75 56 68 57 69 58 70 59 71 60 72 61 48 62 49 63 58 64 50 65
REMARK SMILES IDX 51 66 57 67 59 68 52 69 53 70 54 71 55 72 56 73 5 74 6 75
REMARK SMILES IDX 7 76 8 77 9 78 10 80 11 81 12 82 20 83 13 84 19 85 14 87
REMARK SMILES IDX 18 88 15 89 16 90 17 91
REMARK H PARENT 3 5 80 23 46 34 8 79 20 86
REMARK Flexibility Score: inf
ROOT
ATOM      1  C   UNL A   1      41.754  21.348  27.479  1.00  0.00     0.116 C 
ENDROOT
BRANCH   1   2
ATOM      2  N   UNL A   1      40.673  21.687  26.540  1.00  0.00    -0.352 N 
ATOM      3  O   UNL A   1      38.710  22.717  26.016  1.00  0.00    -0.269 OA
ATOM      4  C   UNL A   1      39.789  22.761  26.593  1.00  0.00     0.251 C 
ATOM      5  H   UNL A   1      40.561  21.076  25.776  1.00  0.00     0.163 HD
BRANCH   4   6
ATOM      6  C   UNL A   1      40.192  23.965  27.347  1.00  0.00     0.039 A 
ATOM      7  C   UNL A   1      41.498  24.251  27.747  1.00  0.00     0.014 A 
ATOM      8  C   UNL A   1      39.174  24.861  27.619  1.00  0.00     0.014 A 
ATOM      9  C   UNL A   1      41.733  25.467  28.393  1.00  0.00     0.010 A 
ATOM     10  C   UNL A   1      39.475  26.159  27.874  1.00  0.00     0.010 A 
ATOM     11  C   UNL A   1      40.694  26.413  28.456  1.00  0.00    -0.014 A 
BRANCH  11  12
ATOM     12  C   UNL A   1      40.812  27.711  29.099  1.00  0.00     0.031 A 
ATOM     13  C   UNL A   1      41.863  28.559  28.509  1.00  0.00     0.074 A 
ATOM     14  C   UNL A   1      39.911  28.173  30.000  1.00  0.00     0.049 A 
ATOM     15  N   UNL A   1      43.039  28.777  28.988  1.00  0.00    -0.248 NA
ATOM     16  C   UNL A   1      41.674  29.042  27.133  1.00  0.00     0.031 C 
ATOM     17  C   UNL A   1      38.642  27.567  30.442  1.00  0.00     0.029 A 
ATOM     18  N   UNL A   1      39.907  29.355  30.671  1.00  0.00    -0.354 N 
ATOM     19  C   UNL A   1      43.636  29.660  28.102  1.00  0.00     0.074 A 
ATOM     20  C   UNL A   1      42.871  29.582  26.886  1.00  0.00     0.031 C 
ATOM     21  C   UNL A   1      37.909  28.473  31.128  1.00  0.00     0.029 A 
ATOM     22  C   UNL A   1      38.721  29.655  31.339  1.00  0.00     0.049 A 
ATOM     23  H   UNL A   1      40.687  29.957  30.685  1.00  0.00     0.167 HD
ATOM     24  C   UNL A   1      44.522  30.591  28.550  1.00  0.00     0.037 A 
ATOM     25  C   UNL A   1      38.441  30.789  32.030  1.00  0.00     0.037 A 
ATOM     26  C   UNL A   1      44.951  30.283  29.896  1.00  0.00     0.049 A 
ATOM     27  C   UNL A   1      39.753  31.391  32.383  1.00  0.00     0.074 A 
ATOM     28  C   UNL A   1      45.599  29.219  30.492  1.00  0.00     0.029 A 
ATOM     29  N   UNL A   1      44.332  30.969  30.915  1.00  0.00    -0.354 N 
ATOM     30  N   UNL A   1      40.612  30.833  33.194  1.00  0.00    -0.248 NA
ATOM     31  C   UNL A   1      40.306  32.385  31.479  1.00  0.00     0.031 C 
ATOM     32  C   UNL A   1      44.976  29.067  31.766  1.00  0.00     0.029 A 
ATOM     33  C   UNL A   1      44.032  30.084  31.920  1.00  0.00     0.049 A 
ATOM     34  H   UNL A   1      44.136  31.934  30.922  1.00  0.00     0.167 HD
ATOM     35  C   UNL A   1      41.852  31.079  32.623  1.00  0.00     0.074 A 
ATOM     36  C   UNL A   1      41.606  32.122  31.628  1.00  0.00     0.031 C 
ATOM     37  C   UNL A   1      42.895  30.217  32.811  1.00  0.00     0.037 A 
BRANCH  24  38
ATOM     38  C   UNL A   1      44.684  31.968  27.950  1.00  0.00     0.058 A 
ATOM     39  C   UNL A   1      45.875  32.275  27.262  1.00  0.00     0.135 A 
ATOM     40  C   UNL A   1      43.851  33.071  28.245  1.00  0.00     0.135 A 
ATOM     41  F   UNL A   1      46.746  31.306  26.938  1.00  0.00    -0.206 F 
ATOM     42  C   UNL A   1      46.243  33.584  26.954  1.00  0.00     0.059 A 
ATOM     43  C   UNL A   1      44.172  34.376  27.897  1.00  0.00     0.059 A 
ATOM     44  F   UNL A   1      42.734  32.959  28.973  1.00  0.00    -0.206 F 
ATOM     45  C   UNL A   1      45.388  34.630  27.287  1.00  0.00     0.060 A 
BRANCH  45  46
ATOM     46  S   UNL A   1      45.899  36.326  26.976  1.00  0.00     0.124 S 
ATOM     47  O   UNL A   1      46.703  36.168  25.769  1.00  0.00    -0.237 OA
ATOM     48  O   UNL A   1      44.616  37.000  26.809  1.00  0.00    -0.237 OA
ATOM     49  O   UNL A   1      46.636  36.682  28.184  1.00  0.00    -0.744 OA
ENDBRANCH  45  46
ENDBRANCH  24  38
BRANCH  25  50
ATOM     50  C   UNL A   1      37.169  31.562  32.098  1.00  0.00     0.058 A 
ATOM     51  C   UNL A   1      36.686  32.049  33.329  1.00  0.00     0.135 A 
ATOM     52  C   UNL A   1      36.577  32.109  30.943  1.00  0.00     0.135 A 
ATOM     53  F   UNL A   1      37.193  31.588  34.482  1.00  0.00    -0.206 F 
ATOM     54  C   UNL A   1      35.736  33.074  33.409  1.00  0.00     0.059 A 
ATOM     55  C   UNL A   1      35.624  33.128  30.998  1.00  0.00     0.059 A 
ATOM     56  F   UNL A   1      36.980  31.735  29.719  1.00  0.00    -0.206 F 
ATOM     57  C   UNL A   1      35.232  33.630  32.234  1.00  0.00     0.060 A 
BRANCH  57  58
ATOM     58  S   UNL A   1      34.163  35.087  32.332  1.00  0.00     0.124 S 
ATOM     59  O   UNL A   1      32.966  34.541  32.964  1.00  0.00    -0.237 OA
ATOM     60  O   UNL A   1      34.957  35.996  33.152  1.00  0.00    -0.237 OA
ATOM     61  O   UNL A   1      34.005  35.486  30.937  1.00  0.00    -0.744 OA
ENDBRANCH  57  58
ENDBRANCH  25  50
BRANCH  37  62
ATOM     62  C   UNL A   1      42.777  29.191  33.914  1.00  0.00     0.058 A 
ATOM     63  C   UNL A   1      42.990  29.445  35.281  1.00  0.00     0.135 A 
ATOM     64  C   UNL A   1      42.275  27.925  33.575  1.00  0.00     0.135 A 
ATOM     65  F   UNL A   1      43.386  30.654  35.705  1.00  0.00    -0.206 F 
ATOM     66  C   UNL A   1      42.741  28.478  36.260  1.00  0.00     0.059 A 
ATOM     67  C   UNL A   1      41.992  26.957  34.535  1.00  0.00     0.059 A 
ATOM     68  F   UNL A   1      42.000  27.634  32.292  1.00  0.00    -0.206 F 
ATOM     69  C   UNL A   1      42.235  27.236  35.876  1.00  0.00     0.060 A 
BRANCH  69  70
ATOM     70  S   UNL A   1      41.837  26.014  37.147  1.00  0.00     0.124 S 
ATOM     71  O   UNL A   1      40.470  26.374  37.504  1.00  0.00    -0.237 OA
ATOM     72  O   UNL A   1      41.993  24.751  36.429  1.00  0.00    -0.237 OA
ATOM     73  O   UNL A   1      42.838  26.259  38.183  1.00  0.00    -0.744 OA
ENDBRANCH  69  70
ENDBRANCH  37  62
ENDBRANCH  11  12
ENDBRANCH   4   6
ENDBRANCH   1   2
BRANCH   1  74
ATOM     74  C   UNL A   1      42.018  19.856  27.617  1.00  0.00     0.023 C 
BRANCH  74  75
ATOM     75  C   UNL A   1      42.305  19.116  26.303  1.00  0.00     0.023 C 
BRANCH  75  76
ATOM     76  C   UNL A   1      43.684  18.464  26.155  1.00  0.00     0.116 C 
BRANCH  76  77
ATOM     77  N   UNL A   1      44.189  18.462  24.790  1.00  0.00    -0.351 N 
ATOM     78  C   UNL A   1      44.591  19.504  23.984  1.00  0.00     0.267 C 
ATOM     79  H   UNL A   1      44.253  17.571  24.377  1.00  0.00     0.163 HD
ATOM     80  O   UNL A   1      44.747  19.288  22.790  1.00  0.00    -0.268 OA
BRANCH  78  81
ATOM     81  C   UNL A   1      44.749  20.812  24.572  1.00  0.00     0.105 A 
ATOM     82  C   UNL A   1      45.814  21.294  25.314  1.00  0.00     0.043 A 
ATOM     83  N   UNL A   1      43.805  21.813  24.568  1.00  0.00    -0.350 N 
ATOM     84  C   UNL A   1      45.627  22.692  25.492  1.00  0.00     0.019 A 
ATOM     85  C   UNL A   1      44.373  23.000  24.968  1.00  0.00     0.051 A 
ATOM     86  H   UNL A   1      42.861  21.697  24.317  1.00  0.00     0.167 HD
ATOM     87  C   UNL A   1      46.410  23.731  26.010  1.00  0.00     0.123 A 
ATOM     88  C   UNL A   1      43.891  24.304  24.909  1.00  0.00     0.067 A 
ATOM     89  N   UNL A   1      45.981  25.015  25.940  1.00  0.00    -0.244 NA
ATOM     90  C   UNL A   1      44.769  25.259  25.397  1.00  0.00     0.131 A 
ATOM     91  Cl  UNL A   1      44.364  26.927  25.305  1.00  0.00    -0.062 Cl
ENDBRANCH  78  81
ENDBRANCH  76  77
ENDBRANCH  75  76
ENDBRANCH  74  75
ENDBRANCH   1  74
TORSDOF 14
ENDMDL
MODEL 2
REMARK VINA RESULT:     -12.2      3.182      5.014
REMARK SMILES O=C(NCCCCNC(=O)c1cc2cnc(Cl)cc2[nH]1)c1ccc(-c2c3nc(c(-c4c(F)cc(S(=O)(=O)[O-])cc4F)c4ccc([nH]4)c(-c4c(F)cc(S(=O)(=O)[O-])cc4F)c4nc(c(-c5c(F)cc(S(=O)(=O)[O-])cc5F)c5ccc2[nH]5)C=C4)C=C3)cc1
REMARK SMILES IDX 4 1 3 2 1 3 2 4 21 6 22 7 86 8 23 9 85 10 24 11 25 12 26 13
REMARK SMILES IDX 79 14 27 15 84 16 78 17 80 18 28 19 83 20 77 21 76 22 29 24
REMARK SMILES IDX 63 25 42 26 62 27 43 28 46 29 61 30 81 31 44 32 45 33 60 35
REMARK SMILES IDX 82 36 47 37 30 38 31 39 40 40 32 41 33 42 39 43 41 44 34 45
REMARK SMILES IDX 35 46 36 47 37 48 38 49 64 50 65 51 74 52 66 53 67 54 73 55
REMARK SMILES IDX 75 56 68 57 69 58 70 59 71 60 72 61 48 62 49 63 58 64 50 65
REMARK SMILES IDX 51 66 57 67 59 68 52 69 53 70 54 71 55 72 56 73 5 74 6 75
REMARK SMILES IDX 7 76 8 77 9 78 10 80 11 81 12 82 20 83 13 84 19 85 14 87
REMARK SMILES IDX 18 88 15 89 16 90 17 91
REMARK H PARENT 3 5 80 23 46 34 8 79 20 86
REMARK Flexibility Score: inf
ROOT
ATOM      1  C   UNL A   1      40.497  22.366  27.359  1.00  0.00     0.116 C 
ENDROOT
BRANCH   1   2
ATOM      2  N   UNL A   1      41.770  22.348  26.621  1.00  0.00    -0.352 N 
ATOM      3  O   UNL A   1      43.234  23.222  25.110  1.00  0.00    -0.269 OA
ATOM      4  C   UNL A   1      42.430  23.413  26.014  1.00  0.00     0.251 C 
ATOM      5  H   UNL A   1      42.212  21.471  26.548  1.00  0.00     0.163 HD
BRANCH   4   6
ATOM      6  C   UNL A   1      42.153  24.779  26.499  1.00  0.00     0.039 A 
ATOM      7  C   UNL A   1      41.260  25.669  25.901  1.00  0.00     0.014 A 
ATOM      8  C   UNL A   1      42.821  25.143  27.655  1.00  0.00     0.014 A 
ATOM      9  C   UNL A   1      41.052  26.904  26.521  1.00  0.00     0.010 A 
ATOM     10  C   UNL A   1      42.324  26.139  28.430  1.00  0.00     0.010 A 
ATOM     11  C   UNL A   1      41.608  27.126  27.793  1.00  0.00    -0.014 A 
BRANCH  11  12
ATOM     12  C   UNL A   1      41.465  28.364  28.541  1.00  0.00     0.031 A 
ATOM     13  C   UNL A   1      42.552  29.325  28.287  1.00  0.00     0.074 A 
ATOM     14  C   UNL A   1      40.344  28.684  29.232  1.00  0.00     0.049 A 
ATOM     15  N   UNL A   1      43.561  29.570  29.050  1.00  0.00    -0.248 NA
ATOM     16  C   UNL A   1      42.652  29.922  26.947  1.00  0.00     0.031 C 
ATOM     17  C   UNL A   1      39.060  27.962  29.308  1.00  0.00     0.029 A 
ATOM     18  N   UNL A   1      40.086  29.796  29.969  1.00  0.00    -0.354 N 
ATOM     19  C   UNL A   1      44.275  30.567  28.403  1.00  0.00     0.074 A 
ATOM     20  C   UNL A   1      43.825  30.554  27.036  1.00  0.00     0.031 C 
ATOM     21  C   UNL A   1      38.115  28.754  29.864  1.00  0.00     0.029 A 
ATOM     22  C   UNL A   1      38.756  29.958  30.353  1.00  0.00     0.049 A 
ATOM     23  H   UNL A   1      40.788  30.441  30.215  1.00  0.00     0.167 HD
ATOM     24  C   UNL A   1      44.952  31.505  29.120  1.00  0.00     0.037 A 
ATOM     25  C   UNL A   1      38.230  31.005  31.039  1.00  0.00     0.037 A 
ATOM     26  C   UNL A   1      45.077  31.100  30.502  1.00  0.00     0.049 A 
ATOM     27  C   UNL A   1      39.368  31.650  31.742  1.00  0.00     0.074 A 
ATOM     28  C   UNL A   1      45.653  30.028  31.154  1.00  0.00     0.029 A 
ATOM     29  N   UNL A   1      44.182  31.650  31.391  1.00  0.00    -0.354 N 
ATOM     30  N   UNL A   1      40.056  31.074  32.692  1.00  0.00    -0.248 NA
ATOM     31  C   UNL A   1      40.034  32.756  31.075  1.00  0.00     0.031 C 
ATOM     32  C   UNL A   1      44.763  29.720  32.227  1.00  0.00     0.029 A 
ATOM     33  C   UNL A   1      43.729  30.659  32.224  1.00  0.00     0.049 A 
ATOM     34  H   UNL A   1      43.912  32.596  31.424  1.00  0.00     0.167 HD
ATOM     35  C   UNL A   1      41.371  31.448  32.456  1.00  0.00     0.074 A 
ATOM     36  C   UNL A   1      41.281  32.561  31.513  1.00  0.00     0.031 C 
ATOM     37  C   UNL A   1      42.408  30.638  32.823  1.00  0.00     0.037 A 
BRANCH  24  38
ATOM     38  C   UNL A   1      45.137  32.939  28.682  1.00  0.00     0.058 A 
ATOM     39  C   UNL A   1      46.444  33.451  28.561  1.00  0.00     0.135 A 
ATOM     40  C   UNL A   1      44.101  33.900  28.635  1.00  0.00     0.135 A 
ATOM     41  F   UNL A   1      47.506  32.630  28.601  1.00  0.00    -0.206 F 
ATOM     42  C   UNL A   1      46.705  34.818  28.472  1.00  0.00     0.059 A 
ATOM     43  C   UNL A   1      44.337  35.260  28.490  1.00  0.00     0.059 A 
ATOM     44  F   UNL A   1      42.815  33.586  28.829  1.00  0.00    -0.206 F 
ATOM     45  C   UNL A   1      45.643  35.715  28.450  1.00  0.00     0.060 A 
BRANCH  45  46
ATOM     46  S   UNL A   1      45.977  37.483  28.428  1.00  0.00     0.124 S 
ATOM     47  O   UNL A   1      45.370  37.877  27.162  1.00  0.00    -0.237 OA
ATOM     48  O   UNL A   1      45.292  37.931  29.636  1.00  0.00    -0.237 OA
ATOM     49  O   UNL A   1      47.434  37.550  28.479  1.00  0.00    -0.744 OA
ENDBRANCH  45  46
ENDBRANCH  24  38
BRANCH  25  50
ATOM     50  C   UNL A   1      36.918  31.687  30.858  1.00  0.00     0.058 A 
ATOM     51  C   UNL A   1      35.981  31.741  31.909  1.00  0.00     0.135 A 
ATOM     52  C   UNL A   1      36.689  32.567  29.782  1.00  0.00     0.135 A 
ATOM     53  F   UNL A   1      36.120  30.941  32.977  1.00  0.00    -0.206 F 
ATOM     54  C   UNL A   1      34.930  32.666  31.930  1.00  0.00     0.059 A 
ATOM     55  C   UNL A   1      35.644  33.494  29.778  1.00  0.00     0.059 A 
ATOM     56  F   UNL A   1      37.534  32.617  28.741  1.00  0.00    -0.206 F 
ATOM     57  C   UNL A   1      34.788  33.561  30.872  1.00  0.00     0.060 A 
BRANCH  57  58
ATOM     58  S   UNL A   1      33.561  34.886  30.992  1.00  0.00     0.124 S 
ATOM     59  O   UNL A   1      32.888  34.561  32.246  1.00  0.00    -0.237 OA
ATOM     60  O   UNL A   1      34.399  36.080  31.010  1.00  0.00    -0.237 OA
ATOM     61  O   UNL A   1      32.754  34.711  29.788  1.00  0.00    -0.744 OA
ENDBRANCH  57  58
ENDBRANCH  25  50
BRANCH  37  62
ATOM     62  C   UNL A   1      42.119  29.509  33.785  1.00  0.00     0.058 A 
ATOM     63  C   UNL A   1      41.823  28.185  33.412  1.00  0.00     0.135 A 
ATOM     64  C   UNL A   1      42.300  29.756  35.155  1.00  0.00     0.135 A 
ATOM     65  F   UNL A   1      41.718  27.838  32.121  1.00  0.00    -0.206 F 
ATOM     66  C   UNL A   1      41.689  27.163  34.357  1.00  0.00     0.059 A 
ATOM     67  C   UNL A   1      42.201  28.749  36.111  1.00  0.00     0.059 A 
ATOM     68  F   UNL A   1      42.635  30.988  35.574  1.00  0.00    -0.206 F 
ATOM     69  C   UNL A   1      41.887  27.455  35.707  1.00  0.00     0.060 A 
BRANCH  69  70
ATOM     70  S   UNL A   1      41.793  26.121  36.922  1.00  0.00     0.124 S 
ATOM     71  O   UNL A   1      42.021  24.938  36.100  1.00  0.00    -0.237 OA
ATOM     72  O   UNL A   1      42.867  26.464  37.850  1.00  0.00    -0.237 OA
ATOM     73  O   UNL A   1      40.444  26.250  37.469  1.00  0.00    -0.744 OA
ENDBRANCH  69  70
ENDBRANCH  37  62
ENDBRANCH  11  12
ENDBRANCH   4   6
ENDBRANCH   1   2
BRANCH   1  74
ATOM     74  C   UNL A   1      39.263  22.476  26.477  1.00  0.00     0.023 C 
BRANCH  74  75
ATOM     75  C   UNL A   1      38.452  23.768  26.643  1.00  0.00     0.023 C 
BRANCH  75  76
ATOM     76  C   UNL A   1      37.043  23.790  26.037  1.00  0.00     0.116 C 
BRANCH  76  77
ATOM     77  N   UNL A   1      37.032  23.797  24.582  1.00  0.00    -0.351 N 
ATOM     78  C   UNL A   1      36.418  22.948  23.688  1.00  0.00     0.267 C 
ATOM     79  H   UNL A   1      37.547  24.527  24.170  1.00  0.00     0.163 HD
ATOM     80  O   UNL A   1      36.747  23.005  22.512  1.00  0.00    -0.268 OA
BRANCH  78  81
ATOM     81  C   UNL A   1      35.461  21.991  24.190  1.00  0.00     0.105 A 
ATOM     82  C   UNL A   1      34.103  22.165  24.397  1.00  0.00     0.043 A 
ATOM     83  N   UNL A   1      35.754  20.725  24.642  1.00  0.00    -0.350 N 
ATOM     84  C   UNL A   1      33.538  20.894  24.688  1.00  0.00     0.019 A 
ATOM     85  C   UNL A   1      34.598  19.996  24.788  1.00  0.00     0.051 A 
ATOM     86  H   UNL A   1      36.660  20.389  24.833  1.00  0.00     0.167 HD
ATOM     87  C   UNL A   1      32.233  20.410  24.839  1.00  0.00     0.123 A 
ATOM     88  C   UNL A   1      34.401  18.633  24.996  1.00  0.00     0.067 A 
ATOM     89  N   UNL A   1      32.007  19.084  25.013  1.00  0.00    -0.244 NA
ATOM     90  C   UNL A   1      33.071  18.254  25.075  1.00  0.00     0.131 A 
ATOM     91  Cl  UNL A   1      32.657  16.594  25.231  1.00  0.00    -0.062 Cl
ENDBRANCH  78  81
ENDBRANCH  76  77
ENDBRANCH  75  76
ENDBRANCH  74  75
ENDBRANCH   1  74
TORSDOF 14
ENDMDL
MODEL 3
REMARK VINA RESULT:     -12.1      1.762      2.995
REMARK SMILES O=C(NCCCCNC(=O)c1cc2cnc(Cl)cc2[nH]1)c1ccc(-c2c3nc(c(-c4c(F)cc(S(=O)(=O)[O-])cc4F)c4ccc([nH]4)c(-c4c(F)cc(S(=O)(=O)[O-])cc4F)c4nc(c(-c5c(F)cc(S(=O)(=O)[O-])cc5F)c5ccc2[nH]5)C=C4)C=C3)cc1
REMARK SMILES IDX 4 1 3 2 1 3 2 4 21 6 22 7 86 8 23 9 85 10 24 11 25 12 26 13
REMARK SMILES IDX 79 14 27 15 84 16 78 17 80 18 28 19 83 20 77 21 76 22 29 24
REMARK SMILES IDX 63 25 42 26 62 27 43 28 46 29 61 30 81 31 44 32 45 33 60 35
REMARK SMILES IDX 82 36 47 37 30 38 31 39 40 40 32 41 33 42 39 43 41 44 34 45
REMARK SMILES IDX 35 46 36 47 37 48 38 49 64 50 65 51 74 52 66 53 67 54 73 55
REMARK SMILES IDX 75 56 68 57 69 58 70 59 71 60 72 61 48 62 49 63 58 64 50 65
REMARK SMILES IDX 51 66 57 67 59 68 52 69 53 70 54 71 55 72 56 73 5 74 6 75
REMARK SMILES IDX 7 76 8 77 9 78 10 80 11 81 12 82 20 83 13 84 19 85 14 87
REMARK SMILES IDX 18 88 15 89 16 90 17 91
REMARK H PARENT 3 5 80 23 46 34 8 79 20 86
REMARK Flexibility Score: inf
ROOT
ATOM      1  C   UNL A   1      43.293  22.653  26.177  1.00  0.00     0.116 C 
ENDROOT
BRANCH   1   2
ATOM      2  N   UNL A   1      41.911  22.150  26.166  1.00  0.00    -0.352 N 
ATOM      3  O   UNL A   1      39.829  21.960  27.072  1.00  0.00    -0.269 OA
ATOM      4  C   UNL A   1      40.799  22.667  26.826  1.00  0.00     0.251 C 
ATOM      5  H   UNL A   1      41.751  21.344  25.622  1.00  0.00     0.163 HD
BRANCH   4   6
ATOM      6  C   UNL A   1      40.808  24.094  27.204  1.00  0.00     0.039 A 
ATOM      7  C   UNL A   1      40.171  25.109  26.490  1.00  0.00     0.014 A 
ATOM      8  C   UNL A   1      41.477  24.390  28.379  1.00  0.00     0.014 A 
ATOM      9  C   UNL A   1      40.212  26.403  27.016  1.00  0.00     0.010 A 
ATOM     10  C   UNL A   1      41.175  25.527  29.053  1.00  0.00     0.010 A 
ATOM     11  C   UNL A   1      40.733  26.594  28.307  1.00  0.00    -0.014 A 
BRANCH  11  12
ATOM     12  C   UNL A   1      40.830  27.887  28.964  1.00  0.00     0.031 A 
ATOM     13  C   UNL A   1      41.886  28.747  28.401  1.00  0.00     0.074 A 
ATOM     14  C   UNL A   1      39.911  28.335  29.854  1.00  0.00     0.049 A 
ATOM     15  N   UNL A   1      43.052  28.969  28.903  1.00  0.00    -0.248 NA
ATOM     16  C   UNL A   1      41.718  29.243  27.027  1.00  0.00     0.031 C 
ATOM     17  C   UNL A   1      38.638  27.716  30.267  1.00  0.00     0.029 A 
ATOM     18  N   UNL A   1      39.887  29.510  30.536  1.00  0.00    -0.354 N 
ATOM     19  C   UNL A   1      43.659  29.865  28.036  1.00  0.00     0.074 A 
ATOM     20  C   UNL A   1      42.916  29.792  26.806  1.00  0.00     0.031 C 
ATOM     21  C   UNL A   1      37.887  28.610  30.949  1.00  0.00     0.029 A 
ATOM     22  C   UNL A   1      38.687  29.795  31.185  1.00  0.00     0.049 A 
ATOM     23  H   UNL A   1      40.662  30.117  30.569  1.00  0.00     0.167 HD
ATOM     24  C   UNL A   1      44.531  30.797  28.509  1.00  0.00     0.037 A 
ATOM     25  C   UNL A   1      38.387  30.921  31.882  1.00  0.00     0.037 A 
ATOM     26  C   UNL A   1      44.937  30.478  29.860  1.00  0.00     0.049 A 
ATOM     27  C   UNL A   1      39.689  31.528  32.264  1.00  0.00     0.074 A 
ATOM     28  C   UNL A   1      45.582  29.413  30.456  1.00  0.00     0.029 A 
ATOM     29  N   UNL A   1      44.296  31.150  30.873  1.00  0.00    -0.354 N 
ATOM     30  N   UNL A   1      40.537  30.968  33.085  1.00  0.00    -0.248 NA
ATOM     31  C   UNL A   1      40.251  32.534  31.379  1.00  0.00     0.031 C 
ATOM     32  C   UNL A   1      44.938  29.244  31.718  1.00  0.00     0.029 A 
ATOM     33  C   UNL A   1      43.984  30.254  31.864  1.00  0.00     0.049 A 
ATOM     34  H   UNL A   1      44.093  32.114  30.887  1.00  0.00     0.167 HD
ATOM     35  C   UNL A   1      41.785  31.228  32.538  1.00  0.00     0.074 A 
ATOM     36  C   UNL A   1      41.550  32.278  31.550  1.00  0.00     0.031 C 
ATOM     37  C   UNL A   1      42.830  30.371  32.736  1.00  0.00     0.037 A 
BRANCH  24  38
ATOM     38  C   UNL A   1      44.694  32.180  27.925  1.00  0.00     0.058 A 
ATOM     39  C   UNL A   1      45.900  32.506  27.274  1.00  0.00     0.135 A 
ATOM     40  C   UNL A   1      43.840  33.272  28.205  1.00  0.00     0.135 A 
ATOM     41  F   UNL A   1      46.791  31.550  26.967  1.00  0.00    -0.206 F 
ATOM     42  C   UNL A   1      46.261  33.823  26.988  1.00  0.00     0.059 A 
ATOM     43  C   UNL A   1      44.155  34.583  27.877  1.00  0.00     0.059 A 
ATOM     44  F   UNL A   1      42.704  33.140  28.900  1.00  0.00    -0.206 F 
ATOM     45  C   UNL A   1      45.385  34.855  27.305  1.00  0.00     0.060 A 
BRANCH  45  46
ATOM     46  S   UNL A   1      45.886  36.560  27.022  1.00  0.00     0.124 S 
ATOM     47  O   UNL A   1      44.593  37.225  26.906  1.00  0.00    -0.237 OA
ATOM     48  O   UNL A   1      46.653  36.850  28.228  1.00  0.00    -0.237 OA
ATOM     49  O   UNL A   1      46.668  36.480  25.792  1.00  0.00    -0.744 OA
ENDBRANCH  45  46
ENDBRANCH  24  38
BRANCH  25  50
ATOM     50  C   UNL A   1      37.109  31.684  31.935  1.00  0.00     0.058 A 
ATOM     51  C   UNL A   1      36.581  32.122  33.166  1.00  0.00     0.135 A 
ATOM     52  C   UNL A   1      36.555  32.273  30.782  1.00  0.00     0.135 A 
ATOM     53  F   UNL A   1      37.050  31.619  34.317  1.00  0.00    -0.206 F 
ATOM     54  C   UNL A   1      35.622  33.139  33.251  1.00  0.00     0.059 A 
ATOM     55  C   UNL A   1      35.594  33.284  30.841  1.00  0.00     0.059 A 
ATOM     56  F   UNL A   1      37.002  31.947  29.559  1.00  0.00    -0.206 F 
ATOM     57  C   UNL A   1      35.156  33.737  32.081  1.00  0.00     0.060 A 
BRANCH  57  58
ATOM     58  S   UNL A   1      34.075  35.184  32.198  1.00  0.00     0.124 S 
ATOM     59  O   UNL A   1      33.974  35.599  30.802  1.00  0.00    -0.237 OA
ATOM     60  O   UNL A   1      32.865  34.617  32.783  1.00  0.00    -0.237 OA
ATOM     61  O   UNL A   1      34.818  36.092  33.066  1.00  0.00    -0.744 OA
ENDBRANCH  57  58
ENDBRANCH  25  50
BRANCH  37  62
ATOM     62  C   UNL A   1      42.700  29.333  33.827  1.00  0.00     0.058 A 
ATOM     63  C   UNL A   1      42.927  29.566  35.196  1.00  0.00     0.135 A 
ATOM     64  C   UNL A   1      42.171  28.081  33.476  1.00  0.00     0.135 A 
ATOM     65  F   UNL A   1      43.348  30.762  35.632  1.00  0.00    -0.206 F 
ATOM     66  C   UNL A   1      42.666  28.592  36.165  1.00  0.00     0.059 A 
ATOM     67  C   UNL A   1      41.876  27.107  34.425  1.00  0.00     0.059 A 
ATOM     68  F   UNL A   1      41.883  27.812  32.192  1.00  0.00    -0.206 F 
ATOM     69  C   UNL A   1      42.133  27.365  35.769  1.00  0.00     0.060 A 
BRANCH  69  70
ATOM     70  S   UNL A   1      41.720  26.134  37.026  1.00  0.00     0.124 S 
ATOM     71  O   UNL A   1      40.406  26.580  37.474  1.00  0.00    -0.237 OA
ATOM     72  O   UNL A   1      41.742  24.887  36.266  1.00  0.00    -0.237 OA
ATOM     73  O   UNL A   1      42.794  26.274  38.008  1.00  0.00    -0.744 OA
ENDBRANCH  69  70
ENDBRANCH  37  62
ENDBRANCH  11  12
ENDBRANCH   4   6
ENDBRANCH   1   2
BRANCH   1  74
ATOM     74  C   UNL A   1      43.844  23.000  24.803  1.00  0.00     0.023 C 
BRANCH  74  75
ATOM     75  C   UNL A   1      44.644  24.308  24.727  1.00  0.00     0.023 C 
BRANCH  75  76
ATOM     76  C   UNL A   1      43.894  25.605  25.055  1.00  0.00     0.116 C 
BRANCH  76  77
ATOM     77  N   UNL A   1      44.715  26.801  24.943  1.00  0.00    -0.351 N 
ATOM     78  C   UNL A   1      45.446  27.476  25.895  1.00  0.00     0.267 C 
ATOM     79  H   UNL A   1      44.755  27.189  24.040  1.00  0.00     0.163 HD
ATOM     80  O   UNL A   1      45.862  28.594  25.624  1.00  0.00    -0.268 OA
BRANCH  78  81
ATOM     81  C   UNL A   1      45.635  26.860  27.187  1.00  0.00     0.105 A 
ATOM     82  C   UNL A   1      46.826  26.574  27.833  1.00  0.00     0.043 A 
ATOM     83  N   UNL A   1      44.637  26.359  27.990  1.00  0.00    -0.350 N 
ATOM     84  C   UNL A   1      46.517  26.177  29.163  1.00  0.00     0.019 A 
ATOM     85  C   UNL A   1      45.129  26.097  29.247  1.00  0.00     0.051 A 
ATOM     86  H   UNL A   1      43.706  26.209  27.707  1.00  0.00     0.167 HD
ATOM     87  C   UNL A   1      47.274  25.914  30.311  1.00  0.00     0.123 A 
ATOM     88  C   UNL A   1      44.471  25.801  30.438  1.00  0.00     0.067 A 
ATOM     89  N   UNL A   1      46.663  25.652  31.493  1.00  0.00    -0.244 NA
ATOM     90  C   UNL A   1      45.313  25.614  31.522  1.00  0.00     0.131 A 
ATOM     91  Cl  UNL A   1      44.654  25.340  33.085  1.00  0.00    -0.062 Cl
ENDBRANCH  78  81
ENDBRANCH  76  77
ENDBRANCH  75  76
ENDBRANCH  74  75
ENDBRANCH   1  74
TORSDOF 14
ENDMDL
