MODEL 1
REMARK VINA RESULT:     -11.9      0.000      0.000
REMARK SMILES C[C@H](C1CC1)n1c(SCC(=O)NCCCCNC(=O)c2ccc(-c3c4nc(c(-c5c(F)cc(S(=O)(=O)[O-])cc5F)c5ccc([nH]5)c(-c5c(F)cc(S(=O)(=O)[O-])cc5F)c5nc(c(-c6c(F)cc(S(=O)(=O)[O-])cc6F)c6ccc3[nH]6)C=C5)C=C4)cc2)nc2cc(Cl)c(Cl)cc21
REMARK SMILES IDX 14 1 13 2 12 3 10 4 11 5 9 7 8 8 7 9 6 10 94 11 86 12 87 13
REMARK SMILES IDX 93 14 88 15 91 16 89 17 92 18 90 19 2 20 1 21 3 22 4 23 5 24
REMARK SMILES IDX 15 25 16 26 17 27 18 28 19 30 20 31 21 32 85 33 22 34 84 35
REMARK SMILES IDX 23 36 24 37 25 38 78 39 26 40 83 41 77 42 79 43 27 44 82 45
REMARK SMILES IDX 76 46 75 47 28 49 62 50 41 51 61 52 42 53 45 54 60 55 80 56
REMARK SMILES IDX 43 57 44 58 59 60 81 61 46 62 29 63 30 64 39 65 31 66 32 67
REMARK SMILES IDX 38 68 40 69 33 70 34 71 35 72 36 73 37 74 63 75 64 76 73 77
REMARK SMILES IDX 65 78 66 79 72 80 74 81 67 82 68 83 69 84 70 85 71 86 47 87
REMARK SMILES IDX 48 88 57 89 49 90 50 91 56 92 58 93 51 94 52 95 53 96 54 97
REMARK SMILES IDX 55 98
REMARK H PARENT 12 6 17 29 79 48 45 59
REMARK Flexibility Score: inf
ROOT
ATOM      1  C   UNL A   1      40.323  21.651  26.956  1.00  0.00     0.023 C 
ENDROOT
BRANCH   1   2
ATOM      2  C   UNL A   1      39.160  22.167  26.079  1.00  0.00     0.116 C 
BRANCH   2   3
ATOM      3  N   UNL A   1      37.962  21.358  25.954  1.00  0.00    -0.355 N 
ATOM      4  C   UNL A   1      36.694  21.693  25.537  1.00  0.00     0.230 C 
ATOM      5  O   UNL A   1      35.973  20.772  25.122  1.00  0.00    -0.274 OA
ATOM      6  H   UNL A   1      38.074  20.415  26.210  1.00  0.00     0.163 HD
BRANCH   4   7
ATOM      7  C   UNL A   1      36.108  23.102  25.586  1.00  0.00     0.178 C 
BRANCH   7   8
ATOM      8  S   UNL A   1      35.532  23.860  24.075  1.00  0.00    -0.078 SA
BRANCH   8   9
ATOM      9  C   UNL A   1      33.921  24.543  24.038  1.00  0.00     0.169 A 
ATOM     10  N   UNL A   1      32.617  24.046  24.222  1.00  0.00    -0.316 N 
ATOM     11  C   UNL A   1      31.763  25.137  24.015  1.00  0.00     0.071 A 
ATOM     12  N   UNL A   1      33.896  25.858  23.933  1.00  0.00    -0.222 NA
ATOM     13  C   UNL A   1      32.595  26.249  23.959  1.00  0.00     0.091 A 
ATOM     14  C   UNL A   1      30.373  25.293  23.904  1.00  0.00     0.050 A 
ATOM     15  C   UNL A   1      32.054  27.548  23.901  1.00  0.00     0.052 A 
ATOM     16  C   UNL A   1      29.831  26.586  23.894  1.00  0.00     0.061 A 
ATOM     17  C   UNL A   1      30.662  27.705  23.890  1.00  0.00     0.061 A 
ATOM     18  Cl  UNL A   1      28.103  26.696  23.895  1.00  0.00    -0.083 Cl
ATOM     19  Cl  UNL A   1      30.020  29.308  23.804  1.00  0.00    -0.083 Cl
BRANCH  10  20
ATOM     20  C   UNL A   1      32.183  22.699  24.669  1.00  0.00     0.090 C 
ATOM     21  C   UNL A   1      32.374  22.297  26.146  1.00  0.00     0.032 C 
BRANCH  20  22
ATOM     22  C   UNL A   1      32.769  21.645  23.792  1.00  0.00     0.012 C 
ATOM     23  C   UNL A   1      32.330  20.246  23.534  1.00  0.00     0.006 C 
ATOM     24  C   UNL A   1      32.249  21.253  22.420  1.00  0.00     0.006 C 
ENDBRANCH  20  22
ENDBRANCH  10  20
ENDBRANCH   8   9
ENDBRANCH   7   8
ENDBRANCH   4   7
ENDBRANCH   2   3
ENDBRANCH   1   2
BRANCH   1  25
ATOM     25  C   UNL A   1      41.650  21.157  26.332  1.00  0.00     0.023 C 
BRANCH  25  26
ATOM     26  C   UNL A   1      42.907  21.920  26.701  1.00  0.00     0.116 C 
BRANCH  26  27
ATOM     27  N   UNL A   1      43.146  23.031  25.819  1.00  0.00    -0.352 N 
ATOM     28  C   UNL A   1      42.968  24.377  25.913  1.00  0.00     0.251 C 
ATOM     29  H   UNL A   1      43.524  22.756  24.953  1.00  0.00     0.163 HD
ATOM     30  O   UNL A   1      43.566  25.048  25.067  1.00  0.00    -0.269 OA
BRANCH  28  31
ATOM     31  C   UNL A   1      41.976  25.052  26.785  1.00  0.00     0.039 A 
ATOM     32  C   UNL A   1      40.746  25.593  26.443  1.00  0.00     0.014 A 
ATOM     33  C   UNL A   1      42.525  25.469  28.000  1.00  0.00     0.014 A 
ATOM     34  C   UNL A   1      40.433  26.847  27.040  1.00  0.00     0.010 A 
ATOM     35  C   UNL A   1      41.854  26.372  28.785  1.00  0.00     0.010 A 
ATOM     36  C   UNL A   1      41.265  27.398  28.084  1.00  0.00    -0.014 A 
BRANCH  36  37
ATOM     37  C   UNL A   1      40.992  28.636  28.973  1.00  0.00     0.031 A 
ATOM     38  C   UNL A   1      42.268  29.528  28.501  1.00  0.00     0.074 A 
ATOM     39  C   UNL A   1      39.878  28.922  29.880  1.00  0.00     0.049 A 
ATOM     40  N   UNL A   1      43.421  29.501  29.111  1.00  0.00    -0.248 NA
ATOM     41  C   UNL A   1      42.576  30.013  27.087  1.00  0.00     0.031 C 
ATOM     42  C   UNL A   1      38.594  28.196  30.383  1.00  0.00     0.029 A 
ATOM     43  N   UNL A   1      39.647  30.052  30.731  1.00  0.00    -0.354 N 
ATOM     44  C   UNL A   1      44.221  30.477  28.506  1.00  0.00     0.074 A 
ATOM     45  C   UNL A   1      43.810  30.540  27.156  1.00  0.00     0.031 C 
ATOM     46  C   UNL A   1      37.691  29.032  31.031  1.00  0.00     0.029 A 
ATOM     47  C   UNL A   1      38.275  30.347  31.209  1.00  0.00     0.049 A 
ATOM     48  H   UNL A   1      40.397  30.631  30.998  1.00  0.00     0.167 HD
ATOM     49  C   UNL A   1      44.818  31.398  29.305  1.00  0.00     0.037 A 
ATOM     50  C   UNL A   1      37.795  31.440  31.973  1.00  0.00     0.037 A 
ATOM     51  C   UNL A   1      44.739  30.897  30.655  1.00  0.00     0.049 A 
ATOM     52  C   UNL A   1      39.041  32.113  32.445  1.00  0.00     0.074 A 
ATOM     53  C   UNL A   1      45.216  29.766  31.284  1.00  0.00     0.029 A 
ATOM     54  N   UNL A   1      43.564  31.244  31.264  1.00  0.00    -0.354 N 
ATOM     55  N   UNL A   1      39.821  31.526  33.319  1.00  0.00    -0.248 NA
ATOM     56  C   UNL A   1      39.678  32.924  31.403  1.00  0.00     0.031 C 
ATOM     57  C   UNL A   1      44.147  29.304  32.105  1.00  0.00     0.029 A 
ATOM     58  C   UNL A   1      43.146  30.270  32.121  1.00  0.00     0.049 A 
ATOM     59  H   UNL A   1      43.082  32.088  31.105  1.00  0.00     0.167 HD
ATOM     60  C   UNL A   1      41.039  31.445  32.666  1.00  0.00     0.074 A 
ATOM     61  C   UNL A   1      40.882  32.332  31.469  1.00  0.00     0.031 C 
ATOM     62  C   UNL A   1      41.907  30.388  32.848  1.00  0.00     0.037 A 
BRANCH  49  63
ATOM     63  C   UNL A   1      44.950  32.879  29.025  1.00  0.00     0.058 A 
ATOM     64  C   UNL A   1      43.760  33.564  28.714  1.00  0.00     0.135 A 
ATOM     65  C   UNL A   1      46.149  33.590  28.778  1.00  0.00     0.135 A 
ATOM     66  F   UNL A   1      42.569  32.973  28.892  1.00  0.00    -0.206 F 
ATOM     67  C   UNL A   1      43.750  34.843  28.172  1.00  0.00     0.059 A 
ATOM     68  C   UNL A   1      46.161  34.897  28.275  1.00  0.00     0.059 A 
ATOM     69  F   UNL A   1      47.355  33.030  28.953  1.00  0.00    -0.206 F 
ATOM     70  C   UNL A   1      44.952  35.507  27.962  1.00  0.00     0.060 A 
BRANCH  70  71
ATOM     71  S   UNL A   1      44.878  37.175  27.288  1.00  0.00     0.124 S 
ATOM     72  O   UNL A   1      45.853  37.106  26.206  1.00  0.00    -0.237 OA
ATOM     73  O   UNL A   1      43.479  37.260  26.879  1.00  0.00    -0.237 OA
ATOM     74  O   UNL A   1      45.247  38.018  28.421  1.00  0.00    -0.744 OA
ENDBRANCH  70  71
ENDBRANCH  49  63
BRANCH  50  75
ATOM     75  C   UNL A   1      36.461  32.269  31.920  1.00  0.00     0.058 A 
ATOM     76  C   UNL A   1      35.691  32.919  32.955  1.00  0.00     0.135 A 
ATOM     77  C   UNL A   1      36.081  32.680  30.637  1.00  0.00     0.135 A 
ATOM     78  F   UNL A   1      35.922  32.664  34.256  1.00  0.00    -0.206 F 
ATOM     79  C   UNL A   1      34.649  33.883  32.693  1.00  0.00     0.059 A 
ATOM     80  C   UNL A   1      35.084  33.631  30.359  1.00  0.00     0.059 A 
ATOM     81  F   UNL A   1      36.750  32.208  29.579  1.00  0.00    -0.206 F 
ATOM     82  C   UNL A   1      34.369  34.247  31.377  1.00  0.00     0.060 A 
BRANCH  82  83
ATOM     83  S   UNL A   1      33.141  35.534  30.942  1.00  0.00     0.124 S 
ATOM     84  O   UNL A   1      32.100  35.337  31.946  1.00  0.00    -0.237 OA
ATOM     85  O   UNL A   1      33.908  36.769  31.060  1.00  0.00    -0.237 OA
ATOM     86  O   UNL A   1      32.751  35.182  29.578  1.00  0.00    -0.744 OA
ENDBRANCH  82  83
ENDBRANCH  50  75
BRANCH  62  87
ATOM     87  C   UNL A   1      41.665  29.276  33.872  1.00  0.00     0.058 A 
ATOM     88  C   UNL A   1      41.315  27.928  33.609  1.00  0.00     0.135 A 
ATOM     89  C   UNL A   1      42.131  29.526  35.167  1.00  0.00     0.135 A 
ATOM     90  F   UNL A   1      41.070  27.512  32.363  1.00  0.00    -0.206 F 
ATOM     91  C   UNL A   1      41.321  26.928  34.598  1.00  0.00     0.059 A 
ATOM     92  C   UNL A   1      42.204  28.540  36.153  1.00  0.00     0.059 A 
ATOM     93  F   UNL A   1      42.642  30.731  35.459  1.00  0.00    -0.206 F 
ATOM     94  C   UNL A   1      41.762  27.247  35.875  1.00  0.00     0.060 A 
BRANCH  94  95
ATOM     95  S   UNL A   1      41.818  25.989  37.177  1.00  0.00     0.124 S 
ATOM     96  O   UNL A   1      42.862  26.532  38.070  1.00  0.00    -0.237 OA
ATOM     97  O   UNL A   1      40.450  26.060  37.732  1.00  0.00    -0.237 OA
ATOM     98  O   UNL A   1      42.147  24.783  36.494  1.00  0.00    -0.744 OA
ENDBRANCH  94  95
ENDBRANCH  62  87
ENDBRANCH  36  37
ENDBRANCH  28  31
ENDBRANCH  26  27
ENDBRANCH  25  26
ENDBRANCH   1  25
TORSDOF 18
ENDMDL
MODEL 2
REMARK VINA RESULT:     -11.8      1.797      2.850
REMARK SMILES C[C@H](C1CC1)n1c(SCC(=O)NCCCCNC(=O)c2ccc(-c3c4nc(c(-c5c(F)cc(S(=O)(=O)[O-])cc5F)c5ccc([nH]5)c(-c5c(F)cc(S(=O)(=O)[O-])cc5F)c5nc(c(-c6c(F)cc(S(=O)(=O)[O-])cc6F)c6ccc3[nH]6)C=C5)C=C4)cc2)nc2cc(Cl)c(Cl)cc21
REMARK SMILES IDX 14 1 13 2 12 3 10 4 11 5 9 7 8 8 7 9 6 10 94 11 86 12 87 13
REMARK SMILES IDX 93 14 88 15 91 16 89 17 92 18 90 19 2 20 1 21 3 22 4 23 5 24
REMARK SMILES IDX 15 25 16 26 17 27 18 28 19 30 20 31 21 32 85 33 22 34 84 35
REMARK SMILES IDX 23 36 24 37 25 38 78 39 26 40 83 41 77 42 79 43 27 44 82 45
REMARK SMILES IDX 76 46 75 47 28 49 62 50 41 51 61 52 42 53 45 54 60 55 80 56
REMARK SMILES IDX 43 57 44 58 59 60 81 61 46 62 29 63 30 64 39 65 31 66 32 67
REMARK SMILES IDX 38 68 40 69 33 70 34 71 35 72 36 73 37 74 63 75 64 76 73 77
REMARK SMILES IDX 65 78 66 79 72 80 74 81 67 82 68 83 69 84 70 85 71 86 47 87
REMARK SMILES IDX 48 88 57 89 49 90 50 91 56 92 58 93 51 94 52 95 53 96 54 97
REMARK SMILES IDX 55 98
REMARK H PARENT 12 6 17 29 79 48 45 59
REMARK Flexibility Score: inf
ROOT
ATOM      1  C   UNL A   1      36.719  19.788  25.013  1.00  0.00     0.023 C 
ENDROOT
BRANCH   1   2
ATOM      2  C   UNL A   1      35.294  20.387  25.006  1.00  0.00     0.116 C 
BRANCH   2   3
ATOM      3  N   UNL A   1      34.189  19.575  25.481  1.00  0.00    -0.355 N 
ATOM      4  C   UNL A   1      32.860  19.572  25.124  1.00  0.00     0.230 C 
ATOM      5  O   UNL A   1      32.216  18.536  25.348  1.00  0.00    -0.274 OA
ATOM      6  H   UNL A   1      34.429  18.917  26.172  1.00  0.00     0.163 HD
BRANCH   4   7
ATOM      7  C   UNL A   1      32.124  20.761  24.510  1.00  0.00     0.178 C 
BRANCH   7   8
ATOM      8  S   UNL A   1      31.700  22.154  25.544  1.00  0.00    -0.078 SA
BRANCH   8   9
ATOM      9  C   UNL A   1      31.492  23.723  24.796  1.00  0.00     0.169 A 
ATOM     10  N   UNL A   1      32.283  24.563  23.992  1.00  0.00    -0.316 N 
ATOM     11  C   UNL A   1      31.512  25.711  23.769  1.00  0.00     0.071 A 
ATOM     12  N   UNL A   1      30.267  24.206  24.894  1.00  0.00    -0.222 NA
ATOM     13  C   UNL A   1      30.242  25.397  24.239  1.00  0.00     0.091 A 
ATOM     14  C   UNL A   1      31.755  26.965  23.187  1.00  0.00     0.050 A 
ATOM     15  C   UNL A   1      29.164  26.282  24.042  1.00  0.00     0.052 A 
ATOM     16  C   UNL A   1      30.676  27.826  22.948  1.00  0.00     0.061 A 
ATOM     17  C   UNL A   1      29.391  27.492  23.373  1.00  0.00     0.061 A 
ATOM     18  Cl  UNL A   1      31.035  29.294  22.103  1.00  0.00    -0.083 Cl
ATOM     19  Cl  UNL A   1      28.057  28.568  23.155  1.00  0.00    -0.083 Cl
BRANCH  10  20
ATOM     20  C   UNL A   1      33.604  24.293  23.372  1.00  0.00     0.090 C 
ATOM     21  C   UNL A   1      33.678  23.413  22.106  1.00  0.00     0.032 C 
BRANCH  20  22
ATOM     22  C   UNL A   1      34.560  23.771  24.390  1.00  0.00     0.012 C 
ATOM     23  C   UNL A   1      36.032  23.961  24.523  1.00  0.00     0.006 C 
ATOM     24  C   UNL A   1      35.122  24.565  25.557  1.00  0.00     0.006 C 
ENDBRANCH  20  22
ENDBRANCH  10  20
ENDBRANCH   8   9
ENDBRANCH   7   8
ENDBRANCH   4   7
ENDBRANCH   2   3
ENDBRANCH   1   2
BRANCH   1  25
ATOM     25  C   UNL A   1      37.971  20.677  24.820  1.00  0.00     0.023 C 
BRANCH  25  26
ATOM     26  C   UNL A   1      38.808  20.961  26.051  1.00  0.00     0.116 C 
BRANCH  26  27
ATOM     27  N   UNL A   1      40.019  21.669  25.734  1.00  0.00    -0.352 N 
ATOM     28  C   UNL A   1      40.733  22.655  26.343  1.00  0.00     0.251 C 
ATOM     29  H   UNL A   1      40.421  21.375  24.886  1.00  0.00     0.163 HD
ATOM     30  O   UNL A   1      41.884  22.807  25.925  1.00  0.00    -0.269 OA
BRANCH  28  31
ATOM     31  C   UNL A   1      40.179  23.660  27.284  1.00  0.00     0.039 A 
ATOM     32  C   UNL A   1      38.984  24.358  27.203  1.00  0.00     0.014 A 
ATOM     33  C   UNL A   1      41.146  24.177  28.147  1.00  0.00     0.014 A 
ATOM     34  C   UNL A   1      39.047  25.737  27.550  1.00  0.00     0.010 A 
ATOM     35  C   UNL A   1      40.893  25.323  28.858  1.00  0.00     0.010 A 
ATOM     36  C   UNL A   1      40.240  26.297  28.141  1.00  0.00    -0.014 A 
BRANCH  36  37
ATOM     37  C   UNL A   1      40.435  27.707  28.751  1.00  0.00     0.031 A 
ATOM     38  C   UNL A   1      41.765  28.124  27.912  1.00  0.00     0.074 A 
ATOM     39  C   UNL A   1      39.614  28.441  29.717  1.00  0.00     0.049 A 
ATOM     40  N   UNL A   1      42.976  27.908  28.343  1.00  0.00    -0.248 NA
ATOM     41  C   UNL A   1      41.895  28.238  26.395  1.00  0.00     0.031 C 
ATOM     42  C   UNL A   1      38.321  28.188  30.548  1.00  0.00     0.029 A 
ATOM     43  N   UNL A   1      39.817  29.730  30.309  1.00  0.00    -0.354 N 
ATOM     44  C   UNL A   1      43.845  28.507  27.423  1.00  0.00     0.074 A 
ATOM     45  C   UNL A   1      43.205  28.423  26.167  1.00  0.00     0.031 C 
ATOM     46  C   UNL A   1      37.776  29.339  31.108  1.00  0.00     0.029 A 
ATOM     47  C   UNL A   1      38.669  30.462  30.895  1.00  0.00     0.049 A 
ATOM     48  H   UNL A   1      40.716  30.130  30.327  1.00  0.00     0.167 HD
ATOM     49  C   UNL A   1      44.781  29.369  27.897  1.00  0.00     0.037 A 
ATOM     50  C   UNL A   1      38.608  31.766  31.447  1.00  0.00     0.037 A 
ATOM     51  C   UNL A   1      44.853  29.169  29.322  1.00  0.00     0.049 A 
ATOM     52  C   UNL A   1      40.043  32.161  31.571  1.00  0.00     0.074 A 
ATOM     53  C   UNL A   1      45.172  28.090  30.121  1.00  0.00     0.029 A 
ATOM     54  N   UNL A   1      43.930  29.922  29.996  1.00  0.00    -0.354 N 
ATOM     55  N   UNL A   1      40.823  31.562  32.438  1.00  0.00    -0.248 NA
ATOM     56  C   UNL A   1      40.633  32.565  30.292  1.00  0.00     0.031 C 
ATOM     57  C   UNL A   1      44.206  28.089  31.168  1.00  0.00     0.029 A 
ATOM     58  C   UNL A   1      43.475  29.271  31.103  1.00  0.00     0.049 A 
ATOM     59  H   UNL A   1      43.632  30.818  29.716  1.00  0.00     0.167 HD
ATOM     60  C   UNL A   1      41.839  31.042  31.656  1.00  0.00     0.074 A 
ATOM     61  C   UNL A   1      41.660  31.699  30.322  1.00  0.00     0.031 C 
ATOM     62  C   UNL A   1      42.461  29.847  31.951  1.00  0.00     0.037 A 
BRANCH  49  63
ATOM     63  C   UNL A   1      45.190  30.683  27.269  1.00  0.00     0.058 A 
ATOM     64  C   UNL A   1      46.555  30.830  26.959  1.00  0.00     0.135 A 
ATOM     65  C   UNL A   1      44.417  31.868  27.206  1.00  0.00     0.135 A 
ATOM     66  F   UNL A   1      47.380  29.772  27.008  1.00  0.00    -0.206 F 
ATOM     67  C   UNL A   1      47.126  32.055  26.641  1.00  0.00     0.059 A 
ATOM     68  C   UNL A   1      44.963  33.106  26.842  1.00  0.00     0.059 A 
ATOM     69  F   UNL A   1      43.122  31.890  27.552  1.00  0.00    -0.206 F 
ATOM     70  C   UNL A   1      46.324  33.187  26.576  1.00  0.00     0.060 A 
BRANCH  70  71
ATOM     71  S   UNL A   1      47.110  34.743  26.126  1.00  0.00     0.124 S 
ATOM     72  O   UNL A   1      46.014  35.461  25.485  1.00  0.00    -0.237 OA
ATOM     73  O   UNL A   1      47.523  35.248  27.433  1.00  0.00    -0.237 OA
ATOM     74  O   UNL A   1      48.200  34.334  25.247  1.00  0.00    -0.744 OA
ENDBRANCH  70  71
ENDBRANCH  49  63
BRANCH  50  75
ATOM     75  C   UNL A   1      37.515  32.894  31.394  1.00  0.00     0.058 A 
ATOM     76  C   UNL A   1      36.439  33.146  30.464  1.00  0.00     0.135 A 
ATOM     77  C   UNL A   1      37.381  33.631  32.576  1.00  0.00     0.135 A 
ATOM     78  F   UNL A   1      36.385  32.515  29.276  1.00  0.00    -0.206 F 
ATOM     79  C   UNL A   1      35.349  34.055  30.727  1.00  0.00     0.059 A 
ATOM     80  C   UNL A   1      36.319  34.508  32.862  1.00  0.00     0.059 A 
ATOM     81  F   UNL A   1      38.272  33.453  33.558  1.00  0.00    -0.206 F 
ATOM     82  C   UNL A   1      35.293  34.719  31.951  1.00  0.00     0.060 A 
BRANCH  82  83
ATOM     83  S   UNL A   1      33.902  35.813  32.425  1.00  0.00     0.124 S 
ATOM     84  O   UNL A   1      32.802  34.871  32.609  1.00  0.00    -0.237 OA
ATOM     85  O   UNL A   1      34.393  36.458  33.637  1.00  0.00    -0.237 OA
ATOM     86  O   UNL A   1      33.762  36.699  31.271  1.00  0.00    -0.744 OA
ENDBRANCH  82  83
ENDBRANCH  50  75
BRANCH  62  87
ATOM     87  C   UNL A   1      42.175  29.050  33.227  1.00  0.00     0.058 A 
ATOM     88  C   UNL A   1      41.346  27.908  33.358  1.00  0.00     0.135 A 
ATOM     89  C   UNL A   1      43.048  29.274  34.296  1.00  0.00     0.135 A 
ATOM     90  F   UNL A   1      40.632  27.454  32.324  1.00  0.00    -0.206 F 
ATOM     91  C   UNL A   1      41.310  27.116  34.521  1.00  0.00     0.059 A 
ATOM     92  C   UNL A   1      43.076  28.471  35.438  1.00  0.00     0.059 A 
ATOM     93  F   UNL A   1      43.985  30.229  34.189  1.00  0.00    -0.206 F 
ATOM     94  C   UNL A   1      42.177  27.412  35.563  1.00  0.00     0.060 A 
BRANCH  94  95
ATOM     95  S   UNL A   1      42.192  26.406  37.070  1.00  0.00     0.124 S 
ATOM     96  O   UNL A   1      40.836  26.649  37.603  1.00  0.00    -0.237 OA
ATOM     97  O   UNL A   1      42.396  25.046  36.528  1.00  0.00    -0.237 OA
ATOM     98  O   UNL A   1      43.269  26.934  37.840  1.00  0.00    -0.744 OA
ENDBRANCH  94  95
ENDBRANCH  62  87
ENDBRANCH  36  37
ENDBRANCH  28  31
ENDBRANCH  26  27
ENDBRANCH  25  26
ENDBRANCH   1  25
TORSDOF 18
ENDMDL
MODEL 3
REMARK VINA RESULT:     -11.4      1.965      3.374
REMARK SMILES C[C@H](C1CC1)n1c(SCC(=O)NCCCCNC(=O)c2ccc(-c3c4nc(c(-c5c(F)cc(S(=O)(=O)[O-])cc5F)c5ccc([nH]5)c(-c5c(F)cc(S(=O)(=O)[O-])cc5F)c5nc(c(-c6c(F)cc(S(=O)(=O)[O-])cc6F)c6ccc3[nH]6)C=C5)C=C4)cc2)nc2cc(Cl)c(Cl)cc21
REMARK SMILES IDX 14 1 13 2 12 3 10 4 11 5 9 7 8 8 7 9 6 10 94 11 86 12 87 13
REMARK SMILES IDX 93 14 88 15 91 16 89 17 92 18 90 19 2 20 1 21 3 22 4 23 5 24
REMARK SMILES IDX 15 25 16 26 17 27 18 28 19 30 20 31 21 32 85 33 22 34 84 35
REMARK SMILES IDX 23 36 24 37 25 38 78 39 26 40 83 41 77 42 79 43 27 44 82 45
REMARK SMILES IDX 76 46 75 47 28 49 62 50 41 51 61 52 42 53 45 54 60 55 80 56
REMARK SMILES IDX 43 57 44 58 59 60 81 61 46 62 29 63 30 64 39 65 31 66 32 67
REMARK SMILES IDX 38 68 40 69 33 70 34 71 35 72 36 73 37 74 63 75 64 76 73 77
REMARK SMILES IDX 65 78 66 79 72 80 74 81 67 82 68 83 69 84 70 85 71 86 47 87
REMARK SMILES IDX 48 88 57 89 49 90 50 91 56 92 58 93 51 94 52 95 53 96 54 97
REMARK SMILES IDX 55 98
REMARK H PARENT 12 6 17 29 79 48 45 59
REMARK Flexibility Score: inf
ROOT
ATOM      1  C   UNL A   1      35.625  21.337  25.938  1.00  0.00     0.023 C 
ENDROOT
BRANCH   1   2
ATOM      2  C   UNL A   1      34.231  21.298  25.272  1.00  0.00     0.116 C 
BRANCH   2   3
ATOM      3  N   UNL A   1      34.092  21.768  23.906  1.00  0.00    -0.355 N 
ATOM      4  C   UNL A   1      33.841  23.028  23.412  1.00  0.00     0.230 C 
ATOM      5  O   UNL A   1      34.180  23.255  22.241  1.00  0.00    -0.274 OA
ATOM      6  H   UNL A   1      34.196  21.072  23.219  1.00  0.00     0.163 HD
BRANCH   4   7
ATOM      7  C   UNL A   1      33.145  24.142  24.191  1.00  0.00     0.178 C 
BRANCH   7   8
ATOM      8  S   UNL A   1      33.751  25.816  24.049  1.00  0.00    -0.078 SA
BRANCH   8   9
ATOM      9  C   UNL A   1      32.592  27.126  23.985  1.00  0.00     0.169 A 
ATOM     10  N   UNL A   1      32.110  28.082  24.898  1.00  0.00    -0.316 N 
ATOM     11  C   UNL A   1      31.149  28.824  24.197  1.00  0.00     0.071 A 
ATOM     12  N   UNL A   1      32.132  27.379  22.774  1.00  0.00    -0.222 NA
ATOM     13  C   UNL A   1      31.284  28.436  22.868  1.00  0.00     0.091 A 
ATOM     14  C   UNL A   1      30.210  29.805  24.551  1.00  0.00     0.050 A 
ATOM     15  C   UNL A   1      30.563  29.093  21.853  1.00  0.00     0.052 A 
ATOM     16  C   UNL A   1      29.527  30.491  23.538  1.00  0.00     0.061 A 
ATOM     17  C   UNL A   1      29.698  30.139  22.200  1.00  0.00     0.061 A 
ATOM     18  Cl  UNL A   1      28.489  31.780  24.046  1.00  0.00    -0.083 Cl
ATOM     19  Cl  UNL A   1      28.812  30.921  20.938  1.00  0.00    -0.083 Cl
BRANCH  10  20
ATOM     20  C   UNL A   1      32.571  28.377  26.277  1.00  0.00     0.090 C 
ATOM     21  C   UNL A   1      31.536  28.453  27.419  1.00  0.00     0.032 C 
BRANCH  20  22
ATOM     22  C   UNL A   1      33.411  29.609  26.292  1.00  0.00     0.012 C 
ATOM     23  C   UNL A   1      33.743  30.541  27.406  1.00  0.00     0.006 C 
ATOM     24  C   UNL A   1      34.836  29.695  26.812  1.00  0.00     0.006 C 
ENDBRANCH  20  22
ENDBRANCH  10  20
ENDBRANCH   8   9
ENDBRANCH   7   8
ENDBRANCH   4   7
ENDBRANCH   2   3
ENDBRANCH   1   2
BRANCH   1  25
ATOM     25  C   UNL A   1      36.469  22.633  25.973  1.00  0.00     0.023 C 
BRANCH  25  26
ATOM     26  C   UNL A   1      37.821  22.590  25.286  1.00  0.00     0.116 C 
BRANCH  26  27
ATOM     27  N   UNL A   1      38.825  21.962  26.102  1.00  0.00    -0.352 N 
ATOM     28  C   UNL A   1      39.783  22.419  26.954  1.00  0.00     0.251 C 
ATOM     29  H   UNL A   1      38.818  20.981  26.027  1.00  0.00     0.163 HD
ATOM     30  O   UNL A   1      40.267  21.570  27.707  1.00  0.00    -0.269 OA
BRANCH  28  31
ATOM     31  C   UNL A   1      40.414  23.760  26.896  1.00  0.00     0.039 A 
ATOM     32  C   UNL A   1      41.737  24.107  27.124  1.00  0.00     0.014 A 
ATOM     33  C   UNL A   1      39.480  24.796  26.949  1.00  0.00     0.014 A 
ATOM     34  C   UNL A   1      41.945  25.292  27.883  1.00  0.00     0.010 A 
ATOM     35  C   UNL A   1      39.887  26.078  27.221  1.00  0.00     0.010 A 
ATOM     36  C   UNL A   1      40.843  26.167  28.206  1.00  0.00    -0.014 A 
BRANCH  36  37
ATOM     37  C   UNL A   1      40.893  27.574  28.849  1.00  0.00     0.031 A 
ATOM     38  C   UNL A   1      42.278  28.079  28.161  1.00  0.00     0.074 A 
ATOM     39  C   UNL A   1      39.934  28.246  29.731  1.00  0.00     0.049 A 
ATOM     40  N   UNL A   1      43.448  27.922  28.716  1.00  0.00    -0.248 NA
ATOM     41  C   UNL A   1      42.560  28.226  26.668  1.00  0.00     0.031 C 
ATOM     42  C   UNL A   1      38.577  27.909  30.417  1.00  0.00     0.029 A 
ATOM     43  N   UNL A   1      40.001  29.534  30.356  1.00  0.00    -0.354 N 
ATOM     44  C   UNL A   1      44.373  28.584  27.901  1.00  0.00     0.074 A 
ATOM     45  C   UNL A   1      43.875  28.486  26.583  1.00  0.00     0.031 C 
ATOM     46  C   UNL A   1      37.912  29.018  30.929  1.00  0.00     0.029 A 
ATOM     47  C   UNL A   1      38.758  30.191  30.825  1.00  0.00     0.049 A 
ATOM     48  H   UNL A   1      40.869  29.982  30.474  1.00  0.00     0.167 HD
ATOM     49  C   UNL A   1      45.203  29.487  28.480  1.00  0.00     0.037 A 
ATOM     50  C   UNL A   1      38.566  31.481  31.382  1.00  0.00     0.037 A 
ATOM     51  C   UNL A   1      45.136  29.266  29.904  1.00  0.00     0.049 A 
ATOM     52  C   UNL A   1      39.955  31.951  31.662  1.00  0.00     0.074 A 
ATOM     53  C   UNL A   1      45.429  28.193  30.719  1.00  0.00     0.029 A 
ATOM     54  N   UNL A   1      44.106  29.956  30.484  1.00  0.00    -0.354 N 
ATOM     55  N   UNL A   1      40.672  31.382  32.600  1.00  0.00    -0.248 NA
ATOM     56  C   UNL A   1      40.653  32.409  30.458  1.00  0.00     0.031 C 
ATOM     57  C   UNL A   1      44.361  28.121  31.658  1.00  0.00     0.029 A 
ATOM     58  C   UNL A   1      43.575  29.262  31.529  1.00  0.00     0.049 A 
ATOM     59  H   UNL A   1      43.790  30.839  30.184  1.00  0.00     0.167 HD
ATOM     60  C   UNL A   1      41.793  30.931  31.924  1.00  0.00     0.074 A 
ATOM     61  C   UNL A   1      41.718  31.601  30.587  1.00  0.00     0.031 C 
ATOM     62  C   UNL A   1      42.446  29.767  32.271  1.00  0.00     0.037 A 
BRANCH  49  63
ATOM     63  C   UNL A   1      45.602  30.832  27.914  1.00  0.00     0.058 A 
ATOM     64  C   UNL A   1      44.551  31.677  27.511  1.00  0.00     0.135 A 
ATOM     65  C   UNL A   1      46.897  31.225  27.498  1.00  0.00     0.135 A 
ATOM     66  F   UNL A   1      43.282  31.385  27.835  1.00  0.00    -0.206 F 
ATOM     67  C   UNL A   1      44.754  32.808  26.731  1.00  0.00     0.059 A 
ATOM     68  C   UNL A   1      47.130  32.386  26.751  1.00  0.00     0.059 A 
ATOM     69  F   UNL A   1      47.980  30.473  27.743  1.00  0.00    -0.206 F 
ATOM     70  C   UNL A   1      46.045  33.162  26.361  1.00  0.00     0.060 A 
BRANCH  70  71
ATOM     71  S   UNL A   1      46.252  34.656  25.378  1.00  0.00     0.124 S 
ATOM     72  O   UNL A   1      45.298  34.440  24.297  1.00  0.00    -0.237 OA
ATOM     73  O   UNL A   1      45.895  35.691  26.345  1.00  0.00    -0.237 OA
ATOM     74  O   UNL A   1      47.660  34.622  24.997  1.00  0.00    -0.744 OA
ENDBRANCH  70  71
ENDBRANCH  49  63
BRANCH  50  75
ATOM     75  C   UNL A   1      37.422  32.547  31.226  1.00  0.00     0.058 A 
ATOM     76  C   UNL A   1      36.481  32.797  30.160  1.00  0.00     0.135 A 
ATOM     77  C   UNL A   1      37.069  33.200  32.413  1.00  0.00     0.135 A 
ATOM     78  F   UNL A   1      36.643  32.241  28.945  1.00  0.00    -0.206 F 
ATOM     79  C   UNL A   1      35.308  33.627  30.304  1.00  0.00     0.059 A 
ATOM     80  C   UNL A   1      35.923  33.997  32.582  1.00  0.00     0.059 A 
ATOM     81  F   UNL A   1      37.816  33.011  33.506  1.00  0.00    -0.206 F 
ATOM     82  C   UNL A   1      35.031  34.209  31.540  1.00  0.00     0.060 A 
BRANCH  82  83
ATOM     83  S   UNL A   1      33.518  35.192  31.857  1.00  0.00     0.124 S 
ATOM     84  O   UNL A   1      32.922  35.301  30.529  1.00  0.00    -0.237 OA
ATOM     85  O   UNL A   1      32.788  34.367  32.813  1.00  0.00    -0.237 OA
ATOM     86  O   UNL A   1      34.039  36.446  32.400  1.00  0.00    -0.744 OA
ENDBRANCH  82  83
ENDBRANCH  50  75
BRANCH  62  87
ATOM     87  C   UNL A   1      42.073  28.933  33.500  1.00  0.00     0.058 A 
ATOM     88  C   UNL A   1      41.248  27.781  33.538  1.00  0.00     0.135 A 
ATOM     89  C   UNL A   1      42.859  29.137  34.638  1.00  0.00     0.135 A 
ATOM     90  F   UNL A   1      40.619  27.349  32.441  1.00  0.00    -0.206 F 
ATOM     91  C   UNL A   1      41.132  26.959  34.673  1.00  0.00     0.059 A 
ATOM     92  C   UNL A   1      42.809  28.303  35.757  1.00  0.00     0.059 A 
ATOM     93  F   UNL A   1      43.791  30.102  34.627  1.00  0.00    -0.206 F 
ATOM     94  C   UNL A   1      41.915  27.234  35.786  1.00  0.00     0.060 A 
BRANCH  94  95
ATOM     95  S   UNL A   1      41.826  26.188  37.263  1.00  0.00     0.124 S 
ATOM     96  O   UNL A   1      40.487  26.526  37.785  1.00  0.00    -0.237 OA
ATOM     97  O   UNL A   1      41.927  24.832  36.684  1.00  0.00    -0.237 OA
ATOM     98  O   UNL A   1      42.930  26.605  38.061  1.00  0.00    -0.744 OA
ENDBRANCH  94  95
ENDBRANCH  62  87
ENDBRANCH  36  37
ENDBRANCH  28  31
ENDBRANCH  26  27
ENDBRANCH  25  26
ENDBRANCH   1  25
TORSDOF 18
ENDMDL
