MODEL 1
REMARK VINA RESULT:     -13.1      0.000      0.000
REMARK SMILES Cc1ccc(-c2cncc(C#N)c2)cc1C(=O)NCCCCNC(=O)c1ccc(-c2c3nc(c(-c4c(F)cc(S(=O)(=O)[O-])cc4F)c4ccc([nH]4)c(-c4c(F)cc(S(=O)(=O)[O-])cc4F)c4nc(c(-c5c(F)cc(S(=O)(=O)[O-])cc5F)c5ccc2[nH]5)C=C4)C=C3)cc1
REMARK SMILES IDX 21 1 20 2 19 3 18 4 16 5 17 6 15 8 1 9 2 10 3 11 4 12 14 13
REMARK SMILES IDX 5 14 6 15 7 16 13 17 8 18 10 19 9 20 11 21 12 22 22 23 23 24
REMARK SMILES IDX 24 25 25 27 26 28 27 29 91 30 28 31 90 32 29 33 30 34 31 35
REMARK SMILES IDX 84 36 32 37 89 38 83 39 85 40 33 41 88 42 82 43 81 44 34 46
REMARK SMILES IDX 68 47 47 48 67 49 48 50 51 51 66 52 86 53 49 54 50 55 65 57
REMARK SMILES IDX 87 58 52 59 35 60 36 61 45 62 37 63 38 64 44 65 46 66 39 67
REMARK SMILES IDX 40 68 41 69 42 70 43 71 69 72 70 73 79 74 71 75 72 76 78 77
REMARK SMILES IDX 80 78 73 79 74 80 75 81 76 82 77 83 53 84 54 85 63 86 55 87
REMARK SMILES IDX 56 88 62 89 64 90 57 91 58 92 59 93 60 94 61 95
REMARK H PARENT 18 7 23 26 85 45 51 56
REMARK Flexibility Score: inf
ROOT
ATOM      1  C   UNL A   1      32.729  28.565  26.532  1.00  0.00     0.023 C 
ENDROOT
BRANCH   1   2
ATOM      2  C   UNL A   1      33.588  28.643  25.280  1.00  0.00     0.023 C 
BRANCH   2   3
ATOM      3  C   UNL A   1      32.883  29.105  23.992  1.00  0.00     0.116 C 
BRANCH   3   4
ATOM      4  N   UNL A   1      33.362  28.343  22.864  1.00  0.00    -0.352 N 
ATOM      5  C   UNL A   1      33.214  27.050  22.451  1.00  0.00     0.251 C 
ATOM      6  O   UNL A   1      33.918  26.748  21.478  1.00  0.00    -0.269 OA
ATOM      7  H   UNL A   1      33.920  28.876  22.253  1.00  0.00     0.163 HD
BRANCH   5   8
ATOM      8  C   UNL A   1      32.256  26.004  22.983  1.00  0.00     0.043 A 
ATOM      9  C   UNL A   1      30.004  27.267  23.423  1.00  0.00     0.045 C 
ATOM     10  C   UNL A   1      30.884  26.061  23.320  1.00  0.00    -0.038 A 
ATOM     11  C   UNL A   1      30.227  24.883  23.741  1.00  0.00     0.005 A 
ATOM     12  C   UNL A   1      30.917  23.711  24.000  1.00  0.00     0.009 A 
ATOM     13  C   UNL A   1      32.927  24.780  23.262  1.00  0.00     0.023 A 
ATOM     14  C   UNL A   1      32.294  23.657  23.820  1.00  0.00    -0.016 A 
BRANCH  14  15
ATOM     15  C   UNL A   1      33.038  22.494  24.303  1.00  0.00     0.001 A 
ATOM     16  C   UNL A   1      34.425  22.522  24.457  1.00  0.00     0.119 A 
ATOM     17  C   UNL A   1      32.404  21.256  24.496  1.00  0.00     0.031 A 
ATOM     18  N   UNL A   1      35.189  21.441  24.742  1.00  0.00    -0.263 NA
ATOM     19  C   UNL A   1      33.162  20.120  24.783  1.00  0.00     0.071 A 
ATOM     20  C   UNL A   1      34.539  20.265  24.888  1.00  0.00     0.130 A 
BRANCH  19  21
ATOM     21  C   UNL A   1      32.563  18.838  24.920  1.00  0.00     0.101 C 
ATOM     22  N   UNL A   1      32.090  17.777  25.050  1.00  0.00    -0.192 NA
ENDBRANCH  19  21
ENDBRANCH  14  15
ENDBRANCH   5   8
ENDBRANCH   3   4
ENDBRANCH   2   3
ENDBRANCH   1   2
BRANCH   1  23
ATOM     23  C   UNL A   1      32.898  29.760  27.435  1.00  0.00     0.116 C 
BRANCH  23  24
ATOM     24  N   UNL A   1      33.737  30.835  26.937  1.00  0.00    -0.352 N 
ATOM     25  C   UNL A   1      34.915  31.261  27.553  1.00  0.00     0.251 C 
ATOM     26  H   UNL A   1      33.458  31.293  26.112  1.00  0.00     0.163 HD
ATOM     27  O   UNL A   1      35.236  32.438  27.646  1.00  0.00    -0.269 OA
BRANCH  25  28
ATOM     28  C   UNL A   1      35.858  30.190  27.959  1.00  0.00     0.039 A 
ATOM     29  C   UNL A   1      35.892  29.821  29.312  1.00  0.00     0.014 A 
ATOM     30  C   UNL A   1      36.928  29.916  27.122  1.00  0.00     0.014 A 
ATOM     31  C   UNL A   1      37.098  29.434  29.874  1.00  0.00     0.010 A 
ATOM     32  C   UNL A   1      38.151  29.798  27.707  1.00  0.00     0.010 A 
ATOM     33  C   UNL A   1      38.225  29.569  29.083  1.00  0.00    -0.014 A 
BRANCH  33  34
ATOM     34  C   UNL A   1      39.582  29.322  29.496  1.00  0.00     0.031 A 
ATOM     35  C   UNL A   1      40.058  27.964  29.175  1.00  0.00     0.074 A 
ATOM     36  C   UNL A   1      40.298  30.436  29.773  1.00  0.00     0.049 A 
ATOM     37  N   UNL A   1      41.112  27.418  29.644  1.00  0.00    -0.248 NA
ATOM     38  C   UNL A   1      39.319  27.051  28.287  1.00  0.00     0.031 C 
ATOM     39  C   UNL A   1      41.736  30.663  29.772  1.00  0.00     0.029 A 
ATOM     40  N   UNL A   1      39.779  31.621  30.314  1.00  0.00    -0.354 N 
ATOM     41  C   UNL A   1      41.412  26.352  28.812  1.00  0.00     0.074 A 
ATOM     42  C   UNL A   1      40.188  26.053  28.127  1.00  0.00     0.031 C 
ATOM     43  C   UNL A   1      42.008  31.714  30.574  1.00  0.00     0.029 A 
ATOM     44  C   UNL A   1      40.753  32.113  31.202  1.00  0.00     0.049 A 
ATOM     45  H   UNL A   1      38.906  32.027  30.113  1.00  0.00     0.167 HD
ATOM     46  C   UNL A   1      42.727  26.030  28.658  1.00  0.00     0.037 A 
ATOM     47  C   UNL A   1      40.496  32.031  32.544  1.00  0.00     0.037 A 
ATOM     48  C   UNL A   1      43.513  26.885  29.554  1.00  0.00     0.049 A 
ATOM     49  C   UNL A   1      41.357  30.964  33.192  1.00  0.00     0.074 A 
ATOM     50  C   UNL A   1      44.218  28.056  29.335  1.00  0.00     0.029 A 
ATOM     51  N   UNL A   1      43.270  26.820  30.922  1.00  0.00    -0.354 N 
ATOM     52  N   UNL A   1      41.820  29.914  32.565  1.00  0.00    -0.248 NA
ATOM     53  C   UNL A   1      41.872  31.074  34.554  1.00  0.00     0.031 C 
ATOM     54  C   UNL A   1      44.301  28.747  30.577  1.00  0.00     0.029 A 
ATOM     55  C   UNL A   1      43.641  28.000  31.540  1.00  0.00     0.049 A 
ATOM     56  H   UNL A   1      42.886  26.041  31.387  1.00  0.00     0.167 HD
ATOM     57  C   UNL A   1      42.711  29.254  33.370  1.00  0.00     0.074 A 
ATOM     58  C   UNL A   1      42.698  30.014  34.610  1.00  0.00     0.031 C 
ATOM     59  C   UNL A   1      43.438  28.165  32.972  1.00  0.00     0.037 A 
BRANCH  46  60
ATOM     60  C   UNL A   1      43.354  25.212  27.541  1.00  0.00     0.058 A 
ATOM     61  C   UNL A   1      44.203  24.130  27.878  1.00  0.00     0.135 A 
ATOM     62  C   UNL A   1      43.227  25.430  26.153  1.00  0.00     0.135 A 
ATOM     63  F   UNL A   1      44.393  23.759  29.152  1.00  0.00    -0.206 F 
ATOM     64  C   UNL A   1      44.900  23.375  26.936  1.00  0.00     0.059 A 
ATOM     65  C   UNL A   1      43.919  24.687  25.187  1.00  0.00     0.059 A 
ATOM     66  F   UNL A   1      42.410  26.356  25.646  1.00  0.00    -0.206 F 
ATOM     67  C   UNL A   1      44.759  23.663  25.589  1.00  0.00     0.060 A 
BRANCH  67  68
ATOM     68  S   UNL A   1      45.658  22.660  24.394  1.00  0.00     0.124 S 
ATOM     69  O   UNL A   1      46.215  21.609  25.239  1.00  0.00    -0.237 OA
ATOM     70  O   UNL A   1      44.596  22.248  23.482  1.00  0.00    -0.237 OA
ATOM     71  O   UNL A   1      46.635  23.591  23.834  1.00  0.00    -0.744 OA
ENDBRANCH  67  68
ENDBRANCH  46  60
BRANCH  47  72
ATOM     72  C   UNL A   1      39.064  32.374  32.842  1.00  0.00     0.058 A 
ATOM     73  C   UNL A   1      38.716  33.742  32.745  1.00  0.00     0.135 A 
ATOM     74  C   UNL A   1      38.023  31.446  32.689  1.00  0.00     0.135 A 
ATOM     75  F   UNL A   1      39.660  34.684  32.910  1.00  0.00    -0.206 F 
ATOM     76  C   UNL A   1      37.461  34.159  32.309  1.00  0.00     0.059 A 
ATOM     77  C   UNL A   1      36.746  31.848  32.273  1.00  0.00     0.059 A 
ATOM     78  F   UNL A   1      38.271  30.131  32.783  1.00  0.00    -0.206 F 
ATOM     79  C   UNL A   1      36.503  33.198  32.008  1.00  0.00     0.060 A 
BRANCH  79  80
ATOM     80  S   UNL A   1      35.024  33.736  31.108  1.00  0.00     0.124 S 
ATOM     81  O   UNL A   1      34.339  32.470  30.877  1.00  0.00    -0.237 OA
ATOM     82  O   UNL A   1      34.391  34.635  32.078  1.00  0.00    -0.237 OA
ATOM     83  O   UNL A   1      35.575  34.378  29.922  1.00  0.00    -0.744 OA
ENDBRANCH  79  80
ENDBRANCH  47  72
BRANCH  59  84
ATOM     84  C   UNL A   1      44.115  27.184  33.902  1.00  0.00     0.058 A 
ATOM     85  C   UNL A   1      45.502  27.150  34.120  1.00  0.00     0.135 A 
ATOM     86  C   UNL A   1      43.347  26.340  34.746  1.00  0.00     0.135 A 
ATOM     87  F   UNL A   1      46.335  27.996  33.500  1.00  0.00    -0.206 F 
ATOM     88  C   UNL A   1      46.090  26.265  35.020  1.00  0.00     0.059 A 
ATOM     89  C   UNL A   1      43.907  25.523  35.718  1.00  0.00     0.059 A 
ATOM     90  F   UNL A   1      42.009  26.282  34.672  1.00  0.00    -0.206 F 
ATOM     91  C   UNL A   1      45.285  25.455  35.812  1.00  0.00     0.060 A 
BRANCH  91  92
ATOM     92  S   UNL A   1      46.051  24.312  36.964  1.00  0.00     0.124 S 
ATOM     93  O   UNL A   1      45.518  24.793  38.235  1.00  0.00    -0.237 OA
ATOM     94  O   UNL A   1      45.543  23.020  36.512  1.00  0.00    -0.237 OA
ATOM     95  O   UNL A   1      47.480  24.524  36.758  1.00  0.00    -0.744 OA
ENDBRANCH  91  92
ENDBRANCH  59  84
ENDBRANCH  33  34
ENDBRANCH  25  28
ENDBRANCH  23  24
ENDBRANCH   1  23
TORSDOF 16
ENDMDL
MODEL 2
REMARK VINA RESULT:     -12.7      3.617     10.081
REMARK SMILES Cc1ccc(-c2cncc(C#N)c2)cc1C(=O)NCCCCNC(=O)c1ccc(-c2c3nc(c(-c4c(F)cc(S(=O)(=O)[O-])cc4F)c4ccc([nH]4)c(-c4c(F)cc(S(=O)(=O)[O-])cc4F)c4nc(c(-c5c(F)cc(S(=O)(=O)[O-])cc5F)c5ccc2[nH]5)C=C4)C=C3)cc1
REMARK SMILES IDX 21 1 20 2 19 3 18 4 16 5 17 6 15 8 1 9 2 10 3 11 4 12 14 13
REMARK SMILES IDX 5 14 6 15 7 16 13 17 8 18 10 19 9 20 11 21 12 22 22 23 23 24
REMARK SMILES IDX 24 25 25 27 26 28 27 29 91 30 28 31 90 32 29 33 30 34 31 35
REMARK SMILES IDX 84 36 32 37 89 38 83 39 85 40 33 41 88 42 82 43 81 44 34 46
REMARK SMILES IDX 68 47 47 48 67 49 48 50 51 51 66 52 86 53 49 54 50 55 65 57
REMARK SMILES IDX 87 58 52 59 35 60 36 61 45 62 37 63 38 64 44 65 46 66 39 67
REMARK SMILES IDX 40 68 41 69 42 70 43 71 69 72 70 73 79 74 71 75 72 76 78 77
REMARK SMILES IDX 80 78 73 79 74 80 75 81 76 82 77 83 53 84 54 85 63 86 55 87
REMARK SMILES IDX 56 88 62 89 64 90 57 91 58 92 59 93 60 94 61 95
REMARK H PARENT 18 7 23 26 85 45 51 56
REMARK Flexibility Score: inf
ROOT
ATOM      1  C   UNL A   1      36.075  22.562  24.974  1.00  0.00     0.023 C 
ENDROOT
BRANCH   1   2
ATOM      2  C   UNL A   1      35.428  22.780  23.615  1.00  0.00     0.023 C 
BRANCH   2   3
ATOM      3  C   UNL A   1      34.014  23.388  23.619  1.00  0.00     0.116 C 
BRANCH   3   4
ATOM      4  N   UNL A   1      33.862  24.296  22.508  1.00  0.00    -0.352 N 
ATOM      5  C   UNL A   1      33.358  25.557  22.366  1.00  0.00     0.251 C 
ATOM      6  O   UNL A   1      33.281  25.941  21.191  1.00  0.00    -0.269 OA
ATOM      7  H   UNL A   1      34.199  23.923  21.662  1.00  0.00     0.163 HD
BRANCH   5   8
ATOM      8  C   UNL A   1      32.972  26.536  23.456  1.00  0.00     0.043 A 
ATOM      9  C   UNL A   1      34.402  25.868  25.546  1.00  0.00     0.045 C 
ATOM     10  C   UNL A   1      33.457  26.731  24.769  1.00  0.00    -0.038 A 
ATOM     11  C   UNL A   1      32.936  27.787  25.549  1.00  0.00     0.005 A 
ATOM     12  C   UNL A   1      31.846  28.534  25.137  1.00  0.00     0.009 A 
ATOM     13  C   UNL A   1      31.852  27.327  23.071  1.00  0.00     0.023 A 
ATOM     14  C   UNL A   1      31.246  28.275  23.911  1.00  0.00    -0.016 A 
BRANCH  14  15
ATOM     15  C   UNL A   1      29.970  28.913  23.585  1.00  0.00     0.001 A 
ATOM     16  C   UNL A   1      28.854  28.167  23.200  1.00  0.00     0.119 A 
ATOM     17  C   UNL A   1      29.856  30.310  23.507  1.00  0.00     0.031 A 
ATOM     18  N   UNL A   1      27.699  28.697  22.732  1.00  0.00    -0.263 NA
ATOM     19  C   UNL A   1      28.682  30.889  23.022  1.00  0.00     0.071 A 
ATOM     20  C   UNL A   1      27.646  30.045  22.645  1.00  0.00     0.130 A 
BRANCH  19  21
ATOM     21  C   UNL A   1      28.554  32.296  22.867  1.00  0.00     0.101 C 
ATOM     22  N   UNL A   1      28.423  33.452  22.752  1.00  0.00    -0.192 NA
ENDBRANCH  19  21
ENDBRANCH  14  15
ENDBRANCH   5   8
ENDBRANCH   3   4
ENDBRANCH   2   3
ENDBRANCH   1   2
BRANCH   1  23
ATOM     23  C   UNL A   1      37.571  22.402  24.893  1.00  0.00     0.116 C 
BRANCH  23  24
ATOM     24  N   UNL A   1      38.241  21.950  26.099  1.00  0.00    -0.352 N 
ATOM     25  C   UNL A   1      39.385  22.545  26.633  1.00  0.00     0.251 C 
ATOM     26  H   UNL A   1      37.864  21.173  26.572  1.00  0.00     0.163 HD
ATOM     27  O   UNL A   1      40.312  21.908  27.113  1.00  0.00    -0.269 OA
BRANCH  25  28
ATOM     28  C   UNL A   1      39.356  24.026  26.738  1.00  0.00     0.039 A 
ATOM     29  C   UNL A   1      40.204  24.761  25.897  1.00  0.00     0.014 A 
ATOM     30  C   UNL A   1      38.852  24.583  27.902  1.00  0.00     0.014 A 
ATOM     31  C   UNL A   1      40.758  25.942  26.366  1.00  0.00     0.010 A 
ATOM     32  C   UNL A   1      39.580  25.582  28.469  1.00  0.00     0.010 A 
ATOM     33  C   UNL A   1      40.537  26.246  27.698  1.00  0.00    -0.014 A 
BRANCH  33  34
ATOM     34  C   UNL A   1      41.097  27.363  28.413  1.00  0.00     0.031 A 
ATOM     35  C   UNL A   1      40.204  28.536  28.466  1.00  0.00     0.074 A 
ATOM     36  C   UNL A   1      42.152  27.056  29.201  1.00  0.00     0.049 A 
ATOM     37  N   UNL A   1      40.550  29.715  28.815  1.00  0.00    -0.248 NA
ATOM     38  C   UNL A   1      38.788  28.477  28.067  1.00  0.00     0.031 C 
ATOM     39  C   UNL A   1      42.690  27.733  30.372  1.00  0.00     0.029 A 
ATOM     40  N   UNL A   1      43.102  26.060  28.933  1.00  0.00    -0.354 N 
ATOM     41  C   UNL A   1      39.383  30.397  29.117  1.00  0.00     0.074 A 
ATOM     42  C   UNL A   1      38.339  29.670  28.458  1.00  0.00     0.031 C 
ATOM     43  C   UNL A   1      43.987  27.387  30.514  1.00  0.00     0.029 A 
ATOM     44  C   UNL A   1      44.343  26.567  29.362  1.00  0.00     0.049 A 
ATOM     45  H   UNL A   1      42.934  25.180  28.525  1.00  0.00     0.167 HD
ATOM     46  C   UNL A   1      39.453  31.356  30.084  1.00  0.00     0.037 A 
ATOM     47  C   UNL A   1      45.253  26.926  28.404  1.00  0.00     0.037 A 
ATOM     48  C   UNL A   1      40.855  31.487  30.494  1.00  0.00     0.049 A 
ATOM     49  C   UNL A   1      45.380  28.434  28.323  1.00  0.00     0.074 A 
ATOM     50  C   UNL A   1      41.559  30.964  31.566  1.00  0.00     0.029 A 
ATOM     51  N   UNL A   1      41.798  31.851  29.540  1.00  0.00    -0.354 N 
ATOM     52  N   UNL A   1      44.427  29.270  28.643  1.00  0.00    -0.248 NA
ATOM     53  C   UNL A   1      46.635  29.112  28.008  1.00  0.00     0.031 C 
ATOM     54  C   UNL A   1      42.933  30.920  31.196  1.00  0.00     0.029 A 
ATOM     55  C   UNL A   1      43.056  31.406  29.904  1.00  0.00     0.049 A 
ATOM     56  H   UNL A   1      41.598  32.355  28.718  1.00  0.00     0.167 HD
ATOM     57  C   UNL A   1      44.919  30.549  28.644  1.00  0.00     0.074 A 
ATOM     58  C   UNL A   1      46.303  30.397  28.227  1.00  0.00     0.031 C 
ATOM     59  C   UNL A   1      44.193  31.645  29.025  1.00  0.00     0.037 A 
BRANCH  46  60
ATOM     60  C   UNL A   1      38.303  31.952  30.879  1.00  0.00     0.058 A 
ATOM     61  C   UNL A   1      37.561  33.017  30.315  1.00  0.00     0.135 A 
ATOM     62  C   UNL A   1      37.891  31.593  32.180  1.00  0.00     0.135 A 
ATOM     63  F   UNL A   1      37.791  33.449  29.067  1.00  0.00    -0.206 F 
ATOM     64  C   UNL A   1      36.548  33.696  30.993  1.00  0.00     0.059 A 
ATOM     65  C   UNL A   1      36.880  32.262  32.884  1.00  0.00     0.059 A 
ATOM     66  F   UNL A   1      38.424  30.562  32.841  1.00  0.00    -0.206 F 
ATOM     67  C   UNL A   1      36.217  33.318  32.283  1.00  0.00     0.060 A 
BRANCH  67  68
ATOM     68  S   UNL A   1      34.895  34.201  33.127  1.00  0.00     0.124 S 
ATOM     69  O   UNL A   1      34.781  33.455  34.376  1.00  0.00    -0.237 OA
ATOM     70  O   UNL A   1      35.450  35.546  33.238  1.00  0.00    -0.237 OA
ATOM     71  O   UNL A   1      33.760  34.068  32.217  1.00  0.00    -0.744 OA
ENDBRANCH  67  68
ENDBRANCH  46  60
BRANCH  47  72
ATOM     72  C   UNL A   1      45.273  25.931  27.277  1.00  0.00     0.058 A 
ATOM     73  C   UNL A   1      45.923  24.703  27.540  1.00  0.00     0.135 A 
ATOM     74  C   UNL A   1      44.304  25.929  26.263  1.00  0.00     0.135 A 
ATOM     75  F   UNL A   1      46.882  24.643  28.480  1.00  0.00    -0.206 F 
ATOM     76  C   UNL A   1      45.490  23.501  26.985  1.00  0.00     0.059 A 
ATOM     77  C   UNL A   1      43.870  24.732  25.675  1.00  0.00     0.059 A 
ATOM     78  F   UNL A   1      43.655  27.059  25.945  1.00  0.00    -0.206 F 
ATOM     79  C   UNL A   1      44.414  23.519  26.104  1.00  0.00     0.060 A 
BRANCH  79  80
ATOM     80  S   UNL A   1      43.643  21.933  25.685  1.00  0.00     0.124 S 
ATOM     81  O   UNL A   1      42.709  22.324  24.637  1.00  0.00    -0.237 OA
ATOM     82  O   UNL A   1      44.798  21.143  25.246  1.00  0.00    -0.237 OA
ATOM     83  O   UNL A   1      43.038  21.516  26.943  1.00  0.00    -0.744 OA
ENDBRANCH  79  80
ENDBRANCH  47  72
BRANCH  59  84
ATOM     84  C   UNL A   1      44.534  33.077  28.681  1.00  0.00     0.058 A 
ATOM     85  C   UNL A   1      44.312  33.647  27.417  1.00  0.00     0.135 A 
ATOM     86  C   UNL A   1      44.951  33.984  29.690  1.00  0.00     0.135 A 
ATOM     87  F   UNL A   1      43.778  32.943  26.409  1.00  0.00    -0.206 F 
ATOM     88  C   UNL A   1      44.592  34.983  27.145  1.00  0.00     0.059 A 
ATOM     89  C   UNL A   1      45.142  35.339  29.463  1.00  0.00     0.059 A 
ATOM     90  F   UNL A   1      45.181  33.592  30.952  1.00  0.00    -0.206 F 
ATOM     91  C   UNL A   1      45.010  35.820  28.173  1.00  0.00     0.060 A 
BRANCH  91  92
ATOM     92  S   UNL A   1      45.377  37.539  27.813  1.00  0.00     0.124 S 
ATOM     93  O   UNL A   1      46.715  37.429  27.241  1.00  0.00    -0.237 OA
ATOM     94  O   UNL A   1      44.316  37.899  26.876  1.00  0.00    -0.237 OA
ATOM     95  O   UNL A   1      45.300  38.186  29.119  1.00  0.00    -0.744 OA
ENDBRANCH  91  92
ENDBRANCH  59  84
ENDBRANCH  33  34
ENDBRANCH  25  28
ENDBRANCH  23  24
ENDBRANCH   1  23
TORSDOF 16
ENDMDL
MODEL 3
REMARK VINA RESULT:     -12.7      3.583      9.952
REMARK SMILES Cc1ccc(-c2cncc(C#N)c2)cc1C(=O)NCCCCNC(=O)c1ccc(-c2c3nc(c(-c4c(F)cc(S(=O)(=O)[O-])cc4F)c4ccc([nH]4)c(-c4c(F)cc(S(=O)(=O)[O-])cc4F)c4nc(c(-c5c(F)cc(S(=O)(=O)[O-])cc5F)c5ccc2[nH]5)C=C4)C=C3)cc1
REMARK SMILES IDX 21 1 20 2 19 3 18 4 16 5 17 6 15 8 1 9 2 10 3 11 4 12 14 13
REMARK SMILES IDX 5 14 6 15 7 16 13 17 8 18 10 19 9 20 11 21 12 22 22 23 23 24
REMARK SMILES IDX 24 25 25 27 26 28 27 29 91 30 28 31 90 32 29 33 30 34 31 35
REMARK SMILES IDX 84 36 32 37 89 38 83 39 85 40 33 41 88 42 82 43 81 44 34 46
REMARK SMILES IDX 68 47 47 48 67 49 48 50 51 51 66 52 86 53 49 54 50 55 65 57
REMARK SMILES IDX 87 58 52 59 35 60 36 61 45 62 37 63 38 64 44 65 46 66 39 67
REMARK SMILES IDX 40 68 41 69 42 70 43 71 69 72 70 73 79 74 71 75 72 76 78 77
REMARK SMILES IDX 80 78 73 79 74 80 75 81 76 82 77 83 53 84 54 85 63 86 55 87
REMARK SMILES IDX 56 88 62 89 64 90 57 91 58 92 59 93 60 94 61 95
REMARK H PARENT 18 7 23 26 85 45 51 56
REMARK Flexibility Score: inf
ROOT
ATOM      1  C   UNL A   1      36.336  21.702  24.618  1.00  0.00     0.023 C 
ENDROOT
BRANCH   1   2
ATOM      2  C   UNL A   1      35.409  21.609  25.820  1.00  0.00     0.023 C 
BRANCH   2   3
ATOM      3  C   UNL A   1      35.032  22.938  26.499  1.00  0.00     0.116 C 
BRANCH   3   4
ATOM      4  N   UNL A   1      33.758  22.811  27.163  1.00  0.00    -0.352 N 
ATOM      5  C   UNL A   1      32.468  23.106  26.824  1.00  0.00     0.251 C 
ATOM      6  O   UNL A   1      31.659  22.972  27.752  1.00  0.00    -0.269 OA
ATOM      7  H   UNL A   1      33.835  22.424  28.065  1.00  0.00     0.163 HD
BRANCH   5   8
ATOM      8  C   UNL A   1      31.926  23.485  25.461  1.00  0.00     0.043 A 
ATOM      9  C   UNL A   1      32.261  21.371  23.953  1.00  0.00     0.045 C 
ATOM     10  C   UNL A   1      31.758  22.745  24.269  1.00  0.00    -0.038 A 
ATOM     11  C   UNL A   1      31.154  23.362  23.151  1.00  0.00     0.005 A 
ATOM     12  C   UNL A   1      30.875  24.718  23.124  1.00  0.00     0.009 A 
ATOM     13  C   UNL A   1      31.624  24.875  25.391  1.00  0.00     0.023 A 
ATOM     14  C   UNL A   1      31.161  25.511  24.229  1.00  0.00    -0.016 A 
BRANCH  14  15
ATOM     15  C   UNL A   1      31.070  26.967  24.111  1.00  0.00     0.001 A 
ATOM     16  C   UNL A   1      31.585  27.815  25.093  1.00  0.00     0.119 A 
ATOM     17  C   UNL A   1      30.335  27.567  23.077  1.00  0.00     0.031 A 
ATOM     18  N   UNL A   1      31.394  29.156  25.128  1.00  0.00    -0.263 NA
ATOM     19  C   UNL A   1      30.113  28.945  23.087  1.00  0.00     0.071 A 
ATOM     20  C   UNL A   1      30.654  29.685  24.129  1.00  0.00     0.130 A 
BRANCH  19  21
ATOM     21  C   UNL A   1      29.318  29.580  22.093  1.00  0.00     0.101 C 
ATOM     22  N   UNL A   1      28.669  30.079  21.259  1.00  0.00    -0.192 NA
ENDBRANCH  19  21
ENDBRANCH  14  15
ENDBRANCH   5   8
ENDBRANCH   3   4
ENDBRANCH   2   3
ENDBRANCH   1   2
BRANCH   1  23
ATOM     23  C   UNL A   1      37.639  22.391  24.933  1.00  0.00     0.116 C 
BRANCH  23  24
ATOM     24  N   UNL A   1      38.338  21.942  26.123  1.00  0.00    -0.352 N 
ATOM     25  C   UNL A   1      39.478  22.556  26.644  1.00  0.00     0.251 C 
ATOM     26  H   UNL A   1      37.987  21.152  26.594  1.00  0.00     0.163 HD
ATOM     27  O   UNL A   1      40.427  21.935  27.102  1.00  0.00    -0.269 OA
BRANCH  25  28
ATOM     28  C   UNL A   1      39.419  24.035  26.765  1.00  0.00     0.039 A 
ATOM     29  C   UNL A   1      40.227  24.797  25.909  1.00  0.00     0.014 A 
ATOM     30  C   UNL A   1      38.935  24.569  27.949  1.00  0.00     0.014 A 
ATOM     31  C   UNL A   1      40.766  25.986  26.375  1.00  0.00     0.010 A 
ATOM     32  C   UNL A   1      39.656  25.579  28.506  1.00  0.00     0.010 A 
ATOM     33  C   UNL A   1      40.576  26.272  27.715  1.00  0.00    -0.014 A 
BRANCH  33  34
ATOM     34  C   UNL A   1      41.131  27.395  28.426  1.00  0.00     0.031 A 
ATOM     35  C   UNL A   1      40.229  28.560  28.481  1.00  0.00     0.074 A 
ATOM     36  C   UNL A   1      42.192  27.097  29.210  1.00  0.00     0.049 A 
ATOM     37  N   UNL A   1      40.567  29.742  28.827  1.00  0.00    -0.248 NA
ATOM     38  C   UNL A   1      38.812  28.490  28.088  1.00  0.00     0.031 C 
ATOM     39  C   UNL A   1      42.730  27.779  30.377  1.00  0.00     0.029 A 
ATOM     40  N   UNL A   1      43.148  26.108  28.939  1.00  0.00    -0.354 N 
ATOM     41  C   UNL A   1      39.397  30.416  29.133  1.00  0.00     0.074 A 
ATOM     42  C   UNL A   1      38.355  29.680  28.479  1.00  0.00     0.031 C 
ATOM     43  C   UNL A   1      44.029  27.444  30.514  1.00  0.00     0.029 A 
ATOM     44  C   UNL A   1      44.386  26.624  29.362  1.00  0.00     0.049 A 
ATOM     45  H   UNL A   1      42.984  25.226  28.533  1.00  0.00     0.167 HD
ATOM     46  C   UNL A   1      39.464  31.377  30.098  1.00  0.00     0.037 A 
ATOM     47  C   UNL A   1      45.290  26.988  28.399  1.00  0.00     0.037 A 
ATOM     48  C   UNL A   1      40.866  31.520  30.502  1.00  0.00     0.049 A 
ATOM     49  C   UNL A   1      45.405  28.498  28.315  1.00  0.00     0.074 A 
ATOM     50  C   UNL A   1      41.579  31.004  31.571  1.00  0.00     0.029 A 
ATOM     51  N   UNL A   1      41.803  31.889  29.542  1.00  0.00    -0.354 N 
ATOM     52  N   UNL A   1      44.447  29.327  28.638  1.00  0.00    -0.248 NA
ATOM     53  C   UNL A   1      46.653  29.185  27.994  1.00  0.00     0.031 C 
ATOM     54  C   UNL A   1      42.952  30.970  31.195  1.00  0.00     0.029 A 
ATOM     55  C   UNL A   1      43.065  31.454  29.901  1.00  0.00     0.049 A 
ATOM     56  H   UNL A   1      41.595  32.390  28.721  1.00  0.00     0.167 HD
ATOM     57  C   UNL A   1      44.929  30.610  28.635  1.00  0.00     0.074 A 
ATOM     58  C   UNL A   1      46.312  30.467  28.212  1.00  0.00     0.031 C 
ATOM     59  C   UNL A   1      44.196  31.701  29.018  1.00  0.00     0.037 A 
BRANCH  46  60
ATOM     60  C   UNL A   1      38.312  31.966  30.897  1.00  0.00     0.058 A 
ATOM     61  C   UNL A   1      37.494  32.951  30.294  1.00  0.00     0.135 A 
ATOM     62  C   UNL A   1      37.968  31.675  32.234  1.00  0.00     0.135 A 
ATOM     63  F   UNL A   1      37.656  33.309  29.012  1.00  0.00    -0.206 F 
ATOM     64  C   UNL A   1      36.472  33.621  30.965  1.00  0.00     0.059 A 
ATOM     65  C   UNL A   1      36.948  32.337  32.932  1.00  0.00     0.059 A 
ATOM     66  F   UNL A   1      38.579  30.720  32.939  1.00  0.00    -0.206 F 
ATOM     67  C   UNL A   1      36.208  33.315  32.290  1.00  0.00     0.060 A 
BRANCH  67  68
ATOM     68  S   UNL A   1      34.872  34.184  33.126  1.00  0.00     0.124 S 
ATOM     69  O   UNL A   1      33.762  33.999  32.197  1.00  0.00    -0.237 OA
ATOM     70  O   UNL A   1      34.776  33.454  34.386  1.00  0.00    -0.237 OA
ATOM     71  O   UNL A   1      35.371  35.553  33.235  1.00  0.00    -0.744 OA
ENDBRANCH  67  68
ENDBRANCH  46  60
BRANCH  47  72
ATOM     72  C   UNL A   1      45.312  25.993  27.274  1.00  0.00     0.058 A 
ATOM     73  C   UNL A   1      45.978  24.772  27.534  1.00  0.00     0.135 A 
ATOM     74  C   UNL A   1      44.335  25.977  26.267  1.00  0.00     0.135 A 
ATOM     75  F   UNL A   1      46.944  24.724  28.467  1.00  0.00    -0.206 F 
ATOM     76  C   UNL A   1      45.554  23.564  26.984  1.00  0.00     0.059 A 
ATOM     77  C   UNL A   1      43.911  24.775  25.684  1.00  0.00     0.059 A 
ATOM     78  F   UNL A   1      43.672  27.100  25.952  1.00  0.00    -0.206 F 
ATOM     79  C   UNL A   1      44.472  23.569  26.112  1.00  0.00     0.060 A 
BRANCH  79  80
ATOM     80  S   UNL A   1      43.716  21.973  25.701  1.00  0.00     0.124 S 
ATOM     81  O   UNL A   1      44.839  21.253  25.115  1.00  0.00    -0.237 OA
ATOM     82  O   UNL A   1      43.273  21.501  27.017  1.00  0.00    -0.237 OA
ATOM     83  O   UNL A   1      42.653  22.340  24.774  1.00  0.00    -0.744 OA
ENDBRANCH  79  80
ENDBRANCH  47  72
BRANCH  59  84
ATOM     84  C   UNL A   1      44.525  33.135  28.670  1.00  0.00     0.058 A 
ATOM     85  C   UNL A   1      45.144  34.028  29.560  1.00  0.00     0.135 A 
ATOM     86  C   UNL A   1      44.373  33.610  27.341  1.00  0.00     0.135 A 
ATOM     87  F   UNL A   1      45.485  33.664  30.803  1.00  0.00    -0.206 F 
ATOM     88  C   UNL A   1      45.479  35.329  29.193  1.00  0.00     0.059 A 
ATOM     89  C   UNL A   1      44.789  34.869  26.931  1.00  0.00     0.059 A 
ATOM     90  F   UNL A   1      43.820  32.863  26.375  1.00  0.00    -0.206 F 
ATOM     91  C   UNL A   1      45.294  35.740  27.878  1.00  0.00     0.060 A 
BRANCH  91  92
ATOM     92  S   UNL A   1      45.720  37.421  27.415  1.00  0.00     0.124 S 
ATOM     93  O   UNL A   1      46.569  37.816  28.535  1.00  0.00    -0.237 OA
ATOM     94  O   UNL A   1      46.404  37.233  26.139  1.00  0.00    -0.237 OA
ATOM     95  O   UNL A   1      44.427  38.092  27.335  1.00  0.00    -0.744 OA
ENDBRANCH  91  92
ENDBRANCH  59  84
ENDBRANCH  33  34
ENDBRANCH  25  28
ENDBRANCH  23  24
ENDBRANCH   1  23
TORSDOF 16
ENDMDL
