MODEL 1
REMARK VINA RESULT:     -14.0      0.000      0.000
REMARK SMILES Cc1ccc(-c2cc(OCC(=O)NCCCCNC(=O)c3ccc(-c4c5nc(c(-c6c(F)cc(S(=O)(=O)[O-])cc6F)c6ccc([nH]6)c(-c6c(F)cc(S(=O)(=O)[O-])cc6F)c6nc(c(-c7c(F)cc(S(=O)(=O)[O-])cc7F)c7ccc4[nH]7)C=C6)C=C5)cc3)nc(NCc3ccc4c(c3)OCO4)n2)cc1
REMARK SMILES IDX 14 1 13 2 11 3 12 4 10 6 9 7 8 8 6 9 7 10 100 11 88 12 87 13
REMARK SMILES IDX 5 14 1 15 2 16 3 17 102 18 4 19 101 20 89 21 90 23 91 24
REMARK SMILES IDX 92 25 96 26 93 27 95 28 94 29 97 30 99 31 98 32 15 33 16 34
REMARK SMILES IDX 17 35 18 36 19 37 20 39 21 40 22 41 86 42 23 43 85 44 24 45
REMARK SMILES IDX 25 46 26 47 79 48 27 49 84 50 78 51 80 52 28 53 83 54 77 55
REMARK SMILES IDX 76 56 29 58 63 59 42 60 62 61 43 62 46 63 61 64 81 65 44 66
REMARK SMILES IDX 45 67 60 69 82 70 47 71 30 72 31 73 40 74 32 75 33 76 39 77
REMARK SMILES IDX 41 78 34 79 35 80 36 81 37 82 38 83 64 84 65 85 74 86 66 87
REMARK SMILES IDX 67 88 73 89 75 90 68 91 69 92 70 93 71 94 72 95 48 96 49 97
REMARK SMILES IDX 58 98 50 99 51 100 57 101 59 102 52 103 53 104 54 105 55 106
REMARK SMILES IDX 56 107
REMARK H PARENT 13 5 89 22 18 38 80 57 46 68
REMARK Flexibility Score: inf
ROOT
ATOM      1  C   UNL A   1      31.861  27.646  23.523  1.00  0.00     0.116 C 
ENDROOT
BRANCH   1   2
ATOM      2  N   UNL A   1      32.316  27.133  22.240  1.00  0.00    -0.353 N 
ATOM      3  C   UNL A   1      33.067  26.027  21.974  1.00  0.00     0.258 C 
ATOM      4  O   UNL A   1      33.335  25.746  20.803  1.00  0.00    -0.271 OA
ATOM      5  H   UNL A   1      32.043  27.657  21.452  1.00  0.00     0.163 HD
BRANCH   3   6
ATOM      6  C   UNL A   1      33.571  25.151  23.126  1.00  0.00     0.331 C 
BRANCH   6   7
ATOM      7  O   UNL A   1      34.468  24.110  22.786  1.00  0.00    -0.467 OA
BRANCH   7   8
ATOM      8  C   UNL A   1      34.721  23.164  23.736  1.00  0.00     0.219 A 
ATOM      9  C   UNL A   1      34.583  21.096  24.808  1.00  0.00     0.080 A 
ATOM     10  C   UNL A   1      34.167  21.912  23.775  1.00  0.00     0.097 A 
ATOM     11  N   UNL A   1      35.436  21.511  25.767  1.00  0.00    -0.213 NA
ATOM     12  C   UNL A   1      35.932  22.745  25.636  1.00  0.00     0.226 A 
ATOM     13  N   UNL A   1      35.597  23.587  24.656  1.00  0.00    -0.177 NA
BRANCH   9  14
ATOM     14  C   UNL A   1      34.156  19.695  24.869  1.00  0.00     0.000 A 
ATOM     15  C   UNL A   1      32.924  15.564  25.270  1.00  0.00     0.044 C 
ATOM     16  C   UNL A   1      33.336  16.997  25.110  1.00  0.00    -0.051 A 
ATOM     17  C   UNL A   1      34.592  17.317  24.580  1.00  0.00     0.004 A 
ATOM     18  C   UNL A   1      32.487  18.033  25.510  1.00  0.00     0.004 A 
ATOM     19  C   UNL A   1      34.994  18.652  24.452  1.00  0.00     0.010 A 
ATOM     20  C   UNL A   1      32.894  19.363  25.391  1.00  0.00     0.010 A 
ENDBRANCH   9  14
BRANCH  12  21
ATOM     21  N   UNL A   1      36.865  23.232  26.510  1.00  0.00    -0.350 N 
ATOM     22  H   UNL A   1      36.626  23.318  27.461  1.00  0.00     0.164 HD
BRANCH  21  23
ATOM     23  C   UNL A   1      38.180  23.620  26.088  1.00  0.00     0.152 C 
BRANCH  23  24
ATOM     24  C   UNL A   1      39.251  22.612  26.470  1.00  0.00    -0.025 A 
ATOM     25  C   UNL A   1      40.149  22.942  27.516  1.00  0.00     0.009 A 
ATOM     26  C   UNL A   1      39.369  21.355  25.846  1.00  0.00     0.056 A 
ATOM     27  C   UNL A   1      41.169  22.065  27.905  1.00  0.00     0.051 A 
ATOM     28  C   UNL A   1      40.396  20.522  26.234  1.00  0.00     0.166 A 
ATOM     29  C   UNL A   1      41.276  20.868  27.231  1.00  0.00     0.165 A 
ATOM     30  O   UNL A   1      40.677  19.305  25.695  1.00  0.00    -0.454 OA
ATOM     31  O   UNL A   1      42.225  19.916  27.438  1.00  0.00    -0.454 OA
ATOM     32  C   UNL A   1      41.906  18.993  26.375  1.00  0.00     0.468 C 
ENDBRANCH  23  24
ENDBRANCH  21  23
ENDBRANCH  12  21
ENDBRANCH   7   8
ENDBRANCH   6   7
ENDBRANCH   3   6
ENDBRANCH   1   2
BRANCH   1  33
ATOM     33  C   UNL A   1      32.774  28.725  24.120  1.00  0.00     0.023 C 
BRANCH  33  34
ATOM     34  C   UNL A   1      32.313  29.344  25.442  1.00  0.00     0.023 C 
BRANCH  34  35
ATOM     35  C   UNL A   1      33.403  29.460  26.499  1.00  0.00     0.116 C 
BRANCH  35  36
ATOM     36  N   UNL A   1      33.839  30.812  26.792  1.00  0.00    -0.352 N 
ATOM     37  C   UNL A   1      34.624  31.171  27.881  1.00  0.00     0.251 C 
ATOM     38  H   UNL A   1      33.559  31.527  26.175  1.00  0.00     0.163 HD
ATOM     39  O   UNL A   1      34.491  32.222  28.485  1.00  0.00    -0.269 OA
BRANCH  37  40
ATOM     40  C   UNL A   1      35.762  30.269  28.176  1.00  0.00     0.039 A 
ATOM     41  C   UNL A   1      35.850  29.720  29.461  1.00  0.00     0.014 A 
ATOM     42  C   UNL A   1      36.832  30.187  27.292  1.00  0.00     0.014 A 
ATOM     43  C   UNL A   1      37.074  29.229  29.918  1.00  0.00     0.010 A 
ATOM     44  C   UNL A   1      38.063  29.789  27.775  1.00  0.00     0.010 A 
ATOM     45  C   UNL A   1      38.195  29.339  29.097  1.00  0.00    -0.014 A 
BRANCH  45  46
ATOM     46  C   UNL A   1      39.566  29.098  29.539  1.00  0.00     0.031 A 
ATOM     47  C   UNL A   1      40.299  27.880  29.115  1.00  0.00     0.074 A 
ATOM     48  C   UNL A   1      40.234  30.059  30.213  1.00  0.00     0.049 A 
ATOM     49  N   UNL A   1      41.344  27.417  29.717  1.00  0.00    -0.248 NA
ATOM     50  C   UNL A   1      39.894  27.069  27.971  1.00  0.00     0.031 C 
ATOM     51  C   UNL A   1      41.681  30.173  30.374  1.00  0.00     0.029 A 
ATOM     52  N   UNL A   1      39.721  31.050  31.045  1.00  0.00    -0.354 N 
ATOM     53  C   UNL A   1      41.909  26.465  28.900  1.00  0.00     0.074 A 
ATOM     54  C   UNL A   1      40.937  26.242  27.855  1.00  0.00     0.031 C 
ATOM     55  C   UNL A   1      41.947  30.993  31.400  1.00  0.00     0.029 A 
ATOM     56  C   UNL A   1      40.683  31.317  32.034  1.00  0.00     0.049 A 
ATOM     57  H   UNL A   1      38.842  31.485  30.957  1.00  0.00     0.167 HD
ATOM     58  C   UNL A   1      43.199  26.068  29.104  1.00  0.00     0.037 A 
ATOM     59  C   UNL A   1      40.412  31.123  33.360  1.00  0.00     0.037 A 
ATOM     60  C   UNL A   1      43.797  26.748  30.248  1.00  0.00     0.049 A 
ATOM     61  C   UNL A   1      41.294  30.091  34.026  1.00  0.00     0.074 A 
ATOM     62  C   UNL A   1      44.624  27.856  30.347  1.00  0.00     0.029 A 
ATOM     63  N   UNL A   1      43.333  26.491  31.533  1.00  0.00    -0.354 N 
ATOM     64  N   UNL A   1      42.022  29.225  33.376  1.00  0.00    -0.248 NA
ATOM     65  C   UNL A   1      41.427  29.944  35.472  1.00  0.00     0.031 C 
ATOM     66  C   UNL A   1      44.632  28.286  31.693  1.00  0.00     0.029 A 
ATOM     67  C   UNL A   1      43.815  27.438  32.417  1.00  0.00     0.049 A 
ATOM     68  H   UNL A   1      42.743  25.742  31.779  1.00  0.00     0.167 HD
ATOM     69  C   UNL A   1      42.680  28.408  34.262  1.00  0.00     0.074 A 
ATOM     70  C   UNL A   1      42.295  28.919  35.563  1.00  0.00     0.031 C 
ATOM     71  C   UNL A   1      43.482  27.386  33.835  1.00  0.00     0.037 A 
BRANCH  58  72
ATOM     72  C   UNL A   1      43.987  25.303  28.063  1.00  0.00     0.058 A 
ATOM     73  C   UNL A   1      44.491  25.942  26.909  1.00  0.00     0.135 A 
ATOM     74  C   UNL A   1      44.232  23.917  28.125  1.00  0.00     0.135 A 
ATOM     75  F   UNL A   1      44.423  27.269  26.751  1.00  0.00    -0.206 F 
ATOM     76  C   UNL A   1      45.072  25.246  25.848  1.00  0.00     0.059 A 
ATOM     77  C   UNL A   1      44.764  23.189  27.055  1.00  0.00     0.059 A 
ATOM     78  F   UNL A   1      43.976  23.223  29.246  1.00  0.00    -0.206 F 
ATOM     79  C   UNL A   1      45.169  23.864  25.910  1.00  0.00     0.060 A 
BRANCH  79  80
ATOM     80  S   UNL A   1      45.803  22.979  24.474  1.00  0.00     0.124 S 
ATOM     81  O   UNL A   1      44.584  22.684  23.727  1.00  0.00    -0.237 OA
ATOM     82  O   UNL A   1      46.692  23.968  23.876  1.00  0.00    -0.237 OA
ATOM     83  O   UNL A   1      46.462  21.814  25.059  1.00  0.00    -0.744 OA
ENDBRANCH  79  80
ENDBRANCH  58  72
BRANCH  59  84
ATOM     84  C   UNL A   1      38.996  31.422  33.707  1.00  0.00     0.058 A 
ATOM     85  C   UNL A   1      38.681  32.762  34.009  1.00  0.00     0.135 A 
ATOM     86  C   UNL A   1      37.953  30.590  33.278  1.00  0.00     0.135 A 
ATOM     87  F   UNL A   1      39.642  33.595  34.444  1.00  0.00    -0.206 F 
ATOM     88  C   UNL A   1      37.437  33.304  33.709  1.00  0.00     0.059 A 
ATOM     89  C   UNL A   1      36.692  31.112  32.981  1.00  0.00     0.059 A 
ATOM     90  F   UNL A   1      38.191  29.303  32.989  1.00  0.00    -0.206 F 
ATOM     91  C   UNL A   1      36.476  32.485  33.121  1.00  0.00     0.060 A 
BRANCH  91  92
ATOM     92  S   UNL A   1      35.029  33.281  32.382  1.00  0.00     0.124 S 
ATOM     93  O   UNL A   1      34.371  32.161  31.718  1.00  0.00    -0.237 OA
ATOM     94  O   UNL A   1      34.342  33.807  33.562  1.00  0.00    -0.237 OA
ATOM     95  O   UNL A   1      35.614  34.283  31.498  1.00  0.00    -0.744 OA
ENDBRANCH  91  92
ENDBRANCH  59  84
BRANCH  71  96
ATOM     96  C   UNL A   1      44.125  26.306  34.685  1.00  0.00     0.058 A 
ATOM     97  C   UNL A   1      43.453  25.177  35.181  1.00  0.00     0.135 A 
ATOM     98  C   UNL A   1      45.526  26.322  34.919  1.00  0.00     0.135 A 
ATOM     99  F   UNL A   1      42.151  24.976  34.935  1.00  0.00    -0.206 F 
ATOM    100  C   UNL A   1      44.102  24.173  35.907  1.00  0.00     0.059 A 
ATOM    101  C   UNL A   1      46.201  25.306  35.591  1.00  0.00     0.059 A 
ATOM    102  F   UNL A   1      46.301  27.328  34.487  1.00  0.00    -0.206 F 
ATOM    103  C   UNL A   1      45.477  24.244  36.106  1.00  0.00     0.060 A 
BRANCH 103 104
ATOM    104  S   UNL A   1      46.336  22.918  36.972  1.00  0.00     0.124 S 
ATOM    105  O   UNL A   1      47.630  23.536  37.244  1.00  0.00    -0.237 OA
ATOM    106  O   UNL A   1      45.490  22.689  38.140  1.00  0.00    -0.237 OA
ATOM    107  O   UNL A   1      46.345  21.834  35.994  1.00  0.00    -0.744 OA
ENDBRANCH 103 104
ENDBRANCH  71  96
ENDBRANCH  45  46
ENDBRANCH  37  40
ENDBRANCH  35  36
ENDBRANCH  34  35
ENDBRANCH  33  34
ENDBRANCH   1  33
TORSDOF 20
ENDMDL
MODEL 2
REMARK VINA RESULT:     -13.5      1.416      3.650
REMARK SMILES Cc1ccc(-c2cc(OCC(=O)NCCCCNC(=O)c3ccc(-c4c5nc(c(-c6c(F)cc(S(=O)(=O)[O-])cc6F)c6ccc([nH]6)c(-c6c(F)cc(S(=O)(=O)[O-])cc6F)c6nc(c(-c7c(F)cc(S(=O)(=O)[O-])cc7F)c7ccc4[nH]7)C=C6)C=C5)cc3)nc(NCc3ccc4c(c3)OCO4)n2)cc1
REMARK SMILES IDX 14 1 13 2 11 3 12 4 10 6 9 7 8 8 6 9 7 10 100 11 88 12 87 13
REMARK SMILES IDX 5 14 1 15 2 16 3 17 102 18 4 19 101 20 89 21 90 23 91 24
REMARK SMILES IDX 92 25 96 26 93 27 95 28 94 29 97 30 99 31 98 32 15 33 16 34
REMARK SMILES IDX 17 35 18 36 19 37 20 39 21 40 22 41 86 42 23 43 85 44 24 45
REMARK SMILES IDX 25 46 26 47 79 48 27 49 84 50 78 51 80 52 28 53 83 54 77 55
REMARK SMILES IDX 76 56 29 58 63 59 42 60 62 61 43 62 46 63 61 64 81 65 44 66
REMARK SMILES IDX 45 67 60 69 82 70 47 71 30 72 31 73 40 74 32 75 33 76 39 77
REMARK SMILES IDX 41 78 34 79 35 80 36 81 37 82 38 83 64 84 65 85 74 86 66 87
REMARK SMILES IDX 67 88 73 89 75 90 68 91 69 92 70 93 71 94 72 95 48 96 49 97
REMARK SMILES IDX 58 98 50 99 51 100 57 101 59 102 52 103 53 104 54 105 55 106
REMARK SMILES IDX 56 107
REMARK H PARENT 13 5 89 22 18 38 80 57 46 68
REMARK Flexibility Score: inf
ROOT
ATOM      1  C   UNL A   1      32.755  27.469  23.951  1.00  0.00     0.116 C 
ENDROOT
BRANCH   1   2
ATOM      2  N   UNL A   1      32.721  27.289  22.508  1.00  0.00    -0.353 N 
ATOM      3  C   UNL A   1      32.864  26.145  21.781  1.00  0.00     0.258 C 
ATOM      4  O   UNL A   1      32.783  26.198  20.551  1.00  0.00    -0.271 OA
ATOM      5  H   UNL A   1      32.574  28.108  21.982  1.00  0.00     0.163 HD
BRANCH   3   6
ATOM      6  C   UNL A   1      33.125  24.815  22.494  1.00  0.00     0.331 C 
BRANCH   6   7
ATOM      7  O   UNL A   1      34.418  24.257  22.342  1.00  0.00    -0.467 OA
BRANCH   7   8
ATOM      8  C   UNL A   1      34.859  23.417  23.323  1.00  0.00     0.219 A 
ATOM      9  C   UNL A   1      36.355  22.495  24.857  1.00  0.00     0.080 A 
ATOM     10  C   UNL A   1      36.125  23.407  23.847  1.00  0.00     0.097 A 
ATOM     11  N   UNL A   1      35.422  21.614  25.273  1.00  0.00    -0.213 NA
ATOM     12  C   UNL A   1      34.214  21.710  24.709  1.00  0.00     0.226 A 
ATOM     13  N   UNL A   1      33.904  22.578  23.743  1.00  0.00    -0.177 NA
BRANCH   9  14
ATOM     14  C   UNL A   1      37.632  22.489  25.579  1.00  0.00     0.000 A 
ATOM     15  C   UNL A   1      41.307  22.341  27.861  1.00  0.00     0.044 C 
ATOM     16  C   UNL A   1      40.048  22.396  27.049  1.00  0.00    -0.051 A 
ATOM     17  C   UNL A   1      39.256  23.551  27.050  1.00  0.00     0.004 A 
ATOM     18  C   UNL A   1      39.632  21.291  26.301  1.00  0.00     0.004 A 
ATOM     19  C   UNL A   1      38.065  23.600  26.315  1.00  0.00     0.010 A 
ATOM     20  C   UNL A   1      38.439  21.338  25.578  1.00  0.00     0.010 A 
ENDBRANCH   9  14
BRANCH  12  21
ATOM     21  N   UNL A   1      33.176  20.917  25.115  1.00  0.00    -0.350 N 
ATOM     22  H   UNL A   1      32.817  21.033  26.025  1.00  0.00     0.164 HD
BRANCH  21  23
ATOM     23  C   UNL A   1      32.590  19.924  24.260  1.00  0.00     0.152 C 
BRANCH  23  24
ATOM     24  C   UNL A   1      33.046  18.512  24.588  1.00  0.00    -0.025 A 
ATOM     25  C   UNL A   1      34.389  18.153  24.313  1.00  0.00     0.009 A 
ATOM     26  C   UNL A   1      32.196  17.557  25.178  1.00  0.00     0.056 A 
ATOM     27  C   UNL A   1      34.867  16.864  24.574  1.00  0.00     0.051 A 
ATOM     28  C   UNL A   1      32.688  16.289  25.403  1.00  0.00     0.166 A 
ATOM     29  C   UNL A   1      33.985  15.949  25.105  1.00  0.00     0.165 A 
ATOM     30  O   UNL A   1      31.982  15.244  25.913  1.00  0.00    -0.454 OA
ATOM     31  O   UNL A   1      34.255  14.645  25.382  1.00  0.00    -0.454 OA
ATOM     32  C   UNL A   1      32.945  14.183  25.775  1.00  0.00     0.468 C 
ENDBRANCH  23  24
ENDBRANCH  21  23
ENDBRANCH  12  21
ENDBRANCH   7   8
ENDBRANCH   6   7
ENDBRANCH   3   6
ENDBRANCH   1   2
BRANCH   1  33
ATOM     33  C   UNL A   1      33.321  28.825  24.396  1.00  0.00     0.023 C 
BRANCH  33  34
ATOM     34  C   UNL A   1      32.716  29.424  25.668  1.00  0.00     0.023 C 
BRANCH  34  35
ATOM     35  C   UNL A   1      33.688  29.545  26.833  1.00  0.00     0.116 C 
BRANCH  35  36
ATOM     36  N   UNL A   1      34.179  30.884  27.094  1.00  0.00    -0.352 N 
ATOM     37  C   UNL A   1      35.028  31.226  28.139  1.00  0.00     0.251 C 
ATOM     38  H   UNL A   1      33.889  31.604  26.486  1.00  0.00     0.163 HD
ATOM     39  O   UNL A   1      34.957  32.284  28.742  1.00  0.00    -0.269 OA
BRANCH  37  40
ATOM     40  C   UNL A   1      36.152  30.292  28.383  1.00  0.00     0.039 A 
ATOM     41  C   UNL A   1      36.242  29.686  29.643  1.00  0.00     0.014 A 
ATOM     42  C   UNL A   1      37.212  30.228  27.486  1.00  0.00     0.014 A 
ATOM     43  C   UNL A   1      37.460  29.153  30.065  1.00  0.00     0.010 A 
ATOM     44  C   UNL A   1      38.439  29.788  27.939  1.00  0.00     0.010 A 
ATOM     45  C   UNL A   1      38.576  29.278  29.239  1.00  0.00    -0.014 A 
BRANCH  45  46
ATOM     46  C   UNL A   1      39.946  28.994  29.656  1.00  0.00     0.031 A 
ATOM     47  C   UNL A   1      40.653  27.784  29.170  1.00  0.00     0.074 A 
ATOM     48  C   UNL A   1      40.637  29.911  30.367  1.00  0.00     0.049 A 
ATOM     49  N   UNL A   1      41.695  27.276  29.740  1.00  0.00    -0.248 NA
ATOM     50  C   UNL A   1      40.224  27.033  27.994  1.00  0.00     0.031 C 
ATOM     51  C   UNL A   1      42.087  29.992  30.519  1.00  0.00     0.029 A 
ATOM     52  N   UNL A   1      40.149  30.872  31.249  1.00  0.00    -0.354 N 
ATOM     53  C   UNL A   1      42.236  26.353  28.875  1.00  0.00     0.074 A 
ATOM     54  C   UNL A   1      41.251  26.195  27.830  1.00  0.00     0.031 C 
ATOM     55  C   UNL A   1      42.376  30.759  31.579  1.00  0.00     0.029 A 
ATOM     56  C   UNL A   1      41.124  31.076  32.240  1.00  0.00     0.049 A 
ATOM     57  H   UNL A   1      39.277  31.326  31.189  1.00  0.00     0.167 HD
ATOM     58  C   UNL A   1      43.520  25.925  29.048  1.00  0.00     0.037 A 
ATOM     59  C   UNL A   1      40.861  30.826  33.558  1.00  0.00     0.037 A 
ATOM     60  C   UNL A   1      44.141  26.541  30.217  1.00  0.00     0.049 A 
ATOM     61  C   UNL A   1      41.731  29.749  34.167  1.00  0.00     0.074 A 
ATOM     62  C   UNL A   1      44.988  27.628  30.358  1.00  0.00     0.029 A 
ATOM     63  N   UNL A   1      43.683  26.233  31.493  1.00  0.00    -0.354 N 
ATOM     64  N   UNL A   1      42.437  28.902  33.471  1.00  0.00    -0.248 NA
ATOM     65  C   UNL A   1      41.873  29.534  35.604  1.00  0.00     0.031 C 
ATOM     66  C   UNL A   1      45.016  27.996  31.723  1.00  0.00     0.029 A 
ATOM     67  C   UNL A   1      44.190  27.129  32.415  1.00  0.00     0.049 A 
ATOM     68  H   UNL A   1      43.083  25.483  31.710  1.00  0.00     0.167 HD
ATOM     69  C   UNL A   1      43.088  28.033  34.313  1.00  0.00     0.074 A 
ATOM     70  C   UNL A   1      42.723  28.491  35.639  1.00  0.00     0.031 C 
ATOM     71  C   UNL A   1      43.869  27.018  33.832  1.00  0.00     0.037 A 
BRANCH  58  72
ATOM     72  C   UNL A   1      44.286  25.195  27.966  1.00  0.00     0.058 A 
ATOM     73  C   UNL A   1      44.615  25.827  26.748  1.00  0.00     0.135 A 
ATOM     74  C   UNL A   1      44.676  23.844  28.055  1.00  0.00     0.135 A 
ATOM     75  F   UNL A   1      44.398  27.133  26.548  1.00  0.00    -0.206 F 
ATOM     76  C   UNL A   1      45.166  25.144  25.662  1.00  0.00     0.059 A 
ATOM     77  C   UNL A   1      45.181  23.124  26.966  1.00  0.00     0.059 A 
ATOM     78  F   UNL A   1      44.595  23.180  29.219  1.00  0.00    -0.206 F 
ATOM     79  C   UNL A   1      45.410  23.783  25.764  1.00  0.00     0.060 A 
BRANCH  79  80
ATOM     80  S   UNL A   1      46.000  22.900  24.308  1.00  0.00     0.124 S 
ATOM     81  O   UNL A   1      46.582  21.695  24.891  1.00  0.00    -0.237 OA
ATOM     82  O   UNL A   1      44.769  22.709  23.549  1.00  0.00    -0.237 OA
ATOM     83  O   UNL A   1      46.964  23.826  23.719  1.00  0.00    -0.744 OA
ENDBRANCH  79  80
ENDBRANCH  58  72
BRANCH  59  84
ATOM     84  C   UNL A   1      39.453  31.133  33.932  1.00  0.00     0.058 A 
ATOM     85  C   UNL A   1      39.155  32.473  34.250  1.00  0.00     0.135 A 
ATOM     86  C   UNL A   1      38.397  30.312  33.514  1.00  0.00     0.135 A 
ATOM     87  F   UNL A   1      40.129  33.295  34.674  1.00  0.00    -0.206 F 
ATOM     88  C   UNL A   1      37.910  33.027  33.976  1.00  0.00     0.059 A 
ATOM     89  C   UNL A   1      37.135  30.846  33.244  1.00  0.00     0.059 A 
ATOM     90  F   UNL A   1      38.620  29.026  33.212  1.00  0.00    -0.206 F 
ATOM     91  C   UNL A   1      36.933  32.220  33.398  1.00  0.00     0.060 A 
BRANCH  91  92
ATOM     92  S   UNL A   1      35.479  33.033  32.690  1.00  0.00     0.124 S 
ATOM     93  O   UNL A   1      34.806  33.544  33.879  1.00  0.00    -0.237 OA
ATOM     94  O   UNL A   1      36.093  34.045  31.830  1.00  0.00    -0.237 OA
ATOM     95  O   UNL A   1      34.796  31.949  31.994  1.00  0.00    -0.744 OA
ENDBRANCH  91  92
ENDBRANCH  59  84
BRANCH  71  96
ATOM     96  C   UNL A   1      44.499  25.890  34.625  1.00  0.00     0.058 A 
ATOM     97  C   UNL A   1      45.877  25.758  34.867  1.00  0.00     0.135 A 
ATOM     98  C   UNL A   1      43.679  24.944  35.297  1.00  0.00     0.135 A 
ATOM     99  F   UNL A   1      46.758  26.648  34.390  1.00  0.00    -0.206 F 
ATOM    100  C   UNL A   1      46.407  24.734  35.659  1.00  0.00     0.059 A 
ATOM    101  C   UNL A   1      44.182  23.952  36.134  1.00  0.00     0.059 A 
ATOM    102  F   UNL A   1      42.343  24.959  35.175  1.00  0.00    -0.206 F 
ATOM    103  C   UNL A   1      45.553  23.837  36.291  1.00  0.00     0.060 A 
BRANCH 103 104
ATOM    104  S   UNL A   1      46.221  22.563  37.376  1.00  0.00     0.124 S 
ATOM    105  O   UNL A   1      47.657  22.789  37.244  1.00  0.00    -0.237 OA
ATOM    106  O   UNL A   1      45.647  22.905  38.674  1.00  0.00    -0.237 OA
ATOM    107  O   UNL A   1      45.718  21.326  36.785  1.00  0.00    -0.744 OA
ENDBRANCH 103 104
ENDBRANCH  71  96
ENDBRANCH  45  46
ENDBRANCH  37  40
ENDBRANCH  35  36
ENDBRANCH  34  35
ENDBRANCH  33  34
ENDBRANCH   1  33
TORSDOF 20
ENDMDL
MODEL 3
REMARK VINA RESULT:     -13.4      1.483      2.147
REMARK SMILES Cc1ccc(-c2cc(OCC(=O)NCCCCNC(=O)c3ccc(-c4c5nc(c(-c6c(F)cc(S(=O)(=O)[O-])cc6F)c6ccc([nH]6)c(-c6c(F)cc(S(=O)(=O)[O-])cc6F)c6nc(c(-c7c(F)cc(S(=O)(=O)[O-])cc7F)c7ccc4[nH]7)C=C6)C=C5)cc3)nc(NCc3ccc4c(c3)OCO4)n2)cc1
REMARK SMILES IDX 14 1 13 2 11 3 12 4 10 6 9 7 8 8 6 9 7 10 100 11 88 12 87 13
REMARK SMILES IDX 5 14 1 15 2 16 3 17 102 18 4 19 101 20 89 21 90 23 91 24
REMARK SMILES IDX 92 25 96 26 93 27 95 28 94 29 97 30 99 31 98 32 15 33 16 34
REMARK SMILES IDX 17 35 18 36 19 37 20 39 21 40 22 41 86 42 23 43 85 44 24 45
REMARK SMILES IDX 25 46 26 47 79 48 27 49 84 50 78 51 80 52 28 53 83 54 77 55
REMARK SMILES IDX 76 56 29 58 63 59 42 60 62 61 43 62 46 63 61 64 81 65 44 66
REMARK SMILES IDX 45 67 60 69 82 70 47 71 30 72 31 73 40 74 32 75 33 76 39 77
REMARK SMILES IDX 41 78 34 79 35 80 36 81 37 82 38 83 64 84 65 85 74 86 66 87
REMARK SMILES IDX 67 88 73 89 75 90 68 91 69 92 70 93 71 94 72 95 48 96 49 97
REMARK SMILES IDX 58 98 50 99 51 100 57 101 59 102 52 103 53 104 54 105 55 106
REMARK SMILES IDX 56 107
REMARK H PARENT 13 5 89 22 18 38 80 57 46 68
REMARK Flexibility Score: inf
ROOT
ATOM      1  C   UNL A   1      31.119  26.413  25.505  1.00  0.00     0.116 C 
ENDROOT
BRANCH   1   2
ATOM      2  N   UNL A   1      30.787  25.127  26.099  1.00  0.00    -0.353 N 
ATOM      3  C   UNL A   1      31.001  23.873  25.610  1.00  0.00     0.258 C 
ATOM      4  O   UNL A   1      30.660  22.897  26.282  1.00  0.00    -0.271 OA
ATOM      5  H   UNL A   1      30.346  25.168  26.978  1.00  0.00     0.163 HD
BRANCH   3   6
ATOM      6  C   UNL A   1      31.656  23.691  24.237  1.00  0.00     0.331 C 
BRANCH   6   7
ATOM      7  O   UNL A   1      33.056  23.890  24.171  1.00  0.00    -0.467 OA
BRANCH   7   8
ATOM      8  C   UNL A   1      33.856  22.812  24.412  1.00  0.00     0.219 A 
ATOM      9  C   UNL A   1      34.401  20.576  24.793  1.00  0.00     0.080 A 
ATOM     10  C   UNL A   1      33.420  21.525  24.591  1.00  0.00     0.097 A 
ATOM     11  N   UNL A   1      35.711  20.885  24.875  1.00  0.00    -0.213 NA
ATOM     12  C   UNL A   1      36.039  22.165  24.676  1.00  0.00     0.226 A 
ATOM     13  N   UNL A   1      35.154  23.139  24.454  1.00  0.00    -0.177 NA
BRANCH   9  14
ATOM     14  C   UNL A   1      34.056  19.152  24.863  1.00  0.00     0.000 A 
ATOM     15  C   UNL A   1      33.062  14.960  25.291  1.00  0.00     0.044 C 
ATOM     16  C   UNL A   1      33.392  16.413  25.122  1.00  0.00    -0.051 A 
ATOM     17  C   UNL A   1      34.640  16.801  24.617  1.00  0.00     0.004 A 
ATOM     18  C   UNL A   1      32.473  17.401  25.487  1.00  0.00     0.004 A 
ATOM     19  C   UNL A   1      34.965  18.156  24.480  1.00  0.00     0.010 A 
ATOM     20  C   UNL A   1      32.804  18.752  25.360  1.00  0.00     0.010 A 
ENDBRANCH   9  14
BRANCH  12  21
ATOM     21  N   UNL A   1      37.345  22.570  24.660  1.00  0.00    -0.350 N 
ATOM     22  H   UNL A   1      37.849  22.515  23.816  1.00  0.00     0.164 HD
BRANCH  21  23
ATOM     23  C   UNL A   1      38.006  23.072  25.830  1.00  0.00     0.152 C 
BRANCH  23  24
ATOM     24  C   UNL A   1      39.161  22.195  26.285  1.00  0.00    -0.025 A 
ATOM     25  C   UNL A   1      40.020  22.681  27.303  1.00  0.00     0.009 A 
ATOM     26  C   UNL A   1      39.396  20.912  25.755  1.00  0.00     0.056 A 
ATOM     27  C   UNL A   1      41.113  21.932  27.753  1.00  0.00     0.051 A 
ATOM     28  C   UNL A   1      40.492  20.206  26.202  1.00  0.00     0.166 A 
ATOM     29  C   UNL A   1      41.332  20.703  27.170  1.00  0.00     0.165 A 
ATOM     30  O   UNL A   1      40.885  18.984  25.753  1.00  0.00    -0.454 OA
ATOM     31  O   UNL A   1      42.361  19.859  27.445  1.00  0.00    -0.454 OA
ATOM     32  C   UNL A   1      42.134  18.835  26.453  1.00  0.00     0.468 C 
ENDBRANCH  23  24
ENDBRANCH  21  23
ENDBRANCH  12  21
ENDBRANCH   7   8
ENDBRANCH   6   7
ENDBRANCH   3   6
ENDBRANCH   1   2
BRANCH   1  33
ATOM     33  C   UNL A   1      32.140  27.226  26.313  1.00  0.00     0.023 C 
BRANCH  33  34
ATOM     34  C   UNL A   1      33.583  27.195  25.803  1.00  0.00     0.023 C 
BRANCH  34  35
ATOM     35  C   UNL A   1      34.442  28.363  26.267  1.00  0.00     0.116 C 
BRANCH  35  36
ATOM     36  N   UNL A   1      33.840  29.674  26.108  1.00  0.00    -0.352 N 
ATOM     37  C   UNL A   1      33.685  30.602  27.131  1.00  0.00     0.251 C 
ATOM     38  H   UNL A   1      33.519  29.924  25.212  1.00  0.00     0.163 HD
ATOM     39  O   UNL A   1      32.724  31.347  27.220  1.00  0.00    -0.269 OA
BRANCH  37  40
ATOM     40  C   UNL A   1      34.849  30.760  28.035  1.00  0.00     0.039 A 
ATOM     41  C   UNL A   1      35.724  31.828  27.800  1.00  0.00     0.014 A 
ATOM     42  C   UNL A   1      35.194  29.737  28.912  1.00  0.00     0.014 A 
ATOM     43  C   UNL A   1      37.017  31.787  28.323  1.00  0.00     0.010 A 
ATOM     44  C   UNL A   1      36.500  29.651  29.349  1.00  0.00     0.010 A 
ATOM     45  C   UNL A   1      37.424  30.658  29.032  1.00  0.00    -0.014 A 
BRANCH  45  46
ATOM     46  C   UNL A   1      38.806  30.378  29.413  1.00  0.00     0.031 A 
ATOM     47  C   UNL A   1      39.481  29.136  28.966  1.00  0.00     0.074 A 
ATOM     48  C   UNL A   1      39.532  31.323  30.049  1.00  0.00     0.049 A 
ATOM     49  N   UNL A   1      40.538  28.645  29.524  1.00  0.00    -0.248 NA
ATOM     50  C   UNL A   1      39.001  28.330  27.847  1.00  0.00     0.031 C 
ATOM     51  C   UNL A   1      40.988  31.393  30.143  1.00  0.00     0.029 A 
ATOM     52  N   UNL A   1      39.087  32.334  30.896  1.00  0.00    -0.354 N 
ATOM     53  C   UNL A   1      41.036  27.671  28.689  1.00  0.00     0.074 A 
ATOM     54  C   UNL A   1      40.012  27.471  27.690  1.00  0.00     0.031 C 
ATOM     55  C   UNL A   1      41.324  32.211  31.150  1.00  0.00     0.029 A 
ATOM     56  C   UNL A   1      40.100  32.577  31.838  1.00  0.00     0.049 A 
ATOM     57  H   UNL A   1      38.219  32.795  30.844  1.00  0.00     0.167 HD
ATOM     58  C   UNL A   1      42.322  27.237  28.838  1.00  0.00     0.037 A 
ATOM     59  C   UNL A   1      39.884  32.401  33.177  1.00  0.00     0.037 A 
ATOM     60  C   UNL A   1      42.992  27.905  29.949  1.00  0.00     0.049 A 
ATOM     61  C   UNL A   1      40.764  31.346  33.810  1.00  0.00     0.074 A 
ATOM     62  C   UNL A   1      43.855  28.987  30.002  1.00  0.00     0.029 A 
ATOM     63  N   UNL A   1      42.578  27.670  31.256  1.00  0.00    -0.354 N 
ATOM     64  N   UNL A   1      41.435  30.454  33.134  1.00  0.00    -0.248 NA
ATOM     65  C   UNL A   1      40.957  31.204  35.250  1.00  0.00     0.031 C 
ATOM     66  C   UNL A   1      43.937  29.426  31.343  1.00  0.00     0.029 A 
ATOM     67  C   UNL A   1      43.128  28.607  32.110  1.00  0.00     0.049 A 
ATOM     68  H   UNL A   1      41.978  26.941  31.533  1.00  0.00     0.167 HD
ATOM     69  C   UNL A   1      42.108  29.623  33.996  1.00  0.00     0.074 A 
ATOM     70  C   UNL A   1      41.797  30.154  35.309  1.00  0.00     0.031 C 
ATOM     71  C   UNL A   1      42.859  28.575  33.541  1.00  0.00     0.037 A 
BRANCH  58  72
ATOM     72  C   UNL A   1      43.039  26.441  27.769  1.00  0.00     0.058 A 
ATOM     73  C   UNL A   1      43.349  25.076  27.955  1.00  0.00     0.135 A 
ATOM     74  C   UNL A   1      43.495  26.990  26.554  1.00  0.00     0.135 A 
ATOM     75  F   UNL A   1      42.901  24.388  29.012  1.00  0.00    -0.206 F 
ATOM     76  C   UNL A   1      44.154  24.353  27.073  1.00  0.00     0.059 A 
ATOM     77  C   UNL A   1      44.346  26.304  25.680  1.00  0.00     0.059 A 
ATOM     78  F   UNL A   1      43.110  28.216  26.166  1.00  0.00    -0.206 F 
ATOM     79  C   UNL A   1      44.683  24.985  25.958  1.00  0.00     0.060 A 
BRANCH  79  80
ATOM     80  S   UNL A   1      45.823  24.066  24.906  1.00  0.00     0.124 S 
ATOM     81  O   UNL A   1      46.456  23.155  25.856  1.00  0.00    -0.237 OA
ATOM     82  O   UNL A   1      44.918  23.451  23.942  1.00  0.00    -0.237 OA
ATOM     83  O   UNL A   1      46.701  25.104  24.372  1.00  0.00    -0.744 OA
ENDBRANCH  79  80
ENDBRANCH  58  72
BRANCH  59  84
ATOM     84  C   UNL A   1      38.495  32.745  33.585  1.00  0.00     0.058 A 
ATOM     85  C   UNL A   1      38.132  34.105  33.532  1.00  0.00     0.135 A 
ATOM     86  C   UNL A   1      37.466  31.794  33.529  1.00  0.00     0.135 A 
ATOM     87  F   UNL A   1      39.079  35.055  33.603  1.00  0.00    -0.206 F 
ATOM     88  C   UNL A   1      36.833  34.502  33.236  1.00  0.00     0.059 A 
ATOM     89  C   UNL A   1      36.152  32.172  33.244  1.00  0.00     0.059 A 
ATOM     90  F   UNL A   1      37.752  30.486  33.588  1.00  0.00    -0.206 F 
ATOM     91  C   UNL A   1      35.869  33.521  33.016  1.00  0.00     0.060 A 
BRANCH  91  92
ATOM     92  S   UNL A   1      34.309  34.030  32.252  1.00  0.00     0.124 S 
ATOM     93  O   UNL A   1      34.371  33.361  30.957  1.00  0.00    -0.237 OA
ATOM     94  O   UNL A   1      33.327  33.491  33.194  1.00  0.00    -0.237 OA
ATOM     95  O   UNL A   1      34.413  35.484  32.218  1.00  0.00    -0.744 OA
ENDBRANCH  91  92
ENDBRANCH  59  84
BRANCH  71  96
ATOM     96  C   UNL A   1      43.507  27.481  34.369  1.00  0.00     0.058 A 
ATOM     97  C   UNL A   1      44.873  27.427  34.689  1.00  0.00     0.135 A 
ATOM     98  C   UNL A   1      42.704  26.489  34.994  1.00  0.00     0.135 A 
ATOM     99  F   UNL A   1      45.728  28.366  34.262  1.00  0.00    -0.206 F 
ATOM    100  C   UNL A   1      45.415  26.432  35.510  1.00  0.00     0.059 A 
ATOM    101  C   UNL A   1      43.214  25.524  35.859  1.00  0.00     0.059 A 
ATOM    102  F   UNL A   1      41.378  26.429  34.797  1.00  0.00    -0.206 F 
ATOM    103  C   UNL A   1      44.579  25.487  36.094  1.00  0.00     0.060 A 
BRANCH 103 104
ATOM    104  S   UNL A   1      45.255  24.249  37.215  1.00  0.00     0.124 S 
ATOM    105  O   UNL A   1      44.537  24.550  38.450  1.00  0.00    -0.237 OA
ATOM    106  O   UNL A   1      44.894  22.991  36.569  1.00  0.00    -0.237 OA
ATOM    107  O   UNL A   1      46.683  24.553  37.223  1.00  0.00    -0.744 OA
ENDBRANCH 103 104
ENDBRANCH  71  96
ENDBRANCH  45  46
ENDBRANCH  37  40
ENDBRANCH  35  36
ENDBRANCH  34  35
ENDBRANCH  33  34
ENDBRANCH   1  33
TORSDOF 20
ENDMDL
