MODEL 1
REMARK VINA RESULT:     -11.3      0.000      0.000
REMARK SMILES C[C@@H]1CCCN(C(=O)NC2(CC(=O)NCCCCNC(=O)c3ccc(-c4c5nc(c(-c6c(F)cc(S(=O)(=O)[O-])cc6F)c6ccc([nH]6)c(-c6c(F)cc(S(=O)(=O)[O-])cc6F)c6nc(c(-c7c(F)cc(S(=O)(=O)[O-])cc7F)c7ccc4[nH]7)C=C6)C=C5)cc3)CCC2)[C@@H]1C
REMARK SMILES IDX 16 1 15 2 14 3 12 4 13 5 11 7 10 8 88 9 90 10 89 11 9 12
REMARK SMILES IDX 7 13 8 14 6 16 1 17 2 18 3 19 91 20 4 21 92 22 5 23 17 24
REMARK SMILES IDX 18 25 19 26 20 27 21 29 22 30 23 31 87 32 24 33 86 34 25 35
REMARK SMILES IDX 26 36 27 37 80 38 28 39 85 40 79 41 81 42 29 43 84 44 78 45
REMARK SMILES IDX 77 46 30 48 64 49 43 50 63 51 44 52 47 53 62 54 82 55 45 56
REMARK SMILES IDX 46 57 61 59 83 60 48 61 31 62 32 63 41 64 33 65 34 66 40 67
REMARK SMILES IDX 42 68 35 69 36 70 37 71 38 72 39 73 65 74 66 75 75 76 67 77
REMARK SMILES IDX 68 78 74 79 76 80 69 81 70 82 71 83 72 84 73 85 49 86 50 87
REMARK SMILES IDX 59 88 51 89 52 90 58 91 60 92 53 93 54 94 55 95 56 96 57 97
REMARK H PARENT 14 6 9 15 19 28 81 47 47 58
REMARK Flexibility Score: inf
ROOT
ATOM      1  C   UNL A   1      31.636  28.537  25.481  1.00  0.00     0.023 C 
ENDROOT
BRANCH   1   2
ATOM      2  C   UNL A   1      31.230  27.551  24.381  1.00  0.00     0.116 C 
BRANCH   2   3
ATOM      3  N   UNL A   1      32.168  27.626  23.284  1.00  0.00    -0.356 N 
ATOM      4  C   UNL A   1      32.679  26.607  22.545  1.00  0.00     0.222 C 
ATOM      5  O   UNL A   1      33.693  26.813  21.876  1.00  0.00    -0.275 OA
ATOM      6  H   UNL A   1      32.475  28.529  23.042  1.00  0.00     0.163 HD
BRANCH   4   7
ATOM      7  C   UNL A   1      32.011  25.249  22.517  1.00  0.00     0.128 C 
BRANCH   7   8
ATOM      8  C   UNL A   1      32.658  24.103  23.342  1.00  0.00     0.051 C 
ATOM      9  C   UNL A   1      33.424  23.185  22.361  1.00  0.00     0.029 C 
ATOM     10  C   UNL A   1      31.686  22.939  23.640  1.00  0.00     0.029 C 
ATOM     11  C   UNL A   1      32.330  22.117  22.512  1.00  0.00     0.005 C 
BRANCH   8  12
ATOM     12  N   UNL A   1      33.450  24.666  24.462  1.00  0.00    -0.332 N 
ATOM     13  C   UNL A   1      34.403  24.396  25.376  1.00  0.00     0.318 C 
ATOM     14  O   UNL A   1      34.814  25.432  25.913  1.00  0.00    -0.249 OA
ATOM     15  H   UNL A   1      33.171  25.603  24.586  1.00  0.00     0.165 HD
BRANCH  13  16
ATOM     16  N   UNL A   1      34.901  23.173  25.719  1.00  0.00    -0.322 N 
ATOM     17  C   UNL A   1      36.748  22.555  23.368  1.00  0.00     0.010 C 
ATOM     18  C   UNL A   1      36.857  21.966  24.779  1.00  0.00     0.008 C 
ATOM     19  C   UNL A   1      36.080  20.640  24.892  1.00  0.00     0.007 C 
ATOM     20  C   UNL A   1      36.366  22.943  25.878  1.00  0.00     0.086 C 
ATOM     21  C   UNL A   1      34.569  20.855  24.931  1.00  0.00     0.022 C 
ATOM     22  C   UNL A   1      37.312  24.134  26.053  1.00  0.00     0.031 C 
ATOM     23  C   UNL A   1      34.174  21.934  25.941  1.00  0.00     0.121 C 
ENDBRANCH  13  16
ENDBRANCH   8  12
ENDBRANCH   7   8
ENDBRANCH   4   7
ENDBRANCH   2   3
ENDBRANCH   1   2
BRANCH   1  24
ATOM     24  C   UNL A   1      32.179  27.880  26.747  1.00  0.00     0.023 C 
BRANCH  24  25
ATOM     25  C   UNL A   1      33.499  28.464  27.226  1.00  0.00     0.116 C 
BRANCH  25  26
ATOM     26  N   UNL A   1      33.413  29.871  27.599  1.00  0.00    -0.352 N 
ATOM     27  C   UNL A   1      34.409  30.651  28.140  1.00  0.00     0.251 C 
ATOM     28  H   UNL A   1      32.546  30.311  27.448  1.00  0.00     0.163 HD
ATOM     29  O   UNL A   1      34.185  31.805  28.489  1.00  0.00    -0.269 OA
BRANCH  27  30
ATOM     30  C   UNL A   1      35.736  30.041  28.336  1.00  0.00     0.039 A 
ATOM     31  C   UNL A   1      36.655  30.073  27.286  1.00  0.00     0.014 A 
ATOM     32  C   UNL A   1      36.099  29.553  29.593  1.00  0.00     0.014 A 
ATOM     33  C   UNL A   1      37.972  29.678  27.522  1.00  0.00     0.010 A 
ATOM     34  C   UNL A   1      37.427  29.241  29.845  1.00  0.00     0.010 A 
ATOM     35  C   UNL A   1      38.376  29.300  28.813  1.00  0.00    -0.014 A 
BRANCH  35  36
ATOM     36  C   UNL A   1      39.782  28.939  29.113  1.00  0.00     0.031 A 
ATOM     37  C   UNL A   1      40.690  29.966  29.732  1.00  0.00     0.074 A 
ATOM     38  C   UNL A   1      40.260  27.731  28.754  1.00  0.00     0.049 A 
ATOM     39  N   UNL A   1      41.976  29.905  29.954  1.00  0.00    -0.248 NA
ATOM     40  C   UNL A   1      40.074  31.248  30.115  1.00  0.00     0.031 C 
ATOM     41  C   UNL A   1      39.487  26.672  28.098  1.00  0.00     0.029 A 
ATOM     42  N   UNL A   1      41.516  27.194  28.875  1.00  0.00    -0.354 N 
ATOM     43  C   UNL A   1      42.327  31.143  30.478  1.00  0.00     0.074 A 
ATOM     44  C   UNL A   1      41.130  31.954  30.490  1.00  0.00     0.031 C 
ATOM     45  C   UNL A   1      40.282  25.608  27.895  1.00  0.00     0.029 A 
ATOM     46  C   UNL A   1      41.625  25.919  28.372  1.00  0.00     0.049 A 
ATOM     47  H   UNL A   1      42.270  27.677  29.285  1.00  0.00     0.167 HD
ATOM     48  C   UNL A   1      43.532  31.557  30.932  1.00  0.00     0.037 A 
ATOM     49  C   UNL A   1      42.691  25.098  28.300  1.00  0.00     0.037 A 
ATOM     50  C   UNL A   1      44.706  30.727  30.962  1.00  0.00     0.049 A 
ATOM     51  C   UNL A   1      44.013  25.571  28.844  1.00  0.00     0.074 A 
ATOM     52  C   UNL A   1      45.964  31.032  31.451  1.00  0.00     0.029 A 
ATOM     53  N   UNL A   1      44.761  29.423  30.495  1.00  0.00    -0.354 N 
ATOM     54  N   UNL A   1      44.317  26.731  29.377  1.00  0.00    -0.248 NA
ATOM     55  C   UNL A   1      45.136  24.624  28.783  1.00  0.00     0.031 C 
ATOM     56  C   UNL A   1      46.787  29.917  31.260  1.00  0.00     0.029 A 
ATOM     57  C   UNL A   1      46.031  28.908  30.684  1.00  0.00     0.049 A 
ATOM     58  H   UNL A   1      44.008  28.935  30.090  1.00  0.00     0.167 HD
ATOM     59  C   UNL A   1      45.654  26.640  29.745  1.00  0.00     0.074 A 
ATOM     60  C   UNL A   1      46.100  25.312  29.378  1.00  0.00     0.031 C 
ATOM     61  C   UNL A   1      46.444  27.572  30.334  1.00  0.00     0.037 A 
BRANCH  48  62
ATOM     62  C   UNL A   1      43.631  32.964  31.452  1.00  0.00     0.058 A 
ATOM     63  C   UNL A   1      43.801  34.055  30.585  1.00  0.00     0.135 A 
ATOM     64  C   UNL A   1      43.531  33.228  32.827  1.00  0.00     0.135 A 
ATOM     65  F   UNL A   1      43.922  33.855  29.263  1.00  0.00    -0.206 F 
ATOM     66  C   UNL A   1      43.898  35.357  31.064  1.00  0.00     0.059 A 
ATOM     67  C   UNL A   1      43.599  34.525  33.327  1.00  0.00     0.059 A 
ATOM     68  F   UNL A   1      43.372  32.221  33.700  1.00  0.00    -0.206 F 
ATOM     69  C   UNL A   1      43.797  35.581  32.438  1.00  0.00     0.060 A 
BRANCH  69  70
ATOM     70  S   UNL A   1      43.919  37.277  33.045  1.00  0.00     0.124 S 
ATOM     71  O   UNL A   1      42.749  37.358  33.914  1.00  0.00    -0.237 OA
ATOM     72  O   UNL A   1      45.212  37.275  33.721  1.00  0.00    -0.237 OA
ATOM     73  O   UNL A   1      43.853  38.079  31.827  1.00  0.00    -0.744 OA
ENDBRANCH  69  70
ENDBRANCH  48  62
BRANCH  49  74
ATOM     74  C   UNL A   1      42.550  23.736  27.721  1.00  0.00     0.058 A 
ATOM     75  C   UNL A   1      42.386  22.618  28.552  1.00  0.00     0.135 A 
ATOM     76  C   UNL A   1      42.580  23.523  26.334  1.00  0.00     0.135 A 
ATOM     77  F   UNL A   1      42.355  22.772  29.884  1.00  0.00    -0.206 F 
ATOM     78  C   UNL A   1      42.279  21.333  28.031  1.00  0.00     0.059 A 
ATOM     79  C   UNL A   1      42.453  22.249  25.789  1.00  0.00     0.059 A 
ATOM     80  F   UNL A   1      42.717  24.562  25.497  1.00  0.00    -0.206 F 
ATOM     81  C   UNL A   1      42.316  21.158  26.647  1.00  0.00     0.060 A 
BRANCH  81  82
ATOM     82  S   UNL A   1      42.147  19.488  25.979  1.00  0.00     0.124 S 
ATOM     83  O   UNL A   1      40.710  19.413  25.740  1.00  0.00    -0.237 OA
ATOM     84  O   UNL A   1      42.990  19.545  24.789  1.00  0.00    -0.237 OA
ATOM     85  O   UNL A   1      42.654  18.644  27.057  1.00  0.00    -0.744 OA
ENDBRANCH  81  82
ENDBRANCH  49  74
BRANCH  61  86
ATOM     86  C   UNL A   1      47.852  27.176  30.668  1.00  0.00     0.058 A 
ATOM     87  C   UNL A   1      48.184  26.613  31.909  1.00  0.00     0.135 A 
ATOM     88  C   UNL A   1      48.867  27.294  29.704  1.00  0.00     0.135 A 
ATOM     89  F   UNL A   1      47.249  26.485  32.865  1.00  0.00    -0.206 F 
ATOM     90  C   UNL A   1      49.479  26.193  32.190  1.00  0.00     0.059 A 
ATOM     91  C   UNL A   1      50.163  26.858  29.955  1.00  0.00     0.059 A 
ATOM     92  F   UNL A   1      48.595  27.817  28.498  1.00  0.00    -0.206 F 
ATOM     93  C   UNL A   1      50.462  26.316  31.205  1.00  0.00     0.060 A 
BRANCH  93  94
ATOM     94  S   UNL A   1      52.127  25.718  31.560  1.00  0.00     0.124 S 
ATOM     95  O   UNL A   1      51.867  24.331  31.932  1.00  0.00    -0.237 OA
ATOM     96  O   UNL A   1      52.811  25.914  30.285  1.00  0.00    -0.237 OA
ATOM     97  O   UNL A   1      52.576  26.587  32.644  1.00  0.00    -0.744 OA
ENDBRANCH  93  94
ENDBRANCH  61  86
ENDBRANCH  35  36
ENDBRANCH  27  30
ENDBRANCH  25  26
ENDBRANCH  24  25
ENDBRANCH   1  24
TORSDOF 17
ENDMDL
MODEL 2
REMARK VINA RESULT:     -11.1      4.595     10.345
REMARK SMILES C[C@@H]1CCCN(C(=O)NC2(CC(=O)NCCCCNC(=O)c3ccc(-c4c5nc(c(-c6c(F)cc(S(=O)(=O)[O-])cc6F)c6ccc([nH]6)c(-c6c(F)cc(S(=O)(=O)[O-])cc6F)c6nc(c(-c7c(F)cc(S(=O)(=O)[O-])cc7F)c7ccc4[nH]7)C=C6)C=C5)cc3)CCC2)[C@@H]1C
REMARK SMILES IDX 16 1 15 2 14 3 12 4 13 5 11 7 10 8 88 9 90 10 89 11 9 12
REMARK SMILES IDX 7 13 8 14 6 16 1 17 2 18 3 19 91 20 4 21 92 22 5 23 17 24
REMARK SMILES IDX 18 25 19 26 20 27 21 29 22 30 23 31 87 32 24 33 86 34 25 35
REMARK SMILES IDX 26 36 27 37 80 38 28 39 85 40 79 41 81 42 29 43 84 44 78 45
REMARK SMILES IDX 77 46 30 48 64 49 43 50 63 51 44 52 47 53 62 54 82 55 45 56
REMARK SMILES IDX 46 57 61 59 83 60 48 61 31 62 32 63 41 64 33 65 34 66 40 67
REMARK SMILES IDX 42 68 35 69 36 70 37 71 38 72 39 73 65 74 66 75 75 76 67 77
REMARK SMILES IDX 68 78 74 79 76 80 69 81 70 82 71 83 72 84 73 85 49 86 50 87
REMARK SMILES IDX 59 88 51 89 52 90 58 91 60 92 53 93 54 94 55 95 56 96 57 97
REMARK H PARENT 14 6 9 15 19 28 81 47 47 58
REMARK Flexibility Score: inf
ROOT
ATOM      1  C   UNL A   1      39.062  22.878  26.655  1.00  0.00     0.023 C 
ENDROOT
BRANCH   1   2
ATOM      2  C   UNL A   1      38.203  21.982  25.758  1.00  0.00     0.116 C 
BRANCH   2   3
ATOM      3  N   UNL A   1      37.783  22.718  24.586  1.00  0.00    -0.356 N 
ATOM      4  C   UNL A   1      36.659  22.543  23.843  1.00  0.00     0.222 C 
ATOM      5  O   UNL A   1      36.618  23.030  22.712  1.00  0.00    -0.275 OA
ATOM      6  H   UNL A   1      38.388  23.436  24.290  1.00  0.00     0.163 HD
BRANCH   4   7
ATOM      7  C   UNL A   1      35.468  21.788  24.391  1.00  0.00     0.128 C 
BRANCH   7   8
ATOM      8  C   UNL A   1      34.153  22.580  24.633  1.00  0.00     0.051 C 
ATOM      9  C   UNL A   1      34.172  23.100  26.089  1.00  0.00     0.029 C 
ATOM     10  C   UNL A   1      32.952  21.676  24.994  1.00  0.00     0.029 C 
ATOM     11  C   UNL A   1      33.123  22.048  26.475  1.00  0.00     0.005 C 
BRANCH   8  12
ATOM     12  N   UNL A   1      33.974  23.604  23.576  1.00  0.00    -0.332 N 
ATOM     13  C   UNL A   1      33.609  24.880  23.335  1.00  0.00     0.318 C 
ATOM     14  O   UNL A   1      33.916  25.223  22.187  1.00  0.00    -0.249 OA
ATOM     15  H   UNL A   1      34.217  23.192  22.714  1.00  0.00     0.165 HD
BRANCH  13  16
ATOM     16  N   UNL A   1      32.982  25.739  24.189  1.00  0.00    -0.322 N 
ATOM     17  C   UNL A   1      31.053  27.194  22.322  1.00  0.00     0.010 C 
ATOM     18  C   UNL A   1      30.893  27.036  23.839  1.00  0.00     0.008 C 
ATOM     19  C   UNL A   1      31.519  28.226  24.593  1.00  0.00     0.007 C 
ATOM     20  C   UNL A   1      31.502  25.713  24.373  1.00  0.00     0.086 C 
ATOM     21  C   UNL A   1      33.044  28.175  24.593  1.00  0.00     0.022 C 
ATOM     22  C   UNL A   1      30.696  24.490  23.929  1.00  0.00     0.031 C 
ATOM     23  C   UNL A   1      33.568  26.796  24.996  1.00  0.00     0.121 C 
ENDBRANCH  13  16
ENDBRANCH   8  12
ENDBRANCH   7   8
ENDBRANCH   4   7
ENDBRANCH   2   3
ENDBRANCH   1   2
BRANCH   1  24
ATOM     24  C   UNL A   1      40.287  22.187  27.247  1.00  0.00     0.023 C 
BRANCH  24  25
ATOM     25  C   UNL A   1      41.520  23.074  27.318  1.00  0.00     0.116 C 
BRANCH  25  26
ATOM     26  N   UNL A   1      41.720  23.893  26.128  1.00  0.00    -0.352 N 
ATOM     27  C   UNL A   1      41.779  25.266  26.062  1.00  0.00     0.251 C 
ATOM     28  H   UNL A   1      41.823  23.409  25.278  1.00  0.00     0.163 HD
ATOM     29  O   UNL A   1      41.868  25.841  24.983  1.00  0.00    -0.269 OA
BRANCH  27  30
ATOM     30  C   UNL A   1      41.677  26.024  27.322  1.00  0.00     0.039 A 
ATOM     31  C   UNL A   1      42.734  26.854  27.697  1.00  0.00     0.014 A 
ATOM     32  C   UNL A   1      40.488  25.999  28.055  1.00  0.00     0.014 A 
ATOM     33  C   UNL A   1      42.568  27.721  28.778  1.00  0.00     0.010 A 
ATOM     34  C   UNL A   1      40.297  26.920  29.075  1.00  0.00     0.010 A 
ATOM     35  C   UNL A   1      41.334  27.789  29.446  1.00  0.00    -0.014 A 
BRANCH  35  36
ATOM     36  C   UNL A   1      41.103  28.746  30.554  1.00  0.00     0.031 A 
ATOM     37  C   UNL A   1      41.935  28.643  31.802  1.00  0.00     0.074 A 
ATOM     38  C   UNL A   1      40.098  29.642  30.473  1.00  0.00     0.049 A 
ATOM     39  N   UNL A   1      41.812  29.287  32.932  1.00  0.00    -0.248 NA
ATOM     40  C   UNL A   1      43.026  27.654  31.790  1.00  0.00     0.031 C 
ATOM     41  C   UNL A   1      39.191  29.800  29.334  1.00  0.00     0.029 A 
ATOM     42  N   UNL A   1      39.662  30.580  31.374  1.00  0.00    -0.354 N 
ATOM     43  C   UNL A   1      42.790  28.765  33.771  1.00  0.00     0.074 A 
ATOM     44  C   UNL A   1      43.462  27.715  33.039  1.00  0.00     0.031 C 
ATOM     45  C   UNL A   1      38.320  30.789  29.598  1.00  0.00     0.029 A 
ATOM     46  C   UNL A   1      38.584  31.311  30.935  1.00  0.00     0.049 A 
ATOM     47  H   UNL A   1      40.082  30.716  32.254  1.00  0.00     0.167 HD
ATOM     48  C   UNL A   1      43.116  29.146  35.028  1.00  0.00     0.037 A 
ATOM     49  C   UNL A   1      37.885  32.287  31.546  1.00  0.00     0.037 A 
ATOM     50  C   UNL A   1      42.476  30.225  35.730  1.00  0.00     0.049 A 
ATOM     51  C   UNL A   1      38.290  32.715  32.932  1.00  0.00     0.074 A 
ATOM     52  C   UNL A   1      42.765  30.726  36.986  1.00  0.00     0.029 A 
ATOM     53  N   UNL A   1      41.424  30.977  35.229  1.00  0.00    -0.354 N 
ATOM     54  N   UNL A   1      39.247  32.241  33.694  1.00  0.00    -0.248 NA
ATOM     55  C   UNL A   1      37.526  33.814  33.539  1.00  0.00     0.031 C 
ATOM     56  C   UNL A   1      41.873  31.770  37.255  1.00  0.00     0.029 A 
ATOM     57  C   UNL A   1      41.053  31.941  36.150  1.00  0.00     0.049 A 
ATOM     58  H   UNL A   1      41.005  30.847  34.347  1.00  0.00     0.167 HD
ATOM     59  C   UNL A   1      39.221  33.005  34.854  1.00  0.00     0.074 A 
ATOM     60  C   UNL A   1      38.158  33.975  34.693  1.00  0.00     0.031 C 
ATOM     61  C   UNL A   1      40.007  32.913  35.956  1.00  0.00     0.037 A 
BRANCH  48  62
ATOM     62  C   UNL A   1      44.229  28.402  35.711  1.00  0.00     0.058 A 
ATOM     63  C   UNL A   1      43.971  27.291  36.532  1.00  0.00     0.135 A 
ATOM     64  C   UNL A   1      45.566  28.785  35.527  1.00  0.00     0.135 A 
ATOM     65  F   UNL A   1      42.709  26.896  36.757  1.00  0.00    -0.206 F 
ATOM     66  C   UNL A   1      44.999  26.604  37.168  1.00  0.00     0.059 A 
ATOM     67  C   UNL A   1      46.612  28.097  36.133  1.00  0.00     0.059 A 
ATOM     68  F   UNL A   1      45.867  29.842  34.756  1.00  0.00    -0.206 F 
ATOM     69  C   UNL A   1      46.316  27.016  36.964  1.00  0.00     0.060 A 
BRANCH  69  70
ATOM     70  S   UNL A   1      47.640  26.111  37.794  1.00  0.00     0.124 S 
ATOM     71  O   UNL A   1      47.776  24.941  36.931  1.00  0.00    -0.237 OA
ATOM     72  O   UNL A   1      48.745  27.062  37.749  1.00  0.00    -0.237 OA
ATOM     73  O   UNL A   1      47.093  25.851  39.122  1.00  0.00    -0.744 OA
ENDBRANCH  69  70
ENDBRANCH  48  62
BRANCH  49  74
ATOM     74  C   UNL A   1      36.754  32.951  30.845  1.00  0.00     0.058 A 
ATOM     75  C   UNL A   1      36.991  33.926  29.865  1.00  0.00     0.135 A 
ATOM     76  C   UNL A   1      35.420  32.629  31.140  1.00  0.00     0.135 A 
ATOM     77  F   UNL A   1      38.250  34.269  29.552  1.00  0.00    -0.206 F 
ATOM     78  C   UNL A   1      35.947  34.577  29.217  1.00  0.00     0.059 A 
ATOM     79  C   UNL A   1      34.359  33.252  30.489  1.00  0.00     0.059 A 
ATOM     80  F   UNL A   1      35.141  31.690  32.056  1.00  0.00    -0.206 F 
ATOM     81  C   UNL A   1      34.633  34.235  29.538  1.00  0.00     0.060 A 
BRANCH  81  82
ATOM     82  S   UNL A   1      33.284  35.064  28.670  1.00  0.00     0.124 S 
ATOM     83  O   UNL A   1      32.714  33.966  27.897  1.00  0.00    -0.237 OA
ATOM     84  O   UNL A   1      32.466  35.560  29.772  1.00  0.00    -0.237 OA
ATOM     85  O   UNL A   1      33.969  36.094  27.895  1.00  0.00    -0.744 OA
ENDBRANCH  81  82
ENDBRANCH  49  74
BRANCH  61  86
ATOM     86  C   UNL A   1      39.786  33.916  37.050  1.00  0.00     0.058 A 
ATOM     87  C   UNL A   1      38.964  33.637  38.150  1.00  0.00     0.135 A 
ATOM     88  C   UNL A   1      40.468  35.144  37.030  1.00  0.00     0.135 A 
ATOM     89  F   UNL A   1      38.287  32.478  38.211  1.00  0.00    -0.206 F 
ATOM     90  C   UNL A   1      38.811  34.547  39.189  1.00  0.00     0.059 A 
ATOM     91  C   UNL A   1      40.349  36.059  38.070  1.00  0.00     0.059 A 
ATOM     92  F   UNL A   1      41.275  35.453  36.003  1.00  0.00    -0.206 F 
ATOM     93  C   UNL A   1      39.511  35.755  39.142  1.00  0.00     0.060 A 
BRANCH  93  94
ATOM     94  S   UNL A   1      39.349  36.907  40.523  1.00  0.00     0.124 S 
ATOM     95  O   UNL A   1      38.754  38.067  39.867  1.00  0.00    -0.237 OA
ATOM     96  O   UNL A   1      38.474  36.180  41.438  1.00  0.00    -0.237 OA
ATOM     97  O   UNL A   1      40.723  37.079  40.984  1.00  0.00    -0.744 OA
ENDBRANCH  93  94
ENDBRANCH  61  86
ENDBRANCH  35  36
ENDBRANCH  27  30
ENDBRANCH  25  26
ENDBRANCH  24  25
ENDBRANCH   1  24
TORSDOF 17
ENDMDL
MODEL 3
REMARK VINA RESULT:     -10.9      3.142      9.016
REMARK SMILES C[C@@H]1CCCN(C(=O)NC2(CC(=O)NCCCCNC(=O)c3ccc(-c4c5nc(c(-c6c(F)cc(S(=O)(=O)[O-])cc6F)c6ccc([nH]6)c(-c6c(F)cc(S(=O)(=O)[O-])cc6F)c6nc(c(-c7c(F)cc(S(=O)(=O)[O-])cc7F)c7ccc4[nH]7)C=C6)C=C5)cc3)CCC2)[C@@H]1C
REMARK SMILES IDX 16 1 15 2 14 3 12 4 13 5 11 7 10 8 88 9 90 10 89 11 9 12
REMARK SMILES IDX 7 13 8 14 6 16 1 17 2 18 3 19 91 20 4 21 92 22 5 23 17 24
REMARK SMILES IDX 18 25 19 26 20 27 21 29 22 30 23 31 87 32 24 33 86 34 25 35
REMARK SMILES IDX 26 36 27 37 80 38 28 39 85 40 79 41 81 42 29 43 84 44 78 45
REMARK SMILES IDX 77 46 30 48 64 49 43 50 63 51 44 52 47 53 62 54 82 55 45 56
REMARK SMILES IDX 46 57 61 59 83 60 48 61 31 62 32 63 41 64 33 65 34 66 40 67
REMARK SMILES IDX 42 68 35 69 36 70 37 71 38 72 39 73 65 74 66 75 75 76 67 77
REMARK SMILES IDX 68 78 74 79 76 80 69 81 70 82 71 83 72 84 73 85 49 86 50 87
REMARK SMILES IDX 59 88 51 89 52 90 58 91 60 92 53 93 54 94 55 95 56 96 57 97
REMARK H PARENT 14 6 9 15 19 28 81 47 47 58
REMARK Flexibility Score: inf
ROOT
ATOM      1  C   UNL A   1      34.708  29.411  27.406  1.00  0.00     0.023 C 
ENDROOT
BRANCH   1   2
ATOM      2  C   UNL A   1      33.594  29.030  26.426  1.00  0.00     0.116 C 
BRANCH   2   3
ATOM      3  N   UNL A   1      34.002  29.340  25.074  1.00  0.00    -0.356 N 
ATOM      4  C   UNL A   1      33.325  29.108  23.919  1.00  0.00     0.222 C 
ATOM      5  O   UNL A   1      33.946  29.138  22.855  1.00  0.00    -0.275 OA
ATOM      6  H   UNL A   1      34.881  29.772  24.979  1.00  0.00     0.163 HD
BRANCH   4   7
ATOM      7  C   UNL A   1      31.835  28.843  23.924  1.00  0.00     0.128 C 
BRANCH   7   8
ATOM      8  C   UNL A   1      31.349  27.414  23.557  1.00  0.00     0.051 C 
ATOM      9  C   UNL A   1      30.015  27.549  22.788  1.00  0.00     0.029 C 
ATOM     10  C   UNL A   1      30.592  26.712  24.706  1.00  0.00     0.029 C 
ATOM     11  C   UNL A   1      29.256  27.042  24.023  1.00  0.00     0.005 C 
BRANCH   8  12
ATOM     12  N   UNL A   1      32.429  26.672  22.865  1.00  0.00    -0.332 N 
ATOM     13  C   UNL A   1      32.998  25.460  22.704  1.00  0.00     0.318 C 
ATOM     14  O   UNL A   1      33.780  25.457  21.745  1.00  0.00    -0.249 OA
ATOM     15  H   UNL A   1      32.924  27.313  22.304  1.00  0.00     0.165 HD
BRANCH  13  16
ATOM     16  N   UNL A   1      32.792  24.340  23.455  1.00  0.00    -0.322 N 
ATOM     17  C   UNL A   1      35.564  23.060  23.460  1.00  0.00     0.010 C 
ATOM     18  C   UNL A   1      34.468  22.840  24.509  1.00  0.00     0.008 C 
ATOM     19  C   UNL A   1      33.589  21.626  24.153  1.00  0.00     0.007 C 
ATOM     20  C   UNL A   1      33.565  24.086  24.705  1.00  0.00     0.086 C 
ATOM     21  C   UNL A   1      32.638  21.918  22.995  1.00  0.00     0.022 C 
ATOM     22  C   UNL A   1      34.311  25.234  25.389  1.00  0.00     0.031 C 
ATOM     23  C   UNL A   1      31.885  23.234  23.195  1.00  0.00     0.121 C 
ENDBRANCH  13  16
ENDBRANCH   8  12
ENDBRANCH   7   8
ENDBRANCH   4   7
ENDBRANCH   2   3
ENDBRANCH   1   2
BRANCH   1  24
ATOM     24  C   UNL A   1      34.811  30.907  27.691  1.00  0.00     0.023 C 
BRANCH  24  25
ATOM     25  C   UNL A   1      35.902  31.270  28.687  1.00  0.00     0.116 C 
BRANCH  25  26
ATOM     26  N   UNL A   1      35.738  30.636  29.990  1.00  0.00    -0.352 N 
ATOM     27  C   UNL A   1      36.700  29.986  30.727  1.00  0.00     0.251 C 
ATOM     28  H   UNL A   1      34.838  30.678  30.385  1.00  0.00     0.163 HD
ATOM     29  O   UNL A   1      36.415  29.420  31.776  1.00  0.00    -0.269 OA
BRANCH  27  30
ATOM     30  C   UNL A   1      38.072  29.944  30.189  1.00  0.00     0.039 A 
ATOM     31  C   UNL A   1      39.144  29.876  31.080  1.00  0.00     0.014 A 
ATOM     32  C   UNL A   1      38.277  29.850  28.811  1.00  0.00     0.014 A 
ATOM     33  C   UNL A   1      40.427  29.638  30.585  1.00  0.00     0.010 A 
ATOM     34  C   UNL A   1      39.539  29.531  28.330  1.00  0.00     0.010 A 
ATOM     35  C   UNL A   1      40.625  29.423  29.211  1.00  0.00    -0.014 A 
BRANCH  35  36
ATOM     36  C   UNL A   1      41.964  29.102  28.660  1.00  0.00     0.031 A 
ATOM     37  C   UNL A   1      42.256  27.699  28.206  1.00  0.00     0.074 A 
ATOM     38  C   UNL A   1      42.931  30.041  28.649  1.00  0.00     0.049 A 
ATOM     39  N   UNL A   1      43.388  27.175  27.819  1.00  0.00    -0.248 NA
ATOM     40  C   UNL A   1      41.131  26.748  28.229  1.00  0.00     0.031 C 
ATOM     41  C   UNL A   1      42.780  31.422  29.114  1.00  0.00     0.029 A 
ATOM     42  N   UNL A   1      44.240  29.970  28.245  1.00  0.00    -0.354 N 
ATOM     43  C   UNL A   1      43.119  25.833  27.577  1.00  0.00     0.074 A 
ATOM     44  C   UNL A   1      41.730  25.611  27.913  1.00  0.00     0.031 C 
ATOM     45  C   UNL A   1      43.945  32.072  28.949  1.00  0.00     0.029 A 
ATOM     46  C   UNL A   1      44.932  31.148  28.402  1.00  0.00     0.049 A 
ATOM     47  H   UNL A   1      44.646  29.153  27.878  1.00  0.00     0.167 HD
ATOM     48  C   UNL A   1      43.948  24.879  27.093  1.00  0.00     0.037 A 
ATOM     49  C   UNL A   1      46.220  31.444  28.137  1.00  0.00     0.037 A 
ATOM     50  C   UNL A   1      45.314  25.120  26.715  1.00  0.00     0.049 A 
ATOM     51  C   UNL A   1      47.112  30.373  27.568  1.00  0.00     0.074 A 
ATOM     52  C   UNL A   1      46.224  24.236  26.165  1.00  0.00     0.029 A 
ATOM     53  N   UNL A   1      45.961  26.340  26.836  1.00  0.00    -0.354 N 
ATOM     54  N   UNL A   1      46.828  29.120  27.303  1.00  0.00    -0.248 NA
ATOM     55  C   UNL A   1      48.496  30.757  27.254  1.00  0.00     0.031 C 
ATOM     56  C   UNL A   1      47.431  24.917  25.972  1.00  0.00     0.029 A 
ATOM     57  C   UNL A   1      47.260  26.234  26.370  1.00  0.00     0.049 A 
ATOM     58  H   UNL A   1      45.557  27.162  27.199  1.00  0.00     0.167 HD
ATOM     59  C   UNL A   1      47.987  28.575  26.762  1.00  0.00     0.074 A 
ATOM     60  C   UNL A   1      48.974  29.636  26.732  1.00  0.00     0.031 C 
ATOM     61  C   UNL A   1      48.216  27.311  26.327  1.00  0.00     0.037 A 
BRANCH  48  62
ATOM     62  C   UNL A   1      43.389  23.494  26.927  1.00  0.00     0.058 A 
ATOM     63  C   UNL A   1      43.251  22.624  28.021  1.00  0.00     0.135 A 
ATOM     64  C   UNL A   1      42.964  23.038  25.670  1.00  0.00     0.135 A 
ATOM     65  F   UNL A   1      43.659  23.003  29.242  1.00  0.00    -0.206 F 
ATOM     66  C   UNL A   1      42.738  21.341  27.869  1.00  0.00     0.059 A 
ATOM     67  C   UNL A   1      42.424  21.768  25.499  1.00  0.00     0.059 A 
ATOM     68  F   UNL A   1      43.078  23.828  24.590  1.00  0.00    -0.206 F 
ATOM     69  C   UNL A   1      42.329  20.921  26.603  1.00  0.00     0.060 A 
BRANCH  69  70
ATOM     70  S   UNL A   1      41.661  19.253  26.422  1.00  0.00     0.124 S 
ATOM     71  O   UNL A   1      41.667  18.787  27.806  1.00  0.00    -0.237 OA
ATOM     72  O   UNL A   1      40.345  19.505  25.844  1.00  0.00    -0.237 OA
ATOM     73  O   UNL A   1      42.618  18.599  25.535  1.00  0.00    -0.744 OA
ENDBRANCH  69  70
ENDBRANCH  48  62
BRANCH  49  74
ATOM     74  C   UNL A   1      46.737  32.818  28.375  1.00  0.00     0.058 A 
ATOM     75  C   UNL A   1      47.422  33.130  29.558  1.00  0.00     0.135 A 
ATOM     76  C   UNL A   1      46.555  33.842  27.433  1.00  0.00     0.135 A 
ATOM     77  F   UNL A   1      47.617  32.185  30.490  1.00  0.00    -0.206 F 
ATOM     78  C   UNL A   1      47.890  34.416  29.811  1.00  0.00     0.059 A 
ATOM     79  C   UNL A   1      47.034  35.130  27.655  1.00  0.00     0.059 A 
ATOM     80  F   UNL A   1      45.922  33.589  26.278  1.00  0.00    -0.206 F 
ATOM     81  C   UNL A   1      47.689  35.410  28.854  1.00  0.00     0.060 A 
BRANCH  81  82
ATOM     82  S   UNL A   1      48.326  37.069  29.178  1.00  0.00     0.124 S 
ATOM     83  O   UNL A   1      49.717  36.935  28.760  1.00  0.00    -0.237 OA
ATOM     84  O   UNL A   1      47.480  37.897  28.325  1.00  0.00    -0.237 OA
ATOM     85  O   UNL A   1      48.110  37.235  30.612  1.00  0.00    -0.744 OA
ENDBRANCH  81  82
ENDBRANCH  49  74
BRANCH  61  86
ATOM     86  C   UNL A   1      49.562  27.015  25.735  1.00  0.00     0.058 A 
ATOM     87  C   UNL A   1      49.820  27.191  24.368  1.00  0.00     0.135 A 
ATOM     88  C   UNL A   1      50.627  26.621  26.562  1.00  0.00     0.135 A 
ATOM     89  F   UNL A   1      48.832  27.562  23.536  1.00  0.00    -0.206 F 
ATOM     90  C   UNL A   1      51.085  26.973  23.836  1.00  0.00     0.059 A 
ATOM     91  C   UNL A   1      51.906  26.420  26.055  1.00  0.00     0.059 A 
ATOM     92  F   UNL A   1      50.432  26.450  27.879  1.00  0.00    -0.206 F 
ATOM     93  C   UNL A   1      52.123  26.590  24.689  1.00  0.00     0.060 A 
BRANCH  93  94
ATOM     94  S   UNL A   1      53.775  26.362  23.997  1.00  0.00     0.124 S 
ATOM     95  O   UNL A   1      54.411  27.632  24.332  1.00  0.00    -0.237 OA
ATOM     96  O   UNL A   1      54.264  25.197  24.728  1.00  0.00    -0.237 OA
ATOM     97  O   UNL A   1      53.521  26.140  22.577  1.00  0.00    -0.744 OA
ENDBRANCH  93  94
ENDBRANCH  61  86
ENDBRANCH  35  36
ENDBRANCH  27  30
ENDBRANCH  25  26
ENDBRANCH  24  25
ENDBRANCH   1  24
TORSDOF 17
ENDMDL
