MODEL 1
REMARK VINA RESULT:     -13.1      0.000      0.000
REMARK SMILES O=C1NC(=S)S/C1=C\c1ccc(OCc2cn(-c3ccc(C(=O)NCCCCNC(=O)c4ccc(-c5c6nc(c(-c7c(F)cc(S(=O)(=O)[O-])cc7F)c7ccc([nH]7)c(-c7c(F)cc(S(=O)(=O)[O-])cc7F)c7nc(c(-c8c(F)cc(S(=O)(=O)[O-])cc8F)c8ccc5[nH]8)C=C7)C=C6)cc4)cc3)nn2)cc1
REMARK SMILES IDX 25 1 24 2 22 3 23 4 21 6 18 7 19 8 99 9 20 10 98 11 17 12
REMARK SMILES IDX 15 13 16 14 101 15 100 16 14 17 13 18 12 19 9 20 10 21
REMARK SMILES IDX 103 22 11 23 102 24 8 25 1 26 2 27 3 28 7 29 4 30 6 32 5 33
REMARK SMILES IDX 26 34 27 35 28 36 29 37 30 38 31 40 32 41 33 42 97 43 34 44
REMARK SMILES IDX 96 45 35 46 36 47 37 48 90 49 38 50 95 51 89 52 91 53 39 54
REMARK SMILES IDX 94 55 88 56 87 57 40 59 74 60 53 61 73 62 54 63 57 64 72 65
REMARK SMILES IDX 92 66 55 67 56 68 71 70 93 71 58 72 41 73 42 74 51 75 43 76
REMARK SMILES IDX 44 77 50 78 52 79 45 80 46 81 47 82 48 83 49 84 75 85 76 86
REMARK SMILES IDX 85 87 77 88 78 89 84 90 86 91 79 92 80 93 81 94 82 95 83 96
REMARK SMILES IDX 59 97 60 98 69 99 61 100 62 101 68 102 70 103 63 104 64 105
REMARK SMILES IDX 65 106 66 107 67 108
REMARK H PARENT 24 5 3 31 29 39 91 58 57 69
REMARK Flexibility Score: inf
ROOT
ATOM      1  C   UNL A   1      36.913  19.751  25.122  1.00  0.00     0.116 C 
ENDROOT
BRANCH   1   2
ATOM      2  N   UNL A   1      35.870  18.845  24.685  1.00  0.00    -0.352 N 
ATOM      3  C   UNL A   1      34.501  18.923  24.670  1.00  0.00     0.251 C 
ATOM      4  O   UNL A   1      33.887  17.938  24.260  1.00  0.00    -0.269 OA
ATOM      5  H   UNL A   1      36.216  17.997  24.324  1.00  0.00     0.163 HD
BRANCH   3   6
ATOM      6  C   UNL A   1      33.727  20.134  25.075  1.00  0.00     0.039 A 
ATOM      7  C   UNL A   1      32.301  22.499  25.613  1.00  0.00     0.066 A 
ATOM      8  C   UNL A   1      32.179  21.884  24.363  1.00  0.00     0.029 A 
ATOM      9  C   UNL A   1      33.078  21.908  26.610  1.00  0.00     0.029 A 
ATOM     10  C   UNL A   1      32.916  20.728  24.091  1.00  0.00     0.016 A 
ATOM     11  C   UNL A   1      33.738  20.704  26.350  1.00  0.00     0.016 A 
BRANCH   7  12
ATOM     12  N   UNL A   1      31.620  23.704  25.875  1.00  0.00    -0.220 N 
ATOM     13  C   UNL A   1      31.015  25.791  26.076  1.00  0.00     0.120 A 
ATOM     14  C   UNL A   1      31.987  24.985  25.526  1.00  0.00     0.144 A 
ATOM     15  N   UNL A   1      30.087  24.990  26.693  1.00  0.00    -0.131 NA
ATOM     16  N   UNL A   1      30.445  23.728  26.537  1.00  0.00    -0.062 NA
BRANCH  13  17
ATOM     17  C   UNL A   1      30.807  27.268  25.988  1.00  0.00     0.289 C 
BRANCH  17  18
ATOM     18  O   UNL A   1      31.853  28.007  25.332  1.00  0.00    -0.487 OA
BRANCH  18  19
ATOM     19  C   UNL A   1      32.711  28.748  26.099  1.00  0.00     0.119 A 
ATOM     20  C   UNL A   1      34.440  30.569  27.358  1.00  0.00    -0.024 A 
ATOM     21  C   UNL A   1      33.149  30.964  26.999  1.00  0.00     0.012 A 
ATOM     22  C   UNL A   1      34.820  29.238  27.177  1.00  0.00     0.012 A 
ATOM     23  C   UNL A   1      32.292  30.055  26.367  1.00  0.00     0.047 A 
ATOM     24  C   UNL A   1      33.947  28.327  26.581  1.00  0.00     0.047 A 
BRANCH  20  25
ATOM     25  C   UNL A   1      35.402  31.531  27.898  1.00  0.00     0.029 C 
ATOM     26  O   UNL A   1      37.336  33.493  28.837  1.00  0.00    -0.268 OA
ATOM     27  C   UNL A   1      36.166  33.760  28.653  1.00  0.00     0.263 C 
ATOM     28  N   UNL A   1      35.609  34.998  28.835  1.00  0.00    -0.307 N 
ATOM     29  C   UNL A   1      35.120  32.810  28.185  1.00  0.00     0.080 C 
ATOM     30  C   UNL A   1      34.277  35.147  28.594  1.00  0.00     0.145 C 
ATOM     31  H   UNL A   1      36.157  35.760  29.132  1.00  0.00     0.171 HD
ATOM     32  S   UNL A   1      33.599  33.623  28.075  1.00  0.00    -0.055 SA
ATOM     33  S   UNL A   1      33.472  36.580  28.786  1.00  0.00    -0.052 S 
ENDBRANCH  20  25
ENDBRANCH  18  19
ENDBRANCH  17  18
ENDBRANCH  13  17
ENDBRANCH   7  12
ENDBRANCH   3   6
ENDBRANCH   1   2
BRANCH   1  34
ATOM     34  C   UNL A   1      37.047  20.941  24.164  1.00  0.00     0.023 C 
BRANCH  34  35
ATOM     35  C   UNL A   1      36.681  22.302  24.776  1.00  0.00     0.023 C 
BRANCH  35  36
ATOM     36  C   UNL A   1      37.831  23.014  25.481  1.00  0.00     0.116 C 
BRANCH  36  37
ATOM     37  N   UNL A   1      38.653  22.106  26.283  1.00  0.00    -0.352 N 
ATOM     38  C   UNL A   1      39.805  22.397  26.992  1.00  0.00     0.251 C 
ATOM     39  H   UNL A   1      38.347  21.170  26.324  1.00  0.00     0.163 HD
ATOM     40  O   UNL A   1      40.604  21.519  27.282  1.00  0.00    -0.269 OA
BRANCH  38  41
ATOM     41  C   UNL A   1      40.034  23.792  27.406  1.00  0.00     0.039 A 
ATOM     42  C   UNL A   1      38.982  24.689  27.592  1.00  0.00     0.014 A 
ATOM     43  C   UNL A   1      41.349  24.168  27.662  1.00  0.00     0.014 A 
ATOM     44  C   UNL A   1      39.260  25.944  28.135  1.00  0.00     0.010 A 
ATOM     45  C   UNL A   1      41.600  25.336  28.337  1.00  0.00     0.010 A 
ATOM     46  C   UNL A   1      40.572  26.251  28.532  1.00  0.00    -0.014 A 
BRANCH  46  47
ATOM     47  C   UNL A   1      40.871  27.487  29.251  1.00  0.00     0.031 A 
ATOM     48  C   UNL A   1      41.851  28.390  28.582  1.00  0.00     0.074 A 
ATOM     49  C   UNL A   1      40.161  27.903  30.323  1.00  0.00     0.049 A 
ATOM     50  N   UNL A   1      43.047  28.682  28.974  1.00  0.00    -0.248 NA
ATOM     51  C   UNL A   1      41.518  28.931  27.255  1.00  0.00     0.031 C 
ATOM     52  C   UNL A   1      38.974  27.292  30.934  1.00  0.00     0.029 A 
ATOM     53  N   UNL A   1      40.300  29.049  31.039  1.00  0.00    -0.354 N 
ATOM     54  C   UNL A   1      43.539  29.619  28.067  1.00  0.00     0.074 A 
ATOM     55  C   UNL A   1      42.638  29.590  26.944  1.00  0.00     0.031 C 
ATOM     56  C   UNL A   1      38.373  28.186  31.750  1.00  0.00     0.029 A 
ATOM     57  C   UNL A   1      39.221  29.357  31.860  1.00  0.00     0.049 A 
ATOM     58  H   UNL A   1      41.103  29.616  30.982  1.00  0.00     0.167 HD
ATOM     59  C   UNL A   1      44.521  30.499  28.416  1.00  0.00     0.037 A 
ATOM     60  C   UNL A   1      39.036  30.502  32.564  1.00  0.00     0.037 A 
ATOM     61  C   UNL A   1      45.163  30.095  29.644  1.00  0.00     0.049 A 
ATOM     62  C   UNL A   1      40.378  31.121  32.729  1.00  0.00     0.074 A 
ATOM     63  C   UNL A   1      45.838  28.959  30.055  1.00  0.00     0.029 A 
ATOM     64  N   UNL A   1      44.818  30.755  30.800  1.00  0.00    -0.354 N 
ATOM     65  N   UNL A   1      41.335  30.587  33.440  1.00  0.00    -0.248 NA
ATOM     66  C   UNL A   1      40.815  32.073  31.717  1.00  0.00     0.031 C 
ATOM     67  C   UNL A   1      45.401  28.741  31.394  1.00  0.00     0.029 A 
ATOM     68  C   UNL A   1      44.557  29.795  31.746  1.00  0.00     0.049 A 
ATOM     69  H   UNL A   1      44.766  31.730  30.924  1.00  0.00     0.167 HD
ATOM     70  C   UNL A   1      42.489  30.790  32.696  1.00  0.00     0.074 A 
ATOM     71  C   UNL A   1      42.119  31.784  31.689  1.00  0.00     0.031 C 
ATOM     72  C   UNL A   1      43.549  29.931  32.775  1.00  0.00     0.037 A 
BRANCH  59  73
ATOM     73  C   UNL A   1      44.675  31.899  27.863  1.00  0.00     0.058 A 
ATOM     74  C   UNL A   1      45.850  32.235  27.155  1.00  0.00     0.135 A 
ATOM     75  C   UNL A   1      43.862  32.992  28.238  1.00  0.00     0.135 A 
ATOM     76  F   UNL A   1      46.697  31.279  26.741  1.00  0.00    -0.206 F 
ATOM     77  C   UNL A   1      46.234  33.556  26.922  1.00  0.00     0.059 A 
ATOM     78  C   UNL A   1      44.199  34.314  27.966  1.00  0.00     0.059 A 
ATOM     79  F   UNL A   1      42.755  32.841  28.972  1.00  0.00    -0.206 F 
ATOM     80  C   UNL A   1      45.408  34.590  27.351  1.00  0.00     0.060 A 
BRANCH  80  81
ATOM     81  S   UNL A   1      45.957  36.295  27.163  1.00  0.00     0.124 S 
ATOM     82  O   UNL A   1      44.698  36.972  26.871  1.00  0.00    -0.237 OA
ATOM     83  O   UNL A   1      46.544  36.570  28.470  1.00  0.00    -0.237 OA
ATOM     84  O   UNL A   1      46.907  36.221  26.058  1.00  0.00    -0.744 OA
ENDBRANCH  80  81
ENDBRANCH  59  73
BRANCH  60  85
ATOM     85  C   UNL A   1      37.766  31.235  32.822  1.00  0.00     0.058 A 
ATOM     86  C   UNL A   1      37.581  31.971  34.006  1.00  0.00     0.135 A 
ATOM     87  C   UNL A   1      36.827  31.468  31.796  1.00  0.00     0.135 A 
ATOM     88  F   UNL A   1      38.432  31.822  35.032  1.00  0.00    -0.206 F 
ATOM     89  C   UNL A   1      36.570  32.930  34.141  1.00  0.00     0.059 A 
ATOM     90  C   UNL A   1      35.804  32.410  31.912  1.00  0.00     0.059 A 
ATOM     91  F   UNL A   1      36.929  30.853  30.610  1.00  0.00    -0.206 F 
ATOM     92  C   UNL A   1      35.701  33.161  33.076  1.00  0.00     0.060 A 
BRANCH  92  93
ATOM     93  S   UNL A   1      34.528  34.536  33.166  1.00  0.00     0.124 S 
ATOM     94  O   UNL A   1      34.944  35.209  34.391  1.00  0.00    -0.237 OA
ATOM     95  O   UNL A   1      34.795  35.251  31.922  1.00  0.00    -0.237 OA
ATOM     96  O   UNL A   1      33.230  33.869  33.229  1.00  0.00    -0.744 OA
ENDBRANCH  92  93
ENDBRANCH  60  85
BRANCH  72  97
ATOM     97  C   UNL A   1      43.561  28.897  33.875  1.00  0.00     0.058 A 
ATOM     98  C   UNL A   1      44.007  29.133  35.189  1.00  0.00     0.135 A 
ATOM     99  C   UNL A   1      42.947  27.659  33.628  1.00  0.00     0.135 A 
ATOM    100  F   UNL A   1      44.505  30.323  35.546  1.00  0.00    -0.206 F 
ATOM    101  C   UNL A   1      43.889  28.170  36.194  1.00  0.00     0.059 A 
ATOM    102  C   UNL A   1      42.789  26.698  34.622  1.00  0.00     0.059 A 
ATOM    103  F   UNL A   1      42.438  27.393  32.412  1.00  0.00    -0.206 F 
ATOM    104  C   UNL A   1      43.277  26.953  35.901  1.00  0.00     0.060 A 
BRANCH 104 105
ATOM    105  S   UNL A   1      43.068  25.734  37.217  1.00  0.00     0.124 S 
ATOM    106  O   UNL A   1      43.218  26.551  38.416  1.00  0.00    -0.237 OA
ATOM    107  O   UNL A   1      41.725  25.220  36.964  1.00  0.00    -0.237 OA
ATOM    108  O   UNL A   1      44.146  24.780  36.973  1.00  0.00    -0.744 OA
ENDBRANCH 104 105
ENDBRANCH  72  97
ENDBRANCH  46  47
ENDBRANCH  38  41
ENDBRANCH  36  37
ENDBRANCH  35  36
ENDBRANCH  34  35
ENDBRANCH   1  34
TORSDOF 19
ENDMDL
MODEL 2
REMARK VINA RESULT:     -12.2      3.248     10.270
REMARK SMILES O=C1NC(=S)S/C1=C\c1ccc(OCc2cn(-c3ccc(C(=O)NCCCCNC(=O)c4ccc(-c5c6nc(c(-c7c(F)cc(S(=O)(=O)[O-])cc7F)c7ccc([nH]7)c(-c7c(F)cc(S(=O)(=O)[O-])cc7F)c7nc(c(-c8c(F)cc(S(=O)(=O)[O-])cc8F)c8ccc5[nH]8)C=C7)C=C6)cc4)cc3)nn2)cc1
REMARK SMILES IDX 25 1 24 2 22 3 23 4 21 6 18 7 19 8 99 9 20 10 98 11 17 12
REMARK SMILES IDX 15 13 16 14 101 15 100 16 14 17 13 18 12 19 9 20 10 21
REMARK SMILES IDX 103 22 11 23 102 24 8 25 1 26 2 27 3 28 7 29 4 30 6 32 5 33
REMARK SMILES IDX 26 34 27 35 28 36 29 37 30 38 31 40 32 41 33 42 97 43 34 44
REMARK SMILES IDX 96 45 35 46 36 47 37 48 90 49 38 50 95 51 89 52 91 53 39 54
REMARK SMILES IDX 94 55 88 56 87 57 40 59 74 60 53 61 73 62 54 63 57 64 72 65
REMARK SMILES IDX 92 66 55 67 56 68 71 70 93 71 58 72 41 73 42 74 51 75 43 76
REMARK SMILES IDX 44 77 50 78 52 79 45 80 46 81 47 82 48 83 49 84 75 85 76 86
REMARK SMILES IDX 85 87 77 88 78 89 84 90 86 91 79 92 80 93 81 94 82 95 83 96
REMARK SMILES IDX 59 97 60 98 69 99 61 100 62 101 68 102 70 103 63 104 64 105
REMARK SMILES IDX 65 106 66 107 67 108
REMARK H PARENT 24 5 3 31 29 39 91 58 57 69
REMARK Flexibility Score: inf
ROOT
ATOM      1  C   UNL A   1      35.624  33.486  27.922  1.00  0.00     0.116 C 
ENDROOT
BRANCH   1   2
ATOM      2  N   UNL A   1      36.052  32.387  28.765  1.00  0.00    -0.352 N 
ATOM      3  C   UNL A   1      35.696  31.065  28.839  1.00  0.00     0.251 C 
ATOM      4  O   UNL A   1      36.232  30.388  29.716  1.00  0.00    -0.269 OA
ATOM      5  H   UNL A   1      36.742  32.643  29.418  1.00  0.00     0.163 HD
BRANCH   3   6
ATOM      6  C   UNL A   1      34.741  30.401  27.902  1.00  0.00     0.039 A 
ATOM      7  C   UNL A   1      32.764  29.243  26.270  1.00  0.00     0.066 A 
ATOM      8  C   UNL A   1      32.560  30.517  26.810  1.00  0.00     0.029 A 
ATOM      9  C   UNL A   1      33.969  28.575  26.490  1.00  0.00     0.029 A 
ATOM     10  C   UNL A   1      33.532  31.073  27.646  1.00  0.00     0.016 A 
ATOM     11  C   UNL A   1      34.967  29.183  27.257  1.00  0.00     0.016 A 
BRANCH   7  12
ATOM     12  N   UNL A   1      31.761  28.642  25.486  1.00  0.00    -0.220 N 
ATOM     13  C   UNL A   1      30.364  27.265  24.529  1.00  0.00     0.120 A 
ATOM     14  C   UNL A   1      31.282  27.352  25.552  1.00  0.00     0.144 A 
ATOM     15  N   UNL A   1      30.285  28.488  23.913  1.00  0.00    -0.131 NA
ATOM     16  N   UNL A   1      31.109  29.323  24.520  1.00  0.00    -0.062 NA
BRANCH  13  17
ATOM     17  C   UNL A   1      29.453  26.150  24.128  1.00  0.00     0.289 C 
BRANCH  17  18
ATOM     18  O   UNL A   1      29.869  25.384  22.983  1.00  0.00    -0.487 OA
BRANCH  18  19
ATOM     19  C   UNL A   1      30.883  24.478  23.136  1.00  0.00     0.119 A 
ATOM     20  C   UNL A   1      32.980  22.756  23.863  1.00  0.00    -0.024 A 
ATOM     21  C   UNL A   1      31.777  22.733  24.574  1.00  0.00     0.012 A 
ATOM     22  C   UNL A   1      33.086  23.567  22.732  1.00  0.00     0.012 A 
ATOM     23  C   UNL A   1      30.737  23.596  24.212  1.00  0.00     0.047 A 
ATOM     24  C   UNL A   1      32.031  24.397  22.354  1.00  0.00     0.047 A 
BRANCH  20  25
ATOM     25  C   UNL A   1      34.130  21.962  24.299  1.00  0.00     0.029 C 
ATOM     26  O   UNL A   1      36.359  20.379  25.298  1.00  0.00    -0.268 OA
ATOM     27  C   UNL A   1      35.318  19.882  24.918  1.00  0.00     0.263 C 
ATOM     28  N   UNL A   1      35.043  18.540  24.927  1.00  0.00    -0.307 N 
ATOM     29  C   UNL A   1      34.143  20.625  24.387  1.00  0.00     0.080 C 
ATOM     30  C   UNL A   1      33.832  18.127  24.465  1.00  0.00     0.145 C 
ATOM     31  H   UNL A   1      35.706  17.892  25.260  1.00  0.00     0.171 HD
ATOM     32  S   UNL A   1      32.892  19.510  23.961  1.00  0.00    -0.055 SA
ATOM     33  S   UNL A   1      33.374  16.537  24.405  1.00  0.00    -0.052 S 
ENDBRANCH  20  25
ENDBRANCH  18  19
ENDBRANCH  17  18
ENDBRANCH  13  17
ENDBRANCH   7  12
ENDBRANCH   3   6
ENDBRANCH   1   2
BRANCH   1  34
ATOM     34  C   UNL A   1      35.419  34.764  28.745  1.00  0.00     0.023 C 
BRANCH  34  35
ATOM     35  C   UNL A   1      34.059  34.861  29.453  1.00  0.00     0.023 C 
BRANCH  35  36
ATOM     36  C   UNL A   1      34.005  34.194  30.823  1.00  0.00     0.116 C 
BRANCH  36  37
ATOM     37  N   UNL A   1      34.548  35.039  31.887  1.00  0.00    -0.352 N 
ATOM     38  C   UNL A   1      35.653  34.802  32.685  1.00  0.00     0.251 C 
ATOM     39  H   UNL A   1      34.068  35.882  32.056  1.00  0.00     0.163 HD
ATOM     40  O   UNL A   1      35.776  35.353  33.769  1.00  0.00    -0.269 OA
BRANCH  38  41
ATOM     41  C   UNL A   1      36.689  33.881  32.187  1.00  0.00     0.039 A 
ATOM     42  C   UNL A   1      37.800  34.336  31.475  1.00  0.00     0.014 A 
ATOM     43  C   UNL A   1      36.545  32.534  32.505  1.00  0.00     0.014 A 
ATOM     44  C   UNL A   1      38.817  33.430  31.172  1.00  0.00     0.010 A 
ATOM     45  C   UNL A   1      37.609  31.683  32.344  1.00  0.00     0.010 A 
ATOM     46  C   UNL A   1      38.728  32.107  31.635  1.00  0.00    -0.014 A 
BRANCH  46  47
ATOM     47  C   UNL A   1      39.843  31.177  31.478  1.00  0.00     0.031 A 
ATOM     48  C   UNL A   1      40.551  30.815  32.740  1.00  0.00     0.074 A 
ATOM     49  C   UNL A   1      40.086  30.510  30.329  1.00  0.00     0.049 A 
ATOM     50  N   UNL A   1      41.757  31.128  33.082  1.00  0.00    -0.248 NA
ATOM     51  C   UNL A   1      39.793  30.142  33.806  1.00  0.00     0.031 C 
ATOM     52  C   UNL A   1      39.313  30.515  29.081  1.00  0.00     0.029 A 
ATOM     53  N   UNL A   1      41.047  29.585  30.073  1.00  0.00    -0.354 N 
ATOM     54  C   UNL A   1      41.992  30.502  34.305  1.00  0.00     0.074 A 
ATOM     55  C   UNL A   1      40.702  30.073  34.781  1.00  0.00     0.031 C 
ATOM     56  C   UNL A   1      39.687  29.469  28.311  1.00  0.00     0.029 A 
ATOM     57  C   UNL A   1      40.839  28.833  28.921  1.00  0.00     0.049 A 
ATOM     58  H   UNL A   1      41.829  29.456  30.657  1.00  0.00     0.167 HD
ATOM     59  C   UNL A   1      43.257  30.193  34.714  1.00  0.00     0.037 A 
ATOM     60  C   UNL A   1      41.556  27.756  28.512  1.00  0.00     0.037 A 
ATOM     61  C   UNL A   1      44.240  30.887  33.919  1.00  0.00     0.049 A 
ATOM     62  C   UNL A   1      42.875  27.841  29.194  1.00  0.00     0.074 A 
ATOM     63  C   UNL A   1      44.500  32.219  33.647  1.00  0.00     0.029 A 
ATOM     64  N   UNL A   1      44.895  30.178  32.939  1.00  0.00    -0.354 N 
ATOM     65  N   UNL A   1      43.750  28.781  28.955  1.00  0.00    -0.248 NA
ATOM     66  C   UNL A   1      43.018  27.173  30.480  1.00  0.00     0.031 C 
ATOM     67  C   UNL A   1      44.835  32.248  32.261  1.00  0.00     0.029 A 
ATOM     68  C   UNL A   1      44.840  30.933  31.794  1.00  0.00     0.049 A 
ATOM     69  H   UNL A   1      45.320  29.295  33.039  1.00  0.00     0.167 HD
ATOM     70  C   UNL A   1      44.260  29.118  30.201  1.00  0.00     0.074 A 
ATOM     71  C   UNL A   1      43.835  28.036  31.089  1.00  0.00     0.031 C 
ATOM     72  C   UNL A   1      44.730  30.375  30.464  1.00  0.00     0.037 A 
BRANCH  59  73
ATOM     73  C   UNL A   1      43.628  29.010  35.583  1.00  0.00     0.058 A 
ATOM     74  C   UNL A   1      44.452  29.216  36.712  1.00  0.00     0.135 A 
ATOM     75  C   UNL A   1      43.452  27.662  35.200  1.00  0.00     0.135 A 
ATOM     76  F   UNL A   1      44.686  30.456  37.171  1.00  0.00    -0.206 F 
ATOM     77  C   UNL A   1      45.122  28.173  37.350  1.00  0.00     0.059 A 
ATOM     78  C   UNL A   1      44.067  26.602  35.858  1.00  0.00     0.059 A 
ATOM     79  F   UNL A   1      42.758  27.311  34.113  1.00  0.00    -0.206 F 
ATOM     80  C   UNL A   1      44.938  26.870  36.901  1.00  0.00     0.060 A 
BRANCH  80  81
ATOM     81  S   UNL A   1      45.895  25.535  37.642  1.00  0.00     0.124 S 
ATOM     82  O   UNL A   1      45.714  25.805  39.064  1.00  0.00    -0.237 OA
ATOM     83  O   UNL A   1      45.217  24.352  37.123  1.00  0.00    -0.237 OA
ATOM     84  O   UNL A   1      47.240  25.759  37.121  1.00  0.00    -0.744 OA
ENDBRANCH  80  81
ENDBRANCH  59  73
BRANCH  60  85
ATOM     85  C   UNL A   1      41.070  26.524  27.834  1.00  0.00     0.058 A 
ATOM     86  C   UNL A   1      41.826  25.907  26.821  1.00  0.00     0.135 A 
ATOM     87  C   UNL A   1      40.002  25.765  28.358  1.00  0.00     0.135 A 
ATOM     88  F   UNL A   1      42.867  26.549  26.271  1.00  0.00    -0.206 F 
ATOM     89  C   UNL A   1      41.584  24.593  26.401  1.00  0.00     0.059 A 
ATOM     90  C   UNL A   1      39.735  24.459  27.947  1.00  0.00     0.059 A 
ATOM     91  F   UNL A   1      39.240  26.236  29.355  1.00  0.00    -0.206 F 
ATOM     92  C   UNL A   1      40.550  23.867  26.991  1.00  0.00     0.060 A 
BRANCH  92  93
ATOM     93  S   UNL A   1      40.363  22.110  26.603  1.00  0.00     0.124 S 
ATOM     94  O   UNL A   1      39.019  22.066  26.039  1.00  0.00    -0.237 OA
ATOM     95  O   UNL A   1      41.457  21.883  25.664  1.00  0.00    -0.237 OA
ATOM     96  O   UNL A   1      40.517  21.459  27.902  1.00  0.00    -0.744 OA
ENDBRANCH  92  93
ENDBRANCH  60  85
BRANCH  72  97
ATOM     97  C   UNL A   1      44.930  31.328  29.311  1.00  0.00     0.058 A 
ATOM     98  C   UNL A   1      43.934  32.180  28.797  1.00  0.00     0.135 A 
ATOM     99  C   UNL A   1      46.229  31.499  28.809  1.00  0.00     0.135 A 
ATOM    100  F   UNL A   1      42.690  32.166  29.292  1.00  0.00    -0.206 F 
ATOM    101  C   UNL A   1      44.207  33.121  27.802  1.00  0.00     0.059 A 
ATOM    102  C   UNL A   1      46.532  32.453  27.842  1.00  0.00     0.059 A 
ATOM    103  F   UNL A   1      47.241  30.765  29.303  1.00  0.00    -0.206 F 
ATOM    104  C   UNL A   1      45.512  33.252  27.330  1.00  0.00     0.060 A 
BRANCH 104 105
ATOM    105  S   UNL A   1      45.877  34.513  26.091  1.00  0.00     0.124 S 
ATOM    106  O   UNL A   1      47.116  34.015  25.503  1.00  0.00    -0.237 OA
ATOM    107  O   UNL A   1      44.700  34.463  25.228  1.00  0.00    -0.237 OA
ATOM    108  O   UNL A   1      46.007  35.737  26.879  1.00  0.00    -0.744 OA
ENDBRANCH 104 105
ENDBRANCH  72  97
ENDBRANCH  46  47
ENDBRANCH  38  41
ENDBRANCH  36  37
ENDBRANCH  35  36
ENDBRANCH  34  35
ENDBRANCH   1  34
TORSDOF 19
ENDMDL
MODEL 3
REMARK VINA RESULT:     -12.0      3.983     10.010
REMARK SMILES O=C1NC(=S)S/C1=C\c1ccc(OCc2cn(-c3ccc(C(=O)NCCCCNC(=O)c4ccc(-c5c6nc(c(-c7c(F)cc(S(=O)(=O)[O-])cc7F)c7ccc([nH]7)c(-c7c(F)cc(S(=O)(=O)[O-])cc7F)c7nc(c(-c8c(F)cc(S(=O)(=O)[O-])cc8F)c8ccc5[nH]8)C=C7)C=C6)cc4)cc3)nn2)cc1
REMARK SMILES IDX 25 1 24 2 22 3 23 4 21 6 18 7 19 8 99 9 20 10 98 11 17 12
REMARK SMILES IDX 15 13 16 14 101 15 100 16 14 17 13 18 12 19 9 20 10 21
REMARK SMILES IDX 103 22 11 23 102 24 8 25 1 26 2 27 3 28 7 29 4 30 6 32 5 33
REMARK SMILES IDX 26 34 27 35 28 36 29 37 30 38 31 40 32 41 33 42 97 43 34 44
REMARK SMILES IDX 96 45 35 46 36 47 37 48 90 49 38 50 95 51 89 52 91 53 39 54
REMARK SMILES IDX 94 55 88 56 87 57 40 59 74 60 53 61 73 62 54 63 57 64 72 65
REMARK SMILES IDX 92 66 55 67 56 68 71 70 93 71 58 72 41 73 42 74 51 75 43 76
REMARK SMILES IDX 44 77 50 78 52 79 45 80 46 81 47 82 48 83 49 84 75 85 76 86
REMARK SMILES IDX 85 87 77 88 78 89 84 90 86 91 79 92 80 93 81 94 82 95 83 96
REMARK SMILES IDX 59 97 60 98 69 99 61 100 62 101 68 102 70 103 63 104 64 105
REMARK SMILES IDX 65 106 66 107 67 108
REMARK H PARENT 24 5 3 31 29 39 91 58 57 69
REMARK Flexibility Score: inf
ROOT
ATOM      1  C   UNL A   1      43.975  25.251  25.642  1.00  0.00     0.116 C 
ENDROOT
BRANCH   1   2
ATOM      2  N   UNL A   1      44.667  26.316  24.943  1.00  0.00    -0.352 N 
ATOM      3  C   UNL A   1      45.788  27.054  25.227  1.00  0.00     0.251 C 
ATOM      4  O   UNL A   1      46.097  27.934  24.424  1.00  0.00    -0.269 OA
ATOM      5  H   UNL A   1      44.245  26.560  24.088  1.00  0.00     0.163 HD
BRANCH   3   6
ATOM      6  C   UNL A   1      46.664  26.823  26.413  1.00  0.00     0.039 A 
ATOM      7  C   UNL A   1      48.291  26.150  28.608  1.00  0.00     0.066 A 
ATOM      8  C   UNL A   1      48.354  25.387  27.438  1.00  0.00     0.029 A 
ATOM      9  C   UNL A   1      47.470  27.278  28.665  1.00  0.00     0.029 A 
ATOM     10  C   UNL A   1      47.519  25.707  26.363  1.00  0.00     0.016 A 
ATOM     11  C   UNL A   1      46.708  27.635  27.549  1.00  0.00     0.016 A 
BRANCH   7  12
ATOM     12  N   UNL A   1      49.073  25.795  29.724  1.00  0.00    -0.220 N 
ATOM     13  C   UNL A   1      49.961  25.592  31.707  1.00  0.00     0.120 A 
ATOM     14  C   UNL A   1      48.887  26.142  31.043  1.00  0.00     0.144 A 
ATOM     15  N   UNL A   1      50.728  24.909  30.797  1.00  0.00    -0.131 NA
ATOM     16  N   UNL A   1      50.164  25.010  29.606  1.00  0.00    -0.062 NA
BRANCH  13  17
ATOM     17  C   UNL A   1      50.293  25.553  33.163  1.00  0.00     0.289 C 
BRANCH  17  18
ATOM     18  O   UNL A   1      49.185  25.746  34.061  1.00  0.00    -0.487 OA
BRANCH  18  19
ATOM     19  C   UNL A   1      48.443  24.656  34.428  1.00  0.00     0.119 A 
ATOM     20  C   UNL A   1      47.120  22.214  34.851  1.00  0.00    -0.024 A 
ATOM     21  C   UNL A   1      48.516  22.263  34.850  1.00  0.00     0.012 A 
ATOM     22  C   UNL A   1      46.397  23.404  34.742  1.00  0.00     0.012 A 
ATOM     23  C   UNL A   1      49.171  23.481  34.634  1.00  0.00     0.047 A 
ATOM     24  C   UNL A   1      47.058  24.620  34.565  1.00  0.00     0.047 A 
BRANCH  20  25
ATOM     25  C   UNL A   1      46.407  20.939  34.943  1.00  0.00     0.029 C 
ATOM     26  O   UNL A   1      45.119  18.334  35.110  1.00  0.00    -0.268 OA
ATOM     27  C   UNL A   1      45.620  18.883  36.071  1.00  0.00     0.263 C 
ATOM     28  N   UNL A   1      45.668  18.356  37.334  1.00  0.00    -0.307 N 
ATOM     29  C   UNL A   1      46.285  20.214  36.064  1.00  0.00     0.080 C 
ATOM     30  C   UNL A   1      46.258  19.090  38.317  1.00  0.00     0.145 C 
ATOM     31  H   UNL A   1      45.285  17.469  37.526  1.00  0.00     0.171 HD
ATOM     32  S   UNL A   1      46.840  20.598  37.655  1.00  0.00    -0.055 SA
ATOM     33  S   UNL A   1      46.372  18.583  39.888  1.00  0.00    -0.052 S 
ENDBRANCH  20  25
ENDBRANCH  18  19
ENDBRANCH  17  18
ENDBRANCH  13  17
ENDBRANCH   7  12
ENDBRANCH   3   6
ENDBRANCH   1   2
BRANCH   1  34
ATOM     34  C   UNL A   1      43.153  24.396  24.670  1.00  0.00     0.023 C 
BRANCH  34  35
ATOM     35  C   UNL A   1      43.413  22.885  24.765  1.00  0.00     0.023 C 
BRANCH  35  36
ATOM     36  C   UNL A   1      42.796  22.208  25.985  1.00  0.00     0.116 C 
BRANCH  36  37
ATOM     37  N   UNL A   1      41.347  22.037  25.865  1.00  0.00    -0.352 N 
ATOM     38  C   UNL A   1      40.347  22.752  26.499  1.00  0.00     0.251 C 
ATOM     39  H   UNL A   1      41.047  21.322  25.258  1.00  0.00     0.163 HD
ATOM     40  O   UNL A   1      39.228  22.281  26.637  1.00  0.00    -0.269 OA
BRANCH  38  41
ATOM     41  C   UNL A   1      40.661  24.106  26.987  1.00  0.00     0.039 A 
ATOM     42  C   UNL A   1      40.061  25.243  26.446  1.00  0.00     0.014 A 
ATOM     43  C   UNL A   1      41.544  24.204  28.058  1.00  0.00     0.014 A 
ATOM     44  C   UNL A   1      40.285  26.475  27.060  1.00  0.00     0.010 A 
ATOM     45  C   UNL A   1      41.639  25.384  28.752  1.00  0.00     0.010 A 
ATOM     46  C   UNL A   1      41.055  26.535  28.233  1.00  0.00    -0.014 A 
BRANCH  46  47
ATOM     47  C   UNL A   1      41.177  27.776  28.993  1.00  0.00     0.031 A 
ATOM     48  C   UNL A   1      42.281  28.681  28.560  1.00  0.00     0.074 A 
ATOM     49  C   UNL A   1      40.239  28.195  29.870  1.00  0.00     0.049 A 
ATOM     50  N   UNL A   1      43.354  28.982  29.214  1.00  0.00    -0.248 NA
ATOM     51  C   UNL A   1      42.260  29.212  27.188  1.00  0.00     0.031 C 
ATOM     52  C   UNL A   1      38.945  27.581  30.196  1.00  0.00     0.029 A 
ATOM     53  N   UNL A   1      40.205  29.346  30.591  1.00  0.00    -0.354 N 
ATOM     54  C   UNL A   1      44.037  29.916  28.438  1.00  0.00     0.074 A 
ATOM     55  C   UNL A   1      43.418  29.875  27.138  1.00  0.00     0.031 C 
ATOM     56  C   UNL A   1      38.169  28.477  30.846  1.00  0.00     0.029 A 
ATOM     57  C   UNL A   1      38.964  29.653  31.139  1.00  0.00     0.049 A 
ATOM     58  H   UNL A   1      40.997  29.917  30.715  1.00  0.00     0.167 HD
ATOM     59  C   UNL A   1      44.909  30.803  28.997  1.00  0.00     0.037 A 
ATOM     60  C   UNL A   1      38.619  30.801  31.775  1.00  0.00     0.037 A 
ATOM     61  C   UNL A   1      45.254  30.410  30.342  1.00  0.00     0.049 A 
ATOM     62  C   UNL A   1      39.885  31.428  32.239  1.00  0.00     0.074 A 
ATOM     63  C   UNL A   1      45.821  29.280  30.905  1.00  0.00     0.029 A 
ATOM     64  N   UNL A   1      44.650  31.075  31.383  1.00  0.00    -0.354 N 
ATOM     65  N   UNL A   1      40.654  30.903  33.155  1.00  0.00    -0.248 NA
ATOM     66  C   UNL A   1      40.538  32.376  31.348  1.00  0.00     0.031 C 
ATOM     67  C   UNL A   1      45.089  29.068  32.110  1.00  0.00     0.029 A 
ATOM     68  C   UNL A   1      44.182  30.119  32.251  1.00  0.00     0.049 A 
ATOM     69  H   UNL A   1      44.567  32.050  31.486  1.00  0.00     0.167 HD
ATOM     70  C   UNL A   1      41.948  31.108  32.694  1.00  0.00     0.074 A 
ATOM     71  C   UNL A   1      41.815  32.094  31.622  1.00  0.00     0.031 C 
ATOM     72  C   UNL A   1      42.965  30.255  33.020  1.00  0.00     0.037 A 
BRANCH  59  73
ATOM     73  C   UNL A   1      45.181  32.201  28.484  1.00  0.00     0.058 A 
ATOM     74  C   UNL A   1      46.515  32.599  28.242  1.00  0.00     0.135 A 
ATOM     75  C   UNL A   1      44.231  33.245  28.493  1.00  0.00     0.135 A 
ATOM     76  F   UNL A   1      47.503  31.692  28.204  1.00  0.00    -0.206 F 
ATOM     77  C   UNL A   1      46.886  33.938  28.114  1.00  0.00     0.059 A 
ATOM     78  C   UNL A   1      44.572  34.581  28.312  1.00  0.00     0.059 A 
ATOM     79  F   UNL A   1      42.941  33.037  28.777  1.00  0.00    -0.206 F 
ATOM     80  C   UNL A   1      45.906  34.924  28.171  1.00  0.00     0.060 A 
BRANCH  80  81
ATOM     81  S   UNL A   1      46.394  36.657  28.130  1.00  0.00     0.124 S 
ATOM     82  O   UNL A   1      46.082  37.077  29.491  1.00  0.00    -0.237 OA
ATOM     83  O   UNL A   1      47.811  36.565  27.796  1.00  0.00    -0.237 OA
ATOM     84  O   UNL A   1      45.545  37.219  27.084  1.00  0.00    -0.744 OA
ENDBRANCH  80  81
ENDBRANCH  59  73
BRANCH  60  85
ATOM     85  C   UNL A   1      37.321  31.529  31.729  1.00  0.00     0.058 A 
ATOM     86  C   UNL A   1      36.625  31.845  32.910  1.00  0.00     0.135 A 
ATOM     87  C   UNL A   1      36.880  32.181  30.559  1.00  0.00     0.135 A 
ATOM     88  F   UNL A   1      36.980  31.280  34.074  1.00  0.00    -0.206 F 
ATOM     89  C   UNL A   1      35.601  32.800  32.943  1.00  0.00     0.059 A 
ATOM     90  C   UNL A   1      35.855  33.127  30.564  1.00  0.00     0.059 A 
ATOM     91  F   UNL A   1      37.496  31.987  29.383  1.00  0.00    -0.206 F 
ATOM     92  C   UNL A   1      35.241  33.456  31.766  1.00  0.00     0.060 A 
BRANCH  92  93
ATOM     93  S   UNL A   1      34.068  34.832  31.837  1.00  0.00     0.124 S 
ATOM     94  O   UNL A   1      33.019  34.290  32.693  1.00  0.00    -0.237 OA
ATOM     95  O   UNL A   1      34.878  35.898  32.418  1.00  0.00    -0.237 OA
ATOM     96  O   UNL A   1      33.694  35.029  30.440  1.00  0.00    -0.744 OA
ENDBRANCH  92  93
ENDBRANCH  60  85
BRANCH  72  97
ATOM     97  C   UNL A   1      42.728  29.228  34.100  1.00  0.00     0.058 A 
ATOM     98  C   UNL A   1      42.168  27.955  33.884  1.00  0.00     0.135 A 
ATOM     99  C   UNL A   1      43.237  29.485  35.383  1.00  0.00     0.135 A 
ATOM    100  F   UNL A   1      41.757  27.579  32.666  1.00  0.00    -0.206 F 
ATOM    101  C   UNL A   1      42.077  27.003  34.902  1.00  0.00     0.059 A 
ATOM    102  C   UNL A   1      43.187  28.540  36.404  1.00  0.00     0.059 A 
ATOM    103  F   UNL A   1      43.845  30.655  35.642  1.00  0.00    -0.206 F 
ATOM    104  C   UNL A   1      42.591  27.305  36.162  1.00  0.00     0.060 A 
BRANCH 104 105
ATOM    105  S   UNL A   1      42.530  26.051  37.459  1.00  0.00     0.124 S 
ATOM    106  O   UNL A   1      43.104  24.889  36.789  1.00  0.00    -0.237 OA
ATOM    107  O   UNL A   1      43.349  26.643  38.514  1.00  0.00    -0.237 OA
ATOM    108  O   UNL A   1      41.107  25.951  37.771  1.00  0.00    -0.744 OA
ENDBRANCH 104 105
ENDBRANCH  72  97
ENDBRANCH  46  47
ENDBRANCH  38  41
ENDBRANCH  36  37
ENDBRANCH  35  36
ENDBRANCH  34  35
ENDBRANCH   1  34
TORSDOF 19
ENDMDL
