MODEL 1
REMARK VINA RESULT:     -12.2      0.000      0.000
REMARK SMILES CC1(C)[C@H](C(=O)NCCCCNC(=O)c2ccc(-c3c4nc(c(-c5c(F)cc(S(=O)(=O)[O-])cc5F)c5ccc([nH]5)c(-c5c(F)cc(S(=O)(=O)[O-])cc5F)c5nc(c(-c6c(F)cc(S(=O)(=O)[O-])cc6F)c6ccc3[nH]6)C=C5)C=C4)cc2)[C@@H]1c1nc2ccc(F)cc2s1
REMARK SMILES IDX 10 1 9 2 8 3 7 4 5 5 6 6 4 8 1 9 2 10 3 11 81 12 82 13 83 14
REMARK SMILES IDX 91 15 84 16 90 17 85 18 89 19 86 20 87 21 88 22 11 23 12 24
REMARK SMILES IDX 13 25 14 27 15 28 16 29 80 30 17 31 79 32 18 33 19 34 20 35
REMARK SMILES IDX 73 36 21 37 78 38 72 39 74 40 22 41 77 42 71 43 70 44 23 46
REMARK SMILES IDX 57 47 36 48 56 49 37 50 40 51 55 52 75 53 38 54 39 55 54 57
REMARK SMILES IDX 76 58 41 59 24 60 25 61 34 62 26 63 27 64 33 65 35 66 28 67
REMARK SMILES IDX 29 68 30 69 31 70 32 71 58 72 59 73 68 74 60 75 61 76 67 77
REMARK SMILES IDX 69 78 62 79 63 80 64 81 65 82 66 83 42 84 43 85 52 86 44 87
REMARK SMILES IDX 45 88 51 89 53 90 46 91 47 92 48 93 49 94 50 95
REMARK H PARENT 7 7 12 26 74 45 40 56
REMARK Flexibility Score: inf
ROOT
ATOM      1  C   UNL A   1      33.083  28.809  25.832  1.00  0.00     0.023 C 
ENDROOT
BRANCH   1   2
ATOM      2  C   UNL A   1      32.590  27.449  25.351  1.00  0.00     0.023 C 
BRANCH   2   3
ATOM      3  C   UNL A   1      33.151  27.000  24.006  1.00  0.00     0.116 C 
BRANCH   3   4
ATOM      4  N   UNL A   1      33.983  25.832  24.095  1.00  0.00    -0.356 N 
ATOM      5  C   UNL A   1      33.846  24.628  24.725  1.00  0.00     0.224 C 
ATOM      6  O   UNL A   1      34.778  23.839  24.552  1.00  0.00    -0.275 OA
ATOM      7  H   UNL A   1      34.828  25.917  23.598  1.00  0.00     0.163 HD
BRANCH   5   8
ATOM      8  C   UNL A   1      32.739  24.147  25.599  1.00  0.00     0.095 C 
ATOM      9  C   UNL A   1      30.264  24.554  26.174  1.00  0.00     0.013 C 
ATOM     10  C   UNL A   1      31.265  23.906  25.236  1.00  0.00    -0.013 C 
ATOM     11  C   UNL A   1      30.808  23.987  23.804  1.00  0.00     0.013 C 
ATOM     12  C   UNL A   1      32.132  22.797  25.816  1.00  0.00     0.068 C 
BRANCH  12  13
ATOM     13  C   UNL A   1      32.698  21.521  25.224  1.00  0.00     0.098 A 
ATOM     14  N   UNL A   1      32.068  20.972  24.211  1.00  0.00    -0.241 NA
ATOM     15  S   UNL A   1      34.200  20.800  25.623  1.00  0.00    -0.118 S 
ATOM     16  C   UNL A   1      32.656  19.765  23.891  1.00  0.00     0.082 A 
ATOM     17  C   UNL A   1      33.805  19.450  24.623  1.00  0.00     0.057 A 
ATOM     18  C   UNL A   1      32.178  18.843  22.936  1.00  0.00     0.033 A 
ATOM     19  C   UNL A   1      34.458  18.216  24.480  1.00  0.00     0.060 A 
ATOM     20  C   UNL A   1      32.824  17.614  22.780  1.00  0.00     0.041 A 
ATOM     21  C   UNL A   1      33.934  17.312  23.556  1.00  0.00     0.124 A 
ATOM     22  F   UNL A   1      34.523  16.118  23.409  1.00  0.00    -0.207 F 
ENDBRANCH  12  13
ENDBRANCH   5   8
ENDBRANCH   3   4
ENDBRANCH   2   3
ENDBRANCH   1   2
BRANCH   1  23
ATOM     23  C   UNL A   1      33.423  28.897  27.317  1.00  0.00     0.116 C 
BRANCH  23  24
ATOM     24  N   UNL A   1      33.509  30.261  27.825  1.00  0.00    -0.352 N 
ATOM     25  C   UNL A   1      34.590  30.902  28.393  1.00  0.00     0.251 C 
ATOM     26  H   UNL A   1      32.686  30.796  27.753  1.00  0.00     0.163 HD
ATOM     27  O   UNL A   1      34.480  32.037  28.835  1.00  0.00    -0.269 OA
BRANCH  25  28
ATOM     28  C   UNL A   1      35.866  30.167  28.503  1.00  0.00     0.039 A 
ATOM     29  C   UNL A   1      36.702  30.094  27.387  1.00  0.00     0.014 A 
ATOM     30  C   UNL A   1      36.281  29.666  29.739  1.00  0.00     0.014 A 
ATOM     31  C   UNL A   1      38.007  29.622  27.538  1.00  0.00     0.010 A 
ATOM     32  C   UNL A   1      37.601  29.260  29.902  1.00  0.00     0.010 A 
ATOM     33  C   UNL A   1      38.484  29.264  28.810  1.00  0.00    -0.014 A 
BRANCH  33  34
ATOM     34  C   UNL A   1      39.917  28.956  29.046  1.00  0.00     0.031 A 
ATOM     35  C   UNL A   1      40.850  30.033  29.521  1.00  0.00     0.074 A 
ATOM     36  C   UNL A   1      40.397  27.737  28.722  1.00  0.00     0.049 A 
ATOM     37  N   UNL A   1      42.151  30.000  29.644  1.00  0.00    -0.248 NA
ATOM     38  C   UNL A   1      40.241  31.323  29.877  1.00  0.00     0.031 C 
ATOM     39  C   UNL A   1      39.599  26.623  28.204  1.00  0.00     0.029 A 
ATOM     40  N   UNL A   1      41.675  27.240  28.757  1.00  0.00    -0.354 N 
ATOM     41  C   UNL A   1      42.521  31.269  30.070  1.00  0.00     0.074 A 
ATOM     42  C   UNL A   1      41.310  32.058  30.148  1.00  0.00     0.031 C 
ATOM     43  C   UNL A   1      40.403  25.570  27.984  1.00  0.00     0.029 A 
ATOM     44  C   UNL A   1      41.777  25.946  28.302  1.00  0.00     0.049 A 
ATOM     45  H   UNL A   1      42.446  27.759  29.079  1.00  0.00     0.167 HD
ATOM     46  C   UNL A   1      43.754  31.728  30.385  1.00  0.00     0.037 A 
ATOM     47  C   UNL A   1      42.856  25.157  28.137  1.00  0.00     0.037 A 
ATOM     48  C   UNL A   1      44.951  30.930  30.335  1.00  0.00     0.049 A 
ATOM     49  C   UNL A   1      44.218  25.692  28.479  1.00  0.00     0.074 A 
ATOM     50  C   UNL A   1      46.236  31.281  30.711  1.00  0.00     0.029 A 
ATOM     51  N   UNL A   1      45.012  29.623  29.876  1.00  0.00    -0.354 N 
ATOM     52  N   UNL A   1      44.543  26.877  28.940  1.00  0.00    -0.248 NA
ATOM     53  C   UNL A   1      45.361  24.793  28.271  1.00  0.00     0.031 C 
ATOM     54  C   UNL A   1      47.079  30.197  30.448  1.00  0.00     0.029 A 
ATOM     55  C   UNL A   1      46.315  29.160  29.936  1.00  0.00     0.049 A 
ATOM     56  H   UNL A   1      44.240  29.101  29.555  1.00  0.00     0.167 HD
ATOM     57  C   UNL A   1      45.925  26.861  29.087  1.00  0.00     0.074 A 
ATOM     58  C   UNL A   1      46.374  25.545  28.679  1.00  0.00     0.031 C 
ATOM     59  C   UNL A   1      46.746  27.848  29.521  1.00  0.00     0.037 A 
BRANCH  46  60
ATOM     60  C   UNL A   1      43.867  33.161  30.819  1.00  0.00     0.058 A 
ATOM     61  C   UNL A   1      43.974  34.202  29.884  1.00  0.00     0.135 A 
ATOM     62  C   UNL A   1      43.856  33.498  32.181  1.00  0.00     0.135 A 
ATOM     63  F   UNL A   1      44.005  33.931  28.570  1.00  0.00    -0.206 F 
ATOM     64  C   UNL A   1      44.099  35.528  30.286  1.00  0.00     0.059 A 
ATOM     65  C   UNL A   1      43.957  34.820  32.605  1.00  0.00     0.059 A 
ATOM     66  F   UNL A   1      43.756  32.539  33.115  1.00  0.00    -0.206 F 
ATOM     67  C   UNL A   1      44.096  35.826  31.650  1.00  0.00     0.060 A 
BRANCH  67  68
ATOM     68  S   UNL A   1      44.274  37.549  32.158  1.00  0.00     0.124 S 
ATOM     69  O   UNL A   1      45.686  37.599  32.523  1.00  0.00    -0.237 OA
ATOM     70  O   UNL A   1      43.906  38.275  30.946  1.00  0.00    -0.237 OA
ATOM     71  O   UNL A   1      43.335  37.673  33.268  1.00  0.00    -0.744 OA
ENDBRANCH  67  68
ENDBRANCH  46  60
BRANCH  47  72
ATOM     72  C   UNL A   1      42.689  23.771  27.628  1.00  0.00     0.058 A 
ATOM     73  C   UNL A   1      42.471  22.705  28.513  1.00  0.00     0.135 A 
ATOM     74  C   UNL A   1      42.713  23.488  26.254  1.00  0.00     0.135 A 
ATOM     75  F   UNL A   1      42.448  22.927  29.836  1.00  0.00    -0.206 F 
ATOM     76  C   UNL A   1      42.287  21.405  28.054  1.00  0.00     0.059 A 
ATOM     77  C   UNL A   1      42.513  22.200  25.770  1.00  0.00     0.059 A 
ATOM     78  F   UNL A   1      42.904  24.478  25.367  1.00  0.00    -0.206 F 
ATOM     79  C   UNL A   1      42.305  21.163  26.679  1.00  0.00     0.060 A 
BRANCH  79  80
ATOM     80  S   UNL A   1      41.996  19.483  26.089  1.00  0.00     0.124 S 
ATOM     81  O   UNL A   1      40.575  19.541  25.771  1.00  0.00    -0.237 OA
ATOM     82  O   UNL A   1      42.904  19.385  24.950  1.00  0.00    -0.237 OA
ATOM     83  O   UNL A   1      42.356  18.656  27.237  1.00  0.00    -0.744 OA
ENDBRANCH  79  80
ENDBRANCH  47  72
BRANCH  59  84
ATOM     84  C   UNL A   1      48.215  27.547  29.583  1.00  0.00     0.058 A 
ATOM     85  C   UNL A   1      49.084  27.950  28.558  1.00  0.00     0.135 A 
ATOM     86  C   UNL A   1      48.768  26.917  30.708  1.00  0.00     0.135 A 
ATOM     87  F   UNL A   1      48.600  28.548  27.458  1.00  0.00    -0.206 F 
ATOM     88  C   UNL A   1      50.456  27.736  28.645  1.00  0.00     0.059 A 
ATOM     89  C   UNL A   1      50.139  26.710  30.825  1.00  0.00     0.059 A 
ATOM     90  F   UNL A   1      47.978  26.519  31.717  1.00  0.00    -0.206 F 
ATOM     91  C   UNL A   1      50.974  27.118  29.785  1.00  0.00     0.060 A 
BRANCH  91  92
ATOM     92  S   UNL A   1      52.762  26.900  29.916  1.00  0.00     0.124 S 
ATOM     93  O   UNL A   1      53.070  26.242  28.650  1.00  0.00    -0.237 OA
ATOM     94  O   UNL A   1      53.238  28.273  30.049  1.00  0.00    -0.237 OA
ATOM     95  O   UNL A   1      52.916  26.072  31.109  1.00  0.00    -0.744 OA
ENDBRANCH  91  92
ENDBRANCH  59  84
ENDBRANCH  33  34
ENDBRANCH  25  28
ENDBRANCH  23  24
ENDBRANCH   1  23
TORSDOF 15
ENDMDL
MODEL 2
REMARK VINA RESULT:     -12.1      5.177     10.388
REMARK SMILES CC1(C)[C@H](C(=O)NCCCCNC(=O)c2ccc(-c3c4nc(c(-c5c(F)cc(S(=O)(=O)[O-])cc5F)c5ccc([nH]5)c(-c5c(F)cc(S(=O)(=O)[O-])cc5F)c5nc(c(-c6c(F)cc(S(=O)(=O)[O-])cc6F)c6ccc3[nH]6)C=C5)C=C4)cc2)[C@@H]1c1nc2ccc(F)cc2s1
REMARK SMILES IDX 10 1 9 2 8 3 7 4 5 5 6 6 4 8 1 9 2 10 3 11 81 12 82 13 83 14
REMARK SMILES IDX 91 15 84 16 90 17 85 18 89 19 86 20 87 21 88 22 11 23 12 24
REMARK SMILES IDX 13 25 14 27 15 28 16 29 80 30 17 31 79 32 18 33 19 34 20 35
REMARK SMILES IDX 73 36 21 37 78 38 72 39 74 40 22 41 77 42 71 43 70 44 23 46
REMARK SMILES IDX 57 47 36 48 56 49 37 50 40 51 55 52 75 53 38 54 39 55 54 57
REMARK SMILES IDX 76 58 41 59 24 60 25 61 34 62 26 63 27 64 33 65 35 66 28 67
REMARK SMILES IDX 29 68 30 69 31 70 32 71 58 72 59 73 68 74 60 75 61 76 67 77
REMARK SMILES IDX 69 78 62 79 63 80 64 81 65 82 66 83 42 84 43 85 52 86 44 87
REMARK SMILES IDX 45 88 51 89 53 90 46 91 47 92 48 93 49 94 50 95
REMARK H PARENT 7 7 12 26 74 45 40 56
REMARK Flexibility Score: inf
ROOT
ATOM      1  C   UNL A   1      40.038  22.071  26.926  1.00  0.00     0.023 C 
ENDROOT
BRANCH   1   2
ATOM      2  C   UNL A   1      38.810  22.696  26.275  1.00  0.00     0.023 C 
BRANCH   2   3
ATOM      3  C   UNL A   1      37.883  21.712  25.571  1.00  0.00     0.116 C 
BRANCH   3   4
ATOM      4  N   UNL A   1      37.581  22.080  24.215  1.00  0.00    -0.356 N 
ATOM      5  C   UNL A   1      36.567  22.789  23.638  1.00  0.00     0.224 C 
ATOM      6  O   UNL A   1      36.655  22.926  22.416  1.00  0.00    -0.275 OA
ATOM      7  H   UNL A   1      38.246  21.752  23.566  1.00  0.00     0.163 HD
BRANCH   5   8
ATOM      8  C   UNL A   1      35.367  23.400  24.278  1.00  0.00     0.095 C 
ATOM      9  C   UNL A   1      33.548  25.185  23.924  1.00  0.00     0.013 C 
ATOM     10  C   UNL A   1      34.022  23.773  23.636  1.00  0.00    -0.013 C 
ATOM     11  C   UNL A   1      33.714  23.370  22.218  1.00  0.00     0.013 C 
ATOM     12  C   UNL A   1      34.100  22.819  24.820  1.00  0.00     0.068 C 
BRANCH  12  13
ATOM     13  C   UNL A   1      33.854  21.329  24.955  1.00  0.00     0.098 A 
ATOM     14  N   UNL A   1      34.846  20.508  24.694  1.00  0.00    -0.241 NA
ATOM     15  S   UNL A   1      32.449  20.589  25.600  1.00  0.00    -0.118 S 
ATOM     16  C   UNL A   1      34.402  19.202  24.751  1.00  0.00     0.082 A 
ATOM     17  C   UNL A   1      33.073  19.043  25.154  1.00  0.00     0.057 A 
ATOM     18  C   UNL A   1      35.158  18.060  24.413  1.00  0.00     0.033 A 
ATOM     19  C   UNL A   1      32.450  17.786  25.168  1.00  0.00     0.060 A 
ATOM     20  C   UNL A   1      34.550  16.802  24.430  1.00  0.00     0.041 A 
ATOM     21  C   UNL A   1      33.214  16.683  24.788  1.00  0.00     0.124 A 
ATOM     22  F   UNL A   1      32.644  15.471  24.773  1.00  0.00    -0.207 F 
ENDBRANCH  12  13
ENDBRANCH   5   8
ENDBRANCH   3   4
ENDBRANCH   2   3
ENDBRANCH   1   2
BRANCH   1  23
ATOM     23  C   UNL A   1      41.246  22.991  27.069  1.00  0.00     0.116 C 
BRANCH  23  24
ATOM     24  N   UNL A   1      41.394  23.950  25.980  1.00  0.00    -0.352 N 
ATOM     25  C   UNL A   1      41.486  25.324  26.048  1.00  0.00     0.251 C 
ATOM     26  H   UNL A   1      41.433  23.564  25.075  1.00  0.00     0.163 HD
ATOM     27  O   UNL A   1      41.538  25.997  25.028  1.00  0.00    -0.269 OA
BRANCH  25  28
ATOM     28  C   UNL A   1      41.465  25.966  27.378  1.00  0.00     0.039 A 
ATOM     29  C   UNL A   1      42.615  26.615  27.832  1.00  0.00     0.014 A 
ATOM     30  C   UNL A   1      40.276  26.026  28.108  1.00  0.00     0.014 A 
ATOM     31  C   UNL A   1      42.540  27.428  28.965  1.00  0.00     0.010 A 
ATOM     32  C   UNL A   1      40.187  26.889  29.195  1.00  0.00     0.010 A 
ATOM     33  C   UNL A   1      41.309  27.621  29.614  1.00  0.00    -0.014 A 
BRANCH  33  34
ATOM     34  C   UNL A   1      41.145  28.633  30.688  1.00  0.00     0.031 A 
ATOM     35  C   UNL A   1      41.982  28.554  31.932  1.00  0.00     0.074 A 
ATOM     36  C   UNL A   1      40.163  29.553  30.588  1.00  0.00     0.049 A 
ATOM     37  N   UNL A   1      41.887  29.249  33.034  1.00  0.00    -0.248 NA
ATOM     38  C   UNL A   1      43.048  27.539  31.947  1.00  0.00     0.031 C 
ATOM     39  C   UNL A   1      39.252  29.700  29.451  1.00  0.00     0.029 A 
ATOM     40  N   UNL A   1      39.752  30.522  31.468  1.00  0.00    -0.354 N 
ATOM     41  C   UNL A   1      42.863  28.745  33.883  1.00  0.00     0.074 A 
ATOM     42  C   UNL A   1      43.514  27.659  33.181  1.00  0.00     0.031 C 
ATOM     43  C   UNL A   1      38.399  30.708  29.696  1.00  0.00     0.029 A 
ATOM     44  C   UNL A   1      38.673  31.250  31.023  1.00  0.00     0.049 A 
ATOM     45  H   UNL A   1      40.189  30.683  32.335  1.00  0.00     0.167 HD
ATOM     46  C   UNL A   1      43.198  29.160  35.127  1.00  0.00     0.037 A 
ATOM     47  C   UNL A   1      37.968  32.229  31.624  1.00  0.00     0.037 A 
ATOM     48  C   UNL A   1      42.568  30.260  35.809  1.00  0.00     0.049 A 
ATOM     49  C   UNL A   1      38.348  32.664  33.011  1.00  0.00     0.074 A 
ATOM     50  C   UNL A   1      42.891  30.809  37.038  1.00  0.00     0.029 A 
ATOM     51  N   UNL A   1      41.485  30.976  35.322  1.00  0.00    -0.354 N 
ATOM     52  N   UNL A   1      39.315  32.216  33.777  1.00  0.00    -0.248 NA
ATOM     53  C   UNL A   1      37.540  33.728  33.622  1.00  0.00     0.031 C 
ATOM     54  C   UNL A   1      41.980  31.835  37.310  1.00  0.00     0.029 A 
ATOM     55  C   UNL A   1      41.110  31.946  36.237  1.00  0.00     0.049 A 
ATOM     56  H   UNL A   1      41.047  30.818  34.454  1.00  0.00     0.167 HD
ATOM     57  C   UNL A   1      39.237  32.950  34.954  1.00  0.00     0.074 A 
ATOM     58  C   UNL A   1      38.138  33.881  34.796  1.00  0.00     0.031 C 
ATOM     59  C   UNL A   1      40.008  32.861  36.065  1.00  0.00     0.037 A 
BRANCH  46  60
ATOM     60  C   UNL A   1      44.303  28.423  35.826  1.00  0.00     0.058 A 
ATOM     61  C   UNL A   1      45.648  28.786  35.656  1.00  0.00     0.135 A 
ATOM     62  C   UNL A   1      44.015  27.349  36.684  1.00  0.00     0.135 A 
ATOM     63  F   UNL A   1      45.977  29.795  34.834  1.00  0.00    -0.206 F 
ATOM     64  C   UNL A   1      46.674  28.089  36.286  1.00  0.00     0.059 A 
ATOM     65  C   UNL A   1      45.024  26.653  37.343  1.00  0.00     0.059 A 
ATOM     66  F   UNL A   1      42.745  26.962  36.879  1.00  0.00    -0.206 F 
ATOM     67  C   UNL A   1      46.351  27.019  37.124  1.00  0.00     0.060 A 
BRANCH  67  68
ATOM     68  S   UNL A   1      47.692  26.115  37.924  1.00  0.00     0.124 S 
ATOM     69  O   UNL A   1      47.088  24.798  38.102  1.00  0.00    -0.237 OA
ATOM     70  O   UNL A   1      48.761  26.192  36.933  1.00  0.00    -0.237 OA
ATOM     71  O   UNL A   1      47.925  26.869  39.151  1.00  0.00    -0.744 OA
ENDBRANCH  67  68
ENDBRANCH  46  60
BRANCH  47  72
ATOM     72  C   UNL A   1      36.833  32.867  30.910  1.00  0.00     0.058 A 
ATOM     73  C   UNL A   1      35.509  32.514  31.210  1.00  0.00     0.135 A 
ATOM     74  C   UNL A   1      37.042  33.860  29.941  1.00  0.00     0.135 A 
ATOM     75  F   UNL A   1      35.260  31.564  32.125  1.00  0.00    -0.206 F 
ATOM     76  C   UNL A   1      34.432  33.119  30.572  1.00  0.00     0.059 A 
ATOM     77  C   UNL A   1      35.981  34.493  29.302  1.00  0.00     0.059 A 
ATOM     78  F   UNL A   1      38.291  34.243  29.631  1.00  0.00    -0.206 F 
ATOM     79  C   UNL A   1      34.678  34.111  29.621  1.00  0.00     0.060 A 
BRANCH  79  80
ATOM     80  S   UNL A   1      33.271  34.940  28.847  1.00  0.00     0.124 S 
ATOM     81  O   UNL A   1      32.799  33.915  27.924  1.00  0.00    -0.237 OA
ATOM     82  O   UNL A   1      32.408  35.217  29.991  1.00  0.00    -0.237 OA
ATOM     83  O   UNL A   1      33.877  36.117  28.232  1.00  0.00    -0.744 OA
ENDBRANCH  79  80
ENDBRANCH  47  72
BRANCH  59  84
ATOM     84  C   UNL A   1      39.697  33.794  37.199  1.00  0.00     0.058 A 
ATOM     85  C   UNL A   1      38.825  33.418  38.232  1.00  0.00     0.135 A 
ATOM     86  C   UNL A   1      40.331  35.042  37.291  1.00  0.00     0.135 A 
ATOM     87  F   UNL A   1      38.188  32.238  38.182  1.00  0.00    -0.206 F 
ATOM     88  C   UNL A   1      38.589  34.252  39.320  1.00  0.00     0.059 A 
ATOM     89  C   UNL A   1      40.125  35.884  38.380  1.00  0.00     0.059 A 
ATOM     90  F   UNL A   1      41.178  35.443  36.331  1.00  0.00    -0.206 F 
ATOM     91  C   UNL A   1      39.248  35.482  39.387  1.00  0.00     0.060 A 
BRANCH  91  92
ATOM     92  S   UNL A   1      38.982  36.529  40.834  1.00  0.00     0.124 S 
ATOM     93  O   UNL A   1      37.983  35.763  41.571  1.00  0.00    -0.237 OA
ATOM     94  O   UNL A   1      40.311  36.581  41.433  1.00  0.00    -0.237 OA
ATOM     95  O   UNL A   1      38.511  37.786  40.259  1.00  0.00    -0.744 OA
ENDBRANCH  91  92
ENDBRANCH  59  84
ENDBRANCH  33  34
ENDBRANCH  25  28
ENDBRANCH  23  24
ENDBRANCH   1  23
TORSDOF 15
ENDMDL
MODEL 3
REMARK VINA RESULT:     -12.1      3.276      4.872
REMARK SMILES CC1(C)[C@H](C(=O)NCCCCNC(=O)c2ccc(-c3c4nc(c(-c5c(F)cc(S(=O)(=O)[O-])cc5F)c5ccc([nH]5)c(-c5c(F)cc(S(=O)(=O)[O-])cc5F)c5nc(c(-c6c(F)cc(S(=O)(=O)[O-])cc6F)c6ccc3[nH]6)C=C5)C=C4)cc2)[C@@H]1c1nc2ccc(F)cc2s1
REMARK SMILES IDX 10 1 9 2 8 3 7 4 5 5 6 6 4 8 1 9 2 10 3 11 81 12 82 13 83 14
REMARK SMILES IDX 91 15 84 16 90 17 85 18 89 19 86 20 87 21 88 22 11 23 12 24
REMARK SMILES IDX 13 25 14 27 15 28 16 29 80 30 17 31 79 32 18 33 19 34 20 35
REMARK SMILES IDX 73 36 21 37 78 38 72 39 74 40 22 41 77 42 71 43 70 44 23 46
REMARK SMILES IDX 57 47 36 48 56 49 37 50 40 51 55 52 75 53 38 54 39 55 54 57
REMARK SMILES IDX 76 58 41 59 24 60 25 61 34 62 26 63 27 64 33 65 35 66 28 67
REMARK SMILES IDX 29 68 30 69 31 70 32 71 58 72 59 73 68 74 60 75 61 76 67 77
REMARK SMILES IDX 69 78 62 79 63 80 64 81 65 82 66 83 42 84 43 85 52 86 44 87
REMARK SMILES IDX 45 88 51 89 53 90 46 91 47 92 48 93 49 94 50 95
REMARK H PARENT 7 7 12 26 74 45 40 56
REMARK Flexibility Score: inf
ROOT
ATOM      1  C   UNL A   1      33.622  29.748  27.131  1.00  0.00     0.023 C 
ENDROOT
BRANCH   1   2
ATOM      2  C   UNL A   1      33.132  28.310  27.248  1.00  0.00     0.023 C 
BRANCH   2   3
ATOM      3  C   UNL A   1      31.663  28.100  26.900  1.00  0.00     0.116 C 
BRANCH   3   4
ATOM      4  N   UNL A   1      31.236  26.733  27.021  1.00  0.00    -0.356 N 
ATOM      5  C   UNL A   1      31.524  25.595  26.324  1.00  0.00     0.224 C 
ATOM      6  O   UNL A   1      30.975  24.572  26.743  1.00  0.00    -0.275 OA
ATOM      7  H   UNL A   1      30.605  26.587  27.762  1.00  0.00     0.163 HD
BRANCH   5   8
ATOM      8  C   UNL A   1      32.393  25.423  25.126  1.00  0.00     0.095 C 
ATOM      9  C   UNL A   1      33.331  23.646  23.518  1.00  0.00     0.013 C 
ATOM     10  C   UNL A   1      32.162  24.538  23.891  1.00  0.00    -0.013 C 
ATOM     11  C   UNL A   1      30.848  23.830  23.694  1.00  0.00     0.013 C 
ATOM     12  C   UNL A   1      32.374  26.040  23.763  1.00  0.00     0.068 C 
BRANCH  12  13
ATOM     13  C   UNL A   1      31.451  27.177  23.373  1.00  0.00     0.098 A 
ATOM     14  N   UNL A   1      30.183  27.092  23.706  1.00  0.00    -0.241 NA
ATOM     15  S   UNL A   1      31.924  28.676  22.690  1.00  0.00    -0.118 S 
ATOM     16  C   UNL A   1      29.483  28.151  23.164  1.00  0.00     0.082 A 
ATOM     17  C   UNL A   1      30.262  29.096  22.488  1.00  0.00     0.057 A 
ATOM     18  C   UNL A   1      28.084  28.325  23.213  1.00  0.00     0.033 A 
ATOM     19  C   UNL A   1      29.685  30.175  21.802  1.00  0.00     0.060 A 
ATOM     20  C   UNL A   1      27.499  29.401  22.540  1.00  0.00     0.041 A 
ATOM     21  C   UNL A   1      28.296  30.294  21.837  1.00  0.00     0.124 A 
ATOM     22  F   UNL A   1      27.714  31.304  21.177  1.00  0.00    -0.207 F 
ENDBRANCH  12  13
ENDBRANCH   5   8
ENDBRANCH   3   4
ENDBRANCH   2   3
ENDBRANCH   1   2
BRANCH   1  23
ATOM     23  C   UNL A   1      35.061  29.991  27.574  1.00  0.00     0.116 C 
BRANCH  23  24
ATOM     24  N   UNL A   1      35.179  30.767  28.804  1.00  0.00    -0.352 N 
ATOM     25  C   UNL A   1      36.231  30.815  29.694  1.00  0.00     0.251 C 
ATOM     26  H   UNL A   1      34.404  31.331  29.028  1.00  0.00     0.163 HD
ATOM     27  O   UNL A   1      36.147  31.471  30.724  1.00  0.00    -0.269 OA
BRANCH  25  28
ATOM     28  C   UNL A   1      37.438  30.016  29.402  1.00  0.00     0.039 A 
ATOM     29  C   UNL A   1      37.869  29.903  28.078  1.00  0.00     0.014 A 
ATOM     30  C   UNL A   1      38.201  29.492  30.448  1.00  0.00     0.014 A 
ATOM     31  C   UNL A   1      39.129  29.365  27.813  1.00  0.00     0.010 A 
ATOM     32  C   UNL A   1      39.482  29.020  30.187  1.00  0.00     0.010 A 
ATOM     33  C   UNL A   1      39.969  28.980  28.871  1.00  0.00    -0.014 A 
BRANCH  33  34
ATOM     34  C   UNL A   1      41.386  28.600  28.641  1.00  0.00     0.031 A 
ATOM     35  C   UNL A   1      42.459  29.650  28.650  1.00  0.00     0.074 A 
ATOM     36  C   UNL A   1      41.687  27.326  28.313  1.00  0.00     0.049 A 
ATOM     37  N   UNL A   1      43.721  29.541  28.329  1.00  0.00    -0.248 NA
ATOM     38  C   UNL A   1      42.050  31.007  29.044  1.00  0.00     0.031 C 
ATOM     39  C   UNL A   1      40.725  26.224  28.224  1.00  0.00     0.029 A 
ATOM     40  N   UNL A   1      42.883  26.749  27.970  1.00  0.00    -0.354 N 
ATOM     41  C   UNL A   1      44.255  30.817  28.461  1.00  0.00     0.074 A 
ATOM     42  C   UNL A   1      43.170  31.690  28.854  1.00  0.00     0.031 C 
ATOM     43  C   UNL A   1      41.371  25.103  27.864  1.00  0.00     0.029 A 
ATOM     44  C   UNL A   1      42.782  25.413  27.655  1.00  0.00     0.049 A 
ATOM     45  H   UNL A   1      43.734  27.243  27.952  1.00  0.00     0.167 HD
ATOM     46  C   UNL A   1      45.535  31.219  28.287  1.00  0.00     0.037 A 
ATOM     47  C   UNL A   1      43.714  24.541  27.225  1.00  0.00     0.037 A 
ATOM     48  C   UNL A   1      46.617  30.340  27.926  1.00  0.00     0.049 A 
ATOM     49  C   UNL A   1      45.127  25.013  27.025  1.00  0.00     0.074 A 
ATOM     50  C   UNL A   1      47.963  30.638  27.805  1.00  0.00     0.029 A 
ATOM     51  N   UNL A   1      46.475  28.994  27.623  1.00  0.00    -0.354 N 
ATOM     52  N   UNL A   1      45.627  26.211  27.213  1.00  0.00    -0.248 NA
ATOM     53  C   UNL A   1      46.100  24.022  26.545  1.00  0.00     0.031 C 
ATOM     54  C   UNL A   1      48.630  29.478  27.395  1.00  0.00     0.029 A 
ATOM     55  C   UNL A   1      47.704  28.452  27.291  1.00  0.00     0.049 A 
ATOM     56  H   UNL A   1      45.624  28.498  27.642  1.00  0.00     0.167 HD
ATOM     57  C   UNL A   1      46.974  26.115  26.886  1.00  0.00     0.074 A 
ATOM     58  C   UNL A   1      47.215  24.740  26.500  1.00  0.00     0.031 C 
ATOM     59  C   UNL A   1      47.925  27.081  26.904  1.00  0.00     0.037 A 
BRANCH  46  60
ATOM     60  C   UNL A   1      45.835  32.675  28.495  1.00  0.00     0.058 A 
ATOM     61  C   UNL A   1      46.181  33.179  29.757  1.00  0.00     0.135 A 
ATOM     62  C   UNL A   1      45.785  33.575  27.418  1.00  0.00     0.135 A 
ATOM     63  F   UNL A   1      46.227  32.362  30.822  1.00  0.00    -0.206 F 
ATOM     64  C   UNL A   1      46.438  34.532  29.955  1.00  0.00     0.059 A 
ATOM     65  C   UNL A   1      46.061  34.930  27.588  1.00  0.00     0.059 A 
ATOM     66  F   UNL A   1      45.457  33.144  26.190  1.00  0.00    -0.206 F 
ATOM     67  C   UNL A   1      46.369  35.400  28.864  1.00  0.00     0.060 A 
BRANCH  67  68
ATOM     68  S   UNL A   1      46.689  37.156  29.136  1.00  0.00     0.124 S 
ATOM     69  O   UNL A   1      45.333  37.687  29.228  1.00  0.00    -0.237 OA
ATOM     70  O   UNL A   1      47.453  37.148  30.380  1.00  0.00    -0.237 OA
ATOM     71  O   UNL A   1      47.438  37.551  27.947  1.00  0.00    -0.744 OA
ENDBRANCH  67  68
ENDBRANCH  46  60
BRANCH  47  72
ATOM     72  C   UNL A   1      43.339  23.128  26.961  1.00  0.00     0.058 A 
ATOM     73  C   UNL A   1      43.234  22.650  25.647  1.00  0.00     0.135 A 
ATOM     74  C   UNL A   1      43.109  22.223  28.008  1.00  0.00     0.135 A 
ATOM     75  F   UNL A   1      43.438  23.481  24.613  1.00  0.00    -0.206 F 
ATOM     76  C   UNL A   1      42.910  21.325  25.378  1.00  0.00     0.059 A 
ATOM     77  C   UNL A   1      42.801  20.889  27.765  1.00  0.00     0.059 A 
ATOM     78  F   UNL A   1      43.213  22.630  29.283  1.00  0.00    -0.206 F 
ATOM     79  C   UNL A   1      42.699  20.449  26.446  1.00  0.00     0.060 A 
BRANCH  79  80
ATOM     80  S   UNL A   1      42.346  18.713  26.089  1.00  0.00     0.124 S 
ATOM     81  O   UNL A   1      40.947  18.777  25.681  1.00  0.00    -0.237 OA
ATOM     82  O   UNL A   1      43.307  18.414  25.032  1.00  0.00    -0.237 OA
ATOM     83  O   UNL A   1      42.605  18.052  27.364  1.00  0.00    -0.744 OA
ENDBRANCH  79  80
ENDBRANCH  47  72
BRANCH  59  84
ATOM     84  C   UNL A   1      49.316  26.688  26.499  1.00  0.00     0.058 A 
ATOM     85  C   UNL A   1      50.182  26.047  27.397  1.00  0.00     0.135 A 
ATOM     86  C   UNL A   1      49.760  26.888  25.183  1.00  0.00     0.135 A 
ATOM     87  F   UNL A   1      49.804  25.842  28.669  1.00  0.00    -0.206 F 
ATOM     88  C   UNL A   1      51.445  25.618  27.005  1.00  0.00     0.059 A 
ATOM     89  C   UNL A   1      51.013  26.450  24.764  1.00  0.00     0.059 A 
ATOM     90  F   UNL A   1      48.966  27.492  24.286  1.00  0.00    -0.206 F 
ATOM     91  C   UNL A   1      51.850  25.821  25.684  1.00  0.00     0.060 A 
BRANCH  91  92
ATOM     92  S   UNL A   1      53.468  25.205  25.170  1.00  0.00     0.124 S 
ATOM     93  O   UNL A   1      53.311  23.767  25.365  1.00  0.00    -0.237 OA
ATOM     94  O   UNL A   1      53.548  25.652  23.783  1.00  0.00    -0.237 OA
ATOM     95  O   UNL A   1      54.390  25.867  26.088  1.00  0.00    -0.744 OA
ENDBRANCH  91  92
ENDBRANCH  59  84
ENDBRANCH  33  34
ENDBRANCH  25  28
ENDBRANCH  23  24
ENDBRANCH   1  23
TORSDOF 15
ENDMDL
