MODEL 1
REMARK VINA RESULT:     -13.7      0.000      0.000
REMARK SMILES O=C(NCCCCNC(=O)[C@H]1CCCN(c2cc(-c3ccccn3)nc(-c3ccccc3F)n2)C1)c1ccc(-c2c3nc(c(-c4c(F)cc(S(=O)(=O)[O-])cc4F)c4ccc([nH]4)c(-c4c(F)cc(S(=O)(=O)[O-])cc4F)c4nc(c(-c5c(F)cc(S(=O)(=O)[O-])cc5F)c5ccc2[nH]5)C=C4)C=C3)cc1
REMARK SMILES IDX 5 1 4 2 3 3 1 4 2 5 36 7 37 8 101 9 38 10 100 11 39 12 40 13
REMARK SMILES IDX 41 14 94 15 42 16 99 17 93 18 95 19 43 20 98 21 92 22 91 23
REMARK SMILES IDX 44 25 78 26 57 27 77 28 58 29 61 30 76 31 96 32 59 33 60 34
REMARK SMILES IDX 75 36 97 37 62 38 45 39 46 40 55 41 47 42 48 43 54 44 56 45
REMARK SMILES IDX 49 46 50 47 51 48 52 49 53 50 79 51 80 52 89 53 81 54 82 55
REMARK SMILES IDX 88 56 90 57 83 58 84 59 85 60 86 61 87 62 63 63 64 64 73 65
REMARK SMILES IDX 65 66 66 67 72 68 74 69 67 70 68 71 69 72 70 73 71 74 6 75
REMARK SMILES IDX 7 76 8 77 9 78 10 80 11 81 12 82 35 83 13 84 15 85 14 86
REMARK SMILES IDX 16 87 17 88 34 89 18 90 26 91 25 92 19 93 20 94 24 95 21 96
REMARK SMILES IDX 23 97 22 98 27 99 28 100 32 101 29 102 31 103 33 104 30 105
REMARK H PARENT 3 6 95 24 61 35 8 79
REMARK Flexibility Score: inf
ROOT
ATOM      1  C   UNL A   1      33.522  27.520  25.586  1.00  0.00     0.023 C 
ENDROOT
BRANCH   1   2
ATOM      2  C   UNL A   1      34.228  28.003  26.845  1.00  0.00     0.116 C 
BRANCH   2   3
ATOM      3  N   UNL A   1      33.812  29.333  27.263  1.00  0.00    -0.352 N 
ATOM      4  O   UNL A   1      33.996  31.316  28.327  1.00  0.00    -0.269 OA
ATOM      5  C   UNL A   1      34.536  30.279  27.950  1.00  0.00     0.251 C 
ATOM      6  H   UNL A   1      32.892  29.589  27.024  1.00  0.00     0.163 HD
BRANCH   5   7
ATOM      7  C   UNL A   1      35.960  30.023  28.262  1.00  0.00     0.039 A 
ATOM      8  C   UNL A   1      36.940  30.200  27.284  1.00  0.00     0.014 A 
ATOM      9  C   UNL A   1      36.315  29.577  29.538  1.00  0.00     0.014 A 
ATOM     10  C   UNL A   1      38.244  29.791  27.536  1.00  0.00     0.010 A 
ATOM     11  C   UNL A   1      37.646  29.247  29.816  1.00  0.00     0.010 A 
ATOM     12  C   UNL A   1      38.617  29.321  28.806  1.00  0.00    -0.014 A 
BRANCH  12  13
ATOM     13  C   UNL A   1      40.042  28.979  29.050  1.00  0.00     0.031 A 
ATOM     14  C   UNL A   1      40.613  27.648  28.641  1.00  0.00     0.074 A 
ATOM     15  C   UNL A   1      40.844  29.930  29.570  1.00  0.00     0.049 A 
ATOM     16  N   UNL A   1      41.854  27.237  28.701  1.00  0.00    -0.248 NA
ATOM     17  C   UNL A   1      39.678  26.646  28.104  1.00  0.00     0.031 C 
ATOM     18  C   UNL A   1      40.395  31.254  30.014  1.00  0.00     0.029 A 
ATOM     19  N   UNL A   1      42.198  29.957  29.772  1.00  0.00    -0.354 N 
ATOM     20  C   UNL A   1      41.851  25.932  28.223  1.00  0.00     0.074 A 
ATOM     21  C   UNL A   1      40.479  25.609  27.895  1.00  0.00     0.031 C 
ATOM     22  C   UNL A   1      41.462  31.989  30.355  1.00  0.00     0.029 A 
ATOM     23  C   UNL A   1      42.663  31.174  30.214  1.00  0.00     0.049 A 
ATOM     24  H   UNL A   1      42.783  29.180  29.618  1.00  0.00     0.167 HD
ATOM     25  C   UNL A   1      42.900  25.090  28.063  1.00  0.00     0.037 A 
ATOM     26  C   UNL A   1      43.916  31.593  30.471  1.00  0.00     0.037 A 
ATOM     27  C   UNL A   1      44.267  25.429  28.368  1.00  0.00     0.049 A 
ATOM     28  C   UNL A   1      45.057  30.638  30.281  1.00  0.00     0.074 A 
ATOM     29  C   UNL A   1      45.400  24.645  28.226  1.00  0.00     0.029 A 
ATOM     30  N   UNL A   1      44.691  26.653  28.865  1.00  0.00    -0.354 N 
ATOM     31  N   UNL A   1      45.029  29.406  29.834  1.00  0.00    -0.248 NA
ATOM     32  C   UNL A   1      46.394  31.122  30.646  1.00  0.00     0.031 C 
ATOM     33  C   UNL A   1      46.504  25.384  28.664  1.00  0.00     0.029 A 
ATOM     34  C   UNL A   1      46.065  26.640  29.045  1.00  0.00     0.049 A 
ATOM     35  H   UNL A   1      44.102  27.418  29.060  1.00  0.00     0.167 HD
ATOM     36  C   UNL A   1      46.345  28.964  29.867  1.00  0.00     0.074 A 
ATOM     37  C   UNL A   1      47.147  30.071  30.348  1.00  0.00     0.031 C 
ATOM     38  C   UNL A   1      46.843  27.748  29.539  1.00  0.00     0.037 A 
BRANCH  25  39
ATOM     39  C   UNL A   1      42.630  23.710  27.531  1.00  0.00     0.058 A 
ATOM     40  C   UNL A   1      42.427  22.633  28.410  1.00  0.00     0.135 A 
ATOM     41  C   UNL A   1      42.679  23.433  26.156  1.00  0.00     0.135 A 
ATOM     42  F   UNL A   1      42.366  22.843  29.734  1.00  0.00    -0.206 F 
ATOM     43  C   UNL A   1      42.309  21.327  27.945  1.00  0.00     0.059 A 
ATOM     44  C   UNL A   1      42.546  22.136  25.668  1.00  0.00     0.059 A 
ATOM     45  F   UNL A   1      42.849  24.431  25.273  1.00  0.00    -0.206 F 
ATOM     46  C   UNL A   1      42.381  21.087  26.572  1.00  0.00     0.060 A 
BRANCH  46  47
ATOM     47  S   UNL A   1      42.233  19.385  25.984  1.00  0.00     0.124 S 
ATOM     48  O   UNL A   1      40.796  19.270  25.758  1.00  0.00    -0.237 OA
ATOM     49  O   UNL A   1      43.068  19.400  24.787  1.00  0.00    -0.237 OA
ATOM     50  O   UNL A   1      42.760  18.598  27.095  1.00  0.00    -0.744 OA
ENDBRANCH  46  47
ENDBRANCH  25  39
BRANCH  26  51
ATOM     51  C   UNL A   1      44.147  32.986  30.929  1.00  0.00     0.058 A 
ATOM     52  C   UNL A   1      44.190  33.304  32.295  1.00  0.00     0.135 A 
ATOM     53  C   UNL A   1      44.295  34.033  30.007  1.00  0.00     0.135 A 
ATOM     54  F   UNL A   1      44.043  32.339  33.215  1.00  0.00    -0.206 F 
ATOM     55  C   UNL A   1      44.345  34.613  32.733  1.00  0.00     0.059 A 
ATOM     56  C   UNL A   1      44.477  35.349  30.420  1.00  0.00     0.059 A 
ATOM     57  F   UNL A   1      44.270  33.775  28.690  1.00  0.00    -0.206 F 
ATOM     58  C   UNL A   1      44.482  35.630  31.787  1.00  0.00     0.060 A 
BRANCH  58  59
ATOM     59  S   UNL A   1      44.688  37.327  32.371  1.00  0.00     0.124 S 
ATOM     60  O   UNL A   1      44.049  37.260  33.681  1.00  0.00    -0.237 OA
ATOM     61  O   UNL A   1      46.139  37.478  32.379  1.00  0.00    -0.237 OA
ATOM     62  O   UNL A   1      43.984  38.114  31.365  1.00  0.00    -0.744 OA
ENDBRANCH  58  59
ENDBRANCH  26  51
BRANCH  38  63
ATOM     63  C   UNL A   1      48.321  27.550  29.702  1.00  0.00     0.058 A 
ATOM     64  C   UNL A   1      49.215  27.974  28.707  1.00  0.00     0.135 A 
ATOM     65  C   UNL A   1      48.849  26.910  30.834  1.00  0.00     0.135 A 
ATOM     66  F   UNL A   1      48.759  28.590  27.605  1.00  0.00    -0.206 F 
ATOM     67  C   UNL A   1      50.584  27.767  28.828  1.00  0.00     0.059 A 
ATOM     68  C   UNL A   1      50.217  26.711  30.985  1.00  0.00     0.059 A 
ATOM     69  F   UNL A   1      48.033  26.498  31.818  1.00  0.00    -0.206 F 
ATOM     70  C   UNL A   1      51.077  27.133  29.970  1.00  0.00     0.060 A 
BRANCH  70  71
ATOM     71  S   UNL A   1      52.860  26.910  30.137  1.00  0.00     0.124 S 
ATOM     72  O   UNL A   1      53.179  26.152  28.932  1.00  0.00    -0.237 OA
ATOM     73  O   UNL A   1      53.346  28.287  30.169  1.00  0.00    -0.237 OA
ATOM     74  O   UNL A   1      52.991  26.180  31.395  1.00  0.00    -0.744 OA
ENDBRANCH  70  71
ENDBRANCH  38  63
ENDBRANCH  12  13
ENDBRANCH   5   7
ENDBRANCH   2   3
ENDBRANCH   1   2
BRANCH   1  75
ATOM     75  C   UNL A   1      33.984  28.177  24.286  1.00  0.00     0.023 C 
BRANCH  75  76
ATOM     76  C   UNL A   1      32.895  28.371  23.230  1.00  0.00     0.116 C 
BRANCH  76  77
ATOM     77  N   UNL A   1      33.196  27.676  21.989  1.00  0.00    -0.356 N 
ATOM     78  C   UNL A   1      33.039  26.359  21.667  1.00  0.00     0.224 C 
ATOM     79  H   UNL A   1      33.568  28.239  21.273  1.00  0.00     0.163 HD
ATOM     80  O   UNL A   1      33.338  25.997  20.529  1.00  0.00    -0.275 OA
BRANCH  78  81
ATOM     81  C   UNL A   1      32.522  25.389  22.715  1.00  0.00     0.098 C 
ATOM     82  C   UNL A   1      30.999  25.512  22.908  1.00  0.00     0.017 C 
ATOM     83  C   UNL A   1      32.854  23.966  22.278  1.00  0.00     0.131 C 
ATOM     84  C   UNL A   1      30.488  24.470  23.907  1.00  0.00     0.022 C 
ATOM     85  N   UNL A   1      32.317  23.011  23.238  1.00  0.00    -0.356 N 
ATOM     86  C   UNL A   1      30.890  23.046  23.507  1.00  0.00     0.118 C 
BRANCH  85  87
ATOM     87  C   UNL A   1      33.178  22.137  23.858  1.00  0.00     0.133 A 
ATOM     88  C   UNL A   1      32.817  20.820  24.042  1.00  0.00     0.077 A 
ATOM     89  N   UNL A   1      34.393  22.582  24.222  1.00  0.00    -0.211 NA
ATOM     90  C   UNL A   1      33.764  19.966  24.573  1.00  0.00     0.095 A 
ATOM     91  C   UNL A   1      35.241  21.691  24.773  1.00  0.00     0.165 A 
ATOM     92  N   UNL A   1      34.983  20.391  24.957  1.00  0.00    -0.226 NA
BRANCH  90  93
ATOM     93  C   UNL A   1      33.502  18.526  24.676  1.00  0.00     0.089 A 
ATOM     94  C   UNL A   1      34.184  17.612  23.869  1.00  0.00     0.030 A 
ATOM     95  N   UNL A   1      32.547  18.138  25.559  1.00  0.00    -0.255 NA
ATOM     96  C   UNL A   1      33.883  16.256  23.975  1.00  0.00     0.004 A 
ATOM     97  C   UNL A   1      32.287  16.815  25.651  1.00  0.00     0.112 A 
ATOM     98  C   UNL A   1      32.918  15.848  24.886  1.00  0.00     0.020 A 
ENDBRANCH  90  93
BRANCH  91  99
ATOM     99  C   UNL A   1      36.510  22.198  25.286  1.00  0.00     0.055 A 
ATOM    100  C   UNL A   1      36.608  23.494  25.825  1.00  0.00     0.015 A 
ATOM    101  C   UNL A   1      37.662  21.403  25.291  1.00  0.00     0.134 A 
ATOM    102  C   UNL A   1      37.811  23.963  26.365  1.00  0.00     0.001 A 
ATOM    103  C   UNL A   1      38.869  21.868  25.817  1.00  0.00     0.040 A 
ATOM    104  F   UNL A   1      37.638  20.169  24.764  1.00  0.00    -0.206 F 
ATOM    105  C   UNL A   1      38.942  23.148  26.361  1.00  0.00     0.003 A 
ENDBRANCH  91  99
ENDBRANCH  85  87
ENDBRANCH  78  81
ENDBRANCH  76  77
ENDBRANCH  75  76
ENDBRANCH   1  75
TORSDOF 17
ENDMDL
MODEL 2
REMARK VINA RESULT:     -13.6      5.356     10.487
REMARK SMILES O=C(NCCCCNC(=O)[C@H]1CCCN(c2cc(-c3ccccn3)nc(-c3ccccc3F)n2)C1)c1ccc(-c2c3nc(c(-c4c(F)cc(S(=O)(=O)[O-])cc4F)c4ccc([nH]4)c(-c4c(F)cc(S(=O)(=O)[O-])cc4F)c4nc(c(-c5c(F)cc(S(=O)(=O)[O-])cc5F)c5ccc2[nH]5)C=C4)C=C3)cc1
REMARK SMILES IDX 5 1 4 2 3 3 1 4 2 5 36 7 37 8 101 9 38 10 100 11 39 12 40 13
REMARK SMILES IDX 41 14 94 15 42 16 99 17 93 18 95 19 43 20 98 21 92 22 91 23
REMARK SMILES IDX 44 25 78 26 57 27 77 28 58 29 61 30 76 31 96 32 59 33 60 34
REMARK SMILES IDX 75 36 97 37 62 38 45 39 46 40 55 41 47 42 48 43 54 44 56 45
REMARK SMILES IDX 49 46 50 47 51 48 52 49 53 50 79 51 80 52 89 53 81 54 82 55
REMARK SMILES IDX 88 56 90 57 83 58 84 59 85 60 86 61 87 62 63 63 64 64 73 65
REMARK SMILES IDX 65 66 66 67 72 68 74 69 67 70 68 71 69 72 70 73 71 74 6 75
REMARK SMILES IDX 7 76 8 77 9 78 10 80 11 81 12 82 35 83 13 84 15 85 14 86
REMARK SMILES IDX 16 87 17 88 34 89 18 90 26 91 25 92 19 93 20 94 24 95 21 96
REMARK SMILES IDX 23 97 22 98 27 99 28 100 32 101 29 102 31 103 33 104 30 105
REMARK H PARENT 3 6 95 24 61 35 8 79
REMARK Flexibility Score: inf
ROOT
ATOM      1  C   UNL A   1      37.468  23.467  25.786  1.00  0.00     0.023 C 
ENDROOT
BRANCH   1   2
ATOM      2  C   UNL A   1      38.506  24.225  26.600  1.00  0.00     0.116 C 
BRANCH   2   3
ATOM      3  N   UNL A   1      39.809  24.286  25.957  1.00  0.00    -0.352 N 
ATOM      4  O   UNL A   1      41.885  25.084  25.564  1.00  0.00    -0.269 OA
ATOM      5  C   UNL A   1      40.889  25.072  26.284  1.00  0.00     0.251 C 
ATOM      6  H   UNL A   1      39.935  23.684  25.188  1.00  0.00     0.163 HD
BRANCH   5   7
ATOM      7  C   UNL A   1      40.828  25.931  27.487  1.00  0.00     0.039 A 
ATOM      8  C   UNL A   1      39.960  25.618  28.535  1.00  0.00     0.014 A 
ATOM      9  C   UNL A   1      41.629  27.075  27.557  1.00  0.00     0.014 A 
ATOM     10  C   UNL A   1      39.786  26.521  29.576  1.00  0.00     0.010 A 
ATOM     11  C   UNL A   1      41.513  27.941  28.651  1.00  0.00     0.010 A 
ATOM     12  C   UNL A   1      40.567  27.687  29.654  1.00  0.00    -0.014 A 
BRANCH  12  13
ATOM     13  C   UNL A   1      40.403  28.577  30.833  1.00  0.00     0.031 A 
ATOM     14  C   UNL A   1      41.355  28.524  31.997  1.00  0.00     0.074 A 
ATOM     15  C   UNL A   1      39.423  29.503  30.799  1.00  0.00     0.049 A 
ATOM     16  N   UNL A   1      41.399  29.296  33.053  1.00  0.00    -0.248 NA
ATOM     17  C   UNL A   1      42.384  27.472  31.983  1.00  0.00     0.031 C 
ATOM     18  C   UNL A   1      38.434  29.638  29.724  1.00  0.00     0.029 A 
ATOM     19  N   UNL A   1      39.122  30.530  31.654  1.00  0.00    -0.354 N 
ATOM     20  C   UNL A   1      42.446  28.821  33.833  1.00  0.00     0.074 A 
ATOM     21  C   UNL A   1      43.002  27.679  33.140  1.00  0.00     0.031 C 
ATOM     22  C   UNL A   1      37.693  30.733  29.942  1.00  0.00     0.029 A 
ATOM     23  C   UNL A   1      38.111  31.344  31.199  1.00  0.00     0.049 A 
ATOM     24  H   UNL A   1      39.584  30.672  32.512  1.00  0.00     0.167 HD
ATOM     25  C   UNL A   1      42.907  29.304  35.012  1.00  0.00     0.037 A 
ATOM     26  C   UNL A   1      37.582  32.463  31.727  1.00  0.00     0.037 A 
ATOM     27  C   UNL A   1      42.364  30.459  35.683  1.00  0.00     0.049 A 
ATOM     28  C   UNL A   1      38.115  32.974  33.033  1.00  0.00     0.074 A 
ATOM     29  C   UNL A   1      42.773  31.032  36.876  1.00  0.00     0.029 A 
ATOM     30  N   UNL A   1      41.305  31.224  35.219  1.00  0.00    -0.354 N 
ATOM     31  N   UNL A   1      39.102  32.505  33.756  1.00  0.00    -0.248 NA
ATOM     32  C   UNL A   1      37.453  34.155  33.602  1.00  0.00     0.031 C 
ATOM     33  C   UNL A   1      41.944  32.125  37.147  1.00  0.00     0.029 A 
ATOM     34  C   UNL A   1      41.041  32.255  36.106  1.00  0.00     0.049 A 
ATOM     35  H   UNL A   1      40.814  31.060  34.381  1.00  0.00     0.167 HD
ATOM     36  C   UNL A   1      39.179  33.331  34.870  1.00  0.00     0.074 A 
ATOM     37  C   UNL A   1      38.158  34.347  34.709  1.00  0.00     0.031 C 
ATOM     38  C   UNL A   1      40.011  33.248  35.935  1.00  0.00     0.037 A 
BRANCH  25  39
ATOM     39  C   UNL A   1      44.060  28.598  35.669  1.00  0.00     0.058 A 
ATOM     40  C   UNL A   1      43.832  27.629  36.660  1.00  0.00     0.135 A 
ATOM     41  C   UNL A   1      45.388  28.956  35.397  1.00  0.00     0.135 A 
ATOM     42  F   UNL A   1      42.580  27.244  36.955  1.00  0.00    -0.206 F 
ATOM     43  C   UNL A   1      44.880  27.059  37.376  1.00  0.00     0.059 A 
ATOM     44  C   UNL A   1      46.454  28.387  36.090  1.00  0.00     0.059 A 
ATOM     45  F   UNL A   1      45.661  29.862  34.444  1.00  0.00    -0.206 F 
ATOM     46  C   UNL A   1      46.188  27.453  37.091  1.00  0.00     0.060 A 
BRANCH  46  47
ATOM     47  S   UNL A   1      47.538  26.710  38.033  1.00  0.00     0.124 S 
ATOM     48  O   UNL A   1      47.057  26.843  39.403  1.00  0.00    -0.237 OA
ATOM     49  O   UNL A   1      47.574  25.352  37.499  1.00  0.00    -0.237 OA
ATOM     50  O   UNL A   1      48.688  27.540  37.686  1.00  0.00    -0.744 OA
ENDBRANCH  46  47
ENDBRANCH  25  39
BRANCH  26  51
ATOM     51  C   UNL A   1      36.490  33.170  31.012  1.00  0.00     0.058 A 
ATOM     52  C   UNL A   1      36.749  33.930  29.861  1.00  0.00     0.135 A 
ATOM     53  C   UNL A   1      35.171  33.130  31.489  1.00  0.00     0.135 A 
ATOM     54  F   UNL A   1      37.996  34.008  29.373  1.00  0.00    -0.206 F 
ATOM     55  C   UNL A   1      35.744  34.645  29.221  1.00  0.00     0.059 A 
ATOM     56  C   UNL A   1      34.143  33.816  30.850  1.00  0.00     0.059 A 
ATOM     57  F   UNL A   1      34.875  32.409  32.581  1.00  0.00    -0.206 F 
ATOM     58  C   UNL A   1      34.445  34.587  29.727  1.00  0.00     0.060 A 
BRANCH  58  59
ATOM     59  S   UNL A   1      33.149  35.517  28.881  1.00  0.00     0.124 S 
ATOM     60  O   UNL A   1      33.935  36.500  28.143  1.00  0.00    -0.237 OA
ATOM     61  O   UNL A   1      32.503  34.487  28.075  1.00  0.00    -0.237 OA
ATOM     62  O   UNL A   1      32.347  36.046  29.978  1.00  0.00    -0.744 OA
ENDBRANCH  58  59
ENDBRANCH  26  51
BRANCH  38  63
ATOM     63  C   UNL A   1      39.843  34.279  37.013  1.00  0.00     0.058 A 
ATOM     64  C   UNL A   1      39.068  34.006  38.150  1.00  0.00     0.135 A 
ATOM     65  C   UNL A   1      40.427  35.550  36.900  1.00  0.00     0.135 A 
ATOM     66  F   UNL A   1      38.487  32.805  38.303  1.00  0.00    -0.206 F 
ATOM     67  C   UNL A   1      38.875  34.962  39.141  1.00  0.00     0.059 A 
ATOM     68  C   UNL A   1      40.263  36.514  37.889  1.00  0.00     0.059 A 
ATOM     69  F   UNL A   1      41.187  35.851  35.836  1.00  0.00    -0.206 F 
ATOM     70  C   UNL A   1      39.476  36.215  39.001  1.00  0.00     0.060 A 
BRANCH  70  71
ATOM     71  S   UNL A   1      39.255  37.434  40.314  1.00  0.00     0.124 S 
ATOM     72  O   UNL A   1      38.481  38.466  39.635  1.00  0.00    -0.237 OA
ATOM     73  O   UNL A   1      38.539  36.670  41.332  1.00  0.00    -0.237 OA
ATOM     74  O   UNL A   1      40.624  37.800  40.666  1.00  0.00    -0.744 OA
ENDBRANCH  70  71
ENDBRANCH  38  63
ENDBRANCH  12  13
ENDBRANCH   5   7
ENDBRANCH   2   3
ENDBRANCH   1   2
BRANCH   1  75
ATOM     75  C   UNL A   1      36.014  23.725  26.179  1.00  0.00     0.023 C 
BRANCH  75  76
ATOM     76  C   UNL A   1      35.073  22.530  26.018  1.00  0.00     0.116 C 
BRANCH  76  77
ATOM     77  N   UNL A   1      33.994  22.537  26.992  1.00  0.00    -0.356 N 
ATOM     78  C   UNL A   1      32.743  23.076  26.903  1.00  0.00     0.224 C 
ATOM     79  H   UNL A   1      34.195  22.086  27.843  1.00  0.00     0.163 HD
ATOM     80  O   UNL A   1      31.977  22.932  27.856  1.00  0.00    -0.275 OA
BRANCH  78  81
ATOM     81  C   UNL A   1      32.345  23.842  25.654  1.00  0.00     0.098 C 
ATOM     82  C   UNL A   1      31.743  22.915  24.582  1.00  0.00     0.017 C 
ATOM     83  C   UNL A   1      31.315  24.902  26.031  1.00  0.00     0.131 C 
ATOM     84  C   UNL A   1      31.273  23.719  23.365  1.00  0.00     0.022 C 
ATOM     85  N   UNL A   1      30.872  25.612  24.839  1.00  0.00    -0.356 N 
ATOM     86  C   UNL A   1      30.297  24.833  23.756  1.00  0.00     0.118 C 
BRANCH  85  87
ATOM     87  C   UNL A   1      31.032  26.977  24.782  1.00  0.00     0.133 A 
ATOM     88  C   UNL A   1      30.258  27.731  23.928  1.00  0.00     0.077 A 
ATOM     89  N   UNL A   1      31.912  27.555  25.617  1.00  0.00    -0.211 NA
ATOM     90  C   UNL A   1      30.388  29.105  23.992  1.00  0.00     0.095 A 
ATOM     91  C   UNL A   1      32.008  28.899  25.585  1.00  0.00     0.165 A 
ATOM     92  N   UNL A   1      31.272  29.707  24.811  1.00  0.00    -0.226 NA
BRANCH  90  93
ATOM     93  C   UNL A   1      29.506  29.980  23.212  1.00  0.00     0.089 A 
ATOM     94  C   UNL A   1      29.051  31.193  23.735  1.00  0.00     0.030 A 
ATOM     95  N   UNL A   1      29.130  29.536  21.986  1.00  0.00    -0.255 NA
ATOM     96  C   UNL A   1      28.190  31.979  22.974  1.00  0.00     0.004 A 
ATOM     97  C   UNL A   1      28.306  30.327  21.264  1.00  0.00     0.112 A 
ATOM     98  C   UNL A   1      27.811  31.540  21.713  1.00  0.00     0.020 A 
ENDBRANCH  90  93
BRANCH  91  99
ATOM     99  C   UNL A   1      33.051  29.520  26.395  1.00  0.00     0.055 A 
ATOM    100  C   UNL A   1      34.302  28.898  26.565  1.00  0.00     0.015 A 
ATOM    101  C   UNL A   1      32.856  30.767  27.000  1.00  0.00     0.134 A 
ATOM    102  C   UNL A   1      35.321  29.517  27.298  1.00  0.00     0.001 A 
ATOM    103  C   UNL A   1      33.865  31.384  27.742  1.00  0.00     0.040 A 
ATOM    104  F   UNL A   1      31.675  31.395  26.897  1.00  0.00    -0.206 F 
ATOM    105  C   UNL A   1      35.102  30.761  27.887  1.00  0.00     0.003 A 
ENDBRANCH  91  99
ENDBRANCH  85  87
ENDBRANCH  78  81
ENDBRANCH  76  77
ENDBRANCH  75  76
ENDBRANCH   1  75
TORSDOF 17
ENDMDL
MODEL 3
REMARK VINA RESULT:     -13.5      5.229     10.929
REMARK SMILES O=C(NCCCCNC(=O)[C@H]1CCCN(c2cc(-c3ccccn3)nc(-c3ccccc3F)n2)C1)c1ccc(-c2c3nc(c(-c4c(F)cc(S(=O)(=O)[O-])cc4F)c4ccc([nH]4)c(-c4c(F)cc(S(=O)(=O)[O-])cc4F)c4nc(c(-c5c(F)cc(S(=O)(=O)[O-])cc5F)c5ccc2[nH]5)C=C4)C=C3)cc1
REMARK SMILES IDX 5 1 4 2 3 3 1 4 2 5 36 7 37 8 101 9 38 10 100 11 39 12 40 13
REMARK SMILES IDX 41 14 94 15 42 16 99 17 93 18 95 19 43 20 98 21 92 22 91 23
REMARK SMILES IDX 44 25 78 26 57 27 77 28 58 29 61 30 76 31 96 32 59 33 60 34
REMARK SMILES IDX 75 36 97 37 62 38 45 39 46 40 55 41 47 42 48 43 54 44 56 45
REMARK SMILES IDX 49 46 50 47 51 48 52 49 53 50 79 51 80 52 89 53 81 54 82 55
REMARK SMILES IDX 88 56 90 57 83 58 84 59 85 60 86 61 87 62 63 63 64 64 73 65
REMARK SMILES IDX 65 66 66 67 72 68 74 69 67 70 68 71 69 72 70 73 71 74 6 75
REMARK SMILES IDX 7 76 8 77 9 78 10 80 11 81 12 82 35 83 13 84 15 85 14 86
REMARK SMILES IDX 16 87 17 88 34 89 18 90 26 91 25 92 19 93 20 94 24 95 21 96
REMARK SMILES IDX 23 97 22 98 27 99 28 100 32 101 29 102 31 103 33 104 30 105
REMARK H PARENT 3 6 95 24 61 35 8 79
REMARK Flexibility Score: inf
ROOT
ATOM      1  C   UNL A   1      37.324  23.340  25.680  1.00  0.00     0.023 C 
ENDROOT
BRANCH   1   2
ATOM      2  C   UNL A   1      38.313  24.142  26.512  1.00  0.00     0.116 C 
BRANCH   2   3
ATOM      3  N   UNL A   1      39.699  23.913  26.136  1.00  0.00    -0.352 N 
ATOM      4  O   UNL A   1      41.911  24.356  26.026  1.00  0.00    -0.269 OA
ATOM      5  C   UNL A   1      40.819  24.609  26.529  1.00  0.00     0.251 C 
ATOM      6  H   UNL A   1      39.857  23.162  25.520  1.00  0.00     0.163 HD
BRANCH   5   7
ATOM      7  C   UNL A   1      40.692  25.687  27.533  1.00  0.00     0.039 A 
ATOM      8  C   UNL A   1      41.542  26.794  27.494  1.00  0.00     0.014 A 
ATOM      9  C   UNL A   1      39.728  25.579  28.541  1.00  0.00     0.014 A 
ATOM     10  C   UNL A   1      41.527  27.710  28.538  1.00  0.00     0.010 A 
ATOM     11  C   UNL A   1      39.658  26.550  29.546  1.00  0.00     0.010 A 
ATOM     12  C   UNL A   1      40.580  27.607  29.571  1.00  0.00    -0.014 A 
BRANCH  12  13
ATOM     13  C   UNL A   1      40.550  28.661  30.618  1.00  0.00     0.031 A 
ATOM     14  C   UNL A   1      39.507  29.745  30.614  1.00  0.00     0.074 A 
ATOM     15  C   UNL A   1      41.435  28.573  31.632  1.00  0.00     0.049 A 
ATOM     16  N   UNL A   1      39.294  30.678  31.507  1.00  0.00    -0.248 NA
ATOM     17  C   UNL A   1      38.590  29.799  29.465  1.00  0.00     0.031 C 
ATOM     18  C   UNL A   1      42.499  27.569  31.733  1.00  0.00     0.029 A 
ATOM     19  N   UNL A   1      41.556  29.299  32.788  1.00  0.00    -0.354 N 
ATOM     20  C   UNL A   1      38.231  31.434  31.027  1.00  0.00     0.074 A 
ATOM     21  C   UNL A   1      37.854  30.865  29.751  1.00  0.00     0.031 C 
ATOM     22  C   UNL A   1      43.107  27.689  32.921  1.00  0.00     0.029 A 
ATOM     23  C   UNL A   1      42.521  28.813  33.641  1.00  0.00     0.049 A 
ATOM     24  H   UNL A   1      41.008  30.091  32.989  1.00  0.00     0.167 HD
ATOM     25  C   UNL A   1      37.622  32.497  31.606  1.00  0.00     0.037 A 
ATOM     26  C   UNL A   1      42.890  29.221  34.869  1.00  0.00     0.037 A 
ATOM     27  C   UNL A   1      37.988  33.041  32.890  1.00  0.00     0.049 A 
ATOM     28  C   UNL A   1      42.194  30.399  35.485  1.00  0.00     0.074 A 
ATOM     29  C   UNL A   1      37.420  34.109  33.565  1.00  0.00     0.029 A 
ATOM     30  N   UNL A   1      39.005  32.557  33.699  1.00  0.00    -0.354 N 
ATOM     31  N   UNL A   1      41.196  31.103  35.010  1.00  0.00    -0.248 NA
ATOM     32  C   UNL A   1      42.685  30.848  36.795  1.00  0.00     0.031 C 
ATOM     33  C   UNL A   1      38.111  34.288  34.767  1.00  0.00     0.029 A 
ATOM     34  C   UNL A   1      39.088  33.311  34.859  1.00  0.00     0.049 A 
ATOM     35  H   UNL A   1      39.583  31.790  33.481  1.00  0.00     0.167 HD
ATOM     36  C   UNL A   1      40.940  32.084  35.960  1.00  0.00     0.074 A 
ATOM     37  C   UNL A   1      41.868  31.861  37.051  1.00  0.00     0.031 C 
ATOM     38  C   UNL A   1      40.028  33.083  35.926  1.00  0.00     0.037 A 
BRANCH  25  39
ATOM     39  C   UNL A   1      36.489  33.156  30.871  1.00  0.00     0.058 A 
ATOM     40  C   UNL A   1      36.743  34.010  29.786  1.00  0.00     0.135 A 
ATOM     41  C   UNL A   1      35.161  33.027  31.306  1.00  0.00     0.135 A 
ATOM     42  F   UNL A   1      37.995  34.164  29.325  1.00  0.00    -0.206 F 
ATOM     43  C   UNL A   1      35.725  34.735  29.175  1.00  0.00     0.059 A 
ATOM     44  C   UNL A   1      34.123  33.730  30.699  1.00  0.00     0.059 A 
ATOM     45  F   UNL A   1      34.862  32.206  32.325  1.00  0.00    -0.206 F 
ATOM     46  C   UNL A   1      34.418  34.596  29.646  1.00  0.00     0.060 A 
BRANCH  46  47
ATOM     47  S   UNL A   1      33.107  35.548  28.848  1.00  0.00     0.124 S 
ATOM     48  O   UNL A   1      33.870  36.533  28.090  1.00  0.00    -0.237 OA
ATOM     49  O   UNL A   1      32.423  34.528  28.060  1.00  0.00    -0.237 OA
ATOM     50  O   UNL A   1      32.341  36.075  29.973  1.00  0.00    -0.744 OA
ENDBRANCH  46  47
ENDBRANCH  25  39
BRANCH  26  51
ATOM     51  C   UNL A   1      43.968  28.500  35.592  1.00  0.00     0.058 A 
ATOM     52  C   UNL A   1      45.319  28.807  35.374  1.00  0.00     0.135 A 
ATOM     53  C   UNL A   1      43.666  27.465  36.490  1.00  0.00     0.135 A 
ATOM     54  F   UNL A   1      45.658  29.781  34.517  1.00  0.00    -0.206 F 
ATOM     55  C   UNL A   1      46.336  28.096  35.999  1.00  0.00     0.059 A 
ATOM     56  C   UNL A   1      44.666  26.756  37.148  1.00  0.00     0.059 A 
ATOM     57  F   UNL A   1      42.387  27.143  36.736  1.00  0.00    -0.206 F 
ATOM     58  C   UNL A   1      45.999  27.068  36.881  1.00  0.00     0.060 A 
BRANCH  58  59
ATOM     59  S   UNL A   1      47.331  26.157  37.691  1.00  0.00     0.124 S 
ATOM     60  O   UNL A   1      47.933  25.459  36.559  1.00  0.00    -0.237 OA
ATOM     61  O   UNL A   1      48.131  27.229  38.273  1.00  0.00    -0.237 OA
ATOM     62  O   UNL A   1      46.625  25.314  38.649  1.00  0.00    -0.744 OA
ENDBRANCH  58  59
ENDBRANCH  26  51
BRANCH  38  63
ATOM     63  C   UNL A   1      39.997  34.018  37.100  1.00  0.00     0.058 A 
ATOM     64  C   UNL A   1      39.175  33.754  38.206  1.00  0.00     0.135 A 
ATOM     65  C   UNL A   1      40.763  35.194  37.112  1.00  0.00     0.135 A 
ATOM     66  F   UNL A   1      38.423  32.643  38.240  1.00  0.00    -0.206 F 
ATOM     67  C   UNL A   1      39.111  34.628  39.285  1.00  0.00     0.059 A 
ATOM     68  C   UNL A   1      40.729  36.072  38.190  1.00  0.00     0.059 A 
ATOM     69  F   UNL A   1      41.574  35.481  36.081  1.00  0.00    -0.206 F 
ATOM     70  C   UNL A   1      39.891  35.786  39.268  1.00  0.00     0.060 A 
BRANCH  70  71
ATOM     71  S   UNL A   1      39.833  36.891  40.694  1.00  0.00     0.124 S 
ATOM     72  O   UNL A   1      38.561  36.522  41.305  1.00  0.00    -0.237 OA
ATOM     73  O   UNL A   1      41.030  36.504  41.437  1.00  0.00    -0.237 OA
ATOM     74  O   UNL A   1      39.882  38.220  40.092  1.00  0.00    -0.744 OA
ENDBRANCH  70  71
ENDBRANCH  38  63
ENDBRANCH  12  13
ENDBRANCH   5   7
ENDBRANCH   2   3
ENDBRANCH   1   2
BRANCH   1  75
ATOM     75  C   UNL A   1      35.849  23.624  25.966  1.00  0.00     0.023 C 
BRANCH  75  76
ATOM     76  C   UNL A   1      34.930  22.402  25.924  1.00  0.00     0.116 C 
BRANCH  76  77
ATOM     77  N   UNL A   1      33.871  22.469  26.918  1.00  0.00    -0.356 N 
ATOM     78  C   UNL A   1      32.649  23.073  26.850  1.00  0.00     0.224 C 
ATOM     79  H   UNL A   1      34.064  22.011  27.767  1.00  0.00     0.163 HD
ATOM     80  O   UNL A   1      31.894  22.972  27.817  1.00  0.00    -0.275 OA
BRANCH  78  81
ATOM     81  C   UNL A   1      32.268  23.854  25.604  1.00  0.00     0.098 C 
ATOM     82  C   UNL A   1      31.659  22.944  24.521  1.00  0.00     0.017 C 
ATOM     83  C   UNL A   1      31.250  24.925  25.984  1.00  0.00     0.131 C 
ATOM     84  C   UNL A   1      31.207  23.764  23.309  1.00  0.00     0.022 C 
ATOM     85  N   UNL A   1      30.823  25.651  24.796  1.00  0.00    -0.356 N 
ATOM     86  C   UNL A   1      30.244  24.889  23.703  1.00  0.00     0.118 C 
BRANCH  85  87
ATOM     87  C   UNL A   1      31.002  27.014  24.751  1.00  0.00     0.133 A 
ATOM     88  C   UNL A   1      30.253  27.784  23.888  1.00  0.00     0.077 A 
ATOM     89  N   UNL A   1      31.875  27.575  25.605  1.00  0.00    -0.211 NA
ATOM     90  C   UNL A   1      30.400  29.155  23.965  1.00  0.00     0.095 A 
ATOM     91  C   UNL A   1      31.989  28.918  25.584  1.00  0.00     0.165 A 
ATOM     92  N   UNL A   1      31.278  29.740  24.803  1.00  0.00    -0.226 NA
BRANCH  90  93
ATOM     93  C   UNL A   1      29.544  30.047  23.175  1.00  0.00     0.089 A 
ATOM     94  C   UNL A   1      29.013  31.213  23.732  1.00  0.00     0.030 A 
ATOM     95  N   UNL A   1      29.268  29.664  21.902  1.00  0.00    -0.255 NA
ATOM     96  C   UNL A   1      28.178  32.015  22.959  1.00  0.00     0.004 A 
ATOM     97  C   UNL A   1      28.468  30.470  21.171  1.00  0.00     0.112 A 
ATOM     98  C   UNL A   1      27.902  31.639  21.651  1.00  0.00     0.020 A 
ENDBRANCH  90  93
BRANCH  91  99
ATOM     99  C   UNL A   1      33.025  29.520  26.416  1.00  0.00     0.055 A 
ATOM    100  C   UNL A   1      34.261  28.874  26.614  1.00  0.00     0.015 A 
ATOM    101  C   UNL A   1      32.842  30.770  27.017  1.00  0.00     0.134 A 
ATOM    102  C   UNL A   1      35.275  29.474  27.369  1.00  0.00     0.001 A 
ATOM    103  C   UNL A   1      33.845  31.369  27.781  1.00  0.00     0.040 A 
ATOM    104  F   UNL A   1      31.674  31.420  26.888  1.00  0.00    -0.206 F 
ATOM    105  C   UNL A   1      35.067  30.722  27.952  1.00  0.00     0.003 A 
ENDBRANCH  91  99
ENDBRANCH  85  87
ENDBRANCH  78  81
ENDBRANCH  76  77
ENDBRANCH  75  76
ENDBRANCH   1  75
TORSDOF 17
ENDMDL
