MODEL 1
REMARK VINA RESULT:     -12.0      0.000      0.000
REMARK SMILES Cc1cc(Cl)cc2c1O[C@H](C(F)(F)F)C(C(=O)NCCCCNC(=O)c1ccc(-c3c4nc(c(-c5c(F)cc(S(=O)(=O)[O-])cc5F)c5ccc([nH]5)c(-c5c(F)cc(S(=O)(=O)[O-])cc5F)c5nc(c(-c6c(F)cc(S(=O)(=O)[O-])cc6F)c6ccc3[nH]6)C=C5)C=C4)cc1)=C2
REMARK SMILES IDX 21 1 20 2 19 3 18 4 16 5 17 6 15 8 1 9 2 10 3 11 8 12 4 13
REMARK SMILES IDX 7 14 9 15 5 16 6 17 92 18 10 19 11 20 12 21 13 22 14 23
REMARK SMILES IDX 22 24 23 25 24 26 25 28 26 29 27 30 91 31 28 32 90 33 29 34
REMARK SMILES IDX 30 35 31 36 84 37 32 38 89 39 83 40 85 41 33 42 88 43 82 44
REMARK SMILES IDX 81 45 34 47 68 48 47 49 67 50 48 51 51 52 66 53 86 54 49 55
REMARK SMILES IDX 50 56 65 58 87 59 52 60 35 61 36 62 45 63 37 64 38 65 44 66
REMARK SMILES IDX 46 67 39 68 40 69 41 70 42 71 43 72 69 73 70 74 79 75 71 76
REMARK SMILES IDX 72 77 78 78 80 79 73 80 74 81 75 82 76 83 77 84 53 85 54 86
REMARK SMILES IDX 63 87 55 88 56 89 62 90 64 91 57 92 58 93 59 94 60 95 61 96
REMARK H PARENT 18 7 23 27 85 46 51 57
REMARK Flexibility Score: inf
ROOT
ATOM      1  C   UNL A   1      33.990  28.010  25.620  1.00  0.00     0.023 C 
ENDROOT
BRANCH   1   2
ATOM      2  C   UNL A   1      33.268  28.938  24.640  1.00  0.00     0.023 C 
BRANCH   2   3
ATOM      3  C   UNL A   1      32.148  28.262  23.857  1.00  0.00     0.116 C 
BRANCH   3   4
ATOM      4  N   UNL A   1      32.655  27.531  22.708  1.00  0.00    -0.352 N 
ATOM      5  C   UNL A   1      33.155  26.297  22.464  1.00  0.00     0.251 C 
ATOM      6  O   UNL A   1      33.479  26.082  21.292  1.00  0.00    -0.270 OA
ATOM      7  H   UNL A   1      32.627  28.078  21.890  1.00  0.00     0.163 HD
BRANCH   5   8
ATOM      8  C   UNL A   1      33.333  25.220  23.484  1.00  0.00     0.067 C 
ATOM      9  C   UNL A   1      33.232  22.128  27.606  1.00  0.00     0.048 C 
ATOM     10  C   UNL A   1      34.130  22.300  26.413  1.00  0.00    -0.007 A 
ATOM     11  C   UNL A   1      35.194  21.411  26.210  1.00  0.00     0.027 A 
ATOM     12  C   UNL A   1      33.890  23.293  25.453  1.00  0.00     0.131 A 
ATOM     13  C   UNL A   1      36.015  21.542  25.090  1.00  0.00     0.042 A 
ATOM     14  C   UNL A   1      34.718  23.429  24.333  1.00  0.00     0.019 A 
ATOM     15  O   UNL A   1      32.850  24.148  25.685  1.00  0.00    -0.475 OA
ATOM     16  Cl  UNL A   1      37.328  20.450  24.866  1.00  0.00    -0.084 Cl
ATOM     17  C   UNL A   1      35.787  22.549  24.153  1.00  0.00     0.032 A 
ATOM     18  C   UNL A   1      34.475  24.514  23.389  1.00  0.00     0.025 C 
ATOM     19  C   UNL A   1      32.325  24.875  24.541  1.00  0.00     0.314 C 
BRANCH  19  20
ATOM     20  C   UNL A   1      31.108  24.117  23.979  1.00  0.00     0.429 C 
ATOM     21  F   UNL A   1      31.470  23.370  22.906  1.00  0.00    -0.167 F 
ATOM     22  F   UNL A   1      30.565  23.263  24.877  1.00  0.00    -0.167 F 
ATOM     23  F   UNL A   1      30.120  24.948  23.577  1.00  0.00    -0.167 F 
ENDBRANCH  19  20
ENDBRANCH   5   8
ENDBRANCH   3   4
ENDBRANCH   2   3
ENDBRANCH   1   2
BRANCH   1  24
ATOM     24  C   UNL A   1      33.642  28.218  27.094  1.00  0.00     0.116 C 
BRANCH  24  25
ATOM     25  N   UNL A   1      33.437  29.614  27.449  1.00  0.00    -0.352 N 
ATOM     26  C   UNL A   1      34.329  30.488  28.022  1.00  0.00     0.251 C 
ATOM     27  H   UNL A   1      32.544  29.980  27.253  1.00  0.00     0.163 HD
ATOM     28  O   UNL A   1      33.968  31.612  28.357  1.00  0.00    -0.269 OA
BRANCH  26  29
ATOM     29  C   UNL A   1      35.716  30.043  28.257  1.00  0.00     0.039 A 
ATOM     30  C   UNL A   1      36.635  30.107  27.208  1.00  0.00     0.014 A 
ATOM     31  C   UNL A   1      36.108  29.598  29.524  1.00  0.00     0.014 A 
ATOM     32  C   UNL A   1      37.969  29.777  27.442  1.00  0.00     0.010 A 
ATOM     33  C   UNL A   1      37.449  29.327  29.769  1.00  0.00     0.010 A 
ATOM     34  C   UNL A   1      38.390  29.410  28.730  1.00  0.00    -0.014 A 
BRANCH  34  35
ATOM     35  C   UNL A   1      39.801  29.059  29.012  1.00  0.00     0.031 A 
ATOM     36  C   UNL A   1      40.709  30.094  29.615  1.00  0.00     0.074 A 
ATOM     37  C   UNL A   1      40.275  27.845  28.674  1.00  0.00     0.049 A 
ATOM     38  N   UNL A   1      41.999  30.044  29.820  1.00  0.00    -0.248 NA
ATOM     39  C   UNL A   1      40.084  31.365  30.016  1.00  0.00     0.031 C 
ATOM     40  C   UNL A   1      39.492  26.767  28.069  1.00  0.00     0.029 A 
ATOM     41  N   UNL A   1      41.537  27.319  28.782  1.00  0.00    -0.354 N 
ATOM     42  C   UNL A   1      42.342  31.278  30.358  1.00  0.00     0.074 A 
ATOM     43  C   UNL A   1      41.135  32.073  30.404  1.00  0.00     0.031 C 
ATOM     44  C   UNL A   1      40.287  25.701  27.877  1.00  0.00     0.029 A 
ATOM     45  C   UNL A   1      41.641  26.034  28.308  1.00  0.00     0.049 A 
ATOM     46  H   UNL A   1      42.297  27.816  29.163  1.00  0.00     0.167 HD
ATOM     47  C   UNL A   1      43.551  31.701  30.798  1.00  0.00     0.037 A 
ATOM     48  C   UNL A   1      42.712  25.221  28.223  1.00  0.00     0.037 A 
ATOM     49  C   UNL A   1      44.742  30.895  30.774  1.00  0.00     0.049 A 
ATOM     50  C   UNL A   1      44.049  25.721  28.702  1.00  0.00     0.074 A 
ATOM     51  C   UNL A   1      46.013  31.220  31.216  1.00  0.00     0.029 A 
ATOM     52  N   UNL A   1      44.808  29.597  30.287  1.00  0.00    -0.354 N 
ATOM     53  N   UNL A   1      44.357  26.889  29.211  1.00  0.00    -0.248 NA
ATOM     54  C   UNL A   1      45.182  24.792  28.591  1.00  0.00     0.031 C 
ATOM     55  C   UNL A   1      46.852  30.127  30.973  1.00  0.00     0.029 A 
ATOM     56  C   UNL A   1      46.097  29.109  30.412  1.00  0.00     0.049 A 
ATOM     57  H   UNL A   1      44.049  29.096  29.909  1.00  0.00     0.167 HD
ATOM     58  C   UNL A   1      45.716  26.831  29.497  1.00  0.00     0.074 A 
ATOM     59  C   UNL A   1      46.166  25.506  29.119  1.00  0.00     0.031 C 
ATOM     60  C   UNL A   1      46.522  27.788  30.022  1.00  0.00     0.037 A 
BRANCH  47  61
ATOM     61  C   UNL A   1      43.635  33.095  31.351  1.00  0.00     0.058 A 
ATOM     62  C   UNL A   1      43.984  34.185  30.538  1.00  0.00     0.135 A 
ATOM     63  C   UNL A   1      43.350  33.350  32.702  1.00  0.00     0.135 A 
ATOM     64  F   UNL A   1      44.290  33.993  29.244  1.00  0.00    -0.206 F 
ATOM     65  C   UNL A   1      44.072  35.475  31.049  1.00  0.00     0.059 A 
ATOM     66  C   UNL A   1      43.406  34.637  33.229  1.00  0.00     0.059 A 
ATOM     67  F   UNL A   1      43.018  32.342  33.525  1.00  0.00    -0.206 F 
ATOM     68  C   UNL A   1      43.781  35.692  32.397  1.00  0.00     0.060 A 
BRANCH  68  69
ATOM     69  S   UNL A   1      43.894  37.373  33.041  1.00  0.00     0.124 S 
ATOM     70  O   UNL A   1      45.242  37.381  33.600  1.00  0.00    -0.237 OA
ATOM     71  O   UNL A   1      43.702  38.181  31.841  1.00  0.00    -0.237 OA
ATOM     72  O   UNL A   1      42.811  37.438  34.017  1.00  0.00    -0.744 OA
ENDBRANCH  68  69
ENDBRANCH  47  61
BRANCH  48  73
ATOM     73  C   UNL A   1      42.560  23.844  27.684  1.00  0.00     0.058 A 
ATOM     74  C   UNL A   1      42.450  22.746  28.550  1.00  0.00     0.135 A 
ATOM     75  C   UNL A   1      42.502  23.599  26.304  1.00  0.00     0.135 A 
ATOM     76  F   UNL A   1      42.509  22.931  29.877  1.00  0.00    -0.206 F 
ATOM     77  C   UNL A   1      42.295  21.451  28.068  1.00  0.00     0.059 A 
ATOM     78  C   UNL A   1      42.327  22.315  25.798  1.00  0.00     0.059 A 
ATOM     79  F   UNL A   1      42.590  24.617  25.435  1.00  0.00    -0.206 F 
ATOM     80  C   UNL A   1      42.230  21.246  26.688  1.00  0.00     0.060 A 
BRANCH  80  81
ATOM     81  S   UNL A   1      41.966  19.567  26.077  1.00  0.00     0.124 S 
ATOM     82  O   UNL A   1      42.844  19.535  24.912  1.00  0.00    -0.237 OA
ATOM     83  O   UNL A   1      42.386  18.757  27.217  1.00  0.00    -0.237 OA
ATOM     84  O   UNL A   1      40.535  19.535  25.790  1.00  0.00    -0.744 OA
ENDBRANCH  80  81
ENDBRANCH  48  73
BRANCH  60  85
ATOM     85  C   UNL A   1      47.966  27.427  30.229  1.00  0.00     0.058 A 
ATOM     86  C   UNL A   1      48.942  27.730  29.268  1.00  0.00     0.135 A 
ATOM     87  C   UNL A   1      48.382  26.801  31.416  1.00  0.00     0.135 A 
ATOM     88  F   UNL A   1      48.593  28.324  28.115  1.00  0.00    -0.206 F 
ATOM     89  C   UNL A   1      50.279  27.398  29.462  1.00  0.00     0.059 A 
ATOM     90  C   UNL A   1      49.717  26.483  31.642  1.00  0.00     0.059 A 
ATOM     91  F   UNL A   1      47.488  26.501  32.371  1.00  0.00    -0.206 F 
ATOM     92  C   UNL A   1      50.656  26.773  30.652  1.00  0.00     0.060 A 
BRANCH  92  93
ATOM     93  S   UNL A   1      52.395  26.358  30.897  1.00  0.00     0.124 S 
ATOM     94  O   UNL A   1      52.296  25.154  31.717  1.00  0.00    -0.237 OA
ATOM     95  O   UNL A   1      52.865  26.156  29.530  1.00  0.00    -0.237 OA
ATOM     96  O   UNL A   1      52.933  27.535  31.572  1.00  0.00    -0.744 OA
ENDBRANCH  92  93
ENDBRANCH  60  85
ENDBRANCH  34  35
ENDBRANCH  26  29
ENDBRANCH  24  25
ENDBRANCH   1  24
TORSDOF 15
ENDMDL
MODEL 2
REMARK VINA RESULT:     -11.9      0.349      1.773
REMARK SMILES Cc1cc(Cl)cc2c1O[C@H](C(F)(F)F)C(C(=O)NCCCCNC(=O)c1ccc(-c3c4nc(c(-c5c(F)cc(S(=O)(=O)[O-])cc5F)c5ccc([nH]5)c(-c5c(F)cc(S(=O)(=O)[O-])cc5F)c5nc(c(-c6c(F)cc(S(=O)(=O)[O-])cc6F)c6ccc3[nH]6)C=C5)C=C4)cc1)=C2
REMARK SMILES IDX 21 1 20 2 19 3 18 4 16 5 17 6 15 8 1 9 2 10 3 11 8 12 4 13
REMARK SMILES IDX 7 14 9 15 5 16 6 17 92 18 10 19 11 20 12 21 13 22 14 23
REMARK SMILES IDX 22 24 23 25 24 26 25 28 26 29 27 30 91 31 28 32 90 33 29 34
REMARK SMILES IDX 30 35 31 36 84 37 32 38 89 39 83 40 85 41 33 42 88 43 82 44
REMARK SMILES IDX 81 45 34 47 68 48 47 49 67 50 48 51 51 52 66 53 86 54 49 55
REMARK SMILES IDX 50 56 65 58 87 59 52 60 35 61 36 62 45 63 37 64 38 65 44 66
REMARK SMILES IDX 46 67 39 68 40 69 41 70 42 71 43 72 69 73 70 74 79 75 71 76
REMARK SMILES IDX 72 77 78 78 80 79 73 80 74 81 75 82 76 83 77 84 53 85 54 86
REMARK SMILES IDX 63 87 55 88 56 89 62 90 64 91 57 92 58 93 59 94 60 95 61 96
REMARK H PARENT 18 7 23 27 85 46 51 57
REMARK Flexibility Score: inf
ROOT
ATOM      1  C   UNL A   1      34.031  27.902  25.692  1.00  0.00     0.023 C 
ENDROOT
BRANCH   1   2
ATOM      2  C   UNL A   1      33.308  28.695  24.600  1.00  0.00     0.023 C 
BRANCH   2   3
ATOM      3  C   UNL A   1      33.907  28.520  23.208  1.00  0.00     0.116 C 
BRANCH   3   4
ATOM      4  N   UNL A   1      33.080  27.674  22.365  1.00  0.00    -0.352 N 
ATOM      5  C   UNL A   1      32.664  26.386  22.363  1.00  0.00     0.251 C 
ATOM      6  O   UNL A   1      31.938  26.068  21.415  1.00  0.00    -0.270 OA
ATOM      7  H   UNL A   1      32.728  28.169  21.590  1.00  0.00     0.163 HD
BRANCH   5   8
ATOM      8  C   UNL A   1      33.014  25.363  23.393  1.00  0.00     0.067 C 
ATOM      9  C   UNL A   1      33.488  22.402  27.585  1.00  0.00     0.048 C 
ATOM     10  C   UNL A   1      34.285  22.623  26.330  1.00  0.00    -0.007 A 
ATOM     11  C   UNL A   1      35.414  21.834  26.075  1.00  0.00     0.027 A 
ATOM     12  C   UNL A   1      33.885  23.559  25.364  1.00  0.00     0.131 A 
ATOM     13  C   UNL A   1      36.143  22.009  24.898  1.00  0.00     0.042 A 
ATOM     14  C   UNL A   1      34.620  23.740  24.188  1.00  0.00     0.019 A 
ATOM     15  O   UNL A   1      32.784  24.317  25.647  1.00  0.00    -0.475 OA
ATOM     16  Cl  UNL A   1      37.538  21.042  24.611  1.00  0.00    -0.084 Cl
ATOM     17  C   UNL A   1      35.756  22.961  23.956  1.00  0.00     0.032 A 
ATOM     18  C   UNL A   1      34.211  24.767  23.236  1.00  0.00     0.025 C 
ATOM     19  C   UNL A   1      32.116  24.955  24.524  1.00  0.00     0.314 C 
BRANCH  19  20
ATOM     20  C   UNL A   1      30.945  24.067  24.066  1.00  0.00     0.429 C 
ATOM     21  F   UNL A   1      30.474  23.331  25.104  1.00  0.00    -0.167 F 
ATOM     22  F   UNL A   1      29.898  24.785  23.597  1.00  0.00    -0.167 F 
ATOM     23  F   UNL A   1      31.301  23.204  23.088  1.00  0.00    -0.167 F 
ENDBRANCH  19  20
ENDBRANCH   5   8
ENDBRANCH   3   4
ENDBRANCH   2   3
ENDBRANCH   1   2
BRANCH   1  24
ATOM     24  C   UNL A   1      33.580  28.200  27.122  1.00  0.00     0.116 C 
BRANCH  24  25
ATOM     25  N   UNL A   1      33.402  29.620  27.390  1.00  0.00    -0.352 N 
ATOM     26  C   UNL A   1      34.309  30.508  27.915  1.00  0.00     0.251 C 
ATOM     27  H   UNL A   1      32.518  29.991  27.165  1.00  0.00     0.163 HD
ATOM     28  O   UNL A   1      33.969  31.658  28.178  1.00  0.00    -0.269 OA
BRANCH  26  29
ATOM     29  C   UNL A   1      35.684  30.050  28.188  1.00  0.00     0.039 A 
ATOM     30  C   UNL A   1      36.621  30.065  27.152  1.00  0.00     0.014 A 
ATOM     31  C   UNL A   1      36.049  29.641  29.474  1.00  0.00     0.014 A 
ATOM     32  C   UNL A   1      37.946  29.722  27.419  1.00  0.00     0.010 A 
ATOM     33  C   UNL A   1      37.382  29.358  29.751  1.00  0.00     0.010 A 
ATOM     34  C   UNL A   1      38.340  29.392  28.725  1.00  0.00    -0.014 A 
BRANCH  34  35
ATOM     35  C   UNL A   1      39.740  29.029  29.042  1.00  0.00     0.031 A 
ATOM     36  C   UNL A   1      40.640  30.053  29.674  1.00  0.00     0.074 A 
ATOM     37  C   UNL A   1      40.214  27.813  28.709  1.00  0.00     0.049 A 
ATOM     38  N   UNL A   1      41.924  29.993  29.912  1.00  0.00    -0.248 NA
ATOM     39  C   UNL A   1      40.014  31.327  30.066  1.00  0.00     0.031 C 
ATOM     40  C   UNL A   1      39.439  26.744  28.078  1.00  0.00     0.029 A 
ATOM     41  N   UNL A   1      41.469  27.277  28.847  1.00  0.00    -0.354 N 
ATOM     42  C   UNL A   1      42.262  31.221  30.466  1.00  0.00     0.074 A 
ATOM     43  C   UNL A   1      41.060  32.025  30.485  1.00  0.00     0.031 C 
ATOM     44  C   UNL A   1      40.231  25.673  27.901  1.00  0.00     0.029 A 
ATOM     45  C   UNL A   1      41.576  25.993  28.369  1.00  0.00     0.049 A 
ATOM     46  H   UNL A   1      42.222  27.766  29.251  1.00  0.00     0.167 HD
ATOM     47  C   UNL A   1      43.462  31.633  30.940  1.00  0.00     0.037 A 
ATOM     48  C   UNL A   1      42.643  25.173  28.308  1.00  0.00     0.037 A 
ATOM     49  C   UNL A   1      44.648  30.818  30.942  1.00  0.00     0.049 A 
ATOM     50  C   UNL A   1      43.970  25.660  28.824  1.00  0.00     0.074 A 
ATOM     51  C   UNL A   1      45.908  31.131  31.419  1.00  0.00     0.029 A 
ATOM     52  N   UNL A   1      44.716  29.522  30.450  1.00  0.00    -0.354 N 
ATOM     53  N   UNL A   1      44.274  26.823  29.348  1.00  0.00    -0.248 NA
ATOM     54  C   UNL A   1      45.099  24.723  28.737  1.00  0.00     0.031 C 
ATOM     55  C   UNL A   1      46.745  30.033  31.192  1.00  0.00     0.029 A 
ATOM     56  C   UNL A   1      45.998  29.023  30.606  1.00  0.00     0.049 A 
ATOM     57  H   UNL A   1      43.963  29.029  30.050  1.00  0.00     0.167 HD
ATOM     58  C   UNL A   1      45.625  26.754  29.668  1.00  0.00     0.074 A 
ATOM     59  C   UNL A   1      46.074  25.427  29.296  1.00  0.00     0.031 C 
ATOM     60  C   UNL A   1      46.423  27.701  30.220  1.00  0.00     0.037 A 
BRANCH  47  61
ATOM     61  C   UNL A   1      43.542  33.023  31.503  1.00  0.00     0.058 A 
ATOM     62  C   UNL A   1      43.360  33.269  32.874  1.00  0.00     0.135 A 
ATOM     63  C   UNL A   1      43.818  34.119  30.671  1.00  0.00     0.135 A 
ATOM     64  F   UNL A   1      43.069  32.258  33.709  1.00  0.00    -0.206 F 
ATOM     65  C   UNL A   1      43.424  34.555  33.397  1.00  0.00     0.059 A 
ATOM     66  C   UNL A   1      43.913  35.413  31.178  1.00  0.00     0.059 A 
ATOM     67  F   UNL A   1      43.993  33.941  29.352  1.00  0.00    -0.206 F 
ATOM     68  C   UNL A   1      43.701  35.622  32.540  1.00  0.00     0.060 A 
BRANCH  68  69
ATOM     69  S   UNL A   1      43.787  37.284  33.238  1.00  0.00     0.124 S 
ATOM     70  O   UNL A   1      42.608  37.300  34.097  1.00  0.00    -0.237 OA
ATOM     71  O   UNL A   1      45.074  37.267  33.927  1.00  0.00    -0.237 OA
ATOM     72  O   UNL A   1      43.719  38.150  32.064  1.00  0.00    -0.744 OA
ENDBRANCH  68  69
ENDBRANCH  47  61
BRANCH  48  73
ATOM     73  C   UNL A   1      42.495  23.800  27.757  1.00  0.00     0.058 A 
ATOM     74  C   UNL A   1      42.546  23.575  26.374  1.00  0.00     0.135 A 
ATOM     75  C   UNL A   1      42.319  22.689  28.595  1.00  0.00     0.135 A 
ATOM     76  F   UNL A   1      42.704  24.608  25.533  1.00  0.00    -0.206 F 
ATOM     77  C   UNL A   1      42.421  22.298  25.839  1.00  0.00     0.059 A 
ATOM     78  C   UNL A   1      42.212  21.399  28.085  1.00  0.00     0.059 A 
ATOM     79  F   UNL A   1      42.276  22.851  29.927  1.00  0.00    -0.206 F 
ATOM     80  C   UNL A   1      42.259  21.214  26.704  1.00  0.00     0.060 A 
BRANCH  80  81
ATOM     81  S   UNL A   1      42.161  19.554  25.999  1.00  0.00     0.124 S 
ATOM     82  O   UNL A   1      42.643  18.735  27.105  1.00  0.00    -0.237 OA
ATOM     83  O   UNL A   1      40.738  19.437  25.689  1.00  0.00    -0.237 OA
ATOM     84  O   UNL A   1      43.042  19.630  24.838  1.00  0.00    -0.744 OA
ENDBRANCH  80  81
ENDBRANCH  48  73
BRANCH  60  85
ATOM     85  C   UNL A   1      47.859  27.329  30.462  1.00  0.00     0.058 A 
ATOM     86  C   UNL A   1      48.259  26.680  31.640  1.00  0.00     0.135 A 
ATOM     87  C   UNL A   1      48.839  27.596  29.492  1.00  0.00     0.135 A 
ATOM     88  F   UNL A   1      47.360  26.407  32.599  1.00  0.00    -0.206 F 
ATOM     89  C   UNL A   1      49.587  26.334  31.861  1.00  0.00     0.059 A 
ATOM     90  C   UNL A   1      50.169  27.236  29.681  1.00  0.00     0.059 A 
ATOM     91  F   UNL A   1      48.504  28.204  28.342  1.00  0.00    -0.206 F 
ATOM     92  C   UNL A   1      50.536  26.618  30.877  1.00  0.00     0.060 A 
BRANCH  92  93
ATOM     93  S   UNL A   1      52.254  26.153  31.171  1.00  0.00     0.124 S 
ATOM     94  O   UNL A   1      52.792  26.143  29.815  1.00  0.00    -0.237 OA
ATOM     95  O   UNL A   1      52.728  27.233  32.032  1.00  0.00    -0.237 OA
ATOM     96  O   UNL A   1      52.147  24.847  31.815  1.00  0.00    -0.744 OA
ENDBRANCH  92  93
ENDBRANCH  60  85
ENDBRANCH  34  35
ENDBRANCH  26  29
ENDBRANCH  24  25
ENDBRANCH   1  24
TORSDOF 15
ENDMDL
MODEL 3
REMARK VINA RESULT:     -11.7      2.673      3.407
REMARK SMILES Cc1cc(Cl)cc2c1O[C@H](C(F)(F)F)C(C(=O)NCCCCNC(=O)c1ccc(-c3c4nc(c(-c5c(F)cc(S(=O)(=O)[O-])cc5F)c5ccc([nH]5)c(-c5c(F)cc(S(=O)(=O)[O-])cc5F)c5nc(c(-c6c(F)cc(S(=O)(=O)[O-])cc6F)c6ccc3[nH]6)C=C5)C=C4)cc1)=C2
REMARK SMILES IDX 21 1 20 2 19 3 18 4 16 5 17 6 15 8 1 9 2 10 3 11 8 12 4 13
REMARK SMILES IDX 7 14 9 15 5 16 6 17 92 18 10 19 11 20 12 21 13 22 14 23
REMARK SMILES IDX 22 24 23 25 24 26 25 28 26 29 27 30 91 31 28 32 90 33 29 34
REMARK SMILES IDX 30 35 31 36 84 37 32 38 89 39 83 40 85 41 33 42 88 43 82 44
REMARK SMILES IDX 81 45 34 47 68 48 47 49 67 50 48 51 51 52 66 53 86 54 49 55
REMARK SMILES IDX 50 56 65 58 87 59 52 60 35 61 36 62 45 63 37 64 38 65 44 66
REMARK SMILES IDX 46 67 39 68 40 69 41 70 42 71 43 72 69 73 70 74 79 75 71 76
REMARK SMILES IDX 72 77 78 78 80 79 73 80 74 81 75 82 76 83 77 84 53 85 54 86
REMARK SMILES IDX 63 87 55 88 56 89 62 90 64 91 57 92 58 93 59 94 60 95 61 96
REMARK H PARENT 18 7 23 27 85 46 51 57
REMARK Flexibility Score: inf
ROOT
ATOM      1  C   UNL A   1      33.803  28.942  27.043  1.00  0.00     0.023 C 
ENDROOT
BRANCH   1   2
ATOM      2  C   UNL A   1      33.664  28.831  25.523  1.00  0.00     0.023 C 
BRANCH   2   3
ATOM      3  C   UNL A   1      33.338  27.424  25.032  1.00  0.00     0.116 C 
BRANCH   3   4
ATOM      4  N   UNL A   1      32.270  26.814  25.805  1.00  0.00    -0.352 N 
ATOM      5  C   UNL A   1      31.907  25.563  26.173  1.00  0.00     0.251 C 
ATOM      6  O   UNL A   1      30.884  25.492  26.862  1.00  0.00    -0.270 OA
ATOM      7  H   UNL A   1      31.645  27.489  26.154  1.00  0.00     0.163 HD
BRANCH   5   8
ATOM      8  C   UNL A   1      32.636  24.311  25.812  1.00  0.00     0.067 C 
ATOM      9  C   UNL A   1      34.126  19.524  24.614  1.00  0.00     0.048 C 
ATOM     10  C   UNL A   1      34.809  20.774  25.090  1.00  0.00    -0.007 A 
ATOM     11  C   UNL A   1      36.206  20.805  25.199  1.00  0.00     0.027 A 
ATOM     12  C   UNL A   1      34.087  21.945  25.366  1.00  0.00     0.131 A 
ATOM     13  C   UNL A   1      36.853  21.970  25.611  1.00  0.00     0.042 A 
ATOM     14  C   UNL A   1      34.735  23.111  25.785  1.00  0.00     0.019 A 
ATOM     15  O   UNL A   1      32.726  21.879  25.257  1.00  0.00    -0.475 OA
ATOM     16  Cl  UNL A   1      38.569  21.983  25.755  1.00  0.00    -0.084 Cl
ATOM     17  C   UNL A   1      36.126  23.122  25.909  1.00  0.00     0.032 A 
ATOM     18  C   UNL A   1      33.945  24.290  26.123  1.00  0.00     0.025 C 
ATOM     19  C   UNL A   1      32.014  23.138  25.111  1.00  0.00     0.314 C 
BRANCH  19  20
ATOM     20  C   UNL A   1      31.763  23.402  23.615  1.00  0.00     0.429 C 
ATOM     21  F   UNL A   1      31.970  22.272  22.893  1.00  0.00    -0.167 F 
ATOM     22  F   UNL A   1      30.493  23.795  23.360  1.00  0.00    -0.167 F 
ATOM     23  F   UNL A   1      32.579  24.357  23.113  1.00  0.00    -0.167 F 
ENDBRANCH  19  20
ENDBRANCH   5   8
ENDBRANCH   3   4
ENDBRANCH   2   3
ENDBRANCH   1   2
BRANCH   1  24
ATOM     24  C   UNL A   1      35.199  29.312  27.545  1.00  0.00     0.116 C 
BRANCH  24  25
ATOM     25  N   UNL A   1      35.183  30.150  28.735  1.00  0.00    -0.352 N 
ATOM     26  C   UNL A   1      36.216  30.423  29.599  1.00  0.00     0.251 C 
ATOM     27  H   UNL A   1      34.322  30.577  28.948  1.00  0.00     0.163 HD
ATOM     28  O   UNL A   1      36.014  31.070  30.622  1.00  0.00    -0.269 OA
BRANCH  26  29
ATOM     29  C   UNL A   1      37.560  29.898  29.296  1.00  0.00     0.039 A 
ATOM     30  C   UNL A   1      37.988  29.857  27.967  1.00  0.00     0.014 A 
ATOM     31  C   UNL A   1      38.405  29.481  30.330  1.00  0.00     0.014 A 
ATOM     32  C   UNL A   1      39.289  29.450  27.676  1.00  0.00     0.010 A 
ATOM     33  C   UNL A   1      39.719  29.133  30.043  1.00  0.00     0.010 A 
ATOM     34  C   UNL A   1      40.171  29.110  28.714  1.00  0.00    -0.014 A 
BRANCH  34  35
ATOM     35  C   UNL A   1      41.561  28.680  28.438  1.00  0.00     0.031 A 
ATOM     36  C   UNL A   1      42.665  29.700  28.457  1.00  0.00     0.074 A 
ATOM     37  C   UNL A   1      41.818  27.398  28.113  1.00  0.00     0.049 A 
ATOM     38  N   UNL A   1      43.920  29.568  28.118  1.00  0.00    -0.248 NA
ATOM     39  C   UNL A   1      42.298  31.058  28.892  1.00  0.00     0.031 C 
ATOM     40  C   UNL A   1      40.826  26.324  28.047  1.00  0.00     0.029 A 
ATOM     41  N   UNL A   1      42.996  26.785  27.767  1.00  0.00    -0.354 N 
ATOM     42  C   UNL A   1      44.488  30.824  28.284  1.00  0.00     0.074 A 
ATOM     43  C   UNL A   1      43.432  31.716  28.707  1.00  0.00     0.031 C 
ATOM     44  C   UNL A   1      41.440  25.180  27.700  1.00  0.00     0.029 A 
ATOM     45  C   UNL A   1      42.859  25.448  27.483  1.00  0.00     0.049 A 
ATOM     46  H   UNL A   1      43.858  27.259  27.726  1.00  0.00     0.167 HD
ATOM     47  C   UNL A   1      45.780  31.195  28.121  1.00  0.00     0.037 A 
ATOM     48  C   UNL A   1      43.775  24.544  27.083  1.00  0.00     0.037 A 
ATOM     49  C   UNL A   1      46.831  30.295  27.725  1.00  0.00     0.049 A 
ATOM     50  C   UNL A   1      45.201  24.985  26.892  1.00  0.00     0.074 A 
ATOM     51  C   UNL A   1      48.178  30.564  27.554  1.00  0.00     0.029 A 
ATOM     52  N   UNL A   1      46.653  28.947  27.447  1.00  0.00    -0.354 N 
ATOM     53  N   UNL A   1      45.724  26.176  27.055  1.00  0.00    -0.248 NA
ATOM     54  C   UNL A   1      46.159  23.958  26.460  1.00  0.00     0.031 C 
ATOM     55  C   UNL A   1      48.809  29.383  27.147  1.00  0.00     0.029 A 
ATOM     56  C   UNL A   1      47.864  28.371  27.100  1.00  0.00     0.049 A 
ATOM     57  H   UNL A   1      45.793  28.470  27.492  1.00  0.00     0.167 HD
ATOM     58  C   UNL A   1      47.076  26.040  26.761  1.00  0.00     0.074 A 
ATOM     59  C   UNL A   1      47.292  24.646  26.428  1.00  0.00     0.031 C 
ATOM     60  C   UNL A   1      48.052  26.982  26.764  1.00  0.00     0.037 A 
BRANCH  47  61
ATOM     61  C   UNL A   1      46.124  32.633  28.384  1.00  0.00     0.058 A 
ATOM     62  C   UNL A   1      46.086  33.593  27.359  1.00  0.00     0.135 A 
ATOM     63  C   UNL A   1      46.482  33.062  29.671  1.00  0.00     0.135 A 
ATOM     64  F   UNL A   1      45.773  33.230  26.104  1.00  0.00    -0.206 F 
ATOM     65  C   UNL A   1      46.412  34.923  27.597  1.00  0.00     0.059 A 
ATOM     66  C   UNL A   1      46.788  34.395  29.937  1.00  0.00     0.059 A 
ATOM     67  F   UNL A   1      46.542  32.184  30.685  1.00  0.00    -0.206 F 
ATOM     68  C   UNL A   1      46.763  35.315  28.890  1.00  0.00     0.060 A 
BRANCH  68  69
ATOM     69  S   UNL A   1      47.177  37.047  29.181  1.00  0.00     0.124 S 
ATOM     70  O   UNL A   1      46.787  37.656  27.914  1.00  0.00    -0.237 OA
ATOM     71  O   UNL A   1      46.340  37.380  30.329  1.00  0.00    -0.237 OA
ATOM     72  O   UNL A   1      48.613  37.014  29.444  1.00  0.00    -0.744 OA
ENDBRANCH  68  69
ENDBRANCH  47  61
BRANCH  48  73
ATOM     73  C   UNL A   1      43.375  23.130  26.859  1.00  0.00     0.058 A 
ATOM     74  C   UNL A   1      43.302  22.605  25.561  1.00  0.00     0.135 A 
ATOM     75  C   UNL A   1      43.079  22.274  27.930  1.00  0.00     0.135 A 
ATOM     76  F   UNL A   1      43.569  23.388  24.505  1.00  0.00    -0.206 F 
ATOM     77  C   UNL A   1      42.943  21.282  25.330  1.00  0.00     0.059 A 
ATOM     78  C   UNL A   1      42.736  20.941  27.725  1.00  0.00     0.059 A 
ATOM     79  F   UNL A   1      43.146  22.725  29.191  1.00  0.00    -0.206 F 
ATOM     80  C   UNL A   1      42.666  20.455  26.420  1.00  0.00     0.060 A 
BRANCH  80  81
ATOM     81  S   UNL A   1      42.260  18.723  26.109  1.00  0.00     0.124 S 
ATOM     82  O   UNL A   1      40.855  18.813  25.726  1.00  0.00    -0.237 OA
ATOM     83  O   UNL A   1      43.193  18.378  25.040  1.00  0.00    -0.237 OA
ATOM     84  O   UNL A   1      42.526  18.081  27.393  1.00  0.00    -0.744 OA
ENDBRANCH  80  81
ENDBRANCH  48  73
BRANCH  60  85
ATOM     85  C   UNL A   1      49.440  26.530  26.408  1.00  0.00     0.058 A 
ATOM     86  C   UNL A   1      49.956  26.697  25.115  1.00  0.00     0.135 A 
ATOM     87  C   UNL A   1      50.274  25.953  27.381  1.00  0.00     0.135 A 
ATOM     88  F   UNL A   1      49.196  27.239  24.149  1.00  0.00    -0.206 F 
ATOM     89  C   UNL A   1      51.242  26.280  24.788  1.00  0.00     0.059 A 
ATOM     90  C   UNL A   1      51.572  25.553  27.082  1.00  0.00     0.059 A 
ATOM     91  F   UNL A   1      49.831  25.783  28.637  1.00  0.00    -0.206 F 
ATOM     92  C   UNL A   1      52.042  25.707  25.778  1.00  0.00     0.060 A 
BRANCH  92  93
ATOM     93  S   UNL A   1      53.712  25.181  25.344  1.00  0.00     0.124 S 
ATOM     94  O   UNL A   1      53.592  23.729  25.421  1.00  0.00    -0.237 OA
ATOM     95  O   UNL A   1      53.876  25.732  24.003  1.00  0.00    -0.237 OA
ATOM     96  O   UNL A   1      54.542  25.799  26.375  1.00  0.00    -0.744 OA
ENDBRANCH  92  93
ENDBRANCH  60  85
ENDBRANCH  34  35
ENDBRANCH  26  29
ENDBRANCH  24  25
ENDBRANCH   1  24
TORSDOF 15
ENDMDL
