MODEL 1
REMARK VINA RESULT:     -11.0      0.000      0.000
REMARK SMILES O=C(C[C@H]1CCCO1)N[C@@H]1C=C[C@@H](C(=O)NCCCCNC(=O)c2ccc(-c3c4nc(c(-c5c(F)cc(S(=O)(=O)[O-])cc5F)c5ccc([nH]5)c(-c5c(F)cc(S(=O)(=O)[O-])cc5F)c5nc(c(-c6c(F)cc(S(=O)(=O)[O-])cc6F)c6ccc3[nH]6)C=C5)C=C4)cc2)C1
REMARK SMILES IDX 18 1 17 2 16 3 14 4 15 5 13 7 10 8 11 9 90 10 12 11 9 12
REMARK SMILES IDX 1 13 2 14 3 16 4 17 5 18 8 19 6 20 7 21 19 22 20 23 21 24
REMARK SMILES IDX 22 25 23 27 24 28 25 29 89 30 26 31 88 32 27 33 28 34 29 35
REMARK SMILES IDX 82 36 30 37 87 38 81 39 83 40 31 41 86 42 80 43 79 44 32 46
REMARK SMILES IDX 66 47 45 48 65 49 46 50 49 51 64 52 84 53 47 54 48 55 63 57
REMARK SMILES IDX 85 58 50 59 33 60 34 61 43 62 35 63 36 64 42 65 44 66 37 67
REMARK SMILES IDX 38 68 39 69 40 70 41 71 67 72 68 73 77 74 69 75 70 76 76 77
REMARK SMILES IDX 78 78 71 79 72 80 73 81 74 82 75 83 51 84 52 85 61 86 53 87
REMARK SMILES IDX 54 88 60 89 62 90 55 91 56 92 57 93 58 94 59 95
REMARK H PARENT 16 6 9 15 21 26 83 45 49 56
REMARK Flexibility Score: inf
ROOT
ATOM      1  C   UNL A   1      33.271  29.201  24.592  1.00  0.00     0.023 C 
ENDROOT
BRANCH   1   2
ATOM      2  C   UNL A   1      33.184  28.842  23.112  1.00  0.00     0.116 C 
BRANCH   2   3
ATOM      3  N   UNL A   1      31.960  29.323  22.501  1.00  0.00    -0.356 N 
ATOM      4  C   UNL A   1      30.773  28.700  22.262  1.00  0.00     0.227 C 
ATOM      5  O   UNL A   1      29.866  29.382  21.773  1.00  0.00    -0.274 OA
ATOM      6  H   UNL A   1      31.993  30.262  22.208  1.00  0.00     0.163 HD
BRANCH   4   7
ATOM      7  C   UNL A   1      30.528  27.225  22.584  1.00  0.00     0.103 C 
ATOM      8  C   UNL A   1      32.088  25.476  23.339  1.00  0.00     0.106 C 
ATOM      9  C   UNL A   1      31.238  26.000  24.452  1.00  0.00    -0.006 C 
ATOM     10  C   UNL A   1      31.625  26.266  22.108  1.00  0.00     0.047 C 
ATOM     11  C   UNL A   1      30.391  26.952  24.048  1.00  0.00    -0.016 C 
BRANCH   8  12
ATOM     12  N   UNL A   1      31.822  24.069  23.202  1.00  0.00    -0.350 N 
ATOM     13  O   UNL A   1      33.889  23.476  22.397  1.00  0.00    -0.275 OA
ATOM     14  C   UNL A   1      32.755  23.169  22.751  1.00  0.00     0.223 C 
ATOM     15  H   UNL A   1      30.928  23.736  23.444  1.00  0.00     0.164 HD
BRANCH  14  16
ATOM     16  C   UNL A   1      32.255  21.743  22.691  1.00  0.00     0.132 C 
BRANCH  16  17
ATOM     17  C   UNL A   1      32.269  21.026  24.040  1.00  0.00     0.127 C 
ATOM     18  C   UNL A   1      33.338  19.953  24.204  1.00  0.00     0.035 C 
ATOM     19  O   UNL A   1      32.447  21.983  25.104  1.00  0.00    -0.378 OA
ATOM     20  C   UNL A   1      34.363  20.601  25.099  1.00  0.00     0.031 C 
ATOM     21  C   UNL A   1      33.526  21.539  25.938  1.00  0.00     0.160 C 
ENDBRANCH  16  17
ENDBRANCH  14  16
ENDBRANCH   8  12
ENDBRANCH   4   7
ENDBRANCH   2   3
ENDBRANCH   1   2
BRANCH   1  22
ATOM     22  C   UNL A   1      33.923  28.129  25.465  1.00  0.00     0.023 C 
BRANCH  22  23
ATOM     23  C   UNL A   1      33.659  28.267  26.959  1.00  0.00     0.116 C 
BRANCH  23  24
ATOM     24  N   UNL A   1      33.485  29.649  27.378  1.00  0.00    -0.352 N 
ATOM     25  C   UNL A   1      34.369  30.475  28.029  1.00  0.00     0.251 C 
ATOM     26  H   UNL A   1      32.612  30.050  27.164  1.00  0.00     0.163 HD
ATOM     27  O   UNL A   1      33.991  31.573  28.432  1.00  0.00    -0.269 OA
BRANCH  25  28
ATOM     28  C   UNL A   1      35.759  30.030  28.267  1.00  0.00     0.039 A 
ATOM     29  C   UNL A   1      36.684  30.130  27.226  1.00  0.00     0.014 A 
ATOM     30  C   UNL A   1      36.152  29.522  29.509  1.00  0.00     0.014 A 
ATOM     31  C   UNL A   1      38.013  29.769  27.447  1.00  0.00     0.010 A 
ATOM     32  C   UNL A   1      37.494  29.246  29.753  1.00  0.00     0.010 A 
ATOM     33  C   UNL A   1      38.438  29.354  28.721  1.00  0.00    -0.014 A 
BRANCH  33  34
ATOM     34  C   UNL A   1      39.863  29.021  28.978  1.00  0.00     0.031 A 
ATOM     35  C   UNL A   1      40.788  30.045  29.579  1.00  0.00     0.074 A 
ATOM     36  C   UNL A   1      40.331  27.803  28.640  1.00  0.00     0.049 A 
ATOM     37  N   UNL A   1      42.058  29.938  29.877  1.00  0.00    -0.248 NA
ATOM     38  C   UNL A   1      40.220  31.374  29.860  1.00  0.00     0.031 C 
ATOM     39  C   UNL A   1      39.550  26.744  27.995  1.00  0.00     0.029 A 
ATOM     40  N   UNL A   1      41.578  27.247  28.788  1.00  0.00    -0.354 N 
ATOM     41  C   UNL A   1      42.440  31.181  30.370  1.00  0.00     0.074 A 
ATOM     42  C   UNL A   1      41.286  32.046  30.272  1.00  0.00     0.031 C 
ATOM     43  C   UNL A   1      40.323  25.658  27.838  1.00  0.00     0.029 A 
ATOM     44  C   UNL A   1      41.663  25.952  28.334  1.00  0.00     0.049 A 
ATOM     45  H   UNL A   1      42.339  27.730  29.184  1.00  0.00     0.167 HD
ATOM     46  C   UNL A   1      43.635  31.558  30.884  1.00  0.00     0.037 A 
ATOM     47  C   UNL A   1      42.704  25.097  28.318  1.00  0.00     0.037 A 
ATOM     48  C   UNL A   1      44.775  30.685  30.994  1.00  0.00     0.049 A 
ATOM     49  C   UNL A   1      44.021  25.539  28.899  1.00  0.00     0.074 A 
ATOM     50  C   UNL A   1      46.013  30.953  31.551  1.00  0.00     0.029 A 
ATOM     51  N   UNL A   1      44.821  29.377  30.534  1.00  0.00    -0.354 N 
ATOM     52  N   UNL A   1      44.343  26.694  29.431  1.00  0.00    -0.248 NA
ATOM     53  C   UNL A   1      45.111  24.555  28.890  1.00  0.00     0.031 C 
ATOM     54  C   UNL A   1      46.824  29.826  31.379  1.00  0.00     0.029 A 
ATOM     55  C   UNL A   1      46.074  28.833  30.771  1.00  0.00     0.049 A 
ATOM     56  H   UNL A   1      44.073  28.904  30.101  1.00  0.00     0.167 HD
ATOM     57  C   UNL A   1      45.665  26.568  29.843  1.00  0.00     0.074 A 
ATOM     58  C   UNL A   1      46.073  25.217  29.518  1.00  0.00     0.031 C 
ATOM     59  C   UNL A   1      46.469  27.487  30.436  1.00  0.00     0.037 A 
BRANCH  46  60
ATOM     60  C   UNL A   1      43.770  32.978  31.369  1.00  0.00     0.058 A 
ATOM     61  C   UNL A   1      43.484  33.336  32.697  1.00  0.00     0.135 A 
ATOM     62  C   UNL A   1      44.220  33.989  30.504  1.00  0.00     0.135 A 
ATOM     63  F   UNL A   1      43.033  32.417  33.564  1.00  0.00    -0.206 F 
ATOM     64  C   UNL A   1      43.609  34.649  33.140  1.00  0.00     0.059 A 
ATOM     65  C   UNL A   1      44.383  35.303  30.935  1.00  0.00     0.059 A 
ATOM     66  F   UNL A   1      44.508  33.706  29.224  1.00  0.00    -0.206 F 
ATOM     67  C   UNL A   1      44.060  35.626  32.252  1.00  0.00     0.060 A 
BRANCH  67  68
ATOM     68  S   UNL A   1      44.224  37.322  32.847  1.00  0.00     0.124 S 
ATOM     69  O   UNL A   1      44.196  38.073  31.594  1.00  0.00    -0.237 OA
ATOM     70  O   UNL A   1      43.048  37.469  33.698  1.00  0.00    -0.237 OA
ATOM     71  O   UNL A   1      45.505  37.317  33.545  1.00  0.00    -0.744 OA
ENDBRANCH  67  68
ENDBRANCH  46  60
BRANCH  47  72
ATOM     72  C   UNL A   1      42.535  23.729  27.758  1.00  0.00     0.058 A 
ATOM     73  C   UNL A   1      42.573  23.503  26.373  1.00  0.00     0.135 A 
ATOM     74  C   UNL A   1      42.343  22.618  28.595  1.00  0.00     0.135 A 
ATOM     75  F   UNL A   1      42.747  24.532  25.530  1.00  0.00    -0.206 F 
ATOM     76  C   UNL A   1      42.406  22.229  25.836  1.00  0.00     0.059 A 
ATOM     77  C   UNL A   1      42.204  21.332  28.084  1.00  0.00     0.059 A 
ATOM     78  F   UNL A   1      42.317  22.777  29.926  1.00  0.00    -0.206 F 
ATOM     79  C   UNL A   1      42.225  21.149  26.702  1.00  0.00     0.060 A 
BRANCH  79  80
ATOM     80  S   UNL A   1      42.057  19.495  25.997  1.00  0.00     0.124 S 
ATOM     81  O   UNL A   1      42.583  18.662  27.071  1.00  0.00    -0.237 OA
ATOM     82  O   UNL A   1      40.618  19.407  25.765  1.00  0.00    -0.237 OA
ATOM     83  O   UNL A   1      42.875  19.560  24.790  1.00  0.00    -0.744 OA
ENDBRANCH  79  80
ENDBRANCH  47  72
BRANCH  59  84
ATOM     84  C   UNL A   1      47.863  27.048  30.799  1.00  0.00     0.058 A 
ATOM     85  C   UNL A   1      48.951  27.242  29.933  1.00  0.00     0.135 A 
ATOM     86  C   UNL A   1      48.116  26.440  32.040  1.00  0.00     0.135 A 
ATOM     87  F   UNL A   1      48.766  27.817  28.734  1.00  0.00    -0.206 F 
ATOM     88  C   UNL A   1      50.230  26.806  30.263  1.00  0.00     0.059 A 
ATOM     89  C   UNL A   1      49.393  26.028  32.405  1.00  0.00     0.059 A 
ATOM     90  F   UNL A   1      47.116  26.243  32.913  1.00  0.00    -0.206 F 
ATOM     91  C   UNL A   1      50.441  26.196  31.501  1.00  0.00     0.060 A 
BRANCH  91  92
ATOM     92  S   UNL A   1      52.104  25.632  31.916  1.00  0.00     0.124 S 
ATOM     93  O   UNL A   1      51.877  24.214  32.176  1.00  0.00    -0.237 OA
ATOM     94  O   UNL A   1      52.852  25.944  30.702  1.00  0.00    -0.237 OA
ATOM     95  O   UNL A   1      52.454  26.435  33.084  1.00  0.00    -0.744 OA
ENDBRANCH  91  92
ENDBRANCH  59  84
ENDBRANCH  33  34
ENDBRANCH  25  28
ENDBRANCH  23  24
ENDBRANCH  22  23
ENDBRANCH   1  22
TORSDOF 17
ENDMDL
MODEL 2
REMARK VINA RESULT:     -10.8      4.832     10.539
REMARK SMILES O=C(C[C@H]1CCCO1)N[C@@H]1C=C[C@@H](C(=O)NCCCCNC(=O)c2ccc(-c3c4nc(c(-c5c(F)cc(S(=O)(=O)[O-])cc5F)c5ccc([nH]5)c(-c5c(F)cc(S(=O)(=O)[O-])cc5F)c5nc(c(-c6c(F)cc(S(=O)(=O)[O-])cc6F)c6ccc3[nH]6)C=C5)C=C4)cc2)C1
REMARK SMILES IDX 18 1 17 2 16 3 14 4 15 5 13 7 10 8 11 9 90 10 12 11 9 12
REMARK SMILES IDX 1 13 2 14 3 16 4 17 5 18 8 19 6 20 7 21 19 22 20 23 21 24
REMARK SMILES IDX 22 25 23 27 24 28 25 29 89 30 26 31 88 32 27 33 28 34 29 35
REMARK SMILES IDX 82 36 30 37 87 38 81 39 83 40 31 41 86 42 80 43 79 44 32 46
REMARK SMILES IDX 66 47 45 48 65 49 46 50 49 51 64 52 84 53 47 54 48 55 63 57
REMARK SMILES IDX 85 58 50 59 33 60 34 61 43 62 35 63 36 64 42 65 44 66 37 67
REMARK SMILES IDX 38 68 39 69 40 70 41 71 67 72 68 73 77 74 69 75 70 76 76 77
REMARK SMILES IDX 78 78 71 79 72 80 73 81 74 82 75 83 51 84 52 85 61 86 53 87
REMARK SMILES IDX 54 88 60 89 62 90 55 91 56 92 57 93 58 94 59 95
REMARK H PARENT 16 6 9 15 21 26 83 45 49 56
REMARK Flexibility Score: inf
ROOT
ATOM      1  C   UNL A   1      37.666  22.347  25.744  1.00  0.00     0.023 C 
ENDROOT
BRANCH   1   2
ATOM      2  C   UNL A   1      36.161  22.166  25.921  1.00  0.00     0.116 C 
BRANCH   2   3
ATOM      3  N   UNL A   1      35.710  20.861  25.479  1.00  0.00    -0.356 N 
ATOM      4  C   UNL A   1      34.567  20.475  24.848  1.00  0.00     0.227 C 
ATOM      5  O   UNL A   1      34.470  19.284  24.531  1.00  0.00    -0.274 OA
ATOM      6  H   UNL A   1      36.338  20.128  25.668  1.00  0.00     0.163 HD
BRANCH   4   7
ATOM      7  C   UNL A   1      33.432  21.445  24.513  1.00  0.00     0.103 C 
ATOM      8  C   UNL A   1      33.009  22.764  22.477  1.00  0.00     0.106 C 
ATOM      9  C   UNL A   1      32.133  21.555  22.565  1.00  0.00    -0.006 C 
ATOM     10  C   UNL A   1      33.859  22.706  23.754  1.00  0.00     0.047 C 
ATOM     11  C   UNL A   1      32.360  20.834  23.667  1.00  0.00    -0.016 C 
BRANCH   8  12
ATOM     12  N   UNL A   1      32.162  23.927  22.453  1.00  0.00    -0.350 N 
ATOM     13  O   UNL A   1      33.714  25.378  21.583  1.00  0.00    -0.275 OA
ATOM     14  C   UNL A   1      32.580  25.149  21.991  1.00  0.00     0.223 C 
ATOM     15  H   UNL A   1      31.239  23.840  22.782  1.00  0.00     0.164 HD
BRANCH  14  16
ATOM     16  C   UNL A   1      31.519  26.226  22.056  1.00  0.00     0.132 C 
BRANCH  16  17
ATOM     17  C   UNL A   1      31.318  26.813  23.452  1.00  0.00     0.127 C 
ATOM     18  C   UNL A   1      29.946  26.584  24.071  1.00  0.00     0.035 C 
ATOM     19  O   UNL A   1      32.300  26.273  24.358  1.00  0.00    -0.378 OA
ATOM     20  C   UNL A   1      30.190  25.511  25.101  1.00  0.00     0.031 C 
ATOM     21  C   UNL A   1      31.620  25.770  25.518  1.00  0.00     0.160 C 
ENDBRANCH  16  17
ENDBRANCH  14  16
ENDBRANCH   8  12
ENDBRANCH   4   7
ENDBRANCH   2   3
ENDBRANCH   1   2
BRANCH   1  22
ATOM     22  C   UNL A   1      38.200  23.699  26.217  1.00  0.00     0.023 C 
BRANCH  22  23
ATOM     23  C   UNL A   1      39.554  23.648  26.915  1.00  0.00     0.116 C 
BRANCH  23  24
ATOM     24  N   UNL A   1      40.643  24.119  26.072  1.00  0.00    -0.352 N 
ATOM     25  C   UNL A   1      41.408  25.252  26.198  1.00  0.00     0.251 C 
ATOM     26  H   UNL A   1      40.863  23.544  25.305  1.00  0.00     0.163 HD
ATOM     27  O   UNL A   1      42.191  25.560  25.302  1.00  0.00    -0.269 OA
BRANCH  25  28
ATOM     28  C   UNL A   1      41.266  26.111  27.393  1.00  0.00     0.039 A 
ATOM     29  C   UNL A   1      42.143  27.186  27.556  1.00  0.00     0.014 A 
ATOM     30  C   UNL A   1      40.274  25.865  28.347  1.00  0.00     0.014 A 
ATOM     31  C   UNL A   1      41.991  28.042  28.647  1.00  0.00     0.010 A 
ATOM     32  C   UNL A   1      40.069  26.769  29.384  1.00  0.00     0.010 A 
ATOM     33  C   UNL A   1      40.933  27.861  29.554  1.00  0.00    -0.014 A 
BRANCH  33  34
ATOM     34  C   UNL A   1      40.731  28.801  30.687  1.00  0.00     0.031 A 
ATOM     35  C   UNL A   1      41.578  28.692  31.927  1.00  0.00     0.074 A 
ATOM     36  C   UNL A   1      39.761  29.734  30.611  1.00  0.00     0.049 A 
ATOM     37  N   UNL A   1      41.550  29.421  33.013  1.00  0.00    -0.248 NA
ATOM     38  C   UNL A   1      42.571  27.606  31.963  1.00  0.00     0.031 C 
ATOM     39  C   UNL A   1      38.834  29.902  29.488  1.00  0.00     0.029 A 
ATOM     40  N   UNL A   1      39.391  30.718  31.493  1.00  0.00    -0.354 N 
ATOM     41  C   UNL A   1      42.510  28.879  33.861  1.00  0.00     0.074 A 
ATOM     42  C   UNL A   1      43.059  27.721  33.190  1.00  0.00     0.031 C 
ATOM     43  C   UNL A   1      38.029  30.948  29.734  1.00  0.00     0.029 A 
ATOM     44  C   UNL A   1      38.354  31.502  31.044  1.00  0.00     0.049 A 
ATOM     45  H   UNL A   1      39.827  30.851  32.366  1.00  0.00     0.167 HD
ATOM     46  C   UNL A   1      42.917  29.322  35.074  1.00  0.00     0.037 A 
ATOM     47  C   UNL A   1      37.733  32.548  31.623  1.00  0.00     0.037 A 
ATOM     48  C   UNL A   1      42.378  30.487  35.728  1.00  0.00     0.049 A 
ATOM     49  C   UNL A   1      38.207  33.024  32.970  1.00  0.00     0.074 A 
ATOM     50  C   UNL A   1      42.760  31.052  36.932  1.00  0.00     0.029 A 
ATOM     51  N   UNL A   1      41.336  31.261  35.238  1.00  0.00    -0.354 N 
ATOM     52  N   UNL A   1      39.169  32.546  33.724  1.00  0.00    -0.248 NA
ATOM     53  C   UNL A   1      37.521  34.191  33.538  1.00  0.00     0.031 C 
ATOM     54  C   UNL A   1      41.915  32.135  37.195  1.00  0.00     0.029 A 
ATOM     55  C   UNL A   1      41.046  32.284  36.127  1.00  0.00     0.049 A 
ATOM     56  H   UNL A   1      40.871  31.106  34.384  1.00  0.00     0.167 HD
ATOM     57  C   UNL A   1      39.219  33.369  34.844  1.00  0.00     0.074 A 
ATOM     58  C   UNL A   1      38.207  34.387  34.656  1.00  0.00     0.031 C 
ATOM     59  C   UNL A   1      40.030  33.289  35.929  1.00  0.00     0.037 A 
BRANCH  46  60
ATOM     60  C   UNL A   1      44.002  28.545  35.773  1.00  0.00     0.058 A 
ATOM     61  C   UNL A   1      45.363  28.801  35.540  1.00  0.00     0.135 A 
ATOM     62  C   UNL A   1      43.678  27.553  36.713  1.00  0.00     0.135 A 
ATOM     63  F   UNL A   1      45.734  29.726  34.640  1.00  0.00    -0.206 F 
ATOM     64  C   UNL A   1      46.362  28.080  36.187  1.00  0.00     0.059 A 
ATOM     65  C   UNL A   1      44.661  26.842  37.396  1.00  0.00     0.059 A 
ATOM     66  F   UNL A   1      42.394  27.265  36.977  1.00  0.00    -0.206 F 
ATOM     67  C   UNL A   1      46.001  27.103  37.115  1.00  0.00     0.060 A 
BRANCH  67  68
ATOM     68  S   UNL A   1      47.309  26.183  37.951  1.00  0.00     0.124 S 
ATOM     69  O   UNL A   1      47.686  25.215  36.925  1.00  0.00    -0.237 OA
ATOM     70  O   UNL A   1      48.293  27.224  38.230  1.00  0.00    -0.237 OA
ATOM     71  O   UNL A   1      46.641  25.625  39.122  1.00  0.00    -0.744 OA
ENDBRANCH  67  68
ENDBRANCH  46  60
BRANCH  47  72
ATOM     72  C   UNL A   1      36.616  33.233  30.918  1.00  0.00     0.058 A 
ATOM     73  C   UNL A   1      35.290  33.096  31.357  1.00  0.00     0.135 A 
ATOM     74  C   UNL A   1      36.851  34.047  29.799  1.00  0.00     0.135 A 
ATOM     75  F   UNL A   1      35.010  32.324  32.419  1.00  0.00    -0.206 F 
ATOM     76  C   UNL A   1      34.235  33.723  30.701  1.00  0.00     0.059 A 
ATOM     77  C   UNL A   1      35.817  34.709  29.145  1.00  0.00     0.059 A 
ATOM     78  F   UNL A   1      38.102  34.227  29.350  1.00  0.00    -0.206 F 
ATOM     79  C   UNL A   1      34.510  34.531  29.596  1.00  0.00     0.060 A 
BRANCH  79  80
ATOM     80  S   UNL A   1      33.140  35.378  28.780  1.00  0.00     0.124 S 
ATOM     81  O   UNL A   1      32.369  35.858  29.921  1.00  0.00    -0.237 OA
ATOM     82  O   UNL A   1      33.833  36.401  28.002  1.00  0.00    -0.237 OA
ATOM     83  O   UNL A   1      32.512  34.321  27.993  1.00  0.00    -0.744 OA
ENDBRANCH  79  80
ENDBRANCH  47  72
BRANCH  59  84
ATOM     84  C   UNL A   1      39.873  34.352  36.984  1.00  0.00     0.058 A 
ATOM     85  C   UNL A   1      38.995  34.197  38.069  1.00  0.00     0.135 A 
ATOM     86  C   UNL A   1      40.625  35.537  36.916  1.00  0.00     0.135 A 
ATOM     87  F   UNL A   1      38.249  33.086  38.182  1.00  0.00    -0.206 F 
ATOM     88  C   UNL A   1      38.832  35.197  39.023  1.00  0.00     0.059 A 
ATOM     89  C   UNL A   1      40.505  36.535  37.877  1.00  0.00     0.059 A 
ATOM     90  F   UNL A   1      41.491  35.732  35.909  1.00  0.00    -0.206 F 
ATOM     91  C   UNL A   1      39.590  36.366  38.916  1.00  0.00     0.060 A 
BRANCH  91  92
ATOM     92  S   UNL A   1      39.369  37.657  40.157  1.00  0.00     0.124 S 
ATOM     93  O   UNL A   1      39.125  36.869  41.360  1.00  0.00    -0.237 OA
ATOM     94  O   UNL A   1      40.646  38.362  40.107  1.00  0.00    -0.237 OA
ATOM     95  O   UNL A   1      38.224  38.413  39.660  1.00  0.00    -0.744 OA
ENDBRANCH  91  92
ENDBRANCH  59  84
ENDBRANCH  33  34
ENDBRANCH  25  28
ENDBRANCH  23  24
ENDBRANCH  22  23
ENDBRANCH   1  22
TORSDOF 17
ENDMDL
MODEL 3
REMARK VINA RESULT:     -10.7      2.874      3.677
REMARK SMILES O=C(C[C@H]1CCCO1)N[C@@H]1C=C[C@@H](C(=O)NCCCCNC(=O)c2ccc(-c3c4nc(c(-c5c(F)cc(S(=O)(=O)[O-])cc5F)c5ccc([nH]5)c(-c5c(F)cc(S(=O)(=O)[O-])cc5F)c5nc(c(-c6c(F)cc(S(=O)(=O)[O-])cc6F)c6ccc3[nH]6)C=C5)C=C4)cc2)C1
REMARK SMILES IDX 18 1 17 2 16 3 14 4 15 5 13 7 10 8 11 9 90 10 12 11 9 12
REMARK SMILES IDX 1 13 2 14 3 16 4 17 5 18 8 19 6 20 7 21 19 22 20 23 21 24
REMARK SMILES IDX 22 25 23 27 24 28 25 29 89 30 26 31 88 32 27 33 28 34 29 35
REMARK SMILES IDX 82 36 30 37 87 38 81 39 83 40 31 41 86 42 80 43 79 44 32 46
REMARK SMILES IDX 66 47 45 48 65 49 46 50 49 51 64 52 84 53 47 54 48 55 63 57
REMARK SMILES IDX 85 58 50 59 33 60 34 61 43 62 35 63 36 64 42 65 44 66 37 67
REMARK SMILES IDX 38 68 39 69 40 70 41 71 67 72 68 73 77 74 69 75 70 76 76 77
REMARK SMILES IDX 78 78 71 79 72 80 73 81 74 82 75 83 51 84 52 85 61 86 53 87
REMARK SMILES IDX 54 88 60 89 62 90 55 91 56 92 57 93 58 94 59 95
REMARK H PARENT 16 6 9 15 21 26 83 45 49 56
REMARK Flexibility Score: inf
ROOT
ATOM      1  C   UNL A   1      33.542  29.486  26.992  1.00  0.00     0.023 C 
ENDROOT
BRANCH   1   2
ATOM      2  C   UNL A   1      33.437  29.457  25.470  1.00  0.00     0.116 C 
BRANCH   2   3
ATOM      3  N   UNL A   1      32.158  29.953  24.999  1.00  0.00    -0.356 N 
ATOM      4  C   UNL A   1      31.108  29.310  24.419  1.00  0.00     0.227 C 
ATOM      5  O   UNL A   1      30.102  29.983  24.168  1.00  0.00    -0.274 OA
ATOM      6  H   UNL A   1      32.028  30.921  25.118  1.00  0.00     0.163 HD
BRANCH   4   7
ATOM      7  C   UNL A   1      31.125  27.817  24.087  1.00  0.00     0.103 C 
ATOM      8  C   UNL A   1      29.987  25.927  25.184  1.00  0.00     0.106 C 
ATOM      9  C   UNL A   1      29.313  26.339  23.914  1.00  0.00    -0.006 C 
ATOM     10  C   UNL A   1      31.182  26.884  25.302  1.00  0.00     0.047 C 
ATOM     11  C   UNL A   1      29.924  27.367  23.316  1.00  0.00    -0.016 C 
BRANCH   8  12
ATOM     12  N   UNL A   1      30.412  24.560  25.037  1.00  0.00    -0.350 N 
ATOM     13  O   UNL A   1      30.461  24.048  27.276  1.00  0.00    -0.275 OA
ATOM     14  C   UNL A   1      30.604  23.717  26.103  1.00  0.00     0.223 C 
ATOM     15  H   UNL A   1      30.570  24.213  24.131  1.00  0.00     0.164 HD
BRANCH  14  16
ATOM     16  C   UNL A   1      31.046  22.324  25.712  1.00  0.00     0.132 C 
BRANCH  16  17
ATOM     17  C   UNL A   1      32.560  22.171  25.576  1.00  0.00     0.127 C 
ATOM     18  C   UNL A   1      33.032  21.313  24.409  1.00  0.00     0.035 C 
ATOM     19  O   UNL A   1      33.174  23.467  25.439  1.00  0.00    -0.378 OA
ATOM     20  C   UNL A   1      33.544  22.317  23.409  1.00  0.00     0.031 C 
ATOM     21  C   UNL A   1      34.033  23.444  24.290  1.00  0.00     0.160 C 
ENDBRANCH  16  17
ENDBRANCH  14  16
ENDBRANCH   8  12
ENDBRANCH   4   7
ENDBRANCH   2   3
ENDBRANCH   1   2
BRANCH   1  22
ATOM     22  C   UNL A   1      34.120  30.781  27.561  1.00  0.00     0.023 C 
BRANCH  22  23
ATOM     23  C   UNL A   1      35.498  30.646  28.198  1.00  0.00     0.116 C 
BRANCH  23  24
ATOM     24  N   UNL A   1      35.454  30.675  29.653  1.00  0.00    -0.352 N 
ATOM     25  C   UNL A   1      36.446  30.380  30.556  1.00  0.00     0.251 C 
ATOM     26  H   UNL A   1      34.593  30.945  30.044  1.00  0.00     0.163 HD
ATOM     27  O   UNL A   1      36.179  30.321  31.754  1.00  0.00    -0.269 OA
BRANCH  25  28
ATOM     28  C   UNL A   1      37.820  30.108  30.083  1.00  0.00     0.039 A 
ATOM     29  C   UNL A   1      38.795  29.756  31.018  1.00  0.00     0.014 A 
ATOM     30  C   UNL A   1      38.147  30.193  28.726  1.00  0.00     0.014 A 
ATOM     31  C   UNL A   1      40.083  29.440  30.586  1.00  0.00     0.010 A 
ATOM     32  C   UNL A   1      39.406  29.792  28.289  1.00  0.00     0.010 A 
ATOM     33  C   UNL A   1      40.393  29.423  29.215  1.00  0.00    -0.014 A 
BRANCH  33  34
ATOM     34  C   UNL A   1      41.747  29.034  28.744  1.00  0.00     0.031 A 
ATOM     35  C   UNL A   1      42.852  30.053  28.678  1.00  0.00     0.074 A 
ATOM     36  C   UNL A   1      41.972  27.766  28.346  1.00  0.00     0.049 A 
ATOM     37  N   UNL A   1      44.095  29.901  28.297  1.00  0.00    -0.248 NA
ATOM     38  C   UNL A   1      42.513  31.433  29.066  1.00  0.00     0.031 C 
ATOM     39  C   UNL A   1      40.968  26.700  28.306  1.00  0.00     0.029 A 
ATOM     40  N   UNL A   1      43.117  27.156  27.897  1.00  0.00    -0.354 N 
ATOM     41  C   UNL A   1      44.679  31.159  28.392  1.00  0.00     0.074 A 
ATOM     42  C   UNL A   1      43.641  32.077  28.804  1.00  0.00     0.031 C 
ATOM     43  C   UNL A   1      41.548  25.562  27.893  1.00  0.00     0.029 A 
ATOM     44  C   UNL A   1      42.954  25.822  27.604  1.00  0.00     0.049 A 
ATOM     45  H   UNL A   1      43.975  27.628  27.797  1.00  0.00     0.167 HD
ATOM     46  C   UNL A   1      45.970  31.513  28.183  1.00  0.00     0.037 A 
ATOM     47  C   UNL A   1      43.837  24.911  27.151  1.00  0.00     0.037 A 
ATOM     48  C   UNL A   1      47.004  30.589  27.789  1.00  0.00     0.049 A 
ATOM     49  C   UNL A   1      45.267  25.328  26.930  1.00  0.00     0.074 A 
ATOM     50  C   UNL A   1      48.353  30.835  27.606  1.00  0.00     0.029 A 
ATOM     51  N   UNL A   1      46.803  29.245  27.511  1.00  0.00    -0.354 N 
ATOM     52  N   UNL A   1      45.819  26.506  27.098  1.00  0.00    -0.248 NA
ATOM     53  C   UNL A   1      46.196  24.287  26.471  1.00  0.00     0.031 C 
ATOM     54  C   UNL A   1      48.958  29.653  27.165  1.00  0.00     0.029 A 
ATOM     55  C   UNL A   1      47.999  28.654  27.133  1.00  0.00     0.049 A 
ATOM     56  H   UNL A   1      45.938  28.779  27.572  1.00  0.00     0.167 HD
ATOM     57  C   UNL A   1      47.166  26.342  26.789  1.00  0.00     0.074 A 
ATOM     58  C   UNL A   1      47.346  24.946  26.447  1.00  0.00     0.031 C 
ATOM     59  C   UNL A   1      48.162  27.263  26.789  1.00  0.00     0.037 A 
BRANCH  46  60
ATOM     60  C   UNL A   1      46.338  32.960  28.377  1.00  0.00     0.058 A 
ATOM     61  C   UNL A   1      46.279  33.887  27.323  1.00  0.00     0.135 A 
ATOM     62  C   UNL A   1      46.726  33.436  29.641  1.00  0.00     0.135 A 
ATOM     63  F   UNL A   1      45.932  33.488  26.090  1.00  0.00    -0.206 F 
ATOM     64  C   UNL A   1      46.621  35.223  27.507  1.00  0.00     0.059 A 
ATOM     65  C   UNL A   1      47.041  34.775  29.855  1.00  0.00     0.059 A 
ATOM     66  F   UNL A   1      46.801  32.597  30.685  1.00  0.00    -0.206 F 
ATOM     67  C   UNL A   1      47.000  35.659  28.777  1.00  0.00     0.060 A 
BRANCH  67  68
ATOM     68  S   UNL A   1      47.433  37.396  28.999  1.00  0.00     0.124 S 
ATOM     69  O   UNL A   1      46.763  38.011  27.856  1.00  0.00    -0.237 OA
ATOM     70  O   UNL A   1      46.858  37.697  30.306  1.00  0.00    -0.237 OA
ATOM     71  O   UNL A   1      48.891  37.395  28.943  1.00  0.00    -0.744 OA
ENDBRANCH  67  68
ENDBRANCH  46  60
BRANCH  47  72
ATOM     72  C   UNL A   1      43.401  23.510  26.903  1.00  0.00     0.058 A 
ATOM     73  C   UNL A   1      43.186  23.037  25.599  1.00  0.00     0.135 A 
ATOM     74  C   UNL A   1      43.200  22.613  27.963  1.00  0.00     0.135 A 
ATOM     75  F   UNL A   1      43.358  23.858  24.551  1.00  0.00    -0.206 F 
ATOM     76  C   UNL A   1      42.768  21.732  25.355  1.00  0.00     0.059 A 
ATOM     77  C   UNL A   1      42.812  21.295  27.743  1.00  0.00     0.059 A 
ATOM     78  F   UNL A   1      43.409  23.009  29.228  1.00  0.00    -0.206 F 
ATOM     79  C   UNL A   1      42.586  20.868  26.436  1.00  0.00     0.060 A 
BRANCH  79  80
ATOM     80  S   UNL A   1      42.090  19.163  26.105  1.00  0.00     0.124 S 
ATOM     81  O   UNL A   1      42.404  18.513  27.372  1.00  0.00    -0.237 OA
ATOM     82  O   UNL A   1      40.670  19.313  25.798  1.00  0.00    -0.237 OA
ATOM     83  O   UNL A   1      42.930  18.782  24.974  1.00  0.00    -0.744 OA
ENDBRANCH  79  80
ENDBRANCH  47  72
BRANCH  59  84
ATOM     84  C   UNL A   1      49.544  26.780  26.436  1.00  0.00     0.058 A 
ATOM     85  C   UNL A   1      50.095  26.975  25.159  1.00  0.00     0.135 A 
ATOM     86  C   UNL A   1      50.336  26.128  27.396  1.00  0.00     0.135 A 
ATOM     87  F   UNL A   1      49.381  27.590  24.202  1.00  0.00    -0.206 F 
ATOM     88  C   UNL A   1      51.360  26.498  24.831  1.00  0.00     0.059 A 
ATOM     89  C   UNL A   1      51.617  25.674  27.101  1.00  0.00     0.059 A 
ATOM     90  F   UNL A   1      49.866  25.927  28.638  1.00  0.00    -0.206 F 
ATOM     91  C   UNL A   1      52.113  25.845  25.809  1.00  0.00     0.060 A 
BRANCH  91  92
ATOM     92  S   UNL A   1      53.752  25.229  25.371  1.00  0.00     0.124 S 
ATOM     93  O   UNL A   1      53.742  25.374  23.920  1.00  0.00    -0.237 OA
ATOM     94  O   UNL A   1      54.633  26.141  26.095  1.00  0.00    -0.237 OA
ATOM     95  O   UNL A   1      53.742  23.855  25.864  1.00  0.00    -0.744 OA
ENDBRANCH  91  92
ENDBRANCH  59  84
ENDBRANCH  33  34
ENDBRANCH  25  28
ENDBRANCH  23  24
ENDBRANCH  22  23
ENDBRANCH   1  22
TORSDOF 17
ENDMDL
