MODEL 1
REMARK VINA RESULT:     -11.5      0.000      0.000
REMARK SMILES C[NH+](C)[C@H]1CCN(C(=O)C(=O)c2ccccc2)C[C@H]1CCC(=O)NCCCCNC(=O)c1ccc(-c2c3nc(c(-c4c(F)cc(S(=O)(=O)[O-])cc4F)c4ccc([nH]4)c(-c4c(F)cc(S(=O)(=O)[O-])cc4F)c4nc(c(-c5c(F)cc(S(=O)(=O)[O-])cc5F)c5ccc2[nH]5)C=C4)C=C3)cc1
REMARK SMILES IDX 25 1 24 2 22 3 23 4 21 6 20 7 19 8 4 9 5 10 6 11 18 12 7 13
REMARK SMILES IDX 2 14 1 15 3 16 8 18 9 19 10 20 11 21 12 22 13 23 17 24 14 25
REMARK SMILES IDX 16 26 15 27 26 28 27 29 28 30 29 31 30 32 31 34 32 35 33 36
REMARK SMILES IDX 97 37 34 38 96 39 35 40 36 41 37 42 90 43 38 44 95 45 89 46
REMARK SMILES IDX 91 47 39 48 94 49 88 50 87 51 40 53 74 54 53 55 73 56 54 57
REMARK SMILES IDX 57 58 72 59 92 60 55 61 56 62 71 64 93 65 58 66 41 67 42 68
REMARK SMILES IDX 51 69 43 70 44 71 50 72 52 73 45 74 46 75 47 76 48 77 49 78
REMARK SMILES IDX 75 79 76 80 85 81 77 82 78 83 84 84 86 85 79 86 80 87 81 88
REMARK SMILES IDX 82 89 83 90 59 91 60 92 69 93 61 94 62 95 68 96 70 97 63 98
REMARK SMILES IDX 64 99 65 100 66 101 67 102
REMARK H PARENT 24 5 2 17 29 33 91 52 57 63
REMARK Flexibility Score: inf
ROOT
ATOM      1  C   UNL A   1      33.177  30.594  27.105  1.00  0.00     0.116 C 
ENDROOT
BRANCH   1   2
ATOM      2  N   UNL A   1      33.145  30.091  25.742  1.00  0.00    -0.356 N 
ATOM      3  C   UNL A   1      33.337  28.862  25.192  1.00  0.00     0.220 C 
ATOM      4  O   UNL A   1      33.231  28.778  23.965  1.00  0.00    -0.275 OA
ATOM      5  H   UNL A   1      32.944  30.787  25.077  1.00  0.00     0.163 HD
BRANCH   3   6
ATOM      6  C   UNL A   1      33.638  27.615  26.011  1.00  0.00     0.100 C 
BRANCH   6   7
ATOM      7  C   UNL A   1      33.275  26.280  25.343  1.00  0.00     0.021 C 
BRANCH   7   8
ATOM      8  C   UNL A   1      31.826  25.800  25.590  1.00  0.00     0.067 C 
ATOM      9  C   UNL A   1      30.882  25.703  24.336  1.00  0.00     0.190 C 
ATOM     10  C   UNL A   1      31.176  24.404  23.554  1.00  0.00     0.087 C 
ATOM     11  C   UNL A   1      31.103  23.186  24.457  1.00  0.00     0.126 C 
ATOM     12  C   UNL A   1      31.855  24.471  26.396  1.00  0.00     0.129 C 
ATOM     13  N   UNL A   1      32.048  23.299  25.546  1.00  0.00    -0.335 N 
BRANCH   9  14
ATOM     14  N   UNL A   1      30.869  26.921  23.467  1.00  0.00    -0.337 N 
ATOM     15  C   UNL A   1      29.538  27.544  23.400  1.00  0.00     0.332 C 
ATOM     16  C   UNL A   1      31.272  26.652  22.079  1.00  0.00     0.332 C 
ATOM     17  H   UNL A   1      31.543  27.545  23.911  1.00  0.00     0.347 HD
ENDBRANCH   9  14
BRANCH  13  18
ATOM     18  C   UNL A   1      32.914  22.222  25.765  1.00  0.00     0.294 C 
ATOM     19  O   UNL A   1      33.089  21.732  26.880  1.00  0.00    -0.265 OA
BRANCH  18  20
ATOM     20  C   UNL A   1      33.720  21.620  24.610  1.00  0.00     0.250 C 
ATOM     21  O   UNL A   1      34.562  22.296  24.028  1.00  0.00    -0.283 OA
BRANCH  20  22
ATOM     22  C   UNL A   1      33.575  20.165  24.300  1.00  0.00     0.028 A 
ATOM     23  C   UNL A   1      32.491  19.762  23.507  1.00  0.00     0.012 A 
ATOM     24  C   UNL A   1      34.498  19.204  24.733  1.00  0.00     0.012 A 
ATOM     25  C   UNL A   1      32.353  18.426  23.122  1.00  0.00     0.001 A 
ATOM     26  C   UNL A   1      34.356  17.867  24.346  1.00  0.00     0.001 A 
ATOM     27  C   UNL A   1      33.289  17.480  23.536  1.00  0.00     0.000 A 
ENDBRANCH  20  22
ENDBRANCH  18  20
ENDBRANCH  13  18
ENDBRANCH   7   8
ENDBRANCH   6   7
ENDBRANCH   3   6
ENDBRANCH   1   2
BRANCH   1  28
ATOM     28  C   UNL A   1      34.613  30.697  27.644  1.00  0.00     0.023 C 
BRANCH  28  29
ATOM     29  C   UNL A   1      35.019  32.105  28.067  1.00  0.00     0.023 C 
BRANCH  29  30
ATOM     30  C   UNL A   1      35.968  32.148  29.259  1.00  0.00     0.116 C 
BRANCH  30  31
ATOM     31  N   UNL A   1      35.753  31.085  30.233  1.00  0.00    -0.352 N 
ATOM     32  C   UNL A   1      36.685  30.159  30.674  1.00  0.00     0.251 C 
ATOM     33  H   UNL A   1      34.850  31.017  30.618  1.00  0.00     0.163 HD
ATOM     34  O   UNL A   1      36.390  29.280  31.457  1.00  0.00    -0.269 OA
BRANCH  32  35
ATOM     35  C   UNL A   1      38.051  30.257  30.109  1.00  0.00     0.039 A 
ATOM     36  C   UNL A   1      39.132  30.428  30.976  1.00  0.00     0.014 A 
ATOM     37  C   UNL A   1      38.253  29.988  28.753  1.00  0.00     0.014 A 
ATOM     38  C   UNL A   1      40.429  30.231  30.496  1.00  0.00     0.010 A 
ATOM     39  C   UNL A   1      39.538  29.716  28.301  1.00  0.00     0.010 A 
ATOM     40  C   UNL A   1      40.638  29.819  29.169  1.00  0.00    -0.014 A 
BRANCH  40  41
ATOM     41  C   UNL A   1      41.991  29.477  28.659  1.00  0.00     0.031 A 
ATOM     42  C   UNL A   1      42.274  28.076  28.192  1.00  0.00     0.074 A 
ATOM     43  C   UNL A   1      42.986  30.387  28.710  1.00  0.00     0.049 A 
ATOM     44  N   UNL A   1      43.413  27.533  27.850  1.00  0.00    -0.248 NA
ATOM     45  C   UNL A   1      41.128  27.153  28.144  1.00  0.00     0.031 C 
ATOM     46  C   UNL A   1      42.858  31.762  29.199  1.00  0.00     0.029 A 
ATOM     47  N   UNL A   1      44.310  30.284  28.362  1.00  0.00    -0.354 N 
ATOM     48  C   UNL A   1      43.127  26.199  27.581  1.00  0.00     0.074 A 
ATOM     49  C   UNL A   1      41.718  26.006  27.847  1.00  0.00     0.031 C 
ATOM     50  C   UNL A   1      44.048  32.379  29.098  1.00  0.00     0.029 A 
ATOM     51  C   UNL A   1      45.031  31.437  28.573  1.00  0.00     0.049 A 
ATOM     52  H   UNL A   1      44.707  29.462  27.995  1.00  0.00     0.167 HD
ATOM     53  C   UNL A   1      43.956  25.229  27.131  1.00  0.00     0.037 A 
ATOM     54  C   UNL A   1      46.337  31.703  28.368  1.00  0.00     0.037 A 
ATOM     55  C   UNL A   1      45.343  25.437  26.814  1.00  0.00     0.049 A 
ATOM     56  C   UNL A   1      47.228  30.623  27.816  1.00  0.00     0.074 A 
ATOM     57  C   UNL A   1      46.252  24.535  26.289  1.00  0.00     0.029 A 
ATOM     58  N   UNL A   1      46.018  26.638  26.977  1.00  0.00    -0.354 N 
ATOM     59  N   UNL A   1      46.930  29.380  27.521  1.00  0.00    -0.248 NA
ATOM     60  C   UNL A   1      48.630  30.982  27.560  1.00  0.00     0.031 C 
ATOM     61  C   UNL A   1      47.483  25.187  26.154  1.00  0.00     0.029 A 
ATOM     62  C   UNL A   1      47.332  26.501  26.565  1.00  0.00     0.049 A 
ATOM     63  H   UNL A   1      45.621  27.465  27.336  1.00  0.00     0.167 HD
ATOM     64  C   UNL A   1      48.098  28.817  27.019  1.00  0.00     0.074 A 
ATOM     65  C   UNL A   1      49.107  29.856  27.045  1.00  0.00     0.031 C 
ATOM     66  C   UNL A   1      48.315  27.555  26.576  1.00  0.00     0.037 A 
BRANCH  53  67
ATOM     67  C   UNL A   1      43.372  23.857  26.943  1.00  0.00     0.058 A 
ATOM     68  C   UNL A   1      43.009  23.383  25.671  1.00  0.00     0.135 A 
ATOM     69  C   UNL A   1      43.175  23.006  28.041  1.00  0.00     0.135 A 
ATOM     70  F   UNL A   1      43.160  24.165  24.590  1.00  0.00    -0.206 F 
ATOM     71  C   UNL A   1      42.433  22.129  25.501  1.00  0.00     0.059 A 
ATOM     72  C   UNL A   1      42.626  21.737  27.890  1.00  0.00     0.059 A 
ATOM     73  F   UNL A   1      43.505  23.411  29.278  1.00  0.00    -0.206 F 
ATOM     74  C   UNL A   1      42.240  21.315  26.618  1.00  0.00     0.060 A 
BRANCH  74  75
ATOM     75  S   UNL A   1      41.477  19.697  26.386  1.00  0.00     0.124 S 
ATOM     76  O   UNL A   1      41.660  19.099  27.704  1.00  0.00    -0.237 OA
ATOM     77  O   UNL A   1      40.104  20.043  26.033  1.00  0.00    -0.237 OA
ATOM     78  O   UNL A   1      42.266  19.102  25.310  1.00  0.00    -0.744 OA
ENDBRANCH  74  75
ENDBRANCH  53  67
BRANCH  54  79
ATOM     79  C   UNL A   1      46.876  33.058  28.653  1.00  0.00     0.058 A 
ATOM     80  C   UNL A   1      46.878  34.051  27.661  1.00  0.00     0.135 A 
ATOM     81  C   UNL A   1      47.394  33.393  29.913  1.00  0.00     0.135 A 
ATOM     82  F   UNL A   1      46.398  33.777  26.438  1.00  0.00    -0.206 F 
ATOM     83  C   UNL A   1      47.388  35.323  27.902  1.00  0.00     0.059 A 
ATOM     84  C   UNL A   1      47.891  34.664  30.184  1.00  0.00     0.059 A 
ATOM     85  F   UNL A   1      47.400  32.483  30.899  1.00  0.00    -0.206 F 
ATOM     86  C   UNL A   1      47.893  35.620  29.168  1.00  0.00     0.060 A 
BRANCH  86  87
ATOM     87  S   UNL A   1      48.509  37.288  29.487  1.00  0.00     0.124 S 
ATOM     88  O   UNL A   1      49.007  37.161  30.851  1.00  0.00    -0.237 OA
ATOM     89  O   UNL A   1      49.524  37.446  28.448  1.00  0.00    -0.237 OA
ATOM     90  O   UNL A   1      47.320  38.119  29.321  1.00  0.00    -0.744 OA
ENDBRANCH  86  87
ENDBRANCH  54  79
BRANCH  66  91
ATOM     91  C   UNL A   1      49.680  27.232  26.041  1.00  0.00     0.058 A 
ATOM     92  C   UNL A   1      50.725  26.827  26.884  1.00  0.00     0.135 A 
ATOM     93  C   UNL A   1      49.922  27.263  24.658  1.00  0.00     0.135 A 
ATOM     94  F   UNL A   1      50.544  26.788  28.213  1.00  0.00    -0.206 F 
ATOM     95  C   UNL A   1      51.969  26.472  26.374  1.00  0.00     0.059 A 
ATOM     96  C   UNL A   1      51.152  26.893  24.125  1.00  0.00     0.059 A 
ATOM     97  F   UNL A   1      48.951  27.636  23.810  1.00  0.00    -0.206 F 
ATOM     98  C   UNL A   1      52.173  26.506  24.993  1.00  0.00     0.060 A 
BRANCH  98  99
ATOM     99  S   UNL A   1      53.775  25.994  24.338  1.00  0.00     0.124 S 
ATOM    100  O   UNL A   1      53.606  26.255  22.913  1.00  0.00    -0.237 OA
ATOM    101  O   UNL A   1      54.700  26.880  25.039  1.00  0.00    -0.237 OA
ATOM    102  O   UNL A   1      53.861  24.586  24.714  1.00  0.00    -0.744 OA
ENDBRANCH  98  99
ENDBRANCH  66  91
ENDBRANCH  40  41
ENDBRANCH  32  35
ENDBRANCH  30  31
ENDBRANCH  29  30
ENDBRANCH  28  29
ENDBRANCH   1  28
TORSDOF 20
ENDMDL
MODEL 2
REMARK VINA RESULT:     -11.4      0.865      8.011
REMARK SMILES C[NH+](C)[C@H]1CCN(C(=O)C(=O)c2ccccc2)C[C@H]1CCC(=O)NCCCCNC(=O)c1ccc(-c2c3nc(c(-c4c(F)cc(S(=O)(=O)[O-])cc4F)c4ccc([nH]4)c(-c4c(F)cc(S(=O)(=O)[O-])cc4F)c4nc(c(-c5c(F)cc(S(=O)(=O)[O-])cc5F)c5ccc2[nH]5)C=C4)C=C3)cc1
REMARK SMILES IDX 25 1 24 2 22 3 23 4 21 6 20 7 19 8 4 9 5 10 6 11 18 12 7 13
REMARK SMILES IDX 2 14 1 15 3 16 8 18 9 19 10 20 11 21 12 22 13 23 17 24 14 25
REMARK SMILES IDX 16 26 15 27 26 28 27 29 28 30 29 31 30 32 31 34 32 35 33 36
REMARK SMILES IDX 97 37 34 38 96 39 35 40 36 41 37 42 90 43 38 44 95 45 89 46
REMARK SMILES IDX 91 47 39 48 94 49 88 50 87 51 40 53 74 54 53 55 73 56 54 57
REMARK SMILES IDX 57 58 72 59 92 60 55 61 56 62 71 64 93 65 58 66 41 67 42 68
REMARK SMILES IDX 51 69 43 70 44 71 50 72 52 73 45 74 46 75 47 76 48 77 49 78
REMARK SMILES IDX 75 79 76 80 85 81 77 82 78 83 84 84 86 85 79 86 80 87 81 88
REMARK SMILES IDX 82 89 83 90 59 91 60 92 69 93 61 94 62 95 68 96 70 97 63 98
REMARK SMILES IDX 64 99 65 100 66 101 67 102
REMARK H PARENT 24 5 2 17 29 33 91 52 57 63
REMARK Flexibility Score: inf
ROOT
ATOM      1  C   UNL A   1      34.210  30.854  27.480  1.00  0.00     0.116 C 
ENDROOT
BRANCH   1   2
ATOM      2  N   UNL A   1      33.066  30.603  26.621  1.00  0.00    -0.356 N 
ATOM      3  C   UNL A   1      32.808  29.690  25.646  1.00  0.00     0.220 C 
ATOM      4  O   UNL A   1      31.702  29.753  25.101  1.00  0.00    -0.275 OA
ATOM      5  H   UNL A   1      32.319  31.224  26.777  1.00  0.00     0.163 HD
BRANCH   3   6
ATOM      6  C   UNL A   1      33.792  28.604  25.234  1.00  0.00     0.100 C 
BRANCH   6   7
ATOM      7  C   UNL A   1      33.217  27.492  24.344  1.00  0.00     0.021 C 
BRANCH   7   8
ATOM      8  C   UNL A   1      32.217  26.545  25.048  1.00  0.00     0.067 C 
ATOM      9  C   UNL A   1      30.878  26.226  24.288  1.00  0.00     0.190 C 
ATOM     10  C   UNL A   1      31.128  25.153  23.206  1.00  0.00     0.087 C 
ATOM     11  C   UNL A   1      31.793  23.922  23.793  1.00  0.00     0.126 C 
ATOM     12  C   UNL A   1      32.956  25.249  25.485  1.00  0.00     0.129 C 
ATOM     13  N   UNL A   1      33.056  24.266  24.408  1.00  0.00    -0.335 N 
BRANCH   9  14
ATOM     14  N   UNL A   1      30.153  27.428  23.766  1.00  0.00    -0.337 N 
ATOM     15  C   UNL A   1      28.703  27.205  23.667  1.00  0.00     0.332 C 
ATOM     16  C   UNL A   1      30.603  27.845  22.430  1.00  0.00     0.332 C 
ATOM     17  H   UNL A   1      30.367  28.157  24.448  1.00  0.00     0.347 HD
ENDBRANCH   9  14
BRANCH  13  18
ATOM     18  C   UNL A   1      34.181  23.522  24.037  1.00  0.00     0.294 C 
ATOM     19  O   UNL A   1      34.773  23.709  22.975  1.00  0.00    -0.265 OA
BRANCH  18  20
ATOM     20  C   UNL A   1      34.708  22.401  24.936  1.00  0.00     0.250 C 
ATOM     21  O   UNL A   1      35.395  22.668  25.917  1.00  0.00    -0.283 OA
BRANCH  20  22
ATOM     22  C   UNL A   1      34.257  20.997  24.692  1.00  0.00     0.028 A 
ATOM     23  C   UNL A   1      32.951  20.792  24.224  1.00  0.00     0.012 A 
ATOM     24  C   UNL A   1      35.099  19.891  24.871  1.00  0.00     0.012 A 
ATOM     25  C   UNL A   1      32.507  19.507  23.905  1.00  0.00     0.001 A 
ATOM     26  C   UNL A   1      34.649  18.605  24.551  1.00  0.00     0.001 A 
ATOM     27  C   UNL A   1      33.358  18.415  24.062  1.00  0.00     0.000 A 
ENDBRANCH  20  22
ENDBRANCH  18  20
ENDBRANCH  13  18
ENDBRANCH   7   8
ENDBRANCH   6   7
ENDBRANCH   3   6
ENDBRANCH   1   2
BRANCH   1  28
ATOM     28  C   UNL A   1      34.248  32.310  27.970  1.00  0.00     0.023 C 
BRANCH  28  29
ATOM     29  C   UNL A   1      35.656  32.856  28.191  1.00  0.00     0.023 C 
BRANCH  29  30
ATOM     30  C   UNL A   1      36.130  32.792  29.637  1.00  0.00     0.116 C 
BRANCH  30  31
ATOM     31  N   UNL A   1      35.673  31.613  30.364  1.00  0.00    -0.352 N 
ATOM     32  C   UNL A   1      36.409  30.473  30.647  1.00  0.00     0.251 C 
ATOM     33  H   UNL A   1      34.744  31.628  30.688  1.00  0.00     0.163 HD
ATOM     34  O   UNL A   1      35.917  29.523  31.221  1.00  0.00    -0.269 OA
BRANCH  32  35
ATOM     35  C   UNL A   1      37.812  30.442  30.173  1.00  0.00     0.039 A 
ATOM     36  C   UNL A   1      38.844  30.566  31.105  1.00  0.00     0.014 A 
ATOM     37  C   UNL A   1      38.080  30.102  28.845  1.00  0.00     0.014 A 
ATOM     38  C   UNL A   1      40.150  30.251  30.723  1.00  0.00     0.010 A 
ATOM     39  C   UNL A   1      39.367  29.714  28.492  1.00  0.00     0.010 A 
ATOM     40  C   UNL A   1      40.412  29.768  29.430  1.00  0.00    -0.014 A 
BRANCH  40  41
ATOM     41  C   UNL A   1      41.765  29.303  29.026  1.00  0.00     0.031 A 
ATOM     42  C   UNL A   1      42.894  30.293  28.948  1.00  0.00     0.074 A 
ATOM     43  C   UNL A   1      41.956  28.027  28.635  1.00  0.00     0.049 A 
ATOM     44  N   UNL A   1      44.105  30.131  28.483  1.00  0.00    -0.248 NA
ATOM     45  C   UNL A   1      42.608  31.659  29.416  1.00  0.00     0.031 C 
ATOM     46  C   UNL A   1      40.929  26.982  28.605  1.00  0.00     0.029 A 
ATOM     47  N   UNL A   1      43.082  27.394  28.168  1.00  0.00    -0.354 N 
ATOM     48  C   UNL A   1      44.712  31.378  28.570  1.00  0.00     0.074 A 
ATOM     49  C   UNL A   1      43.720  32.296  29.087  1.00  0.00     0.031 C 
ATOM     50  C   UNL A   1      41.477  25.836  28.167  1.00  0.00     0.029 A 
ATOM     51  C   UNL A   1      42.883  26.070  27.850  1.00  0.00     0.049 A 
ATOM     52  H   UNL A   1      43.950  27.845  28.070  1.00  0.00     0.167 HD
ATOM     53  C   UNL A   1      45.986  31.724  28.271  1.00  0.00     0.037 A 
ATOM     54  C   UNL A   1      43.736  25.150  27.356  1.00  0.00     0.037 A 
ATOM     55  C   UNL A   1      46.985  30.797  27.811  1.00  0.00     0.049 A 
ATOM     56  C   UNL A   1      45.162  25.545  27.082  1.00  0.00     0.074 A 
ATOM     57  C   UNL A   1      48.322  31.035  27.543  1.00  0.00     0.029 A 
ATOM     58  N   UNL A   1      46.760  29.451  27.567  1.00  0.00    -0.354 N 
ATOM     59  N   UNL A   1      45.732  26.719  27.217  1.00  0.00    -0.248 NA
ATOM     60  C   UNL A   1      46.064  24.491  26.596  1.00  0.00     0.031 C 
ATOM     61  C   UNL A   1      48.900  29.834  27.117  1.00  0.00     0.029 A 
ATOM     62  C   UNL A   1      47.932  28.844  27.150  1.00  0.00     0.049 A 
ATOM     63  H   UNL A   1      45.894  28.994  27.673  1.00  0.00     0.167 HD
ATOM     64  C   UNL A   1      47.064  26.538  26.860  1.00  0.00     0.074 A 
ATOM     65  C   UNL A   1      47.217  25.141  26.509  1.00  0.00     0.031 C 
ATOM     66  C   UNL A   1      48.069  27.446  26.828  1.00  0.00     0.037 A 
BRANCH  53  67
ATOM     67  C   UNL A   1      46.368  33.166  28.449  1.00  0.00     0.058 A 
ATOM     68  C   UNL A   1      46.253  34.091  27.397  1.00  0.00     0.135 A 
ATOM     69  C   UNL A   1      46.852  33.631  29.681  1.00  0.00     0.135 A 
ATOM     70  F   UNL A   1      45.813  33.692  26.192  1.00  0.00    -0.206 F 
ATOM     71  C   UNL A   1      46.642  35.416  27.550  1.00  0.00     0.059 A 
ATOM     72  C   UNL A   1      47.221  34.960  29.865  1.00  0.00     0.059 A 
ATOM     73  F   UNL A   1      46.982  32.789  30.718  1.00  0.00    -0.206 F 
ATOM     74  C   UNL A   1      47.131  35.840  28.786  1.00  0.00     0.060 A 
BRANCH  74  75
ATOM     75  S   UNL A   1      47.648  37.559  28.967  1.00  0.00     0.124 S 
ATOM     76  O   UNL A   1      49.093  37.446  28.797  1.00  0.00    -0.237 OA
ATOM     77  O   UNL A   1      46.933  38.220  27.880  1.00  0.00    -0.237 OA
ATOM     78  O   UNL A   1      47.198  37.909  30.312  1.00  0.00    -0.744 OA
ENDBRANCH  74  75
ENDBRANCH  53  67
BRANCH  54  79
ATOM     79  C   UNL A   1      43.277  23.756  27.122  1.00  0.00     0.058 A 
ATOM     80  C   UNL A   1      43.025  23.295  25.821  1.00  0.00     0.135 A 
ATOM     81  C   UNL A   1      43.085  22.858  28.182  1.00  0.00     0.135 A 
ATOM     82  F   UNL A   1      43.188  24.119  24.774  1.00  0.00    -0.206 F 
ATOM     83  C   UNL A   1      42.584  21.997  25.578  1.00  0.00     0.059 A 
ATOM     84  C   UNL A   1      42.664  21.549  27.964  1.00  0.00     0.059 A 
ATOM     85  F   UNL A   1      43.327  23.246  29.443  1.00  0.00    -0.206 F 
ATOM     86  C   UNL A   1      42.406  21.132  26.658  1.00  0.00     0.060 A 
BRANCH  86  87
ATOM     87  S   UNL A   1      41.879  19.435  26.331  1.00  0.00     0.124 S 
ATOM     88  O   UNL A   1      40.429  19.581  26.293  1.00  0.00    -0.237 OA
ATOM     89  O   UNL A   1      42.527  19.151  25.054  1.00  0.00    -0.237 OA
ATOM     90  O   UNL A   1      42.411  18.696  27.472  1.00  0.00    -0.744 OA
ENDBRANCH  86  87
ENDBRANCH  54  79
BRANCH  66  91
ATOM     91  C   UNL A   1      49.435  26.956  26.443  1.00  0.00     0.058 A 
ATOM     92  C   UNL A   1      50.329  26.444  27.394  1.00  0.00     0.135 A 
ATOM     93  C   UNL A   1      49.824  26.936  25.093  1.00  0.00     0.135 A 
ATOM     94  F   UNL A   1      50.005  26.449  28.697  1.00  0.00    -0.206 F 
ATOM     95  C   UNL A   1      51.569  25.937  27.023  1.00  0.00     0.059 A 
ATOM     96  C   UNL A   1      51.051  26.414  24.697  1.00  0.00     0.059 A 
ATOM     97  F   UNL A   1      49.000  27.406  24.145  1.00  0.00    -0.206 F 
ATOM     98  C   UNL A   1      51.921  25.924  25.672  1.00  0.00     0.060 A 
BRANCH  98  99
ATOM     99  S   UNL A   1      53.511  25.217  25.194  1.00  0.00     0.124 S 
ATOM    100  O   UNL A   1      53.208  23.789  25.192  1.00  0.00    -0.237 OA
ATOM    101  O   UNL A   1      53.743  25.817  23.884  1.00  0.00    -0.237 OA
ATOM    102  O   UNL A   1      54.414  25.666  26.250  1.00  0.00    -0.744 OA
ENDBRANCH  98  99
ENDBRANCH  66  91
ENDBRANCH  40  41
ENDBRANCH  32  35
ENDBRANCH  30  31
ENDBRANCH  29  30
ENDBRANCH  28  29
ENDBRANCH   1  28
TORSDOF 20
ENDMDL
MODEL 3
REMARK VINA RESULT:     -11.1      6.355      9.066
REMARK SMILES C[NH+](C)[C@H]1CCN(C(=O)C(=O)c2ccccc2)C[C@H]1CCC(=O)NCCCCNC(=O)c1ccc(-c2c3nc(c(-c4c(F)cc(S(=O)(=O)[O-])cc4F)c4ccc([nH]4)c(-c4c(F)cc(S(=O)(=O)[O-])cc4F)c4nc(c(-c5c(F)cc(S(=O)(=O)[O-])cc5F)c5ccc2[nH]5)C=C4)C=C3)cc1
REMARK SMILES IDX 25 1 24 2 22 3 23 4 21 6 20 7 19 8 4 9 5 10 6 11 18 12 7 13
REMARK SMILES IDX 2 14 1 15 3 16 8 18 9 19 10 20 11 21 12 22 13 23 17 24 14 25
REMARK SMILES IDX 16 26 15 27 26 28 27 29 28 30 29 31 30 32 31 34 32 35 33 36
REMARK SMILES IDX 97 37 34 38 96 39 35 40 36 41 37 42 90 43 38 44 95 45 89 46
REMARK SMILES IDX 91 47 39 48 94 49 88 50 87 51 40 53 74 54 53 55 73 56 54 57
REMARK SMILES IDX 57 58 72 59 92 60 55 61 56 62 71 64 93 65 58 66 41 67 42 68
REMARK SMILES IDX 51 69 43 70 44 71 50 72 52 73 45 74 46 75 47 76 48 77 49 78
REMARK SMILES IDX 75 79 76 80 85 81 77 82 78 83 84 84 86 85 79 86 80 87 81 88
REMARK SMILES IDX 82 89 83 90 59 91 60 92 69 93 61 94 62 95 68 96 70 97 63 98
REMARK SMILES IDX 64 99 65 100 66 101 67 102
REMARK H PARENT 24 5 2 17 29 33 91 52 57 63
REMARK Flexibility Score: inf
ROOT
ATOM      1  C   UNL A   1      34.466  29.061  27.338  1.00  0.00     0.116 C 
ENDROOT
BRANCH   1   2
ATOM      2  N   UNL A   1      33.048  28.962  27.637  1.00  0.00    -0.356 N 
ATOM      3  C   UNL A   1      32.157  27.935  27.627  1.00  0.00     0.220 C 
ATOM      4  O   UNL A   1      30.995  28.201  27.948  1.00  0.00    -0.275 OA
ATOM      5  H   UNL A   1      32.647  29.821  27.902  1.00  0.00     0.163 HD
BRANCH   3   6
ATOM      6  C   UNL A   1      32.533  26.502  27.275  1.00  0.00     0.100 C 
BRANCH   6   7
ATOM      7  C   UNL A   1      32.467  26.147  25.783  1.00  0.00     0.021 C 
BRANCH   7   8
ATOM      8  C   UNL A   1      33.324  24.930  25.363  1.00  0.00     0.067 C 
ATOM      9  C   UNL A   1      32.579  23.558  25.180  1.00  0.00     0.190 C 
ATOM     10  C   UNL A   1      31.867  23.524  23.810  1.00  0.00     0.087 C 
ATOM     11  C   UNL A   1      32.828  23.841  22.679  1.00  0.00     0.126 C 
ATOM     12  C   UNL A   1      34.167  25.302  24.111  1.00  0.00     0.129 C 
ATOM     13  N   UNL A   1      33.422  25.147  22.863  1.00  0.00    -0.335 N 
BRANCH   9  14
ATOM     14  N   UNL A   1      31.683  23.176  26.317  1.00  0.00    -0.337 N 
ATOM     15  C   UNL A   1      32.428  22.585  27.438  1.00  0.00     0.332 C 
ATOM     16  C   UNL A   1      30.649  22.200  25.942  1.00  0.00     0.332 C 
ATOM     17  H   UNL A   1      31.247  24.057  26.591  1.00  0.00     0.347 HD
ENDBRANCH   9  14
BRANCH  13  18
ATOM     18  C   UNL A   1      33.367  26.040  21.788  1.00  0.00     0.294 C 
ATOM     19  O   UNL A   1      33.271  25.663  20.621  1.00  0.00    -0.265 OA
BRANCH  18  20
ATOM     20  C   UNL A   1      33.462  27.551  22.022  1.00  0.00     0.250 C 
ATOM     21  O   UNL A   1      34.375  28.197  21.517  1.00  0.00    -0.283 OA
BRANCH  20  22
ATOM     22  C   UNL A   1      32.355  28.248  22.744  1.00  0.00     0.028 A 
ATOM     23  C   UNL A   1      31.034  27.946  22.383  1.00  0.00     0.012 A 
ATOM     24  C   UNL A   1      32.586  29.152  23.789  1.00  0.00     0.012 A 
ATOM     25  C   UNL A   1      29.962  28.509  23.080  1.00  0.00     0.001 A 
ATOM     26  C   UNL A   1      31.510  29.715  24.484  1.00  0.00     0.001 A 
ATOM     27  C   UNL A   1      30.201  29.389  24.134  1.00  0.00     0.000 A 
ENDBRANCH  20  22
ENDBRANCH  18  20
ENDBRANCH  13  18
ENDBRANCH   7   8
ENDBRANCH   6   7
ENDBRANCH   3   6
ENDBRANCH   1   2
BRANCH   1  28
ATOM     28  C   UNL A   1      34.987  30.497  27.502  1.00  0.00     0.023 C 
BRANCH  28  29
ATOM     29  C   UNL A   1      33.893  31.531  27.748  1.00  0.00     0.023 C 
BRANCH  29  30
ATOM     30  C   UNL A   1      34.370  32.976  27.665  1.00  0.00     0.116 C 
BRANCH  30  31
ATOM     31  N   UNL A   1      33.382  33.957  28.101  1.00  0.00    -0.352 N 
ATOM     32  C   UNL A   1      33.346  34.615  29.320  1.00  0.00     0.251 C 
ATOM     33  H   UNL A   1      32.665  34.174  27.463  1.00  0.00     0.163 HD
ATOM     34  O   UNL A   1      32.450  35.382  29.604  1.00  0.00    -0.269 OA
BRANCH  32  35
ATOM     35  C   UNL A   1      34.426  34.304  30.287  1.00  0.00     0.039 A 
ATOM     36  C   UNL A   1      34.194  33.345  31.275  1.00  0.00     0.014 A 
ATOM     37  C   UNL A   1      35.704  34.828  30.079  1.00  0.00     0.014 A 
ATOM     38  C   UNL A   1      35.275  32.836  31.997  1.00  0.00     0.010 A 
ATOM     39  C   UNL A   1      36.784  34.261  30.745  1.00  0.00     0.010 A 
ATOM     40  C   UNL A   1      36.584  33.249  31.699  1.00  0.00    -0.014 A 
BRANCH  40  41
ATOM     41  C   UNL A   1      37.767  32.638  32.357  1.00  0.00     0.031 A 
ATOM     42  C   UNL A   1      38.474  31.489  31.691  1.00  0.00     0.074 A 
ATOM     43  C   UNL A   1      38.143  33.040  33.589  1.00  0.00     0.049 A 
ATOM     44  N   UNL A   1      39.427  30.724  32.154  1.00  0.00    -0.248 NA
ATOM     45  C   UNL A   1      38.018  31.130  30.338  1.00  0.00     0.031 C 
ATOM     46  C   UNL A   1      37.503  34.101  34.370  1.00  0.00     0.029 A 
ATOM     47  N   UNL A   1      39.148  32.588  34.409  1.00  0.00    -0.354 N 
ATOM     48  C   UNL A   1      39.658  29.772  31.167  1.00  0.00     0.074 A 
ATOM     49  C   UNL A   1      38.714  30.029  30.102  1.00  0.00     0.031 C 
ATOM     50  C   UNL A   1      38.144  34.233  35.544  1.00  0.00     0.029 A 
ATOM     51  C   UNL A   1      39.216  33.244  35.617  1.00  0.00     0.049 A 
ATOM     52  H   UNL A   1      39.762  31.862  34.157  1.00  0.00     0.167 HD
ATOM     53  C   UNL A   1      40.589  28.790  31.140  1.00  0.00     0.037 A 
ATOM     54  C   UNL A   1      40.046  33.067  36.664  1.00  0.00     0.037 A 
ATOM     55  C   UNL A   1      41.563  28.573  32.175  1.00  0.00     0.049 A 
ATOM     56  C   UNL A   1      41.108  32.003  36.587  1.00  0.00     0.074 A 
ATOM     57  C   UNL A   1      42.590  27.646  32.210  1.00  0.00     0.029 A 
ATOM     58  N   UNL A   1      41.641  29.304  33.350  1.00  0.00    -0.354 N 
ATOM     59  N   UNL A   1      41.344  31.144  35.624  1.00  0.00    -0.248 NA
ATOM     60  C   UNL A   1      42.021  31.888  37.733  1.00  0.00     0.031 C 
ATOM     61  C   UNL A   1      43.278  27.805  33.419  1.00  0.00     0.029 A 
ATOM     62  C   UNL A   1      42.698  28.849  34.120  1.00  0.00     0.049 A 
ATOM     63  H   UNL A   1      41.033  30.037  33.602  1.00  0.00     0.167 HD
ATOM     64  C   UNL A   1      42.449  30.406  36.036  1.00  0.00     0.074 A 
ATOM     65  C   UNL A   1      42.838  30.923  37.331  1.00  0.00     0.031 C 
ATOM     66  C   UNL A   1      43.084  29.394  35.397  1.00  0.00     0.037 A 
BRANCH  53  67
ATOM     67  C   UNL A   1      40.600  27.887  29.938  1.00  0.00     0.058 A 
ATOM     68  C   UNL A   1      39.638  26.877  29.770  1.00  0.00     0.135 A 
ATOM     69  C   UNL A   1      41.579  28.032  28.944  1.00  0.00     0.135 A 
ATOM     70  F   UNL A   1      38.691  26.685  30.703  1.00  0.00    -0.206 F 
ATOM     71  C   UNL A   1      39.671  26.017  28.679  1.00  0.00     0.059 A 
ATOM     72  C   UNL A   1      41.615  27.200  27.829  1.00  0.00     0.059 A 
ATOM     73  F   UNL A   1      42.522  28.981  29.056  1.00  0.00    -0.206 F 
ATOM     74  C   UNL A   1      40.667  26.183  27.716  1.00  0.00     0.060 A 
BRANCH  74  75
ATOM     75  S   UNL A   1      40.709  25.050  26.313  1.00  0.00     0.124 S 
ATOM     76  O   UNL A   1      41.556  23.980  26.829  1.00  0.00    -0.237 OA
ATOM     77  O   UNL A   1      39.300  24.712  26.138  1.00  0.00    -0.237 OA
ATOM     78  O   UNL A   1      41.293  25.855  25.244  1.00  0.00    -0.744 OA
ENDBRANCH  74  75
ENDBRANCH  53  67
BRANCH  54  79
ATOM     79  C   UNL A   1      39.932  33.939  37.863  1.00  0.00     0.058 A 
ATOM     80  C   UNL A   1      39.007  33.646  38.876  1.00  0.00     0.135 A 
ATOM     81  C   UNL A   1      40.741  35.073  38.025  1.00  0.00     0.135 A 
ATOM     82  F   UNL A   1      38.206  32.575  38.763  1.00  0.00    -0.206 F 
ATOM     83  C   UNL A   1      38.875  34.453  40.001  1.00  0.00     0.059 A 
ATOM     84  C   UNL A   1      40.643  35.885  39.151  1.00  0.00     0.059 A 
ATOM     85  F   UNL A   1      41.652  35.387  37.092  1.00  0.00    -0.206 F 
ATOM     86  C   UNL A   1      39.699  35.573  40.129  1.00  0.00     0.060 A 
BRANCH  86  87
ATOM     87  S   UNL A   1      39.555  36.590  41.615  1.00  0.00     0.124 S 
ATOM     88  O   UNL A   1      38.561  35.848  42.382  1.00  0.00    -0.237 OA
ATOM     89  O   UNL A   1      40.917  36.564  42.140  1.00  0.00    -0.237 OA
ATOM     90  O   UNL A   1      39.118  37.881  41.093  1.00  0.00    -0.744 OA
ENDBRANCH  86  87
ENDBRANCH  54  79
BRANCH  66  91
ATOM     91  C   UNL A   1      44.293  28.803  36.063  1.00  0.00     0.058 A 
ATOM     92  C   UNL A   1      45.574  29.340  35.872  1.00  0.00     0.135 A 
ATOM     93  C   UNL A   1      44.153  27.730  36.958  1.00  0.00     0.135 A 
ATOM     94  F   UNL A   1      45.759  30.362  35.022  1.00  0.00    -0.206 F 
ATOM     95  C   UNL A   1      46.681  28.825  36.539  1.00  0.00     0.059 A 
ATOM     96  C   UNL A   1      45.243  27.214  37.651  1.00  0.00     0.059 A 
ATOM     97  F   UNL A   1      42.946  27.188  37.181  1.00  0.00    -0.206 F 
ATOM     98  C   UNL A   1      46.506  27.764  37.428  1.00  0.00     0.060 A 
BRANCH  98  99
ATOM     99  S   UNL A   1      47.940  27.137  38.328  1.00  0.00     0.124 S 
ATOM    100  O   UNL A   1      48.626  26.375  37.290  1.00  0.00    -0.237 OA
ATOM    101  O   UNL A   1      48.603  28.363  38.757  1.00  0.00    -0.237 OA
ATOM    102  O   UNL A   1      47.347  26.344  39.401  1.00  0.00    -0.744 OA
ENDBRANCH  98  99
ENDBRANCH  66  91
ENDBRANCH  40  41
ENDBRANCH  32  35
ENDBRANCH  30  31
ENDBRANCH  29  30
ENDBRANCH  28  29
ENDBRANCH   1  28
TORSDOF 20
ENDMDL
