MODEL 1
REMARK VINA RESULT:     -11.3      0.000      0.000
REMARK SMILES Nc1c(CC(=O)NCCCCNC(=O)c2ccc(-c3c4nc(c(-c5c(F)cc(S(=O)(=O)[O-])cc5F)c5ccc([nH]5)c(-c5c(F)cc(S(=O)(=O)[O-])cc5F)c5nc(c(-c6c(F)cc(S(=O)(=O)[O-])cc6F)c6ccc3[nH]6)C=C5)C=C4)cc2)cccc1C(=O)c1ccc(Br)cc1
REMARK SMILES IDX 9 1 8 2 7 3 5 4 6 5 4 7 3 8 2 9 84 10 81 11 83 12 82 13 1 14
REMARK SMILES IDX 85 17 86 18 87 19 88 20 93 21 89 22 92 23 90 24 91 25 10 26
REMARK SMILES IDX 11 27 12 28 13 29 14 31 15 32 16 33 80 34 17 35 79 36 18 37
REMARK SMILES IDX 19 38 20 39 73 40 21 41 78 42 72 43 74 44 22 45 77 46 71 47
REMARK SMILES IDX 70 48 23 50 57 51 36 52 56 53 37 54 40 55 55 56 75 57 38 58
REMARK SMILES IDX 39 59 54 61 76 62 41 63 24 64 25 65 34 66 26 67 27 68 33 69
REMARK SMILES IDX 35 70 28 71 29 72 30 73 31 74 32 75 58 76 59 77 68 78 60 79
REMARK SMILES IDX 61 80 67 81 69 82 62 83 63 84 64 85 65 86 66 87 42 88 43 89
REMARK SMILES IDX 52 90 44 91 45 92 51 93 53 94 46 95 47 96 48 97 49 98 50 99
REMARK H PARENT 7 6 1 15 1 16 12 30 74 49 40 60
REMARK Flexibility Score: inf
ROOT
ATOM      1  C   UNL A   1      32.932  29.119  24.704  1.00  0.00     0.023 C 
ENDROOT
BRANCH   1   2
ATOM      2  C   UNL A   1      31.419  29.251  24.878  1.00  0.00     0.116 C 
BRANCH   2   3
ATOM      3  N   UNL A   1      30.767  29.614  23.637  1.00  0.00    -0.356 N 
ATOM      4  C   UNL A   1      30.083  28.819  22.763  1.00  0.00     0.224 C 
ATOM      5  O   UNL A   1      29.665  29.323  21.717  1.00  0.00    -0.275 OA
ATOM      6  H   UNL A   1      30.824  30.565  23.389  1.00  0.00     0.163 HD
BRANCH   4   7
ATOM      7  C   UNL A   1      29.777  27.370  23.106  1.00  0.00     0.137 C 
BRANCH   7   8
ATOM      8  C   UNL A   1      30.944  26.411  22.933  1.00  0.00    -0.015 A 
ATOM      9  C   UNL A   1      31.231  25.369  23.858  1.00  0.00     0.046 A 
ATOM     10  C   UNL A   1      32.403  24.590  23.669  1.00  0.00     0.046 A 
ATOM     11  C   UNL A   1      31.792  26.627  21.831  1.00  0.00     0.006 A 
ATOM     12  C   UNL A   1      33.237  24.855  22.564  1.00  0.00     0.014 A 
ATOM     13  C   UNL A   1      32.932  25.858  21.650  1.00  0.00     0.001 A 
BRANCH   9  14
ATOM     14  N   UNL A   1      30.377  25.188  24.941  1.00  0.00    -0.398 N 
ATOM     15  H   UNL A   1      30.598  24.528  25.638  1.00  0.00     0.156 HD
ATOM     16  H   UNL A   1      29.552  25.721  25.012  1.00  0.00     0.156 HD
ENDBRANCH   9  14
BRANCH  10  17
ATOM     17  C   UNL A   1      32.896  23.492  24.575  1.00  0.00     0.195 C 
ATOM     18  O   UNL A   1      32.101  22.727  25.121  1.00  0.00    -0.289 OA
BRANCH  17  19
ATOM     19  C   UNL A   1      34.323  23.222  24.820  1.00  0.00     0.023 A 
ATOM     20  C   UNL A   1      35.074  24.196  25.492  1.00  0.00     0.013 A 
ATOM     21  C   UNL A   1      34.914  22.016  24.430  1.00  0.00     0.013 A 
ATOM     22  C   UNL A   1      36.396  23.929  25.845  1.00  0.00     0.016 A 
ATOM     23  C   UNL A   1      36.234  21.745  24.799  1.00  0.00     0.016 A 
ATOM     24  C   UNL A   1      36.964  22.697  25.514  1.00  0.00     0.018 A 
ATOM     25  Br  UNL A   1      38.730  22.304  26.059  1.00  0.00    -0.051 Br
ENDBRANCH  17  19
ENDBRANCH  10  17
ENDBRANCH   7   8
ENDBRANCH   4   7
ENDBRANCH   2   3
ENDBRANCH   1   2
BRANCH   1  26
ATOM     26  C   UNL A   1      33.536  27.912  25.426  1.00  0.00     0.023 C 
BRANCH  26  27
ATOM     27  C   UNL A   1      33.843  28.137  26.902  1.00  0.00     0.116 C 
BRANCH  27  28
ATOM     28  N   UNL A   1      33.611  29.508  27.327  1.00  0.00    -0.352 N 
ATOM     29  C   UNL A   1      34.467  30.355  27.986  1.00  0.00     0.251 C 
ATOM     30  H   UNL A   1      32.724  29.877  27.115  1.00  0.00     0.163 HD
ATOM     31  O   UNL A   1      34.056  31.440  28.393  1.00  0.00    -0.269 OA
BRANCH  29  32
ATOM     32  C   UNL A   1      35.867  29.946  28.230  1.00  0.00     0.039 A 
ATOM     33  C   UNL A   1      36.799  30.088  27.200  1.00  0.00     0.014 A 
ATOM     34  C   UNL A   1      36.264  29.430  29.467  1.00  0.00     0.014 A 
ATOM     35  C   UNL A   1      38.135  29.750  27.425  1.00  0.00     0.010 A 
ATOM     36  C   UNL A   1      37.610  29.176  29.716  1.00  0.00     0.010 A 
ATOM     37  C   UNL A   1      38.558  29.314  28.692  1.00  0.00    -0.014 A 
BRANCH  37  38
ATOM     38  C   UNL A   1      39.983  28.977  28.945  1.00  0.00     0.031 A 
ATOM     39  C   UNL A   1      40.906  29.997  29.559  1.00  0.00     0.074 A 
ATOM     40  C   UNL A   1      40.454  27.763  28.595  1.00  0.00     0.049 A 
ATOM     41  N   UNL A   1      42.175  29.887  29.859  1.00  0.00    -0.248 NA
ATOM     42  C   UNL A   1      40.337  31.323  29.851  1.00  0.00     0.031 C 
ATOM     43  C   UNL A   1      39.674  26.712  27.937  1.00  0.00     0.029 A 
ATOM     44  N   UNL A   1      41.699  27.207  28.743  1.00  0.00    -0.354 N 
ATOM     45  C   UNL A   1      42.554  31.125  30.366  1.00  0.00     0.074 A 
ATOM     46  C   UNL A   1      41.400  31.991  30.270  1.00  0.00     0.031 C 
ATOM     47  C   UNL A   1      40.449  25.626  27.774  1.00  0.00     0.029 A 
ATOM     48  C   UNL A   1      41.787  25.915  28.280  1.00  0.00     0.049 A 
ATOM     49  H   UNL A   1      42.459  27.688  29.146  1.00  0.00     0.167 HD
ATOM     50  C   UNL A   1      43.744  31.499  30.893  1.00  0.00     0.037 A 
ATOM     51  C   UNL A   1      42.827  25.059  28.267  1.00  0.00     0.037 A 
ATOM     52  C   UNL A   1      44.884  30.624  31.005  1.00  0.00     0.049 A 
ATOM     53  C   UNL A   1      44.139  25.495  28.862  1.00  0.00     0.074 A 
ATOM     54  C   UNL A   1      46.117  30.885  31.574  1.00  0.00     0.029 A 
ATOM     55  N   UNL A   1      44.932  29.320  30.534  1.00  0.00    -0.354 N 
ATOM     56  N   UNL A   1      44.457  26.646  29.407  1.00  0.00    -0.248 NA
ATOM     57  C   UNL A   1      45.231  24.513  28.850  1.00  0.00     0.031 C 
ATOM     58  C   UNL A   1      46.928  29.759  31.400  1.00  0.00     0.029 A 
ATOM     59  C   UNL A   1      46.181  28.772  30.777  1.00  0.00     0.049 A 
ATOM     60  H   UNL A   1      44.186  28.851  30.091  1.00  0.00     0.167 HD
ATOM     61  C   UNL A   1      45.778  26.516  29.827  1.00  0.00     0.074 A 
ATOM     62  C   UNL A   1      46.189  25.168  29.491  1.00  0.00     0.031 C 
ATOM     63  C   UNL A   1      46.577  27.428  30.433  1.00  0.00     0.037 A 
BRANCH  50  64
ATOM     64  C   UNL A   1      43.876  32.913  31.393  1.00  0.00     0.058 A 
ATOM     65  C   UNL A   1      44.254  33.965  30.542  1.00  0.00     0.135 A 
ATOM     66  C   UNL A   1      43.590  33.229  32.731  1.00  0.00     0.135 A 
ATOM     67  F   UNL A   1      44.556  33.722  29.256  1.00  0.00    -0.206 F 
ATOM     68  C   UNL A   1      44.374  35.271  31.005  1.00  0.00     0.059 A 
ATOM     69  C   UNL A   1      43.672  34.533  33.209  1.00  0.00     0.059 A 
ATOM     70  F   UNL A   1      43.226  32.264  33.590  1.00  0.00    -0.206 F 
ATOM     71  C   UNL A   1      44.079  35.546  32.342  1.00  0.00     0.060 A 
BRANCH  71  72
ATOM     72  S   UNL A   1      44.233  37.248  32.924  1.00  0.00     0.124 S 
ATOM     73  O   UNL A   1      45.483  37.186  33.676  1.00  0.00    -0.237 OA
ATOM     74  O   UNL A   1      44.282  38.001  31.676  1.00  0.00    -0.237 OA
ATOM     75  O   UNL A   1      43.029  37.444  33.726  1.00  0.00    -0.744 OA
ENDBRANCH  71  72
ENDBRANCH  50  64
BRANCH  51  76
ATOM     76  C   UNL A   1      42.662  23.694  27.696  1.00  0.00     0.058 A 
ATOM     77  C   UNL A   1      42.398  22.591  28.521  1.00  0.00     0.135 A 
ATOM     78  C   UNL A   1      42.757  23.467  26.315  1.00  0.00     0.135 A 
ATOM     79  F   UNL A   1      42.303  22.753  29.850  1.00  0.00    -0.206 F 
ATOM     80  C   UNL A   1      42.256  21.307  28.002  1.00  0.00     0.059 A 
ATOM     81  C   UNL A   1      42.589  22.198  25.768  1.00  0.00     0.059 A 
ATOM     82  F   UNL A   1      42.991  24.491  25.479  1.00  0.00    -0.206 F 
ATOM     83  C   UNL A   1      42.351  21.123  26.621  1.00  0.00     0.060 A 
BRANCH  83  84
ATOM     84  S   UNL A   1      42.121  19.461  25.954  1.00  0.00     0.124 S 
ATOM     85  O   UNL A   1      42.955  19.505  24.758  1.00  0.00    -0.237 OA
ATOM     86  O   UNL A   1      42.609  18.623  27.044  1.00  0.00    -0.237 OA
ATOM     87  O   UNL A   1      40.681  19.391  25.717  1.00  0.00    -0.744 OA
ENDBRANCH  83  84
ENDBRANCH  51  76
BRANCH  63  88
ATOM     88  C   UNL A   1      47.969  26.988  30.801  1.00  0.00     0.058 A 
ATOM     89  C   UNL A   1      48.233  26.277  31.984  1.00  0.00     0.135 A 
ATOM     90  C   UNL A   1      49.051  27.260  29.947  1.00  0.00     0.135 A 
ATOM     91  F   UNL A   1      47.237  25.992  32.837  1.00  0.00    -0.206 F 
ATOM     92  C   UNL A   1      49.525  25.890  32.326  1.00  0.00     0.059 A 
ATOM     93  C   UNL A   1      50.345  26.853  30.253  1.00  0.00     0.059 A 
ATOM     94  F   UNL A   1      48.855  27.923  28.797  1.00  0.00    -0.206 F 
ATOM     95  C   UNL A   1      50.575  26.185  31.455  1.00  0.00     0.060 A 
BRANCH  95  96
ATOM     96  S   UNL A   1      52.245  25.675  31.911  1.00  0.00     0.124 S 
ATOM     97  O   UNL A   1      52.531  26.567  33.028  1.00  0.00    -0.237 OA
ATOM     98  O   UNL A   1      52.059  24.268  32.255  1.00  0.00    -0.237 OA
ATOM     99  O   UNL A   1      53.018  25.920  30.697  1.00  0.00    -0.744 OA
ENDBRANCH  95  96
ENDBRANCH  63  88
ENDBRANCH  37  38
ENDBRANCH  29  32
ENDBRANCH  27  28
ENDBRANCH  26  27
ENDBRANCH   1  26
TORSDOF 18
ENDMDL
MODEL 2
REMARK VINA RESULT:     -10.9      1.135      8.293
REMARK SMILES Nc1c(CC(=O)NCCCCNC(=O)c2ccc(-c3c4nc(c(-c5c(F)cc(S(=O)(=O)[O-])cc5F)c5ccc([nH]5)c(-c5c(F)cc(S(=O)(=O)[O-])cc5F)c5nc(c(-c6c(F)cc(S(=O)(=O)[O-])cc6F)c6ccc3[nH]6)C=C5)C=C4)cc2)cccc1C(=O)c1ccc(Br)cc1
REMARK SMILES IDX 9 1 8 2 7 3 5 4 6 5 4 7 3 8 2 9 84 10 81 11 83 12 82 13 1 14
REMARK SMILES IDX 85 17 86 18 87 19 88 20 93 21 89 22 92 23 90 24 91 25 10 26
REMARK SMILES IDX 11 27 12 28 13 29 14 31 15 32 16 33 80 34 17 35 79 36 18 37
REMARK SMILES IDX 19 38 20 39 73 40 21 41 78 42 72 43 74 44 22 45 77 46 71 47
REMARK SMILES IDX 70 48 23 50 57 51 36 52 56 53 37 54 40 55 55 56 75 57 38 58
REMARK SMILES IDX 39 59 54 61 76 62 41 63 24 64 25 65 34 66 26 67 27 68 33 69
REMARK SMILES IDX 35 70 28 71 29 72 30 73 31 74 32 75 58 76 59 77 68 78 60 79
REMARK SMILES IDX 61 80 67 81 69 82 62 83 63 84 64 85 65 86 66 87 42 88 43 89
REMARK SMILES IDX 52 90 44 91 45 92 51 93 53 94 46 95 47 96 48 97 49 98 50 99
REMARK H PARENT 7 6 1 15 1 16 12 30 74 49 40 60
REMARK Flexibility Score: inf
ROOT
ATOM      1  C   UNL A   1      32.098  28.589  25.838  1.00  0.00     0.023 C 
ENDROOT
BRANCH   1   2
ATOM      2  C   UNL A   1      32.000  29.629  24.722  1.00  0.00     0.116 C 
BRANCH   2   3
ATOM      3  N   UNL A   1      30.625  29.890  24.351  1.00  0.00    -0.356 N 
ATOM      4  C   UNL A   1      29.958  29.523  23.218  1.00  0.00     0.224 C 
ATOM      5  O   UNL A   1      28.799  29.916  23.068  1.00  0.00    -0.275 OA
ATOM      6  H   UNL A   1      30.098  30.403  25.006  1.00  0.00     0.163 HD
BRANCH   4   7
ATOM      7  C   UNL A   1      30.601  28.589  22.205  1.00  0.00     0.137 C 
BRANCH   7   8
ATOM      8  C   UNL A   1      30.869  27.181  22.711  1.00  0.00    -0.015 A 
ATOM      9  C   UNL A   1      32.054  26.459  22.398  1.00  0.00     0.046 A 
ATOM     10  C   UNL A   1      32.168  25.111  22.829  1.00  0.00     0.046 A 
ATOM     11  C   UNL A   1      29.853  26.571  23.472  1.00  0.00     0.006 A 
ATOM     12  C   UNL A   1      31.117  24.532  23.569  1.00  0.00     0.014 A 
ATOM     13  C   UNL A   1      29.975  25.255  23.894  1.00  0.00     0.001 A 
BRANCH   9  14
ATOM     14  N   UNL A   1      33.033  27.089  21.637  1.00  0.00    -0.398 N 
ATOM     15  H   UNL A   1      33.735  27.619  22.078  1.00  0.00     0.156 HD
ATOM     16  H   UNL A   1      33.024  27.004  20.655  1.00  0.00     0.156 HD
ENDBRANCH   9  14
BRANCH  10  17
ATOM     17  C   UNL A   1      33.316  24.180  22.540  1.00  0.00     0.195 C 
ATOM     18  O   UNL A   1      33.395  23.603  21.455  1.00  0.00    -0.289 OA
BRANCH  17  19
ATOM     19  C   UNL A   1      34.426  23.944  23.479  1.00  0.00     0.023 A 
ATOM     20  C   UNL A   1      35.494  23.144  23.053  1.00  0.00     0.013 A 
ATOM     21  C   UNL A   1      34.442  24.529  24.750  1.00  0.00     0.013 A 
ATOM     22  C   UNL A   1      36.615  22.993  23.868  1.00  0.00     0.016 A 
ATOM     23  C   UNL A   1      35.573  24.389  25.557  1.00  0.00     0.016 A 
ATOM     24  C   UNL A   1      36.657  23.633  25.108  1.00  0.00     0.018 A 
ATOM     25  Br  UNL A   1      38.207  23.492  26.181  1.00  0.00    -0.051 Br
ENDBRANCH  17  19
ENDBRANCH  10  17
ENDBRANCH   7   8
ENDBRANCH   4   7
ENDBRANCH   2   3
ENDBRANCH   1   2
BRANCH   1  26
ATOM     26  C   UNL A   1      33.430  27.837  25.872  1.00  0.00     0.023 C 
BRANCH  26  27
ATOM     27  C   UNL A   1      34.344  28.207  27.033  1.00  0.00     0.116 C 
BRANCH  27  28
ATOM     28  N   UNL A   1      34.079  29.535  27.563  1.00  0.00    -0.352 N 
ATOM     29  C   UNL A   1      34.918  30.354  28.277  1.00  0.00     0.251 C 
ATOM     30  H   UNL A   1      33.180  29.894  27.386  1.00  0.00     0.163 HD
ATOM     31  O   UNL A   1      34.481  31.393  28.768  1.00  0.00    -0.269 OA
BRANCH  29  32
ATOM     32  C   UNL A   1      36.331  29.967  28.478  1.00  0.00     0.039 A 
ATOM     33  C   UNL A   1      37.231  30.133  27.424  1.00  0.00     0.014 A 
ATOM     34  C   UNL A   1      36.771  29.449  29.700  1.00  0.00     0.014 A 
ATOM     35  C   UNL A   1      38.578  29.816  27.608  1.00  0.00     0.010 A 
ATOM     36  C   UNL A   1      38.128  29.216  29.909  1.00  0.00     0.010 A 
ATOM     37  C   UNL A   1      39.044  29.378  28.860  1.00  0.00    -0.014 A 
BRANCH  37  38
ATOM     38  C   UNL A   1      40.482  29.063  29.069  1.00  0.00     0.031 A 
ATOM     39  C   UNL A   1      41.023  27.706  28.702  1.00  0.00     0.074 A 
ATOM     40  C   UNL A   1      41.294  29.990  29.616  1.00  0.00     0.049 A 
ATOM     41  N   UNL A   1      42.244  27.249  28.806  1.00  0.00    -0.248 NA
ATOM     42  C   UNL A   1      40.061  26.724  28.174  1.00  0.00     0.031 C 
ATOM     43  C   UNL A   1      40.876  31.319  30.070  1.00  0.00     0.029 A 
ATOM     44  N   UNL A   1      42.639  29.957  29.884  1.00  0.00    -0.354 N 
ATOM     45  C   UNL A   1      42.196  25.931  28.365  1.00  0.00     0.074 A 
ATOM     46  C   UNL A   1      40.813  25.641  28.056  1.00  0.00     0.031 C 
ATOM     47  C   UNL A   1      41.949  31.987  30.524  1.00  0.00     0.029 A 
ATOM     48  C   UNL A   1      43.122  31.124  30.428  1.00  0.00     0.049 A 
ATOM     49  H   UNL A   1      43.205  29.173  29.702  1.00  0.00     0.167 HD
ATOM     50  C   UNL A   1      43.213  25.053  28.201  1.00  0.00     0.037 A 
ATOM     51  C   UNL A   1      44.371  31.462  30.806  1.00  0.00     0.037 A 
ATOM     52  C   UNL A   1      44.591  25.356  28.490  1.00  0.00     0.049 A 
ATOM     53  C   UNL A   1      45.487  30.470  30.610  1.00  0.00     0.074 A 
ATOM     54  C   UNL A   1      45.706  24.557  28.305  1.00  0.00     0.029 A 
ATOM     55  N   UNL A   1      45.044  26.551  29.030  1.00  0.00    -0.354 N 
ATOM     56  N   UNL A   1      45.434  29.254  30.119  1.00  0.00    -0.248 NA
ATOM     57  C   UNL A   1      46.833  30.900  31.010  1.00  0.00     0.031 C 
ATOM     58  C   UNL A   1      46.824  25.248  28.783  1.00  0.00     0.029 A 
ATOM     59  C   UNL A   1      46.417  26.503  29.209  1.00  0.00     0.049 A 
ATOM     60  H   UNL A   1      44.473  27.322  29.255  1.00  0.00     0.167 HD
ATOM     61  C   UNL A   1      46.744  28.784  30.126  1.00  0.00     0.074 A 
ATOM     62  C   UNL A   1      47.566  29.856  30.650  1.00  0.00     0.031 C 
ATOM     63  C   UNL A   1      47.223  27.577  29.736  1.00  0.00     0.037 A 
BRANCH  50  64
ATOM     64  C   UNL A   1      42.876  23.680  27.681  1.00  0.00     0.058 A 
ATOM     65  C   UNL A   1      42.797  23.410  26.304  1.00  0.00     0.135 A 
ATOM     66  C   UNL A   1      42.661  22.612  28.567  1.00  0.00     0.135 A 
ATOM     67  F   UNL A   1      42.977  24.395  25.409  1.00  0.00    -0.206 F 
ATOM     68  C   UNL A   1      42.486  22.141  25.826  1.00  0.00     0.059 A 
ATOM     69  C   UNL A   1      42.381  21.327  28.111  1.00  0.00     0.059 A 
ATOM     70  F   UNL A   1      42.722  22.811  29.893  1.00  0.00    -0.206 F 
ATOM     71  C   UNL A   1      42.281  21.105  26.738  1.00  0.00     0.060 A 
BRANCH  71  72
ATOM     72  S   UNL A   1      41.886  19.463  26.099  1.00  0.00     0.124 S 
ATOM     73  O   UNL A   1      42.726  19.406  24.907  1.00  0.00    -0.237 OA
ATOM     74  O   UNL A   1      42.290  18.595  27.200  1.00  0.00    -0.237 OA
ATOM     75  O   UNL A   1      40.449  19.531  25.851  1.00  0.00    -0.744 OA
ENDBRANCH  71  72
ENDBRANCH  50  64
BRANCH  51  76
ATOM     76  C   UNL A   1      44.637  32.809  31.381  1.00  0.00     0.058 A 
ATOM     77  C   UNL A   1      44.999  33.888  30.560  1.00  0.00     0.135 A 
ATOM     78  C   UNL A   1      44.528  33.047  32.759  1.00  0.00     0.135 A 
ATOM     79  F   UNL A   1      45.123  33.713  29.235  1.00  0.00    -0.206 F 
ATOM     80  C   UNL A   1      45.265  35.149  31.086  1.00  0.00     0.059 A 
ATOM     81  C   UNL A   1      44.760  34.305  33.306  1.00  0.00     0.059 A 
ATOM     82  F   UNL A   1      44.169  32.053  33.587  1.00  0.00    -0.206 F 
ATOM     83  C   UNL A   1      45.139  35.347  32.462  1.00  0.00     0.060 A 
BRANCH  83  84
ATOM     84  S   UNL A   1      45.443  36.998  33.129  1.00  0.00     0.124 S 
ATOM     85  O   UNL A   1      44.100  37.565  33.134  1.00  0.00    -0.237 OA
ATOM     86  O   UNL A   1      46.016  36.698  34.438  1.00  0.00    -0.237 OA
ATOM     87  O   UNL A   1      46.373  37.582  32.166  1.00  0.00    -0.744 OA
ENDBRANCH  83  84
ENDBRANCH  51  76
BRANCH  63  88
ATOM     88  C   UNL A   1      48.709  27.361  29.832  1.00  0.00     0.058 A 
ATOM     89  C   UNL A   1      49.303  26.784  30.967  1.00  0.00     0.135 A 
ATOM     90  C   UNL A   1      49.550  27.715  28.763  1.00  0.00     0.135 A 
ATOM     91  F   UNL A   1      48.547  26.430  32.018  1.00  0.00    -0.206 F 
ATOM     92  C   UNL A   1      50.680  26.606  31.055  1.00  0.00     0.059 A 
ATOM     93  C   UNL A   1      50.925  27.514  28.817  1.00  0.00     0.059 A 
ATOM     94  F   UNL A   1      49.036  28.256  27.647  1.00  0.00    -0.206 F 
ATOM     95  C   UNL A   1      51.483  26.977  29.976  1.00  0.00     0.060 A 
BRANCH  95  96
ATOM     96  S   UNL A   1      53.268  26.737  30.103  1.00  0.00     0.124 S 
ATOM     97  O   UNL A   1      53.356  25.752  31.175  1.00  0.00    -0.237 OA
ATOM     98  O   UNL A   1      53.614  26.255  28.769  1.00  0.00    -0.237 OA
ATOM     99  O   UNL A   1      53.767  28.069  30.431  1.00  0.00    -0.744 OA
ENDBRANCH  95  96
ENDBRANCH  63  88
ENDBRANCH  37  38
ENDBRANCH  29  32
ENDBRANCH  27  28
ENDBRANCH  26  27
ENDBRANCH   1  26
TORSDOF 18
ENDMDL
MODEL 3
REMARK VINA RESULT:     -10.9      3.094      9.345
REMARK SMILES Nc1c(CC(=O)NCCCCNC(=O)c2ccc(-c3c4nc(c(-c5c(F)cc(S(=O)(=O)[O-])cc5F)c5ccc([nH]5)c(-c5c(F)cc(S(=O)(=O)[O-])cc5F)c5nc(c(-c6c(F)cc(S(=O)(=O)[O-])cc6F)c6ccc3[nH]6)C=C5)C=C4)cc2)cccc1C(=O)c1ccc(Br)cc1
REMARK SMILES IDX 9 1 8 2 7 3 5 4 6 5 4 7 3 8 2 9 84 10 81 11 83 12 82 13 1 14
REMARK SMILES IDX 85 17 86 18 87 19 88 20 93 21 89 22 92 23 90 24 91 25 10 26
REMARK SMILES IDX 11 27 12 28 13 29 14 31 15 32 16 33 80 34 17 35 79 36 18 37
REMARK SMILES IDX 19 38 20 39 73 40 21 41 78 42 72 43 74 44 22 45 77 46 71 47
REMARK SMILES IDX 70 48 23 50 57 51 36 52 56 53 37 54 40 55 55 56 75 57 38 58
REMARK SMILES IDX 39 59 54 61 76 62 41 63 24 64 25 65 34 66 26 67 27 68 33 69
REMARK SMILES IDX 35 70 28 71 29 72 30 73 31 74 32 75 58 76 59 77 68 78 60 79
REMARK SMILES IDX 61 80 67 81 69 82 62 83 63 84 64 85 65 86 66 87 42 88 43 89
REMARK SMILES IDX 52 90 44 91 45 92 51 93 53 94 46 95 47 96 48 97 49 98 50 99
REMARK H PARENT 7 6 1 15 1 16 12 30 74 49 40 60
REMARK Flexibility Score: inf
ROOT
ATOM      1  C   UNL A   1      35.313  21.924  26.180  1.00  0.00     0.023 C 
ENDROOT
BRANCH   1   2
ATOM      2  C   UNL A   1      35.288  20.882  25.063  1.00  0.00     0.116 C 
BRANCH   2   3
ATOM      3  N   UNL A   1      34.221  19.921  25.250  1.00  0.00    -0.356 N 
ATOM      4  C   UNL A   1      32.915  20.002  24.863  1.00  0.00     0.224 C 
ATOM      5  O   UNL A   1      32.149  19.093  25.191  1.00  0.00    -0.275 OA
ATOM      6  H   UNL A   1      34.473  19.093  25.720  1.00  0.00     0.163 HD
BRANCH   4   7
ATOM      7  C   UNL A   1      32.434  21.147  23.984  1.00  0.00     0.137 C 
BRANCH   7   8
ATOM      8  C   UNL A   1      31.987  22.389  24.739  1.00  0.00    -0.015 A 
ATOM      9  C   UNL A   1      32.015  23.692  24.168  1.00  0.00     0.046 A 
ATOM     10  C   UNL A   1      31.678  24.804  24.984  1.00  0.00     0.046 A 
ATOM     11  C   UNL A   1      31.589  22.216  26.078  1.00  0.00     0.006 A 
ATOM     12  C   UNL A   1      31.307  24.587  26.327  1.00  0.00     0.014 A 
ATOM     13  C   UNL A   1      31.256  23.307  26.867  1.00  0.00     0.001 A 
BRANCH   9  14
ATOM     14  N   UNL A   1      32.422  23.829  22.845  1.00  0.00    -0.398 N 
ATOM     15  H   UNL A   1      31.986  23.300  22.138  1.00  0.00     0.156 HD
ATOM     16  H   UNL A   1      33.147  24.455  22.615  1.00  0.00     0.156 HD
ENDBRANCH   9  14
BRANCH  10  17
ATOM     17  C   UNL A   1      31.711  26.252  24.571  1.00  0.00     0.195 C 
ATOM     18  O   UNL A   1      31.195  26.612  23.512  1.00  0.00    -0.289 OA
BRANCH  17  19
ATOM     19  C   UNL A   1      32.290  27.320  25.403  1.00  0.00     0.023 A 
ATOM     20  C   UNL A   1      33.653  27.245  25.720  1.00  0.00     0.013 A 
ATOM     21  C   UNL A   1      31.519  28.404  25.838  1.00  0.00     0.013 A 
ATOM     22  C   UNL A   1      34.262  28.295  26.406  1.00  0.00     0.016 A 
ATOM     23  C   UNL A   1      32.137  29.460  26.511  1.00  0.00     0.016 A 
ATOM     24  C   UNL A   1      33.505  29.406  26.781  1.00  0.00     0.018 A 
ATOM     25  Br  UNL A   1      34.346  30.863  27.643  1.00  0.00    -0.051 Br
ENDBRANCH  17  19
ENDBRANCH  10  17
ENDBRANCH   7   8
ENDBRANCH   4   7
ENDBRANCH   2   3
ENDBRANCH   1   2
BRANCH   1  26
ATOM     26  C   UNL A   1      35.317  23.371  25.682  1.00  0.00     0.023 C 
BRANCH  26  27
ATOM     27  C   UNL A   1      36.700  23.993  25.535  1.00  0.00     0.116 C 
BRANCH  27  28
ATOM     28  N   UNL A   1      37.772  23.012  25.585  1.00  0.00    -0.352 N 
ATOM     29  C   UNL A   1      39.029  23.145  26.120  1.00  0.00     0.251 C 
ATOM     30  H   UNL A   1      37.569  22.137  25.181  1.00  0.00     0.163 HD
ATOM     31  O   UNL A   1      39.860  22.254  25.950  1.00  0.00    -0.269 OA
BRANCH  29  32
ATOM     32  C   UNL A   1      39.387  24.368  26.869  1.00  0.00     0.039 A 
ATOM     33  C   UNL A   1      38.941  24.506  28.184  1.00  0.00     0.014 A 
ATOM     34  C   UNL A   1      40.160  25.374  26.282  1.00  0.00     0.014 A 
ATOM     35  C   UNL A   1      39.306  25.634  28.923  1.00  0.00     0.010 A 
ATOM     36  C   UNL A   1      40.594  26.454  27.046  1.00  0.00     0.010 A 
ATOM     37  C   UNL A   1      40.156  26.606  28.370  1.00  0.00    -0.014 A 
BRANCH  37  38
ATOM     38  C   UNL A   1      40.569  27.796  29.160  1.00  0.00     0.031 A 
ATOM     39  C   UNL A   1      41.920  27.833  29.825  1.00  0.00     0.074 A 
ATOM     40  C   UNL A   1      39.716  28.830  29.302  1.00  0.00     0.049 A 
ATOM     41  N   UNL A   1      42.458  28.781  30.548  1.00  0.00    -0.248 NA
ATOM     42  C   UNL A   1      42.768  26.638  29.681  1.00  0.00     0.031 C 
ATOM     43  C   UNL A   1      38.357  28.887  28.758  1.00  0.00     0.029 A 
ATOM     44  N   UNL A   1      39.864  30.032  29.947  1.00  0.00    -0.354 N 
ATOM     45  C   UNL A   1      43.698  28.297  30.949  1.00  0.00     0.074 A 
ATOM     46  C   UNL A   1      43.805  26.945  30.446  1.00  0.00     0.031 C 
ATOM     47  C   UNL A   1      37.812  30.077  29.060  1.00  0.00     0.029 A 
ATOM     48  C   UNL A   1      38.765  30.852  29.847  1.00  0.00     0.049 A 
ATOM     49  H   UNL A   1      40.682  30.284  30.434  1.00  0.00     0.167 HD
ATOM     50  C   UNL A   1      44.672  28.929  31.645  1.00  0.00     0.037 A 
ATOM     51  C   UNL A   1      38.549  32.090  30.334  1.00  0.00     0.037 A 
ATOM     52  C   UNL A   1      44.567  30.283  32.125  1.00  0.00     0.049 A 
ATOM     53  C   UNL A   1      39.648  32.775  31.101  1.00  0.00     0.074 A 
ATOM     54  C   UNL A   1      45.519  31.037  32.790  1.00  0.00     0.029 A 
ATOM     55  N   UNL A   1      43.443  31.085  31.996  1.00  0.00    -0.354 N 
ATOM     56  N   UNL A   1      40.845  32.329  31.405  1.00  0.00    -0.248 NA
ATOM     57  C   UNL A   1      39.373  34.134  31.583  1.00  0.00     0.031 C 
ATOM     58  C   UNL A   1      44.951  32.274  33.111  1.00  0.00     0.029 A 
ATOM     59  C   UNL A   1      43.666  32.317  32.591  1.00  0.00     0.049 A 
ATOM     60  H   UNL A   1      42.607  30.819  31.547  1.00  0.00     0.167 HD
ATOM     61  C   UNL A   1      41.474  33.364  32.090  1.00  0.00     0.074 A 
ATOM     62  C   UNL A   1      40.532  34.463  32.135  1.00  0.00     0.031 C 
ATOM     63  C   UNL A   1      42.717  33.401  32.632  1.00  0.00     0.037 A 
BRANCH  50  64
ATOM     64  C   UNL A   1      45.940  28.166  31.926  1.00  0.00     0.058 A 
ATOM     65  C   UNL A   1      46.091  27.385  33.084  1.00  0.00     0.135 A 
ATOM     66  C   UNL A   1      47.006  28.187  31.012  1.00  0.00     0.135 A 
ATOM     67  F   UNL A   1      45.112  27.338  34.003  1.00  0.00    -0.206 F 
ATOM     68  C   UNL A   1      47.262  26.680  33.342  1.00  0.00     0.059 A 
ATOM     69  C   UNL A   1      48.175  27.464  31.233  1.00  0.00     0.059 A 
ATOM     70  F   UNL A   1      46.919  28.917  29.890  1.00  0.00    -0.206 F 
ATOM     71  C   UNL A   1      48.299  26.724  32.408  1.00  0.00     0.060 A 
BRANCH  71  72
ATOM     72  S   UNL A   1      49.809  25.797  32.756  1.00  0.00     0.124 S 
ATOM     73  O   UNL A   1      50.819  26.848  32.680  1.00  0.00    -0.237 OA
ATOM     74  O   UNL A   1      49.548  25.265  34.089  1.00  0.00    -0.237 OA
ATOM     75  O   UNL A   1      49.854  24.807  31.685  1.00  0.00    -0.744 OA
ENDBRANCH  71  72
ENDBRANCH  50  64
BRANCH  51  76
ATOM     76  C   UNL A   1      37.250  32.772  30.086  1.00  0.00     0.058 A 
ATOM     77  C   UNL A   1      36.158  32.585  30.947  1.00  0.00     0.135 A 
ATOM     78  C   UNL A   1      37.075  33.629  28.989  1.00  0.00     0.135 A 
ATOM     79  F   UNL A   1      36.270  31.771  32.007  1.00  0.00    -0.206 F 
ATOM     80  C   UNL A   1      34.932  33.205  30.718  1.00  0.00     0.059 A 
ATOM     81  C   UNL A   1      35.870  34.285  28.755  1.00  0.00     0.059 A 
ATOM     82  F   UNL A   1      38.093  33.856  28.144  1.00  0.00    -0.206 F 
ATOM     83  C   UNL A   1      34.801  34.056  29.619  1.00  0.00     0.060 A 
BRANCH  83  84
ATOM     84  S   UNL A   1      33.221  34.891  29.357  1.00  0.00     0.124 S 
ATOM     85  O   UNL A   1      32.549  33.970  28.447  1.00  0.00    -0.237 OA
ATOM     86  O   UNL A   1      32.682  34.959  30.711  1.00  0.00    -0.237 OA
ATOM     87  O   UNL A   1      33.612  36.175  28.781  1.00  0.00    -0.744 OA
ENDBRANCH  83  84
ENDBRANCH  51  76
BRANCH  63  88
ATOM     88  C   UNL A   1      43.141  34.684  33.295  1.00  0.00     0.058 A 
ATOM     89  C   UNL A   1      42.920  34.920  34.662  1.00  0.00     0.135 A 
ATOM     90  C   UNL A   1      43.798  35.683  32.557  1.00  0.00     0.135 A 
ATOM     91  F   UNL A   1      42.294  34.001  35.414  1.00  0.00    -0.206 F 
ATOM     92  C   UNL A   1      43.299  36.117  35.263  1.00  0.00     0.059 A 
ATOM     93  C   UNL A   1      44.216  36.872  33.146  1.00  0.00     0.059 A 
ATOM     94  F   UNL A   1      44.049  35.505  31.251  1.00  0.00    -0.206 F 
ATOM     95  C   UNL A   1      43.943  37.088  34.496  1.00  0.00     0.060 A 
BRANCH  95  96
ATOM     96  S   UNL A   1      44.430  38.634  35.290  1.00  0.00     0.124 S 
ATOM     97  O   UNL A   1      44.084  38.373  36.682  1.00  0.00    -0.237 OA
ATOM     98  O   UNL A   1      45.859  38.701  34.994  1.00  0.00    -0.237 OA
ATOM     99  O   UNL A   1      43.610  39.636  34.615  1.00  0.00    -0.744 OA
ENDBRANCH  95  96
ENDBRANCH  63  88
ENDBRANCH  37  38
ENDBRANCH  29  32
ENDBRANCH  27  28
ENDBRANCH  26  27
ENDBRANCH   1  26
TORSDOF 18
ENDMDL
