MODEL 1
REMARK VINA RESULT:     -10.6      0.000      0.000
REMARK SMILES O=C(NCCCCNC(=O)c1sccc1[S@](=O)[O-])c1ccc(-c2c3nc(c(-c4c(F)cc(S(=O)(=O)[O-])cc4F)c4ccc([nH]4)c(-c4c(F)cc(S(=O)(=O)[O-])cc4F)c4nc(c(-c5c(F)cc(S(=O)(=O)[O-])cc5F)c5ccc2[nH]5)C=C4)C=C3)cc1
REMARK SMILES IDX 4 1 3 2 1 3 2 4 19 6 20 7 84 8 21 9 83 10 22 11 23 12 24 13
REMARK SMILES IDX 77 14 25 15 82 16 76 17 78 18 26 19 81 20 75 21 74 22 27 24
REMARK SMILES IDX 61 25 40 26 60 27 41 28 44 29 59 30 79 31 42 32 43 33 58 35
REMARK SMILES IDX 80 36 45 37 28 38 29 39 38 40 30 41 31 42 37 43 39 44 32 45
REMARK SMILES IDX 33 46 34 47 35 48 36 49 62 50 63 51 72 52 64 53 65 54 71 55
REMARK SMILES IDX 73 56 66 57 67 58 68 59 69 60 70 61 46 62 47 63 56 64 48 65
REMARK SMILES IDX 49 66 55 67 57 68 50 69 51 70 52 71 53 72 54 73 5 74 6 75
REMARK SMILES IDX 7 76 8 77 9 78 10 80 11 81 12 82 15 83 13 84 14 85 16 86
REMARK SMILES IDX 18 87 17 88
REMARK H PARENT 3 5 78 23 44 34 8 79
REMARK Flexibility Score: inf
ROOT
ATOM      1  C   UNL A   1      33.616  28.481  27.209  1.00  0.00     0.116 C 
ENDROOT
BRANCH   1   2
ATOM      2  N   UNL A   1      33.587  29.861  27.676  1.00  0.00    -0.352 N 
ATOM      3  O   UNL A   1      34.318  31.740  28.682  1.00  0.00    -0.269 OA
ATOM      4  C   UNL A   1      34.577  30.616  28.261  1.00  0.00     0.251 C 
ATOM      5  H   UNL A   1      32.725  30.323  27.555  1.00  0.00     0.163 HD
BRANCH   4   6
ATOM      6  C   UNL A   1      35.939  30.058  28.421  1.00  0.00     0.039 A 
ATOM      7  C   UNL A   1      36.344  29.502  29.634  1.00  0.00     0.014 A 
ATOM      8  C   UNL A   1      36.834  30.127  27.350  1.00  0.00     0.014 A 
ATOM      9  C   UNL A   1      37.686  29.198  29.837  1.00  0.00     0.010 A 
ATOM     10  C   UNL A   1      38.165  29.733  27.528  1.00  0.00     0.010 A 
ATOM     11  C   UNL A   1      38.617  29.322  28.791  1.00  0.00    -0.014 A 
BRANCH  11  12
ATOM     12  C   UNL A   1      40.049  29.022  29.058  1.00  0.00     0.031 A 
ATOM     13  C   UNL A   1      40.655  27.701  28.657  1.00  0.00     0.074 A 
ATOM     14  C   UNL A   1      40.825  29.977  29.607  1.00  0.00     0.049 A 
ATOM     15  N   UNL A   1      41.900  27.303  28.752  1.00  0.00    -0.248 NA
ATOM     16  C   UNL A   1      39.751  26.691  28.083  1.00  0.00     0.031 C 
ATOM     17  C   UNL A   1      40.354  31.291  30.054  1.00  0.00     0.029 A 
ATOM     18  N   UNL A   1      42.174  30.008  29.854  1.00  0.00    -0.354 N 
ATOM     19  C   UNL A   1      41.922  25.993  28.284  1.00  0.00     0.074 A 
ATOM     20  C   UNL A   1      40.563  25.657  27.919  1.00  0.00     0.031 C 
ATOM     21  C   UNL A   1      41.403  32.021  30.457  1.00  0.00     0.029 A 
ATOM     22  C   UNL A   1      42.614  31.214  30.346  1.00  0.00     0.049 A 
ATOM     23  H   UNL A   1      42.769  29.241  29.693  1.00  0.00     0.167 HD
ATOM     24  C   UNL A   1      42.979  25.153  28.162  1.00  0.00     0.037 A 
ATOM     25  C   UNL A   1      43.853  31.628  30.670  1.00  0.00     0.037 A 
ATOM     26  C   UNL A   1      44.337  25.504  28.487  1.00  0.00     0.049 A 
ATOM     27  C   UNL A   1      45.011  30.692  30.488  1.00  0.00     0.074 A 
ATOM     28  C   UNL A   1      45.481  24.733  28.361  1.00  0.00     0.029 A 
ATOM     29  N   UNL A   1      44.739  26.732  28.992  1.00  0.00    -0.354 N 
ATOM     30  N   UNL A   1      45.012  29.464  30.027  1.00  0.00    -0.248 NA
ATOM     31  C   UNL A   1      46.336  31.195  30.874  1.00  0.00     0.031 C 
ATOM     32  C   UNL A   1      46.570  25.486  28.816  1.00  0.00     0.029 A 
ATOM     33  C   UNL A   1      46.110  26.737  29.192  1.00  0.00     0.049 A 
ATOM     34  H   UNL A   1      44.139  27.489  29.180  1.00  0.00     0.167 HD
ATOM     35  C   UNL A   1      46.338  29.051  30.055  1.00  0.00     0.074 A 
ATOM     36  C   UNL A   1      47.113  30.166  30.562  1.00  0.00     0.031 C 
ATOM     37  C   UNL A   1      46.866  27.856  29.695  1.00  0.00     0.037 A 
BRANCH  24  38
ATOM     38  C   UNL A   1      42.706  23.758  27.670  1.00  0.00     0.058 A 
ATOM     39  C   UNL A   1      42.472  22.694  28.553  1.00  0.00     0.135 A 
ATOM     40  C   UNL A   1      42.646  23.492  26.292  1.00  0.00     0.135 A 
ATOM     41  F   UNL A   1      42.533  22.890  29.880  1.00  0.00    -0.206 F 
ATOM     42  C   UNL A   1      42.211  21.407  28.088  1.00  0.00     0.059 A 
ATOM     43  C   UNL A   1      42.367  22.218  25.804  1.00  0.00     0.059 A 
ATOM     44  F   UNL A   1      42.862  24.476  25.403  1.00  0.00    -0.206 F 
ATOM     45  C   UNL A   1      42.166  21.178  26.712  1.00  0.00     0.060 A 
BRANCH  45  46
ATOM     46  S   UNL A   1      41.833  19.505  26.119  1.00  0.00     0.124 S 
ATOM     47  O   UNL A   1      42.692  19.441  24.940  1.00  0.00    -0.237 OA
ATOM     48  O   UNL A   1      42.248  18.681  27.249  1.00  0.00    -0.237 OA
ATOM     49  O   UNL A   1      40.399  19.519  25.851  1.00  0.00    -0.744 OA
ENDBRANCH  45  46
ENDBRANCH  24  38
BRANCH  25  50
ATOM     50  C   UNL A   1      44.055  33.009  31.177  1.00  0.00     0.058 A 
ATOM     51  C   UNL A   1      44.083  33.275  32.554  1.00  0.00     0.135 A 
ATOM     52  C   UNL A   1      44.259  34.082  30.297  1.00  0.00     0.135 A 
ATOM     53  F   UNL A   1      43.888  32.280  33.433  1.00  0.00    -0.206 F 
ATOM     54  C   UNL A   1      44.302  34.558  33.042  1.00  0.00     0.059 A 
ATOM     55  C   UNL A   1      44.502  35.369  30.761  1.00  0.00     0.059 A 
ATOM     56  F   UNL A   1      44.259  33.874  28.971  1.00  0.00    -0.206 F 
ATOM     57  C   UNL A   1      44.513  35.599  32.136  1.00  0.00     0.060 A 
BRANCH  57  58
ATOM     58  S   UNL A   1      44.864  37.252  32.774  1.00  0.00     0.124 S 
ATOM     59  O   UNL A   1      44.201  37.211  34.072  1.00  0.00    -0.237 OA
ATOM     60  O   UNL A   1      46.323  37.272  32.803  1.00  0.00    -0.237 OA
ATOM     61  O   UNL A   1      44.254  38.128  31.778  1.00  0.00    -0.744 OA
ENDBRANCH  57  58
ENDBRANCH  25  50
BRANCH  37  62
ATOM     62  C   UNL A   1      48.354  27.705  29.818  1.00  0.00     0.058 A 
ATOM     63  C   UNL A   1      49.216  28.049  28.765  1.00  0.00     0.135 A 
ATOM     64  C   UNL A   1      48.924  27.230  31.009  1.00  0.00     0.135 A 
ATOM     65  F   UNL A   1      48.717  28.502  27.605  1.00  0.00    -0.206 F 
ATOM     66  C   UNL A   1      50.594  27.898  28.878  1.00  0.00     0.059 A 
ATOM     67  C   UNL A   1      50.301  27.090  31.151  1.00  0.00     0.059 A 
ATOM     68  F   UNL A   1      48.143  26.896  32.047  1.00  0.00    -0.206 F 
ATOM     69  C   UNL A   1      51.127  27.412  30.073  1.00  0.00     0.060 A 
BRANCH  69  70
ATOM     70  S   UNL A   1      52.917  27.228  30.218  1.00  0.00     0.124 S 
ATOM     71  O   UNL A   1      53.023  26.162  31.207  1.00  0.00    -0.237 OA
ATOM     72  O   UNL A   1      53.311  26.873  28.858  1.00  0.00    -0.237 OA
ATOM     73  O   UNL A   1      53.355  28.548  30.664  1.00  0.00    -0.744 OA
ENDBRANCH  69  70
ENDBRANCH  37  62
ENDBRANCH  11  12
ENDBRANCH   4   6
ENDBRANCH   1   2
BRANCH   1  74
ATOM     74  C   UNL A   1      33.942  28.350  25.725  1.00  0.00     0.023 C 
BRANCH  74  75
ATOM     75  C   UNL A   1      33.155  29.266  24.789  1.00  0.00     0.023 C 
BRANCH  75  76
ATOM     76  C   UNL A   1      33.285  28.953  23.302  1.00  0.00     0.116 C 
BRANCH  76  77
ATOM     77  N   UNL A   1      32.048  29.139  22.568  1.00  0.00    -0.351 N 
ATOM     78  C   UNL A   1      30.994  28.261  22.460  1.00  0.00     0.262 C 
ATOM     79  H   UNL A   1      31.952  29.995  22.090  1.00  0.00     0.163 HD
ATOM     80  O   UNL A   1      29.983  28.622  21.858  1.00  0.00    -0.268 OA
BRANCH  78  81
ATOM     81  C   UNL A   1      31.155  26.935  23.007  1.00  0.00     0.107 A 
ATOM     82  S   UNL A   1      30.510  26.637  24.570  1.00  0.00    -0.137 S 
ATOM     83  C   UNL A   1      31.764  25.809  22.493  1.00  0.00     0.048 A 
ATOM     84  C   UNL A   1      31.005  25.001  24.536  1.00  0.00     0.067 A 
ATOM     85  C   UNL A   1      31.681  24.690  23.377  1.00  0.00     0.029 A 
BRANCH  83  86
ATOM     86  S   UNL A   1      32.577  25.696  20.960  1.00  0.00    -0.020 S 
ATOM     87  O   UNL A   1      33.820  26.583  21.450  1.00  0.00    -0.768 OA
ATOM     88  O   UNL A   1      33.113  24.310  20.804  1.00  0.00    -0.269 OA
ENDBRANCH  83  86
ENDBRANCH  78  81
ENDBRANCH  76  77
ENDBRANCH  75  76
ENDBRANCH  74  75
ENDBRANCH   1  74
TORSDOF 15
ENDMDL
MODEL 2
REMARK VINA RESULT:     -10.5      4.866     10.501
REMARK SMILES O=C(NCCCCNC(=O)c1sccc1[S@](=O)[O-])c1ccc(-c2c3nc(c(-c4c(F)cc(S(=O)(=O)[O-])cc4F)c4ccc([nH]4)c(-c4c(F)cc(S(=O)(=O)[O-])cc4F)c4nc(c(-c5c(F)cc(S(=O)(=O)[O-])cc5F)c5ccc2[nH]5)C=C4)C=C3)cc1
REMARK SMILES IDX 4 1 3 2 1 3 2 4 19 6 20 7 84 8 21 9 83 10 22 11 23 12 24 13
REMARK SMILES IDX 77 14 25 15 82 16 76 17 78 18 26 19 81 20 75 21 74 22 27 24
REMARK SMILES IDX 61 25 40 26 60 27 41 28 44 29 59 30 79 31 42 32 43 33 58 35
REMARK SMILES IDX 80 36 45 37 28 38 29 39 38 40 30 41 31 42 37 43 39 44 32 45
REMARK SMILES IDX 33 46 34 47 35 48 36 49 62 50 63 51 72 52 64 53 65 54 71 55
REMARK SMILES IDX 73 56 66 57 67 58 68 59 69 60 70 61 46 62 47 63 56 64 48 65
REMARK SMILES IDX 49 66 55 67 57 68 50 69 51 70 52 71 53 72 54 73 5 74 6 75
REMARK SMILES IDX 7 76 8 77 9 78 10 80 11 81 12 82 15 83 13 84 14 85 16 86
REMARK SMILES IDX 18 87 17 88
REMARK H PARENT 3 5 78 23 44 34 8 79
REMARK Flexibility Score: inf
ROOT
ATOM      1  C   UNL A   1      37.429  32.948  30.555  1.00  0.00     0.116 C 
ENDROOT
BRANCH   1   2
ATOM      2  N   UNL A   1      36.698  31.905  31.264  1.00  0.00    -0.352 N 
ATOM      3  O   UNL A   1      36.129  29.821  31.903  1.00  0.00    -0.269 OA
ATOM      4  C   UNL A   1      36.932  30.551  31.329  1.00  0.00     0.251 C 
ATOM      5  H   UNL A   1      35.916  32.219  31.774  1.00  0.00     0.163 HD
BRANCH   4   6
ATOM      6  C   UNL A   1      38.124  29.972  30.670  1.00  0.00     0.039 A 
ATOM      7  C   UNL A   1      39.166  29.434  31.425  1.00  0.00     0.014 A 
ATOM      8  C   UNL A   1      38.215  30.003  29.275  1.00  0.00     0.014 A 
ATOM      9  C   UNL A   1      40.368  29.110  30.806  1.00  0.00     0.010 A 
ATOM     10  C   UNL A   1      39.394  29.590  28.645  1.00  0.00     0.010 A 
ATOM     11  C   UNL A   1      40.503  29.197  29.409  1.00  0.00    -0.014 A 
BRANCH  11  12
ATOM     12  C   UNL A   1      41.817  28.877  28.788  1.00  0.00     0.031 A 
ATOM     13  C   UNL A   1      42.926  29.897  28.748  1.00  0.00     0.074 A 
ATOM     14  C   UNL A   1      42.031  27.634  28.316  1.00  0.00     0.049 A 
ATOM     15  N   UNL A   1      44.153  29.763  28.308  1.00  0.00    -0.248 NA
ATOM     16  C   UNL A   1      42.622  31.244  29.258  1.00  0.00     0.031 C 
ATOM     17  C   UNL A   1      41.032  26.561  28.283  1.00  0.00     0.029 A 
ATOM     18  N   UNL A   1      43.161  27.048  27.806  1.00  0.00    -0.354 N 
ATOM     19  C   UNL A   1      44.754  31.009  28.457  1.00  0.00     0.074 A 
ATOM     20  C   UNL A   1      43.752  31.892  29.013  1.00  0.00     0.031 C 
ATOM     21  C   UNL A   1      41.610  25.435  27.843  1.00  0.00     0.029 A 
ATOM     22  C   UNL A   1      43.004  25.714  27.515  1.00  0.00     0.049 A 
ATOM     23  H   UNL A   1      44.004  27.536  27.664  1.00  0.00     0.167 HD
ATOM     24  C   UNL A   1      46.025  31.379  28.164  1.00  0.00     0.037 A 
ATOM     25  C   UNL A   1      43.883  24.811  27.041  1.00  0.00     0.037 A 
ATOM     26  C   UNL A   1      47.032  30.487  27.649  1.00  0.00     0.049 A 
ATOM     27  C   UNL A   1      45.295  25.237  26.762  1.00  0.00     0.074 A 
ATOM     28  C   UNL A   1      48.358  30.761  27.358  1.00  0.00     0.029 A 
ATOM     29  N   UNL A   1      46.829  29.146  27.358  1.00  0.00    -0.354 N 
ATOM     30  N   UNL A   1      45.846  26.415  26.927  1.00  0.00    -0.248 NA
ATOM     31  C   UNL A   1      46.203  24.212  26.230  1.00  0.00     0.031 C 
ATOM     32  C   UNL A   1      48.950  29.591  26.865  1.00  0.00     0.029 A 
ATOM     33  C   UNL A   1      48.002  28.582  26.882  1.00  0.00     0.049 A 
ATOM     34  H   UNL A   1      45.978  28.666  27.474  1.00  0.00     0.167 HD
ATOM     35  C   UNL A   1      47.170  26.271  26.531  1.00  0.00     0.074 A 
ATOM     36  C   UNL A   1      47.341  24.888  26.135  1.00  0.00     0.031 C 
ATOM     37  C   UNL A   1      48.155  27.202  26.496  1.00  0.00     0.037 A 
BRANCH  24  38
ATOM     38  C   UNL A   1      46.397  32.820  28.378  1.00  0.00     0.058 A 
ATOM     39  C   UNL A   1      46.843  33.292  29.621  1.00  0.00     0.135 A 
ATOM     40  C   UNL A   1      46.338  33.733  27.313  1.00  0.00     0.135 A 
ATOM     41  F   UNL A   1      46.904  32.465  30.677  1.00  0.00    -0.206 F 
ATOM     42  C   UNL A   1      47.196  34.626  29.809  1.00  0.00     0.059 A 
ATOM     43  C   UNL A   1      46.705  35.067  27.472  1.00  0.00     0.059 A 
ATOM     44  F   UNL A   1      45.919  33.333  26.102  1.00  0.00    -0.206 F 
ATOM     45  C   UNL A   1      47.118  35.507  28.729  1.00  0.00     0.060 A 
BRANCH  45  46
ATOM     46  S   UNL A   1      47.571  37.237  28.983  1.00  0.00     0.124 S 
ATOM     47  O   UNL A   1      48.357  37.152  30.210  1.00  0.00    -0.237 OA
ATOM     48  O   UNL A   1      48.323  37.548  27.771  1.00  0.00    -0.237 OA
ATOM     49  O   UNL A   1      46.283  37.911  29.107  1.00  0.00    -0.744 OA
ENDBRANCH  45  46
ENDBRANCH  24  38
BRANCH  25  50
ATOM     50  C   UNL A   1      43.448  23.408  26.824  1.00  0.00     0.058 A 
ATOM     51  C   UNL A   1      43.253  22.905  25.530  1.00  0.00     0.135 A 
ATOM     52  C   UNL A   1      43.255  22.534  27.904  1.00  0.00     0.135 A 
ATOM     53  F   UNL A   1      43.423  23.706  24.467  1.00  0.00    -0.206 F 
ATOM     54  C   UNL A   1      42.875  21.585  25.312  1.00  0.00     0.059 A 
ATOM     55  C   UNL A   1      42.900  21.204  27.711  1.00  0.00     0.059 A 
ATOM     56  F   UNL A   1      43.448  22.965  29.160  1.00  0.00    -0.206 F 
ATOM     57  C   UNL A   1      42.703  20.741  26.411  1.00  0.00     0.060 A 
BRANCH  57  58
ATOM     58  S   UNL A   1      42.279  19.009  26.122  1.00  0.00     0.124 S 
ATOM     59  O   UNL A   1      43.190  18.663  25.038  1.00  0.00    -0.237 OA
ATOM     60  O   UNL A   1      42.566  18.398  27.416  1.00  0.00    -0.237 OA
ATOM     61  O   UNL A   1      40.864  19.069  25.768  1.00  0.00    -0.744 OA
ENDBRANCH  57  58
ENDBRANCH  25  50
BRANCH  37  62
ATOM     62  C   UNL A   1      49.508  26.744  26.034  1.00  0.00     0.058 A 
ATOM     63  C   UNL A   1      49.969  27.009  24.736  1.00  0.00     0.135 A 
ATOM     64  C   UNL A   1      50.358  26.048  26.907  1.00  0.00     0.135 A 
ATOM     65  F   UNL A   1      49.188  27.665  23.863  1.00  0.00    -0.206 F 
ATOM     66  C   UNL A   1      51.218  26.573  24.307  1.00  0.00     0.059 A 
ATOM     67  C   UNL A   1      51.619  25.619  26.506  1.00  0.00     0.059 A 
ATOM     68  F   UNL A   1      49.966  25.778  28.162  1.00  0.00    -0.206 F 
ATOM     69  C   UNL A   1      52.034  25.873  25.199  1.00  0.00     0.060 A 
BRANCH  69  70
ATOM     70  S   UNL A   1      53.659  25.319  24.640  1.00  0.00     0.124 S 
ATOM     71  O   UNL A   1      53.630  25.700  23.233  1.00  0.00    -0.237 OA
ATOM     72  O   UNL A   1      54.565  26.089  25.487  1.00  0.00    -0.237 OA
ATOM     73  O   UNL A   1      53.634  23.883  24.906  1.00  0.00    -0.744 OA
ENDBRANCH  69  70
ENDBRANCH  37  62
ENDBRANCH  11  12
ENDBRANCH   4   6
ENDBRANCH   1   2
BRANCH   1  74
ATOM     74  C   UNL A   1      38.347  33.765  31.457  1.00  0.00     0.023 C 
BRANCH  74  75
ATOM     75  C   UNL A   1      37.792  34.102  32.840  1.00  0.00     0.023 C 
BRANCH  75  76
ATOM     76  C   UNL A   1      36.458  34.842  32.849  1.00  0.00     0.116 C 
BRANCH  76  77
ATOM     77  N   UNL A   1      35.344  34.008  33.254  1.00  0.00    -0.351 N 
ATOM     78  C   UNL A   1      34.120  33.883  32.636  1.00  0.00     0.262 C 
ATOM     79  H   UNL A   1      35.477  33.468  34.066  1.00  0.00     0.163 HD
ATOM     80  O   UNL A   1      33.317  33.060  33.076  1.00  0.00    -0.268 OA
BRANCH  78  81
ATOM     81  C   UNL A   1      33.818  34.770  31.538  1.00  0.00     0.107 A 
ATOM     82  S   UNL A   1      34.140  34.204  29.948  1.00  0.00    -0.137 S 
ATOM     83  C   UNL A   1      33.304  36.049  31.519  1.00  0.00     0.048 A 
ATOM     84  C   UNL A   1      33.552  35.647  29.244  1.00  0.00     0.067 A 
ATOM     85  C   UNL A   1      33.152  36.559  30.194  1.00  0.00     0.029 A 
BRANCH  83  86
ATOM     86  S   UNL A   1      32.883  37.002  32.913  1.00  0.00    -0.020 S 
ATOM     87  O   UNL A   1      33.055  38.391  32.129  1.00  0.00    -0.768 OA
ATOM     88  O   UNL A   1      31.417  36.863  33.162  1.00  0.00    -0.269 OA
ENDBRANCH  83  86
ENDBRANCH  78  81
ENDBRANCH  76  77
ENDBRANCH  75  76
ENDBRANCH  74  75
ENDBRANCH   1  74
TORSDOF 15
ENDMDL
MODEL 3
REMARK VINA RESULT:     -10.5      5.963     11.273
REMARK SMILES O=C(NCCCCNC(=O)c1sccc1[S@](=O)[O-])c1ccc(-c2c3nc(c(-c4c(F)cc(S(=O)(=O)[O-])cc4F)c4ccc([nH]4)c(-c4c(F)cc(S(=O)(=O)[O-])cc4F)c4nc(c(-c5c(F)cc(S(=O)(=O)[O-])cc5F)c5ccc2[nH]5)C=C4)C=C3)cc1
REMARK SMILES IDX 4 1 3 2 1 3 2 4 19 6 20 7 84 8 21 9 83 10 22 11 23 12 24 13
REMARK SMILES IDX 77 14 25 15 82 16 76 17 78 18 26 19 81 20 75 21 74 22 27 24
REMARK SMILES IDX 61 25 40 26 60 27 41 28 44 29 59 30 79 31 42 32 43 33 58 35
REMARK SMILES IDX 80 36 45 37 28 38 29 39 38 40 30 41 31 42 37 43 39 44 32 45
REMARK SMILES IDX 33 46 34 47 35 48 36 49 62 50 63 51 72 52 64 53 65 54 71 55
REMARK SMILES IDX 73 56 66 57 67 58 68 59 69 60 70 61 46 62 47 63 56 64 48 65
REMARK SMILES IDX 49 66 55 67 57 68 50 69 51 70 52 71 53 72 54 73 5 74 6 75
REMARK SMILES IDX 7 76 8 77 9 78 10 80 11 81 12 82 15 83 13 84 14 85 16 86
REMARK SMILES IDX 18 87 17 88
REMARK H PARENT 3 5 78 23 44 34 8 79
REMARK Flexibility Score: inf
ROOT
ATOM      1  C   UNL A   1      45.353  26.391  26.324  1.00  0.00     0.116 C 
ENDROOT
BRANCH   1   2
ATOM      2  N   UNL A   1      44.304  25.987  25.397  1.00  0.00    -0.352 N 
ATOM      3  O   UNL A   1      42.213  25.631  24.636  1.00  0.00    -0.269 OA
ATOM      4  C   UNL A   1      42.939  26.139  25.485  1.00  0.00     0.251 C 
ATOM      5  H   UNL A   1      44.622  25.535  24.581  1.00  0.00     0.163 HD
BRANCH   4   6
ATOM      6  C   UNL A   1      42.348  26.875  26.625  1.00  0.00     0.039 A 
ATOM      7  C   UNL A   1      42.470  28.261  26.720  1.00  0.00     0.014 A 
ATOM      8  C   UNL A   1      41.694  26.160  27.634  1.00  0.00     0.014 A 
ATOM      9  C   UNL A   1      42.116  28.903  27.902  1.00  0.00     0.010 A 
ATOM     10  C   UNL A   1      41.255  26.824  28.785  1.00  0.00     0.010 A 
ATOM     11  C   UNL A   1      41.516  28.191  28.955  1.00  0.00    -0.014 A 
BRANCH  11  12
ATOM     12  C   UNL A   1      41.187  28.907  30.217  1.00  0.00     0.031 A 
ATOM     13  C   UNL A   1      42.056  28.768  31.440  1.00  0.00     0.074 A 
ATOM     14  C   UNL A   1      40.129  29.742  30.237  1.00  0.00     0.049 A 
ATOM     15  N   UNL A   1      41.954  29.373  32.597  1.00  0.00    -0.248 NA
ATOM     16  C   UNL A   1      43.182  27.822  31.362  1.00  0.00     0.031 C 
ATOM     17  C   UNL A   1      39.200  29.952  29.123  1.00  0.00     0.029 A 
ATOM     18  N   UNL A   1      39.675  30.594  31.211  1.00  0.00    -0.354 N 
ATOM     19  C   UNL A   1      42.975  28.861  33.391  1.00  0.00     0.074 A 
ATOM     20  C   UNL A   1      43.678  27.883  32.590  1.00  0.00     0.031 C 
ATOM     21  C   UNL A   1      38.330  30.917  29.451  1.00  0.00     0.029 A 
ATOM     22  C   UNL A   1      38.605  31.360  30.814  1.00  0.00     0.049 A 
ATOM     23  H   UNL A   1      40.077  30.652  32.107  1.00  0.00     0.167 HD
ATOM     24  C   UNL A   1      43.300  29.183  34.668  1.00  0.00     0.037 A 
ATOM     25  C   UNL A   1      37.921  32.316  31.470  1.00  0.00     0.037 A 
ATOM     26  C   UNL A   1      42.625  30.187  35.449  1.00  0.00     0.049 A 
ATOM     27  C   UNL A   1      38.326  32.682  32.867  1.00  0.00     0.074 A 
ATOM     28  C   UNL A   1      42.907  30.610  36.738  1.00  0.00     0.029 A 
ATOM     29  N   UNL A   1      41.540  30.933  35.014  1.00  0.00    -0.354 N 
ATOM     30  N   UNL A   1      39.306  32.198  33.592  1.00  0.00    -0.248 NA
ATOM     31  C   UNL A   1      37.532  33.720  33.537  1.00  0.00     0.031 C 
ATOM     32  C   UNL A   1      41.975  31.594  37.090  1.00  0.00     0.029 A 
ATOM     33  C   UNL A   1      41.134  31.807  36.011  1.00  0.00     0.049 A 
ATOM     34  H   UNL A   1      41.120  30.854  34.128  1.00  0.00     0.167 HD
ATOM     35  C   UNL A   1      39.255  32.882  34.800  1.00  0.00     0.074 A 
ATOM     36  C   UNL A   1      38.159  33.825  34.702  1.00  0.00     0.031 C 
ATOM     37  C   UNL A   1      40.044  32.740  35.894  1.00  0.00     0.037 A 
BRANCH  24  38
ATOM     38  C   UNL A   1      44.432  28.428  35.309  1.00  0.00     0.058 A 
ATOM     39  C   UNL A   1      45.757  28.885  35.245  1.00  0.00     0.135 A 
ATOM     40  C   UNL A   1      44.180  27.248  36.028  1.00  0.00     0.135 A 
ATOM     41  F   UNL A   1      46.056  30.000  34.558  1.00  0.00    -0.206 F 
ATOM     42  C   UNL A   1      46.798  28.186  35.850  1.00  0.00     0.059 A 
ATOM     43  C   UNL A   1      45.202  26.543  36.658  1.00  0.00     0.059 A 
ATOM     44  F   UNL A   1      42.929  26.768  36.121  1.00  0.00    -0.206 F 
ATOM     45  C   UNL A   1      46.511  27.012  36.550  1.00  0.00     0.060 A 
BRANCH  45  46
ATOM     46  S   UNL A   1      47.868  26.108  37.326  1.00  0.00     0.124 S 
ATOM     47  O   UNL A   1      47.149  25.023  37.988  1.00  0.00    -0.237 OA
ATOM     48  O   UNL A   1      48.684  25.719  36.181  1.00  0.00    -0.237 OA
ATOM     49  O   UNL A   1      48.470  27.097  38.214  1.00  0.00    -0.744 OA
ENDBRANCH  45  46
ENDBRANCH  24  38
BRANCH  25  50
ATOM     50  C   UNL A   1      36.795  33.007  30.792  1.00  0.00     0.058 A 
ATOM     51  C   UNL A   1      35.464  32.667  31.076  1.00  0.00     0.135 A 
ATOM     52  C   UNL A   1      37.026  34.045  29.877  1.00  0.00     0.135 A 
ATOM     53  F   UNL A   1      35.195  31.679  31.942  1.00  0.00    -0.206 F 
ATOM     54  C   UNL A   1      34.401  33.327  30.471  1.00  0.00     0.059 A 
ATOM     55  C   UNL A   1      35.980  34.735  29.276  1.00  0.00     0.059 A 
ATOM     56  F   UNL A   1      38.283  34.418  29.587  1.00  0.00    -0.206 F 
ATOM     57  C   UNL A   1      34.669  34.362  29.574  1.00  0.00     0.060 A 
BRANCH  57  58
ATOM     58  S   UNL A   1      33.285  35.263  28.841  1.00  0.00     0.124 S 
ATOM     59  O   UNL A   1      33.981  36.259  28.035  1.00  0.00    -0.237 OA
ATOM     60  O   UNL A   1      32.588  34.216  28.101  1.00  0.00    -0.237 OA
ATOM     61  O   UNL A   1      32.571  35.777  30.006  1.00  0.00    -0.744 OA
ENDBRANCH  57  58
ENDBRANCH  25  50
BRANCH  37  62
ATOM     62  C   UNL A   1      39.759  33.643  37.059  1.00  0.00     0.058 A 
ATOM     63  C   UNL A   1      40.345  34.913  37.164  1.00  0.00     0.135 A 
ATOM     64  C   UNL A   1      38.874  33.239  38.071  1.00  0.00     0.135 A 
ATOM     65  F   UNL A   1      41.203  35.340  36.224  1.00  0.00    -0.206 F 
ATOM     66  C   UNL A   1      40.088  35.743  38.250  1.00  0.00     0.059 A 
ATOM     67  C   UNL A   1      38.587  34.061  39.157  1.00  0.00     0.059 A 
ATOM     68  F   UNL A   1      38.280  32.037  38.011  1.00  0.00    -0.206 F 
ATOM     69  C   UNL A   1      39.212  35.305  39.245  1.00  0.00     0.060 A 
BRANCH  69  70
ATOM     70  S   UNL A   1      38.873  36.390  40.647  1.00  0.00     0.124 S 
ATOM     71  O   UNL A   1      38.518  37.635  39.975  1.00  0.00    -0.237 OA
ATOM     72  O   UNL A   1      37.778  35.702  41.324  1.00  0.00    -0.237 OA
ATOM     73  O   UNL A   1      40.139  36.405  41.374  1.00  0.00    -0.744 OA
ENDBRANCH  69  70
ENDBRANCH  37  62
ENDBRANCH  11  12
ENDBRANCH   4   6
ENDBRANCH   1   2
BRANCH   1  74
ATOM     74  C   UNL A   1      46.087  25.215  26.959  1.00  0.00     0.023 C 
BRANCH  74  75
ATOM     75  C   UNL A   1      45.246  24.322  27.871  1.00  0.00     0.023 C 
BRANCH  75  76
ATOM     76  C   UNL A   1      44.893  22.951  27.303  1.00  0.00     0.116 C 
BRANCH  76  77
ATOM     77  N   UNL A   1      44.776  22.944  25.858  1.00  0.00    -0.351 N 
ATOM     78  C   UNL A   1      43.756  22.415  25.100  1.00  0.00     0.262 C 
ATOM     79  H   UNL A   1      45.513  23.366  25.360  1.00  0.00     0.163 HD
ATOM     80  O   UNL A   1      43.783  22.572  23.879  1.00  0.00    -0.268 OA
BRANCH  78  81
ATOM     81  C   UNL A   1      42.736  21.646  25.773  1.00  0.00     0.107 A 
ATOM     82  S   UNL A   1      41.422  22.507  26.468  1.00  0.00    -0.137 S 
ATOM     83  C   UNL A   1      42.612  20.289  25.982  1.00  0.00     0.048 A 
ATOM     84  C   UNL A   1      40.674  21.067  27.004  1.00  0.00     0.067 A 
ATOM     85  C   UNL A   1      41.422  19.952  26.697  1.00  0.00     0.029 A 
BRANCH  83  86
ATOM     86  S   UNL A   1      43.745  19.069  25.479  1.00  0.00    -0.020 S 
ATOM     87  O   UNL A   1      42.715  17.870  25.753  1.00  0.00    -0.768 OA
ATOM     88  O   UNL A   1      43.893  19.138  23.994  1.00  0.00    -0.269 OA
ENDBRANCH  83  86
ENDBRANCH  78  81
ENDBRANCH  76  77
ENDBRANCH  75  76
ENDBRANCH  74  75
ENDBRANCH   1  74
TORSDOF 15
ENDMDL
