MODEL 1
REMARK VINA RESULT:     -11.9      0.000      0.000
REMARK SMILES CCCc1cc2c(cc1Cl)C=C(C(=O)NCCCCNC(=O)c1ccc(-c3c4nc(c(-c5c(F)cc(S(=O)(=O)[O-])cc5F)c5ccc([nH]5)c(-c5c(F)cc(S(=O)(=O)[O-])cc5F)c5nc(c(-c6c(F)cc(S(=O)(=O)[O-])cc6F)c6ccc3[nH]6)C=C5)C=C4)cc1)[C@@H](C(F)(F)F)O2
REMARK SMILES IDX 18 1 17 2 16 3 15 4 13 5 14 6 12 8 4 9 5 10 9 11 6 12 8 13
REMARK SMILES IDX 10 14 7 15 94 16 11 17 89 18 3 19 2 20 1 21 90 22 91 23
REMARK SMILES IDX 92 24 93 25 19 26 20 27 21 28 22 30 23 31 24 32 88 33 25 34
REMARK SMILES IDX 87 35 26 36 27 37 28 38 81 39 29 40 86 41 80 42 82 43 30 44
REMARK SMILES IDX 85 45 79 46 78 47 31 49 65 50 44 51 64 52 45 53 48 54 63 55
REMARK SMILES IDX 83 56 46 57 47 58 62 60 84 61 49 62 32 63 33 64 42 65 34 66
REMARK SMILES IDX 35 67 41 68 43 69 36 70 37 71 38 72 39 73 40 74 66 75 67 76
REMARK SMILES IDX 76 77 68 78 69 79 75 80 77 81 70 82 71 83 72 84 73 85 74 86
REMARK SMILES IDX 50 87 51 88 60 89 52 90 53 91 59 92 61 93 54 94 55 95 56 96
REMARK SMILES IDX 57 97 58 98
REMARK H PARENT 15 7 20 29 82 48 48 59
REMARK Flexibility Score: inf
ROOT
ATOM      1  C   UNL A   1      37.420  23.474  24.917  1.00  0.00     0.023 C 
ENDROOT
BRANCH   1   2
ATOM      2  C   UNL A   1      37.361  21.987  24.556  1.00  0.00     0.023 C 
BRANCH   2   3
ATOM      3  C   UNL A   1      36.873  21.086  25.687  1.00  0.00     0.116 C 
BRANCH   3   4
ATOM      4  N   UNL A   1      35.938  20.074  25.225  1.00  0.00    -0.352 N 
ATOM      5  C   UNL A   1      34.635  20.030  24.858  1.00  0.00     0.251 C 
ATOM      6  O   UNL A   1      34.216  18.921  24.514  1.00  0.00    -0.270 OA
ATOM      7  H   UNL A   1      36.363  19.189  25.162  1.00  0.00     0.163 HD
BRANCH   5   8
ATOM      8  C   UNL A   1      33.707  21.200  24.843  1.00  0.00     0.067 C 
ATOM      9  C   UNL A   1      31.130  25.338  23.472  1.00  0.00    -0.026 A 
ATOM     10  C   UNL A   1      31.112  24.474  24.577  1.00  0.00     0.052 A 
ATOM     11  C   UNL A   1      32.044  25.067  22.440  1.00  0.00     0.045 A 
ATOM     12  C   UNL A   1      31.952  23.365  24.637  1.00  0.00     0.128 A 
ATOM     13  C   UNL A   1      32.909  23.965  22.518  1.00  0.00     0.032 A 
ATOM     14  Cl  UNL A   1      32.153  26.058  21.027  1.00  0.00    -0.084 Cl
ATOM     15  C   UNL A   1      32.858  23.104  23.617  1.00  0.00     0.019 A 
ATOM     16  O   UNL A   1      31.781  22.544  25.711  1.00  0.00    -0.475 OA
ATOM     17  C   UNL A   1      33.705  21.922  23.704  1.00  0.00     0.025 C 
ATOM     18  C   UNL A   1      32.860  21.618  26.012  1.00  0.00     0.314 C 
BRANCH   9  19
ATOM     19  C   UNL A   1      30.158  26.497  23.457  1.00  0.00     0.037 C 
BRANCH  19  20
ATOM     20  C   UNL A   1      30.558  27.667  24.367  1.00  0.00     0.001 C 
ATOM     21  C   UNL A   1      31.664  28.549  23.798  1.00  0.00     0.004 C 
ENDBRANCH  19  20
ENDBRANCH   9  19
BRANCH  18  22
ATOM     22  C   UNL A   1      33.681  22.207  27.172  1.00  0.00     0.429 C 
ATOM     23  F   UNL A   1      32.860  22.803  28.075  1.00  0.00    -0.167 F 
ATOM     24  F   UNL A   1      34.380  21.270  27.851  1.00  0.00    -0.167 F 
ATOM     25  F   UNL A   1      34.566  23.140  26.756  1.00  0.00    -0.167 F 
ENDBRANCH  18  22
ENDBRANCH   5   8
ENDBRANCH   3   4
ENDBRANCH   2   3
ENDBRANCH   1   2
BRANCH   1  26
ATOM     26  C   UNL A   1      38.176  23.812  26.201  1.00  0.00     0.116 C 
BRANCH  26  27
ATOM     27  N   UNL A   1      39.619  23.619  26.123  1.00  0.00    -0.352 N 
ATOM     28  C   UNL A   1      40.593  24.400  26.707  1.00  0.00     0.251 C 
ATOM     29  H   UNL A   1      39.931  22.848  25.596  1.00  0.00     0.163 HD
ATOM     30  O   UNL A   1      41.785  24.166  26.539  1.00  0.00    -0.269 OA
BRANCH  28  31
ATOM     31  C   UNL A   1      40.151  25.569  27.490  1.00  0.00     0.039 A 
ATOM     32  C   UNL A   1      40.765  26.807  27.285  1.00  0.00     0.014 A 
ATOM     33  C   UNL A   1      39.260  25.371  28.547  1.00  0.00     0.014 A 
ATOM     34  C   UNL A   1      40.620  27.800  28.247  1.00  0.00     0.010 A 
ATOM     35  C   UNL A   1      39.071  26.393  29.478  1.00  0.00     0.010 A 
ATOM     36  C   UNL A   1      39.804  27.587  29.371  1.00  0.00    -0.014 A 
BRANCH  36  37
ATOM     37  C   UNL A   1      39.797  28.582  30.470  1.00  0.00     0.031 A 
ATOM     38  C   UNL A   1      40.822  28.500  31.571  1.00  0.00     0.074 A 
ATOM     39  C   UNL A   1      38.919  29.601  30.441  1.00  0.00     0.049 A 
ATOM     40  N   UNL A   1      40.955  29.251  32.635  1.00  0.00    -0.248 NA
ATOM     41  C   UNL A   1      41.832  27.432  31.465  1.00  0.00     0.031 C 
ATOM     42  C   UNL A   1      37.907  29.812  29.404  1.00  0.00     0.029 A 
ATOM     43  N   UNL A   1      38.753  30.661  31.292  1.00  0.00    -0.354 N 
ATOM     44  C   UNL A   1      42.038  28.734  33.336  1.00  0.00     0.074 A 
ATOM     45  C   UNL A   1      42.524  27.597  32.584  1.00  0.00     0.031 C 
ATOM     46  C   UNL A   1      37.256  30.958  29.656  1.00  0.00     0.029 A 
ATOM     47  C   UNL A   1      37.766  31.531  30.898  1.00  0.00     0.049 A 
ATOM     48  H   UNL A   1      39.291  30.788  32.107  1.00  0.00     0.167 HD
ATOM     49  C   UNL A   1      42.581  29.170  34.498  1.00  0.00     0.037 A 
ATOM     50  C   UNL A   1      37.314  32.657  31.480  1.00  0.00     0.037 A 
ATOM     51  C   UNL A   1      42.115  30.321  35.228  1.00  0.00     0.049 A 
ATOM     52  C   UNL A   1      37.914  33.106  32.779  1.00  0.00     0.074 A 
ATOM     53  C   UNL A   1      42.592  30.837  36.420  1.00  0.00     0.029 A 
ATOM     54  N   UNL A   1      41.075  31.143  34.824  1.00  0.00    -0.354 N 
ATOM     55  N   UNL A   1      38.895  32.567  33.461  1.00  0.00    -0.248 NA
ATOM     56  C   UNL A   1      37.332  34.305  33.398  1.00  0.00     0.031 C 
ATOM     57  C   UNL A   1      41.826  31.963  36.748  1.00  0.00     0.029 A 
ATOM     58  C   UNL A   1      40.890  32.160  35.746  1.00  0.00     0.049 A 
ATOM     59  H   UNL A   1      40.545  31.021  34.005  1.00  0.00     0.167 HD
ATOM     60  C   UNL A   1      39.042  33.353  34.597  1.00  0.00     0.074 A 
ATOM     61  C   UNL A   1      38.067  34.421  34.496  1.00  0.00     0.031 C 
ATOM     62  C   UNL A   1      39.900  33.199  35.636  1.00  0.00     0.037 A 
BRANCH  49  63
ATOM     63  C   UNL A   1      43.732  28.390  35.063  1.00  0.00     0.058 A 
ATOM     64  C   UNL A   1      45.061  28.699  34.737  1.00  0.00     0.135 A 
ATOM     65  C   UNL A   1      43.505  27.342  35.969  1.00  0.00     0.135 A 
ATOM     66  F   UNL A   1      45.331  29.679  33.858  1.00  0.00    -0.206 F 
ATOM     67  C   UNL A   1      46.126  27.986  35.278  1.00  0.00     0.059 A 
ATOM     68  C   UNL A   1      44.556  26.625  36.534  1.00  0.00     0.059 A 
ATOM     69  F   UNL A   1      42.251  27.002  36.309  1.00  0.00    -0.206 F 
ATOM     70  C   UNL A   1      45.863  26.948  36.173  1.00  0.00     0.060 A 
BRANCH  70  71
ATOM     71  S   UNL A   1      47.255  26.030  36.870  1.00  0.00     0.124 S 
ATOM     72  O   UNL A   1      47.280  24.850  36.010  1.00  0.00    -0.237 OA
ATOM     73  O   UNL A   1      48.364  26.962  36.698  1.00  0.00    -0.237 OA
ATOM     74  O   UNL A   1      46.847  25.793  38.251  1.00  0.00    -0.744 OA
ENDBRANCH  70  71
ENDBRANCH  49  63
BRANCH  50  75
ATOM     75  C   UNL A   1      36.220  33.422  30.833  1.00  0.00     0.058 A 
ATOM     76  C   UNL A   1      34.931  33.433  31.384  1.00  0.00     0.135 A 
ATOM     77  C   UNL A   1      36.457  34.195  29.687  1.00  0.00     0.135 A 
ATOM     78  F   UNL A   1      34.662  32.704  32.477  1.00  0.00    -0.206 F 
ATOM     79  C   UNL A   1      33.911  34.193  30.823  1.00  0.00     0.059 A 
ATOM     80  C   UNL A   1      35.457  34.976  29.118  1.00  0.00     0.059 A 
ATOM     81  F   UNL A   1      37.680  34.223  29.135  1.00  0.00    -0.206 F 
ATOM     82  C   UNL A   1      34.186  34.967  29.693  1.00  0.00     0.060 A 
BRANCH  82  83
ATOM     83  S   UNL A   1      32.883  36.021  29.018  1.00  0.00     0.124 S 
ATOM     84  O   UNL A   1      32.186  35.094  28.135  1.00  0.00    -0.237 OA
ATOM     85  O   UNL A   1      32.159  36.427  30.220  1.00  0.00    -0.237 OA
ATOM     86  O   UNL A   1      33.629  37.087  28.357  1.00  0.00    -0.744 OA
ENDBRANCH  82  83
ENDBRANCH  50  75
BRANCH  62  87
ATOM     87  C   UNL A   1      39.804  34.203  36.746  1.00  0.00     0.058 A 
ATOM     88  C   UNL A   1      39.102  33.912  37.925  1.00  0.00     0.135 A 
ATOM     89  C   UNL A   1      40.431  35.453  36.640  1.00  0.00     0.135 A 
ATOM     90  F   UNL A   1      38.481  32.730  38.067  1.00  0.00    -0.206 F 
ATOM     91  C   UNL A   1      39.005  34.838  38.957  1.00  0.00     0.059 A 
ATOM     92  C   UNL A   1      40.360  36.389  37.666  1.00  0.00     0.059 A 
ATOM     93  F   UNL A   1      41.119  35.772  35.533  1.00  0.00    -0.206 F 
ATOM     94  C   UNL A   1      39.632  36.077  38.814  1.00  0.00     0.060 A 
BRANCH  94  95
ATOM     95  S   UNL A   1      39.510  37.274  40.162  1.00  0.00     0.124 S 
ATOM     96  O   UNL A   1      38.886  38.408  39.490  1.00  0.00    -0.237 OA
ATOM     97  O   UNL A   1      38.674  36.574  41.132  1.00  0.00    -0.237 OA
ATOM     98  O   UNL A   1      40.899  37.467  40.567  1.00  0.00    -0.744 OA
ENDBRANCH  94  95
ENDBRANCH  62  87
ENDBRANCH  36  37
ENDBRANCH  28  31
ENDBRANCH  26  27
ENDBRANCH   1  26
TORSDOF 17
ENDMDL
MODEL 2
REMARK VINA RESULT:     -11.9      6.382     11.818
REMARK SMILES CCCc1cc2c(cc1Cl)C=C(C(=O)NCCCCNC(=O)c1ccc(-c3c4nc(c(-c5c(F)cc(S(=O)(=O)[O-])cc5F)c5ccc([nH]5)c(-c5c(F)cc(S(=O)(=O)[O-])cc5F)c5nc(c(-c6c(F)cc(S(=O)(=O)[O-])cc6F)c6ccc3[nH]6)C=C5)C=C4)cc1)[C@@H](C(F)(F)F)O2
REMARK SMILES IDX 18 1 17 2 16 3 15 4 13 5 14 6 12 8 4 9 5 10 9 11 6 12 8 13
REMARK SMILES IDX 10 14 7 15 94 16 11 17 89 18 3 19 2 20 1 21 90 22 91 23
REMARK SMILES IDX 92 24 93 25 19 26 20 27 21 28 22 30 23 31 24 32 88 33 25 34
REMARK SMILES IDX 87 35 26 36 27 37 28 38 81 39 29 40 86 41 80 42 82 43 30 44
REMARK SMILES IDX 85 45 79 46 78 47 31 49 65 50 44 51 64 52 45 53 48 54 63 55
REMARK SMILES IDX 83 56 46 57 47 58 62 60 84 61 49 62 32 63 33 64 42 65 34 66
REMARK SMILES IDX 35 67 41 68 43 69 36 70 37 71 38 72 39 73 40 74 66 75 67 76
REMARK SMILES IDX 76 77 68 78 69 79 75 80 77 81 70 82 71 83 72 84 73 85 74 86
REMARK SMILES IDX 50 87 51 88 60 89 52 90 53 91 59 92 61 93 54 94 55 95 56 96
REMARK SMILES IDX 57 97 58 98
REMARK H PARENT 15 7 20 29 82 48 48 59
REMARK Flexibility Score: inf
ROOT
ATOM      1  C   UNL A   1      33.420  28.871  27.515  1.00  0.00     0.023 C 
ENDROOT
BRANCH   1   2
ATOM      2  C   UNL A   1      32.146  29.560  27.018  1.00  0.00     0.023 C 
BRANCH   2   3
ATOM      3  C   UNL A   1      32.348  30.442  25.789  1.00  0.00     0.116 C 
BRANCH   3   4
ATOM      4  N   UNL A   1      31.186  30.452  24.917  1.00  0.00    -0.352 N 
ATOM      5  C   UNL A   1      30.568  29.576  24.089  1.00  0.00     0.251 C 
ATOM      6  O   UNL A   1      29.564  30.006  23.513  1.00  0.00    -0.270 OA
ATOM      7  H   UNL A   1      30.728  31.323  24.932  1.00  0.00     0.163 HD
BRANCH   5   8
ATOM      8  C   UNL A   1      31.011  28.172  23.838  1.00  0.00     0.067 C 
ATOM      9  C   UNL A   1      31.715  23.169  24.172  1.00  0.00    -0.026 A 
ATOM     10  C   UNL A   1      32.075  24.166  23.254  1.00  0.00     0.052 A 
ATOM     11  C   UNL A   1      30.970  23.552  25.300  1.00  0.00     0.045 A 
ATOM     12  C   UNL A   1      31.682  25.490  23.437  1.00  0.00     0.128 A 
ATOM     13  C   UNL A   1      30.600  24.891  25.496  1.00  0.00     0.032 A 
ATOM     14  Cl  UNL A   1      30.463  22.410  26.496  1.00  0.00    -0.084 Cl
ATOM     15  C   UNL A   1      30.949  25.864  24.557  1.00  0.00     0.019 A 
ATOM     16  O   UNL A   1      32.007  26.353  22.435  1.00  0.00    -0.475 OA
ATOM     17  C   UNL A   1      30.537  27.254  24.704  1.00  0.00     0.025 C 
ATOM     18  C   UNL A   1      31.964  27.772  22.747  1.00  0.00     0.314 C 
BRANCH   9  19
ATOM     19  C   UNL A   1      32.140  21.746  23.885  1.00  0.00     0.037 C 
BRANCH  19  20
ATOM     20  C   UNL A   1      33.658  21.520  23.936  1.00  0.00     0.001 C 
ATOM     21  C   UNL A   1      34.245  21.554  25.343  1.00  0.00     0.004 C 
ENDBRANCH  19  20
ENDBRANCH   9  19
BRANCH  18  22
ATOM     22  C   UNL A   1      33.406  28.245  23.002  1.00  0.00     0.429 C 
ATOM     23  F   UNL A   1      34.256  27.660  22.120  1.00  0.00    -0.167 F 
ATOM     24  F   UNL A   1      33.556  29.580  22.849  1.00  0.00    -0.167 F 
ATOM     25  F   UNL A   1      33.839  27.935  24.244  1.00  0.00    -0.167 F 
ENDBRANCH  18  22
ENDBRANCH   5   8
ENDBRANCH   3   4
ENDBRANCH   2   3
ENDBRANCH   1   2
BRANCH   1  26
ATOM     26  C   UNL A   1      34.675  29.744  27.539  1.00  0.00     0.116 C 
BRANCH  26  27
ATOM     27  N   UNL A   1      34.818  30.564  28.736  1.00  0.00    -0.352 N 
ATOM     28  C   UNL A   1      35.925  30.654  29.552  1.00  0.00     0.251 C 
ATOM     29  H   UNL A   1      34.041  31.113  28.987  1.00  0.00     0.163 HD
ATOM     30  O   UNL A   1      35.919  31.351  30.561  1.00  0.00    -0.269 OA
BRANCH  28  31
ATOM     31  C   UNL A   1      37.098  29.831  29.203  1.00  0.00     0.039 A 
ATOM     32  C   UNL A   1      37.803  29.174  30.215  1.00  0.00     0.014 A 
ATOM     33  C   UNL A   1      37.586  29.877  27.896  1.00  0.00     0.014 A 
ATOM     34  C   UNL A   1      39.088  28.712  29.952  1.00  0.00     0.010 A 
ATOM     35  C   UNL A   1      38.853  29.359  27.624  1.00  0.00     0.010 A 
ATOM     36  C   UNL A   1      39.638  28.837  28.665  1.00  0.00    -0.014 A 
BRANCH  36  37
ATOM     37  C   UNL A   1      41.066  28.502  28.443  1.00  0.00     0.031 A 
ATOM     38  C   UNL A   1      42.132  29.539  28.686  1.00  0.00     0.074 A 
ATOM     39  C   UNL A   1      41.410  27.249  28.097  1.00  0.00     0.049 A 
ATOM     40  N   UNL A   1      43.426  29.449  28.511  1.00  0.00    -0.248 NA
ATOM     41  C   UNL A   1      41.687  30.850  29.188  1.00  0.00     0.031 C 
ATOM     42  C   UNL A   1      40.471  26.148  27.876  1.00  0.00     0.029 A 
ATOM     43  N   UNL A   1      42.641  26.685  27.894  1.00  0.00    -0.354 N 
ATOM     44  C   UNL A   1      43.946  30.693  28.854  1.00  0.00     0.074 A 
ATOM     45  C   UNL A   1      42.827  31.525  29.238  1.00  0.00     0.031 C 
ATOM     46  C   UNL A   1      41.163  25.029  27.613  1.00  0.00     0.029 A 
ATOM     47  C   UNL A   1      42.588  25.346  27.592  1.00  0.00     0.049 A 
ATOM     48  H   UNL A   1      43.483  27.191  27.959  1.00  0.00     0.167 HD
ATOM     49  C   UNL A   1      45.238  31.100  28.854  1.00  0.00     0.037 A 
ATOM     50  C   UNL A   1      43.577  24.475  27.317  1.00  0.00     0.037 A 
ATOM     51  C   UNL A   1      46.352  30.259  28.502  1.00  0.00     0.049 A 
ATOM     52  C   UNL A   1      44.997  24.956  27.298  1.00  0.00     0.074 A 
ATOM     53  C   UNL A   1      47.698  30.582  28.461  1.00  0.00     0.029 A 
ATOM     54  N   UNL A   1      46.251  28.923  28.146  1.00  0.00    -0.354 N 
ATOM     55  N   UNL A   1      45.464  26.152  27.561  1.00  0.00    -0.248 NA
ATOM     56  C   UNL A   1      46.023  23.973  26.925  1.00  0.00     0.031 C 
ATOM     57  C   UNL A   1      48.409  29.444  28.061  1.00  0.00     0.029 A 
ATOM     58  C   UNL A   1      47.508  28.407  27.879  1.00  0.00     0.049 A 
ATOM     59  H   UNL A   1      45.410  28.415  28.092  1.00  0.00     0.167 HD
ATOM     60  C   UNL A   1      46.837  26.071  27.374  1.00  0.00     0.074 A 
ATOM     61  C   UNL A   1      47.129  24.702  27.002  1.00  0.00     0.031 C 
ATOM     62  C   UNL A   1      47.772  27.047  27.490  1.00  0.00     0.037 A 
BRANCH  49  63
ATOM     63  C   UNL A   1      45.516  32.526  29.232  1.00  0.00     0.058 A 
ATOM     64  C   UNL A   1      45.804  32.894  30.554  1.00  0.00     0.135 A 
ATOM     65  C   UNL A   1      45.529  33.531  28.252  1.00  0.00     0.135 A 
ATOM     66  F   UNL A   1      45.783  31.973  31.532  1.00  0.00    -0.206 F 
ATOM     67  C   UNL A   1      46.081  34.214  30.896  1.00  0.00     0.059 A 
ATOM     68  C   UNL A   1      45.820  34.855  28.569  1.00  0.00     0.059 A 
ATOM     69  F   UNL A   1      45.255  33.232  26.972  1.00  0.00    -0.206 F 
ATOM     70  C   UNL A   1      46.083  35.188  29.897  1.00  0.00     0.060 A 
BRANCH  70  71
ATOM     71  S   UNL A   1      46.445  36.898  30.354  1.00  0.00     0.124 S 
ATOM     72  O   UNL A   1      45.100  37.448  30.498  1.00  0.00    -0.237 OA
ATOM     73  O   UNL A   1      47.200  36.740  31.592  1.00  0.00    -0.237 OA
ATOM     74  O   UNL A   1      47.210  37.398  29.216  1.00  0.00    -0.744 OA
ENDBRANCH  70  71
ENDBRANCH  49  63
BRANCH  50  75
ATOM     75  C   UNL A   1      43.240  23.061  27.021  1.00  0.00     0.058 A 
ATOM     76  C   UNL A   1      43.308  22.568  25.711  1.00  0.00     0.135 A 
ATOM     77  C   UNL A   1      42.896  22.169  28.047  1.00  0.00     0.135 A 
ATOM     78  F   UNL A   1      43.628  23.389  24.700  1.00  0.00    -0.206 F 
ATOM     79  C   UNL A   1      43.052  21.231  25.427  1.00  0.00     0.059 A 
ATOM     80  C   UNL A   1      42.653  20.824  27.790  1.00  0.00     0.059 A 
ATOM     81  F   UNL A   1      42.831  22.598  29.318  1.00  0.00    -0.206 F 
ATOM     82  C   UNL A   1      42.732  20.365  26.476  1.00  0.00     0.060 A 
BRANCH  82  83
ATOM     83  S   UNL A   1      42.488  18.612  26.116  1.00  0.00     0.124 S 
ATOM     84  O   UNL A   1      42.827  18.001  27.396  1.00  0.00    -0.237 OA
ATOM     85  O   UNL A   1      41.077  18.566  25.740  1.00  0.00    -0.237 OA
ATOM     86  O   UNL A   1      43.426  18.364  25.026  1.00  0.00    -0.744 OA
ENDBRANCH  82  83
ENDBRANCH  50  75
BRANCH  62  87
ATOM     87  C   UNL A   1      49.191  26.661  27.194  1.00  0.00     0.058 A 
ATOM     88  C   UNL A   1      49.687  26.678  25.882  1.00  0.00     0.135 A 
ATOM     89  C   UNL A   1      50.065  26.290  28.228  1.00  0.00     0.135 A 
ATOM     90  F   UNL A   1      48.885  27.020  24.861  1.00  0.00    -0.206 F 
ATOM     91  C   UNL A   1      50.999  26.317  25.600  1.00  0.00     0.059 A 
ATOM     92  C   UNL A   1      51.386  25.941  27.970  1.00  0.00     0.059 A 
ATOM     93  F   UNL A   1      49.636  26.267  29.499  1.00  0.00    -0.206 F 
ATOM     94  C   UNL A   1      51.840  25.944  26.651  1.00  0.00     0.060 A 
BRANCH  94  95
ATOM     95  S   UNL A   1      53.546  25.485  26.278  1.00  0.00     0.124 S 
ATOM     96  O   UNL A   1      53.927  26.524  25.328  1.00  0.00    -0.237 OA
ATOM     97  O   UNL A   1      54.187  25.559  27.588  1.00  0.00    -0.237 OA
ATOM     98  O   UNL A   1      53.420  24.140  25.725  1.00  0.00    -0.744 OA
ENDBRANCH  94  95
ENDBRANCH  62  87
ENDBRANCH  36  37
ENDBRANCH  28  31
ENDBRANCH  26  27
ENDBRANCH   1  26
TORSDOF 17
ENDMDL
MODEL 3
REMARK VINA RESULT:     -11.6      1.281      8.229
REMARK SMILES CCCc1cc2c(cc1Cl)C=C(C(=O)NCCCCNC(=O)c1ccc(-c3c4nc(c(-c5c(F)cc(S(=O)(=O)[O-])cc5F)c5ccc([nH]5)c(-c5c(F)cc(S(=O)(=O)[O-])cc5F)c5nc(c(-c6c(F)cc(S(=O)(=O)[O-])cc6F)c6ccc3[nH]6)C=C5)C=C4)cc1)[C@@H](C(F)(F)F)O2
REMARK SMILES IDX 18 1 17 2 16 3 15 4 13 5 14 6 12 8 4 9 5 10 9 11 6 12 8 13
REMARK SMILES IDX 10 14 7 15 94 16 11 17 89 18 3 19 2 20 1 21 90 22 91 23
REMARK SMILES IDX 92 24 93 25 19 26 20 27 21 28 22 30 23 31 24 32 88 33 25 34
REMARK SMILES IDX 87 35 26 36 27 37 28 38 81 39 29 40 86 41 80 42 82 43 30 44
REMARK SMILES IDX 85 45 79 46 78 47 31 49 65 50 44 51 64 52 45 53 48 54 63 55
REMARK SMILES IDX 83 56 46 57 47 58 62 60 84 61 49 62 32 63 33 64 42 65 34 66
REMARK SMILES IDX 35 67 41 68 43 69 36 70 37 71 38 72 39 73 40 74 66 75 67 76
REMARK SMILES IDX 76 77 68 78 69 79 75 80 77 81 70 82 71 83 72 84 73 85 74 86
REMARK SMILES IDX 50 87 51 88 60 89 52 90 53 91 59 92 61 93 54 94 55 95 56 96
REMARK SMILES IDX 57 97 58 98
REMARK H PARENT 15 7 20 29 82 48 48 59
REMARK Flexibility Score: inf
ROOT
ATOM      1  C   UNL A   1      37.124  23.460  24.981  1.00  0.00     0.023 C 
ENDROOT
BRANCH   1   2
ATOM      2  C   UNL A   1      37.026  22.000  24.532  1.00  0.00     0.023 C 
BRANCH   2   3
ATOM      3  C   UNL A   1      36.622  21.028  25.638  1.00  0.00     0.116 C 
BRANCH   3   4
ATOM      4  N   UNL A   1      35.675  20.028  25.178  1.00  0.00    -0.352 N 
ATOM      5  C   UNL A   1      34.370  19.999  24.815  1.00  0.00     0.251 C 
ATOM      6  O   UNL A   1      33.938  18.895  24.472  1.00  0.00    -0.270 OA
ATOM      7  H   UNL A   1      36.090  19.138  25.113  1.00  0.00     0.163 HD
BRANCH   5   8
ATOM      8  C   UNL A   1      33.456  21.179  24.804  1.00  0.00     0.067 C 
ATOM      9  C   UNL A   1      30.922  25.348  23.444  1.00  0.00    -0.026 A 
ATOM     10  C   UNL A   1      30.897  24.483  24.548  1.00  0.00     0.052 A 
ATOM     11  C   UNL A   1      31.831  25.068  22.410  1.00  0.00     0.045 A 
ATOM     12  C   UNL A   1      31.725  23.364  24.605  1.00  0.00     0.128 A 
ATOM     13  C   UNL A   1      32.683  23.955  22.484  1.00  0.00     0.032 A 
ATOM     14  Cl  UNL A   1      31.947  26.059  20.998  1.00  0.00    -0.084 Cl
ATOM     15  C   UNL A   1      32.625  23.094  23.582  1.00  0.00     0.019 A 
ATOM     16  O   UNL A   1      31.547  22.544  25.678  1.00  0.00    -0.475 OA
ATOM     17  C   UNL A   1      33.459  21.902  23.666  1.00  0.00     0.025 C 
ATOM     18  C   UNL A   1      32.616  21.606  25.976  1.00  0.00     0.314 C 
BRANCH   9  19
ATOM     19  C   UNL A   1      29.964  26.518  23.432  1.00  0.00     0.037 C 
BRANCH  19  20
ATOM     20  C   UNL A   1      30.341  27.651  24.397  1.00  0.00     0.001 C 
ATOM     21  C   UNL A   1      30.393  29.029  23.748  1.00  0.00     0.004 C 
ENDBRANCH  19  20
ENDBRANCH   9  19
BRANCH  18  22
ATOM     22  C   UNL A   1      33.447  22.184  27.134  1.00  0.00     0.429 C 
ATOM     23  F   UNL A   1      32.630  22.714  28.080  1.00  0.00    -0.167 F 
ATOM     24  F   UNL A   1      34.201  21.251  27.758  1.00  0.00    -0.167 F 
ATOM     25  F   UNL A   1      34.284  23.166  26.730  1.00  0.00    -0.167 F 
ENDBRANCH  18  22
ENDBRANCH   5   8
ENDBRANCH   3   4
ENDBRANCH   2   3
ENDBRANCH   1   2
BRANCH   1  26
ATOM     26  C   UNL A   1      38.031  23.722  26.183  1.00  0.00     0.116 C 
BRANCH  26  27
ATOM     27  N   UNL A   1      39.427  23.357  25.978  1.00  0.00    -0.352 N 
ATOM     28  C   UNL A   1      40.537  24.039  26.427  1.00  0.00     0.251 C 
ATOM     29  H   UNL A   1      39.595  22.533  25.465  1.00  0.00     0.163 HD
ATOM     30  O   UNL A   1      41.672  23.659  26.160  1.00  0.00    -0.269 OA
BRANCH  28  31
ATOM     31  C   UNL A   1      40.312  25.282  27.188  1.00  0.00     0.039 A 
ATOM     32  C   UNL A   1      41.021  26.436  26.847  1.00  0.00     0.014 A 
ATOM     33  C   UNL A   1      39.535  25.228  28.347  1.00  0.00     0.014 A 
ATOM     34  C   UNL A   1      41.092  27.481  27.762  1.00  0.00     0.010 A 
ATOM     35  C   UNL A   1      39.562  26.304  29.235  1.00  0.00     0.010 A 
ATOM     36  C   UNL A   1      40.395  27.406  28.980  1.00  0.00    -0.014 A 
BRANCH  36  37
ATOM     37  C   UNL A   1      40.619  28.444  30.016  1.00  0.00     0.031 A 
ATOM     38  C   UNL A   1      39.639  29.576  30.177  1.00  0.00     0.074 A 
ATOM     39  C   UNL A   1      41.661  28.328  30.859  1.00  0.00     0.049 A 
ATOM     40  N   UNL A   1      39.682  30.596  30.996  1.00  0.00    -0.248 NA
ATOM     41  C   UNL A   1      38.454  29.563  29.302  1.00  0.00     0.031 C 
ATOM     42  C   UNL A   1      42.654  27.253  30.829  1.00  0.00     0.029 A 
ATOM     43  N   UNL A   1      42.044  29.109  31.917  1.00  0.00    -0.354 N 
ATOM     44  C   UNL A   1      38.552  31.358  30.719  1.00  0.00     0.074 A 
ATOM     45  C   UNL A   1      37.845  30.689  29.649  1.00  0.00     0.031 C 
ATOM     46  C   UNL A   1      43.507  27.417  31.853  1.00  0.00     0.029 A 
ATOM     47  C   UNL A   1      43.154  28.636  32.574  1.00  0.00     0.049 A 
ATOM     48  H   UNL A   1      41.570  29.930  32.181  1.00  0.00     0.167 HD
ATOM     49  C   UNL A   1      38.140  32.506  31.307  1.00  0.00     0.037 A 
ATOM     50  C   UNL A   1      43.819  29.137  33.631  1.00  0.00     0.037 A 
ATOM     51  C   UNL A   1      38.829  33.152  32.394  1.00  0.00     0.049 A 
ATOM     52  C   UNL A   1      43.358  30.423  34.250  1.00  0.00     0.074 A 
ATOM     53  C   UNL A   1      38.497  34.325  33.051  1.00  0.00     0.029 A 
ATOM     54  N   UNL A   1      39.982  32.671  32.994  1.00  0.00    -0.354 N 
ATOM     55  N   UNL A   1      42.325  31.164  33.931  1.00  0.00    -0.248 NA
ATOM     56  C   UNL A   1      44.166  30.952  35.357  1.00  0.00     0.031 C 
ATOM     57  C   UNL A   1      39.461  34.562  34.038  1.00  0.00     0.029 A 
ATOM     58  C   UNL A   1      40.379  33.524  34.010  1.00  0.00     0.049 A 
ATOM     59  H   UNL A   1      40.450  31.845  32.736  1.00  0.00     0.167 HD
ATOM     60  C   UNL A   1      42.363  32.254  34.791  1.00  0.00     0.074 A 
ATOM     61  C   UNL A   1      43.506  32.061  35.661  1.00  0.00     0.031 C 
ATOM     62  C   UNL A   1      41.532  33.324  34.849  1.00  0.00     0.037 A 
BRANCH  49  63
ATOM     63  C   UNL A   1      36.892  33.149  30.776  1.00  0.00     0.058 A 
ATOM     64  C   UNL A   1      35.669  33.054  31.457  1.00  0.00     0.135 A 
ATOM     65  C   UNL A   1      36.927  33.898  29.589  1.00  0.00     0.135 A 
ATOM     66  F   UNL A   1      35.578  32.331  32.585  1.00  0.00    -0.206 F 
ATOM     67  C   UNL A   1      34.519  33.668  30.972  1.00  0.00     0.059 A 
ATOM     68  C   UNL A   1      35.792  34.534  29.094  1.00  0.00     0.059 A 
ATOM     69  F   UNL A   1      38.071  34.015  28.897  1.00  0.00    -0.206 F 
ATOM     70  C   UNL A   1      34.589  34.403  29.787  1.00  0.00     0.060 A 
BRANCH  70  71
ATOM     71  S   UNL A   1      33.089  35.196  29.168  1.00  0.00     0.124 S 
ATOM     72  O   UNL A   1      33.634  36.404  28.554  1.00  0.00    -0.237 OA
ATOM     73  O   UNL A   1      32.564  34.198  28.242  1.00  0.00    -0.237 OA
ATOM     74  O   UNL A   1      32.295  35.408  30.374  1.00  0.00    -0.744 OA
ENDBRANCH  70  71
ENDBRANCH  49  63
BRANCH  50  75
ATOM     75  C   UNL A   1      45.005  28.415  34.153  1.00  0.00     0.058 A 
ATOM     76  C   UNL A   1      44.867  27.434  35.144  1.00  0.00     0.135 A 
ATOM     77  C   UNL A   1      46.285  28.655  33.633  1.00  0.00     0.135 A 
ATOM     78  F   UNL A   1      43.661  27.177  35.672  1.00  0.00    -0.206 F 
ATOM     79  C   UNL A   1      45.961  26.707  35.600  1.00  0.00     0.059 A 
ATOM     80  C   UNL A   1      47.392  27.928  34.061  1.00  0.00     0.059 A 
ATOM     81  F   UNL A   1      46.460  29.577  32.673  1.00  0.00    -0.206 F 
ATOM     82  C   UNL A   1      47.219  26.958  35.047  1.00  0.00     0.060 A 
BRANCH  82  83
ATOM     83  S   UNL A   1      48.622  25.951  35.577  1.00  0.00     0.124 S 
ATOM     84  O   UNL A   1      47.956  24.735  36.026  1.00  0.00    -0.237 OA
ATOM     85  O   UNL A   1      49.404  25.836  34.349  1.00  0.00    -0.237 OA
ATOM     86  O   UNL A   1      49.235  26.763  36.624  1.00  0.00    -0.744 OA
ENDBRANCH  82  83
ENDBRANCH  50  75
BRANCH  62  87
ATOM     87  C   UNL A   1      41.846  34.369  35.878  1.00  0.00     0.058 A 
ATOM     88  C   UNL A   1      41.242  34.341  37.143  1.00  0.00     0.135 A 
ATOM     89  C   UNL A   1      42.767  35.390  35.606  1.00  0.00     0.135 A 
ATOM     90  F   UNL A   1      40.348  33.386  37.445  1.00  0.00    -0.206 F 
ATOM     91  C   UNL A   1      41.524  35.308  38.101  1.00  0.00     0.059 A 
ATOM     92  C   UNL A   1      43.077  36.359  36.554  1.00  0.00     0.059 A 
ATOM     93  F   UNL A   1      43.375  35.452  34.411  1.00  0.00    -0.206 F 
ATOM     94  C   UNL A   1      42.439  36.318  37.794  1.00  0.00     0.060 A 
BRANCH  94  95
ATOM     95  S   UNL A   1      42.808  37.566  39.046  1.00  0.00     0.124 S 
ATOM     96  O   UNL A   1      43.457  36.763  40.076  1.00  0.00    -0.237 OA
ATOM     97  O   UNL A   1      43.676  38.492  38.324  1.00  0.00    -0.237 OA
ATOM     98  O   UNL A   1      41.492  38.094  39.393  1.00  0.00    -0.744 OA
ENDBRANCH  94  95
ENDBRANCH  62  87
ENDBRANCH  36  37
ENDBRANCH  28  31
ENDBRANCH  26  27
ENDBRANCH   1  26
TORSDOF 17
ENDMDL
