MODEL 1
REMARK VINA RESULT:     -14.1      0.000      0.000
REMARK SMILES Cc1ccc(S(=O)(=O)N(C)c2cccc(C)c2C)cc1C(=O)NCCCCNC(=O)c1ccc(-c2c3nc(c(-c4c(F)cc(S(=O)(=O)[O-])cc4F)c4ccc([nH]4)c(-c4c(F)cc(S(=O)(=O)[O-])cc4F)c4nc(c(-c5c(F)cc(S(=O)(=O)[O-])cc5F)c5ccc2[nH]5)C=C4)C=C3)cc1
REMARK SMILES IDX 25 1 24 2 23 3 21 4 22 5 20 7 1 8 2 9 3 10 4 11 19 12 5 13
REMARK SMILES IDX 6 14 7 15 8 16 9 17 10 18 11 19 12 20 17 21 13 22 15 23
REMARK SMILES IDX 18 24 14 25 16 26 26 27 27 28 28 29 29 30 30 32 31 33 32 34
REMARK SMILES IDX 96 35 33 36 95 37 34 38 35 39 36 40 89 41 37 42 94 43 88 44
REMARK SMILES IDX 90 45 38 46 93 47 87 48 86 49 39 51 73 52 52 53 72 54 53 55
REMARK SMILES IDX 56 56 71 57 91 58 54 59 55 60 70 62 92 63 57 64 40 65 41 66
REMARK SMILES IDX 50 67 42 68 43 69 49 70 51 71 44 72 45 73 46 74 47 75 48 76
REMARK SMILES IDX 74 77 75 78 84 79 76 80 77 81 83 82 85 83 78 84 79 85 80 86
REMARK SMILES IDX 81 87 82 88 58 89 59 90 68 91 60 92 61 93 67 94 69 95 62 96
REMARK SMILES IDX 63 97 64 98 65 99 66 100
REMARK H PARENT 23 6 28 31 90 50 56 61
REMARK Flexibility Score: inf
ROOT
ATOM      1  C   UNL A   1      32.356  29.196  26.419  1.00  0.00     0.023 C 
ENDROOT
BRANCH   1   2
ATOM      2  C   UNL A   1      31.677  29.792  25.174  1.00  0.00     0.116 C 
BRANCH   2   3
ATOM      3  N   UNL A   1      32.402  29.417  23.975  1.00  0.00    -0.352 N 
ATOM      4  C   UNL A   1      32.588  28.284  23.235  1.00  0.00     0.251 C 
ATOM      5  O   UNL A   1      33.419  28.415  22.325  1.00  0.00    -0.269 OA
ATOM      6  H   UNL A   1      32.890  30.183  23.593  1.00  0.00     0.163 HD
BRANCH   4   7
ATOM      7  C   UNL A   1      31.861  26.962  23.321  1.00  0.00     0.044 A 
ATOM      8  C   UNL A   1      29.351  27.628  23.580  1.00  0.00     0.045 C 
ATOM      9  C   UNL A   1      30.482  26.662  23.411  1.00  0.00    -0.038 A 
ATOM     10  C   UNL A   1      30.070  25.309  23.435  1.00  0.00     0.005 A 
ATOM     11  C   UNL A   1      30.981  24.264  23.457  1.00  0.00     0.022 A 
ATOM     12  C   UNL A   1      32.772  25.863  23.383  1.00  0.00     0.036 A 
ATOM     13  C   UNL A   1      32.343  24.539  23.450  1.00  0.00     0.088 A 
BRANCH  13  14
ATOM     14  S   UNL A   1      33.408  23.119  23.513  1.00  0.00     0.264 S 
ATOM     15  O   UNL A   1      32.555  21.985  23.205  1.00  0.00    -0.201 OA
ATOM     16  O   UNL A   1      34.528  23.449  22.650  1.00  0.00    -0.201 OA
BRANCH  14  17
ATOM     17  N   UNL A   1      34.017  22.893  25.109  1.00  0.00    -0.269 N 
ATOM     18  C   UNL A   1      33.521  23.851  26.137  1.00  0.00     0.164 C 
BRANCH  17  19
ATOM     19  C   UNL A   1      35.476  22.739  25.163  1.00  0.00     0.055 A 
ATOM     20  C   UNL A   1      36.290  23.823  25.535  1.00  0.00     0.027 A 
ATOM     21  C   UNL A   1      36.056  21.452  25.059  1.00  0.00    -0.024 A 
ATOM     22  C   UNL A   1      37.659  23.670  25.730  1.00  0.00     0.002 A 
ATOM     23  C   UNL A   1      37.445  21.292  25.306  1.00  0.00    -0.046 A 
ATOM     24  C   UNL A   1      35.190  20.260  24.737  1.00  0.00     0.047 C 
ATOM     25  C   UNL A   1      38.232  22.412  25.616  1.00  0.00     0.004 A 
ATOM     26  C   UNL A   1      38.122  19.947  25.260  1.00  0.00     0.044 C 
ENDBRANCH  17  19
ENDBRANCH  14  17
ENDBRANCH  13  14
ENDBRANCH   4   7
ENDBRANCH   2   3
ENDBRANCH   1   2
BRANCH   1  27
ATOM     27  C   UNL A   1      33.095  30.211  27.291  1.00  0.00     0.023 C 
BRANCH  27  28
ATOM     28  C   UNL A   1      34.571  29.889  27.436  1.00  0.00     0.116 C 
BRANCH  28  29
ATOM     29  N   UNL A   1      35.423  31.046  27.665  1.00  0.00    -0.352 N 
ATOM     30  C   UNL A   1      36.670  31.064  28.265  1.00  0.00     0.251 C 
ATOM     31  H   UNL A   1      35.072  31.914  27.360  1.00  0.00     0.163 HD
ATOM     32  O   UNL A   1      37.192  32.103  28.652  1.00  0.00    -0.269 OA
BRANCH  30  33
ATOM     33  C   UNL A   1      37.411  29.785  28.308  1.00  0.00     0.039 A 
ATOM     34  C   UNL A   1      37.511  29.149  29.551  1.00  0.00     0.014 A 
ATOM     35  C   UNL A   1      38.253  29.440  27.256  1.00  0.00     0.014 A 
ATOM     36  C   UNL A   1      38.601  28.323  29.810  1.00  0.00     0.010 A 
ATOM     37  C   UNL A   1      39.391  28.720  27.550  1.00  0.00     0.010 A 
ATOM     38  C   UNL A   1      39.592  28.201  28.839  1.00  0.00    -0.014 A 
BRANCH  38  39
ATOM     39  C   UNL A   1      40.910  27.626  29.084  1.00  0.00     0.031 A 
ATOM     40  C   UNL A   1      41.182  26.226  28.681  1.00  0.00     0.074 A 
ATOM     41  C   UNL A   1      41.914  28.405  29.540  1.00  0.00     0.049 A 
ATOM     42  N   UNL A   1      42.215  25.539  29.036  1.00  0.00    -0.248 NA
ATOM     43  C   UNL A   1      40.243  25.457  27.873  1.00  0.00     0.031 C 
ATOM     44  C   UNL A   1      43.346  28.137  29.456  1.00  0.00     0.029 A 
ATOM     45  N   UNL A   1      41.828  29.536  30.349  1.00  0.00    -0.354 N 
ATOM     46  C   UNL A   1      42.235  24.381  28.287  1.00  0.00     0.074 A 
ATOM     47  C   UNL A   1      40.941  24.342  27.656  1.00  0.00     0.031 C 
ATOM     48  C   UNL A   1      43.992  28.910  30.341  1.00  0.00     0.029 A 
ATOM     49  C   UNL A   1      42.987  29.585  31.143  1.00  0.00     0.049 A 
ATOM     50  H   UNL A   1      41.088  30.184  30.363  1.00  0.00     0.167 HD
ATOM     51  C   UNL A   1      43.405  23.681  28.190  1.00  0.00     0.037 A 
ATOM     52  C   UNL A   1      42.906  29.488  32.505  1.00  0.00     0.037 A 
ATOM     53  C   UNL A   1      44.386  24.192  29.156  1.00  0.00     0.049 A 
ATOM     54  C   UNL A   1      43.555  28.245  33.077  1.00  0.00     0.074 A 
ATOM     55  C   UNL A   1      45.479  25.037  29.041  1.00  0.00     0.029 A 
ATOM     56  N   UNL A   1      44.123  24.080  30.521  1.00  0.00    -0.354 N 
ATOM     57  N   UNL A   1      43.926  27.218  32.362  1.00  0.00    -0.248 NA
ATOM     58  C   UNL A   1      43.828  28.051  34.500  1.00  0.00     0.031 C 
ATOM     59  C   UNL A   1      45.810  25.507  30.339  1.00  0.00     0.029 A 
ATOM     60  C   UNL A   1      44.942  24.927  31.247  1.00  0.00     0.049 A 
ATOM     61  H   UNL A   1      43.449  23.479  30.914  1.00  0.00     0.167 HD
ATOM     62  C   UNL A   1      44.422  26.236  33.179  1.00  0.00     0.074 A 
ATOM     63  C   UNL A   1      44.370  26.820  34.506  1.00  0.00     0.031 C 
ATOM     64  C   UNL A   1      44.818  25.020  32.697  1.00  0.00     0.037 A 
BRANCH  51  65
ATOM     65  C   UNL A   1      43.769  22.754  27.031  1.00  0.00     0.058 A 
ATOM     66  C   UNL A   1      42.988  21.605  26.758  1.00  0.00     0.135 A 
ATOM     67  C   UNL A   1      44.917  22.862  26.217  1.00  0.00     0.135 A 
ATOM     68  F   UNL A   1      41.810  21.399  27.362  1.00  0.00    -0.206 F 
ATOM     69  C   UNL A   1      43.377  20.603  25.858  1.00  0.00     0.059 A 
ATOM     70  C   UNL A   1      45.348  21.859  25.341  1.00  0.00     0.059 A 
ATOM     71  F   UNL A   1      45.662  23.967  26.179  1.00  0.00    -0.206 F 
ATOM     72  C   UNL A   1      44.581  20.720  25.181  1.00  0.00     0.060 A 
BRANCH  72  73
ATOM     73  S   UNL A   1      45.120  19.395  24.087  1.00  0.00     0.124 S 
ATOM     74  O   UNL A   1      44.425  19.723  22.845  1.00  0.00    -0.237 OA
ATOM     75  O   UNL A   1      46.568  19.577  24.074  1.00  0.00    -0.237 OA
ATOM     76  O   UNL A   1      44.650  18.186  24.758  1.00  0.00    -0.744 OA
ENDBRANCH  72  73
ENDBRANCH  51  65
BRANCH  52  77
ATOM     77  C   UNL A   1      41.720  30.192  33.064  1.00  0.00     0.058 A 
ATOM     78  C   UNL A   1      41.810  31.592  33.186  1.00  0.00     0.135 A 
ATOM     79  C   UNL A   1      40.439  29.627  32.995  1.00  0.00     0.135 A 
ATOM     80  F   UNL A   1      43.013  32.181  33.279  1.00  0.00    -0.206 F 
ATOM     81  C   UNL A   1      40.696  32.409  33.044  1.00  0.00     0.059 A 
ATOM     82  C   UNL A   1      39.304  30.429  32.860  1.00  0.00     0.059 A 
ATOM     83  F   UNL A   1      40.291  28.298  32.886  1.00  0.00    -0.206 F 
ATOM     84  C   UNL A   1      39.459  31.815  32.800  1.00  0.00     0.060 A 
BRANCH  84  85
ATOM     85  S   UNL A   1      38.129  32.877  32.187  1.00  0.00     0.124 S 
ATOM     86  O   UNL A   1      37.834  33.701  33.354  1.00  0.00    -0.237 OA
ATOM     87  O   UNL A   1      38.799  33.561  31.082  1.00  0.00    -0.237 OA
ATOM     88  O   UNL A   1      37.093  31.925  31.807  1.00  0.00    -0.744 OA
ENDBRANCH  84  85
ENDBRANCH  52  77
BRANCH  64  89
ATOM     89  C   UNL A   1      45.202  23.827  33.538  1.00  0.00     0.058 A 
ATOM     90  C   UNL A   1      46.489  23.618  34.066  1.00  0.00     0.135 A 
ATOM     91  C   UNL A   1      44.212  22.908  33.960  1.00  0.00     0.135 A 
ATOM     92  F   UNL A   1      47.487  24.480  33.826  1.00  0.00    -0.206 F 
ATOM     93  C   UNL A   1      46.788  22.538  34.900  1.00  0.00     0.059 A 
ATOM     94  C   UNL A   1      44.476  21.856  34.834  1.00  0.00     0.059 A 
ATOM     95  F   UNL A   1      42.942  23.010  33.539  1.00  0.00    -0.206 F 
ATOM     96  C   UNL A   1      45.776  21.662  35.279  1.00  0.00     0.060 A 
BRANCH  96  97
ATOM     97  S   UNL A   1      46.135  20.301  36.405  1.00  0.00     0.124 S 
ATOM     98  O   UNL A   1      45.278  19.248  35.870  1.00  0.00    -0.237 OA
ATOM     99  O   UNL A   1      47.570  20.098  36.227  1.00  0.00    -0.237 OA
ATOM    100  O   UNL A   1      45.744  20.836  37.706  1.00  0.00    -0.744 OA
ENDBRANCH  96  97
ENDBRANCH  64  89
ENDBRANCH  38  39
ENDBRANCH  30  33
ENDBRANCH  28  29
ENDBRANCH  27  28
ENDBRANCH   1  27
TORSDOF 17
ENDMDL
MODEL 2
REMARK VINA RESULT:     -14.0      1.244      2.077
REMARK SMILES Cc1ccc(S(=O)(=O)N(C)c2cccc(C)c2C)cc1C(=O)NCCCCNC(=O)c1ccc(-c2c3nc(c(-c4c(F)cc(S(=O)(=O)[O-])cc4F)c4ccc([nH]4)c(-c4c(F)cc(S(=O)(=O)[O-])cc4F)c4nc(c(-c5c(F)cc(S(=O)(=O)[O-])cc5F)c5ccc2[nH]5)C=C4)C=C3)cc1
REMARK SMILES IDX 25 1 24 2 23 3 21 4 22 5 20 7 1 8 2 9 3 10 4 11 19 12 5 13
REMARK SMILES IDX 6 14 7 15 8 16 9 17 10 18 11 19 12 20 17 21 13 22 15 23
REMARK SMILES IDX 18 24 14 25 16 26 26 27 27 28 28 29 29 30 30 32 31 33 32 34
REMARK SMILES IDX 96 35 33 36 95 37 34 38 35 39 36 40 89 41 37 42 94 43 88 44
REMARK SMILES IDX 90 45 38 46 93 47 87 48 86 49 39 51 73 52 52 53 72 54 53 55
REMARK SMILES IDX 56 56 71 57 91 58 54 59 55 60 70 62 92 63 57 64 40 65 41 66
REMARK SMILES IDX 50 67 42 68 43 69 49 70 51 71 44 72 45 73 46 74 47 75 48 76
REMARK SMILES IDX 74 77 75 78 84 79 76 80 77 81 83 82 85 83 78 84 79 85 80 86
REMARK SMILES IDX 81 87 82 88 58 89 59 90 68 91 60 92 61 93 67 94 69 95 62 96
REMARK SMILES IDX 63 97 64 98 65 99 66 100
REMARK H PARENT 23 6 28 31 90 50 56 61
REMARK Flexibility Score: inf
ROOT
ATOM      1  C   UNL A   1      31.956  29.624  26.041  1.00  0.00     0.023 C 
ENDROOT
BRANCH   1   2
ATOM      2  C   UNL A   1      32.759  29.417  24.745  1.00  0.00     0.116 C 
BRANCH   2   3
ATOM      3  N   UNL A   1      31.864  29.313  23.608  1.00  0.00    -0.352 N 
ATOM      4  C   UNL A   1      31.216  28.315  22.937  1.00  0.00     0.251 C 
ATOM      5  O   UNL A   1      30.634  28.701  21.913  1.00  0.00    -0.269 OA
ATOM      6  H   UNL A   1      31.672  30.195  23.217  1.00  0.00     0.163 HD
BRANCH   4   7
ATOM      7  C   UNL A   1      31.043  26.864  23.323  1.00  0.00     0.044 A 
ATOM      8  C   UNL A   1      28.499  26.645  23.864  1.00  0.00     0.045 C 
ATOM      9  C   UNL A   1      29.889  26.123  23.666  1.00  0.00    -0.038 A 
ATOM     10  C   UNL A   1      30.013  24.743  23.949  1.00  0.00     0.005 A 
ATOM     11  C   UNL A   1      31.245  24.107  23.983  1.00  0.00     0.022 A 
ATOM     12  C   UNL A   1      32.299  26.188  23.404  1.00  0.00     0.036 A 
ATOM     13  C   UNL A   1      32.400  24.836  23.728  1.00  0.00     0.088 A 
BRANCH  13  14
ATOM     14  S   UNL A   1      33.918  23.918  23.832  1.00  0.00     0.264 S 
ATOM     15  O   UNL A   1      33.981  23.140  22.608  1.00  0.00    -0.201 OA
ATOM     16  O   UNL A   1      34.938  24.908  24.125  1.00  0.00    -0.201 OA
BRANCH  14  17
ATOM     17  N   UNL A   1      33.862  22.810  25.150  1.00  0.00    -0.269 N 
ATOM     18  C   UNL A   1      34.150  23.383  26.496  1.00  0.00     0.164 C 
BRANCH  17  19
ATOM     19  C   UNL A   1      34.614  21.573  24.909  1.00  0.00     0.055 A 
ATOM     20  C   UNL A   1      36.004  21.538  25.113  1.00  0.00     0.027 A 
ATOM     21  C   UNL A   1      33.924  20.357  24.686  1.00  0.00    -0.024 A 
ATOM     22  C   UNL A   1      36.721  20.349  25.027  1.00  0.00     0.002 A 
ATOM     23  C   UNL A   1      34.654  19.140  24.647  1.00  0.00    -0.046 A 
ATOM     24  C   UNL A   1      32.423  20.358  24.542  1.00  0.00     0.047 C 
ATOM     25  C   UNL A   1      36.050  19.158  24.796  1.00  0.00     0.004 A 
ATOM     26  C   UNL A   1      33.983  17.804  24.461  1.00  0.00     0.044 C 
ENDBRANCH  17  19
ENDBRANCH  14  17
ENDBRANCH  13  14
ENDBRANCH   4   7
ENDBRANCH   2   3
ENDBRANCH   1   2
BRANCH   1  27
ATOM     27  C   UNL A   1      32.762  30.200  27.205  1.00  0.00     0.023 C 
BRANCH  27  28
ATOM     28  C   UNL A   1      34.258  30.028  27.018  1.00  0.00     0.116 C 
BRANCH  28  29
ATOM     29  N   UNL A   1      35.052  31.188  27.398  1.00  0.00    -0.352 N 
ATOM     30  C   UNL A   1      36.249  31.194  28.093  1.00  0.00     0.251 C 
ATOM     31  H   UNL A   1      34.696  32.067  27.132  1.00  0.00     0.163 HD
ATOM     32  O   UNL A   1      36.705  32.214  28.595  1.00  0.00    -0.269 OA
BRANCH  30  33
ATOM     33  C   UNL A   1      37.026  29.936  28.098  1.00  0.00     0.039 A 
ATOM     34  C   UNL A   1      37.066  29.218  29.299  1.00  0.00     0.014 A 
ATOM     35  C   UNL A   1      37.946  29.690  27.084  1.00  0.00     0.014 A 
ATOM     36  C   UNL A   1      38.164  28.406  29.573  1.00  0.00     0.010 A 
ATOM     37  C   UNL A   1      39.086  28.983  27.404  1.00  0.00     0.010 A 
ATOM     38  C   UNL A   1      39.219  28.381  28.665  1.00  0.00    -0.014 A 
BRANCH  38  39
ATOM     39  C   UNL A   1      40.537  27.827  28.958  1.00  0.00     0.031 A 
ATOM     40  C   UNL A   1      40.830  26.417  28.610  1.00  0.00     0.074 A 
ATOM     41  C   UNL A   1      41.524  28.632  29.407  1.00  0.00     0.049 A 
ATOM     42  N   UNL A   1      41.861  25.753  29.011  1.00  0.00    -0.248 NA
ATOM     43  C   UNL A   1      39.915  25.611  27.810  1.00  0.00     0.031 C 
ATOM     44  C   UNL A   1      42.960  28.374  29.363  1.00  0.00     0.029 A 
ATOM     45  N   UNL A   1      41.411  29.789  30.174  1.00  0.00    -0.354 N 
ATOM     46  C   UNL A   1      41.907  24.569  28.303  1.00  0.00     0.074 A 
ATOM     47  C   UNL A   1      40.627  24.496  27.647  1.00  0.00     0.031 C 
ATOM     48  C   UNL A   1      43.580  29.184  30.234  1.00  0.00     0.029 A 
ATOM     49  C   UNL A   1      42.551  29.877  30.991  1.00  0.00     0.049 A 
ATOM     50  H   UNL A   1      40.665  30.430  30.149  1.00  0.00     0.167 HD
ATOM     51  C   UNL A   1      43.085  23.877  28.256  1.00  0.00     0.037 A 
ATOM     52  C   UNL A   1      42.443  29.826  32.353  1.00  0.00     0.037 A 
ATOM     53  C   UNL A   1      44.040  24.431  29.225  1.00  0.00     0.049 A 
ATOM     54  C   UNL A   1      43.090  28.611  32.982  1.00  0.00     0.074 A 
ATOM     55  C   UNL A   1      45.128  25.281  29.103  1.00  0.00     0.029 A 
ATOM     56  N   UNL A   1      43.749  24.364  30.586  1.00  0.00    -0.354 N 
ATOM     57  N   UNL A   1      43.485  27.563  32.311  1.00  0.00    -0.248 NA
ATOM     58  C   UNL A   1      43.333  28.469  34.416  1.00  0.00     0.031 C 
ATOM     59  C   UNL A   1      45.427  25.800  30.390  1.00  0.00     0.029 A 
ATOM     60  C   UNL A   1      44.544  25.243  31.300  1.00  0.00     0.049 A 
ATOM     61  H   UNL A   1      43.072  23.771  30.986  1.00  0.00     0.167 HD
ATOM     62  C   UNL A   1      43.971  26.615  33.173  1.00  0.00     0.074 A 
ATOM     63  C   UNL A   1      43.886  27.245  34.477  1.00  0.00     0.031 C 
ATOM     64  C   UNL A   1      44.389  25.387  32.742  1.00  0.00     0.037 A 
BRANCH  51  65
ATOM     65  C   UNL A   1      43.482  22.913  27.138  1.00  0.00     0.058 A 
ATOM     66  C   UNL A   1      42.818  21.672  26.992  1.00  0.00     0.135 A 
ATOM     67  C   UNL A   1      44.561  23.084  26.246  1.00  0.00     0.135 A 
ATOM     68  F   UNL A   1      41.706  21.386  27.683  1.00  0.00    -0.206 F 
ATOM     69  C   UNL A   1      43.263  20.655  26.136  1.00  0.00     0.059 A 
ATOM     70  C   UNL A   1      45.050  22.073  25.411  1.00  0.00     0.059 A 
ATOM     71  F   UNL A   1      45.177  24.257  26.088  1.00  0.00    -0.206 F 
ATOM     72  C   UNL A   1      44.406  20.850  25.375  1.00  0.00     0.060 A 
BRANCH  72  73
ATOM     73  S   UNL A   1      45.024  19.516  24.336  1.00  0.00     0.124 S 
ATOM     74  O   UNL A   1      44.456  18.337  24.984  1.00  0.00    -0.237 OA
ATOM     75  O   UNL A   1      44.465  19.857  23.033  1.00  0.00    -0.237 OA
ATOM     76  O   UNL A   1      46.474  19.643  24.445  1.00  0.00    -0.744 OA
ENDBRANCH  72  73
ENDBRANCH  51  65
BRANCH  52  77
ATOM     77  C   UNL A   1      41.238  30.539  32.861  1.00  0.00     0.058 A 
ATOM     78  C   UNL A   1      40.112  29.750  33.164  1.00  0.00     0.135 A 
ATOM     79  C   UNL A   1      41.343  31.790  33.486  1.00  0.00     0.135 A 
ATOM     80  F   UNL A   1      39.953  28.554  32.574  1.00  0.00    -0.206 F 
ATOM     81  C   UNL A   1      39.236  30.093  34.186  1.00  0.00     0.059 A 
ATOM     82  C   UNL A   1      40.468  32.158  34.510  1.00  0.00     0.059 A 
ATOM     83  F   UNL A   1      42.391  32.588  33.231  1.00  0.00    -0.206 F 
ATOM     84  C   UNL A   1      39.474  31.262  34.905  1.00  0.00     0.060 A 
BRANCH  84  85
ATOM     85  S   UNL A   1      38.610  31.462  36.482  1.00  0.00     0.124 S 
ATOM     86  O   UNL A   1      38.245  30.087  36.807  1.00  0.00    -0.237 OA
ATOM     87  O   UNL A   1      39.662  32.051  37.310  1.00  0.00    -0.237 OA
ATOM     88  O   UNL A   1      37.501  32.346  36.143  1.00  0.00    -0.744 OA
ENDBRANCH  84  85
ENDBRANCH  52  77
BRANCH  64  89
ATOM     89  C   UNL A   1      44.765  24.227  33.633  1.00  0.00     0.058 A 
ATOM     90  C   UNL A   1      43.835  23.342  34.207  1.00  0.00     0.135 A 
ATOM     91  C   UNL A   1      46.126  23.889  33.821  1.00  0.00     0.135 A 
ATOM     92  F   UNL A   1      42.518  23.494  34.010  1.00  0.00    -0.206 F 
ATOM     93  C   UNL A   1      44.226  22.237  34.966  1.00  0.00     0.059 A 
ATOM     94  C   UNL A   1      46.538  22.763  34.529  1.00  0.00     0.059 A 
ATOM     95  F   UNL A   1      47.110  24.646  33.309  1.00  0.00    -0.206 F 
ATOM     96  C   UNL A   1      45.580  21.955  35.122  1.00  0.00     0.060 A 
BRANCH  96  97
ATOM     97  S   UNL A   1      46.097  20.497  36.048  1.00  0.00     0.124 S 
ATOM     98  O   UNL A   1      47.531  20.478  35.781  1.00  0.00    -0.237 OA
ATOM     99  O   UNL A   1      45.716  20.827  37.419  1.00  0.00    -0.237 OA
ATOM    100  O   UNL A   1      45.323  19.423  35.434  1.00  0.00    -0.744 OA
ENDBRANCH  96  97
ENDBRANCH  64  89
ENDBRANCH  38  39
ENDBRANCH  30  33
ENDBRANCH  28  29
ENDBRANCH  27  28
ENDBRANCH   1  27
TORSDOF 17
ENDMDL
MODEL 3
REMARK VINA RESULT:     -13.6      4.740     11.389
REMARK SMILES Cc1ccc(S(=O)(=O)N(C)c2cccc(C)c2C)cc1C(=O)NCCCCNC(=O)c1ccc(-c2c3nc(c(-c4c(F)cc(S(=O)(=O)[O-])cc4F)c4ccc([nH]4)c(-c4c(F)cc(S(=O)(=O)[O-])cc4F)c4nc(c(-c5c(F)cc(S(=O)(=O)[O-])cc5F)c5ccc2[nH]5)C=C4)C=C3)cc1
REMARK SMILES IDX 25 1 24 2 23 3 21 4 22 5 20 7 1 8 2 9 3 10 4 11 19 12 5 13
REMARK SMILES IDX 6 14 7 15 8 16 9 17 10 18 11 19 12 20 17 21 13 22 15 23
REMARK SMILES IDX 18 24 14 25 16 26 26 27 27 28 28 29 29 30 30 32 31 33 32 34
REMARK SMILES IDX 96 35 33 36 95 37 34 38 35 39 36 40 89 41 37 42 94 43 88 44
REMARK SMILES IDX 90 45 38 46 93 47 87 48 86 49 39 51 73 52 52 53 72 54 53 55
REMARK SMILES IDX 56 56 71 57 91 58 54 59 55 60 70 62 92 63 57 64 40 65 41 66
REMARK SMILES IDX 50 67 42 68 43 69 49 70 51 71 44 72 45 73 46 74 47 75 48 76
REMARK SMILES IDX 74 77 75 78 84 79 76 80 77 81 83 82 85 83 78 84 79 85 80 86
REMARK SMILES IDX 81 87 82 88 58 89 59 90 68 91 60 92 61 93 67 94 69 95 62 96
REMARK SMILES IDX 63 97 64 98 65 99 66 100
REMARK H PARENT 23 6 28 31 90 50 56 61
REMARK Flexibility Score: inf
ROOT
ATOM      1  C   UNL A   1      36.568  21.686  24.732  1.00  0.00     0.023 C 
ENDROOT
BRANCH   1   2
ATOM      2  C   UNL A   1      35.735  20.416  24.974  1.00  0.00     0.116 C 
BRANCH   2   3
ATOM      3  N   UNL A   1      34.480  20.489  24.251  1.00  0.00    -0.352 N 
ATOM      4  C   UNL A   1      33.302  21.170  24.364  1.00  0.00     0.251 C 
ATOM      5  O   UNL A   1      32.437  20.806  23.554  1.00  0.00    -0.269 OA
ATOM      6  H   UNL A   1      34.477  19.888  23.471  1.00  0.00     0.163 HD
BRANCH   4   7
ATOM      7  C   UNL A   1      32.961  22.340  25.257  1.00  0.00     0.044 A 
ATOM      8  C   UNL A   1      33.608  21.526  27.652  1.00  0.00     0.045 C 
ATOM      9  C   UNL A   1      33.136  22.532  26.647  1.00  0.00    -0.038 A 
ATOM     10  C   UNL A   1      32.758  23.766  27.227  1.00  0.00     0.005 A 
ATOM     11  C   UNL A   1      32.143  24.766  26.490  1.00  0.00     0.022 A 
ATOM     12  C   UNL A   1      32.292  23.376  24.536  1.00  0.00     0.036 A 
ATOM     13  C   UNL A   1      31.890  24.567  25.139  1.00  0.00     0.088 A 
BRANCH  13  14
ATOM     14  S   UNL A   1      31.070  25.908  24.311  1.00  0.00     0.264 S 
ATOM     15  O   UNL A   1      30.665  25.374  23.023  1.00  0.00    -0.201 OA
ATOM     16  O   UNL A   1      30.073  26.380  25.254  1.00  0.00    -0.201 OA
BRANCH  14  17
ATOM     17  N   UNL A   1      32.173  27.198  24.016  1.00  0.00    -0.269 N 
ATOM     18  C   UNL A   1      33.467  26.817  23.384  1.00  0.00     0.164 C 
BRANCH  17  19
ATOM     19  C   UNL A   1      32.367  28.079  25.174  1.00  0.00     0.055 A 
ATOM     20  C   UNL A   1      33.384  27.808  26.107  1.00  0.00     0.027 A 
ATOM     21  C   UNL A   1      31.688  29.318  25.243  1.00  0.00    -0.024 A 
ATOM     22  C   UNL A   1      33.682  28.698  27.134  1.00  0.00     0.002 A 
ATOM     23  C   UNL A   1      32.029  30.243  26.265  1.00  0.00    -0.046 A 
ATOM     24  C   UNL A   1      30.647  29.665  24.208  1.00  0.00     0.047 C 
ATOM     25  C   UNL A   1      33.009  29.908  27.212  1.00  0.00     0.004 A 
ATOM     26  C   UNL A   1      31.381  31.599  26.373  1.00  0.00     0.044 C 
ENDBRANCH  17  19
ENDBRANCH  14  17
ENDBRANCH  13  14
ENDBRANCH   4   7
ENDBRANCH   2   3
ENDBRANCH   1   2
BRANCH   1  27
ATOM     27  C   UNL A   1      36.906  22.478  25.995  1.00  0.00     0.023 C 
BRANCH  27  28
ATOM     28  C   UNL A   1      38.184  23.285  25.850  1.00  0.00     0.116 C 
BRANCH  28  29
ATOM     29  N   UNL A   1      39.225  22.945  26.808  1.00  0.00    -0.352 N 
ATOM     30  C   UNL A   1      40.000  23.820  27.551  1.00  0.00     0.251 C 
ATOM     31  H   UNL A   1      39.397  21.985  26.944  1.00  0.00     0.163 HD
ATOM     32  O   UNL A   1      41.020  23.459  28.126  1.00  0.00    -0.269 OA
BRANCH  30  33
ATOM     33  C   UNL A   1      39.477  25.192  27.728  1.00  0.00     0.039 A 
ATOM     34  C   UNL A   1      39.961  26.174  26.857  1.00  0.00     0.014 A 
ATOM     35  C   UNL A   1      38.835  25.536  28.913  1.00  0.00     0.014 A 
ATOM     36  C   UNL A   1      39.998  27.501  27.276  1.00  0.00     0.010 A 
ATOM     37  C   UNL A   1      38.981  26.828  29.374  1.00  0.00     0.010 A 
ATOM     38  C   UNL A   1      39.606  27.801  28.578  1.00  0.00    -0.014 A 
BRANCH  38  39
ATOM     39  C   UNL A   1      39.874  29.073  29.241  1.00  0.00     0.031 A 
ATOM     40  C   UNL A   1      38.870  30.160  29.166  1.00  0.00     0.074 A 
ATOM     41  C   UNL A   1      40.958  29.207  30.034  1.00  0.00     0.049 A 
ATOM     42  N   UNL A   1      39.077  31.386  29.512  1.00  0.00    -0.248 NA
ATOM     43  C   UNL A   1      37.537  29.947  28.618  1.00  0.00     0.031 C 
ATOM     44  C   UNL A   1      41.173  30.211  31.071  1.00  0.00     0.029 A 
ATOM     45  N   UNL A   1      42.186  28.557  29.932  1.00  0.00    -0.354 N 
ATOM     46  C   UNL A   1      37.862  32.038  29.522  1.00  0.00     0.074 A 
ATOM     47  C   UNL A   1      36.961  31.124  28.867  1.00  0.00     0.031 C 
ATOM     48  C   UNL A   1      42.482  30.276  31.357  1.00  0.00     0.029 A 
ATOM     49  C   UNL A   1      43.179  29.436  30.398  1.00  0.00     0.049 A 
ATOM     50  H   UNL A   1      42.332  27.644  29.594  1.00  0.00     0.167 HD
ATOM     51  C   UNL A   1      37.751  33.212  30.212  1.00  0.00     0.037 A 
ATOM     52  C   UNL A   1      44.162  29.887  29.561  1.00  0.00     0.037 A 
ATOM     53  C   UNL A   1      39.078  33.695  30.614  1.00  0.00     0.049 A 
ATOM     54  C   UNL A   1      44.118  31.378  29.299  1.00  0.00     0.074 A 
ATOM     55  C   UNL A   1      39.780  33.653  31.809  1.00  0.00     0.029 A 
ATOM     56  N   UNL A   1      40.001  34.052  29.633  1.00  0.00    -0.354 N 
ATOM     57  N   UNL A   1      43.105  32.144  29.603  1.00  0.00    -0.248 NA
ATOM     58  C   UNL A   1      45.201  32.125  28.663  1.00  0.00     0.031 C 
ATOM     59  C   UNL A   1      41.150  33.893  31.523  1.00  0.00     0.029 A 
ATOM     60  C   UNL A   1      41.278  34.113  30.162  1.00  0.00     0.049 A 
ATOM     61  H   UNL A   1      39.775  34.238  28.693  1.00  0.00     0.167 HD
ATOM     62  C   UNL A   1      43.349  33.426  29.184  1.00  0.00     0.074 A 
ATOM     63  C   UNL A   1      44.690  33.368  28.632  1.00  0.00     0.031 C 
ATOM     64  C   UNL A   1      42.423  34.422  29.313  1.00  0.00     0.037 A 
BRANCH  51  65
ATOM     65  C   UNL A   1      36.445  33.761  30.788  1.00  0.00     0.058 A 
ATOM     66  C   UNL A   1      35.405  34.188  29.928  1.00  0.00     0.135 A 
ATOM     67  C   UNL A   1      36.181  33.998  32.153  1.00  0.00     0.135 A 
ATOM     68  F   UNL A   1      35.441  33.946  28.610  1.00  0.00    -0.206 F 
ATOM     69  C   UNL A   1      34.278  34.894  30.371  1.00  0.00     0.059 A 
ATOM     70  C   UNL A   1      35.085  34.734  32.618  1.00  0.00     0.059 A 
ATOM     71  F   UNL A   1      36.938  33.487  33.125  1.00  0.00    -0.206 F 
ATOM     72  C   UNL A   1      34.144  35.197  31.717  1.00  0.00     0.060 A 
BRANCH  72  73
ATOM     73  S   UNL A   1      32.738  36.172  32.276  1.00  0.00     0.124 S 
ATOM     74  O   UNL A   1      31.728  35.145  32.512  1.00  0.00    -0.237 OA
ATOM     75  O   UNL A   1      33.271  36.827  33.466  1.00  0.00    -0.237 OA
ATOM     76  O   UNL A   1      32.467  37.058  31.147  1.00  0.00    -0.744 OA
ENDBRANCH  72  73
ENDBRANCH  51  65
BRANCH  52  77
ATOM     77  C   UNL A   1      44.631  28.844  28.609  1.00  0.00     0.058 A 
ATOM     78  C   UNL A   1      44.051  28.847  27.325  1.00  0.00     0.135 A 
ATOM     79  C   UNL A   1      45.887  28.238  28.753  1.00  0.00     0.135 A 
ATOM     80  F   UNL A   1      42.839  29.394  27.138  1.00  0.00    -0.206 F 
ATOM     81  C   UNL A   1      44.766  28.451  26.202  1.00  0.00     0.059 A 
ATOM     82  C   UNL A   1      46.620  27.825  27.638  1.00  0.00     0.059 A 
ATOM     83  F   UNL A   1      46.485  28.199  29.954  1.00  0.00    -0.206 F 
ATOM     84  C   UNL A   1      46.080  28.018  26.366  1.00  0.00     0.060 A 
BRANCH  84  85
ATOM     85  S   UNL A   1      47.121  27.933  24.888  1.00  0.00     0.124 S 
ATOM     86  O   UNL A   1      48.463  27.963  25.458  1.00  0.00    -0.237 OA
ATOM     87  O   UNL A   1      46.702  26.652  24.320  1.00  0.00    -0.237 OA
ATOM     88  O   UNL A   1      46.726  29.118  24.136  1.00  0.00    -0.744 OA
ENDBRANCH  84  85
ENDBRANCH  52  77
BRANCH  64  89
ATOM     89  C   UNL A   1      42.536  35.806  28.721  1.00  0.00     0.058 A 
ATOM     90  C   UNL A   1      41.851  36.227  27.568  1.00  0.00     0.135 A 
ATOM     91  C   UNL A   1      43.255  36.814  29.406  1.00  0.00     0.135 A 
ATOM     92  F   UNL A   1      41.050  35.391  26.891  1.00  0.00    -0.206 F 
ATOM     93  C   UNL A   1      41.924  37.538  27.091  1.00  0.00     0.059 A 
ATOM     94  C   UNL A   1      43.298  38.139  28.979  1.00  0.00     0.059 A 
ATOM     95  F   UNL A   1      43.938  36.543  30.530  1.00  0.00    -0.206 F 
ATOM     96  C   UNL A   1      42.650  38.488  27.803  1.00  0.00     0.060 A 
BRANCH  96  97
ATOM     97  S   UNL A   1      42.702  40.197  27.233  1.00  0.00     0.124 S 
ATOM     98  O   UNL A   1      42.946  40.912  28.482  1.00  0.00    -0.237 OA
ATOM     99  O   UNL A   1      43.811  40.192  26.283  1.00  0.00    -0.237 OA
ATOM    100  O   UNL A   1      41.382  40.389  26.640  1.00  0.00    -0.744 OA
ENDBRANCH  96  97
ENDBRANCH  64  89
ENDBRANCH  38  39
ENDBRANCH  30  33
ENDBRANCH  28  29
ENDBRANCH  27  28
ENDBRANCH   1  27
TORSDOF 17
ENDMDL
