MODEL 1
REMARK VINA RESULT:     -12.5      0.000      0.000
REMARK SMILES COc1ccc2c(c1)c(CC(=O)NCCCCNC(=O)c1ccc(-c3c4nc(c(-c5c(F)cc(S(=O)(=O)[O-])cc5F)c5ccc([nH]5)c(-c5c(F)cc(S(=O)(=O)[O-])cc5F)c5nc(c(-c6c(F)cc(S(=O)(=O)[O-])cc6F)c6ccc3[nH]6)C=C5)C=C4)cc1)c(C)n2Cc1ccc(Br)cc1
REMARK SMILES IDX 15 1 14 2 13 3 11 4 12 5 10 7 9 8 3 9 4 10 8 11 5 12 7 13
REMARK SMILES IDX 6 14 89 15 87 16 88 17 2 18 1 19 90 20 91 21 92 22 97 23
REMARK SMILES IDX 93 24 96 25 94 26 95 27 16 28 17 29 18 30 19 31 20 33 21 34
REMARK SMILES IDX 22 35 86 36 23 37 85 38 24 39 25 40 26 41 79 42 27 43 84 44
REMARK SMILES IDX 78 45 80 46 28 47 83 48 77 49 76 50 29 52 63 53 42 54 62 55
REMARK SMILES IDX 43 56 46 57 61 58 81 59 44 60 45 61 60 63 82 64 47 65 30 66
REMARK SMILES IDX 31 67 40 68 32 69 33 70 39 71 41 72 34 73 35 74 36 75 37 76
REMARK SMILES IDX 38 77 64 78 65 79 74 80 66 81 67 82 73 83 75 84 68 85 69 86
REMARK SMILES IDX 70 87 71 88 72 89 48 90 49 91 58 92 50 93 51 94 57 95 59 96
REMARK SMILES IDX 52 97 53 98 54 99 55 100 56 101
REMARK H PARENT 13 6 18 32 80 51 46 62
REMARK Flexibility Score: inf
ROOT
ATOM      1  C   UNL A   1      34.164  30.393  27.778  1.00  0.00     0.023 C 
ENDROOT
BRANCH   1   2
ATOM      2  C   UNL A   1      32.957  30.377  26.840  1.00  0.00     0.116 C 
BRANCH   2   3
ATOM      3  N   UNL A   1      32.082  29.243  27.074  1.00  0.00    -0.356 N 
ATOM      4  C   UNL A   1      32.304  27.913  26.851  1.00  0.00     0.224 C 
ATOM      5  O   UNL A   1      31.421  27.114  27.180  1.00  0.00    -0.275 OA
ATOM      6  H   UNL A   1      31.198  29.464  27.447  1.00  0.00     0.163 HD
BRANCH   4   7
ATOM      7  C   UNL A   1      33.638  27.420  26.305  1.00  0.00     0.138 C 
BRANCH   7   8
ATOM      8  C   UNL A   1      33.496  26.413  25.207  1.00  0.00    -0.010 A 
ATOM      9  C   UNL A   1      31.034  27.318  22.442  1.00  0.00     0.119 A 
ATOM     10  C   UNL A   1      31.325  26.235  21.620  1.00  0.00     0.048 A 
ATOM     11  C   UNL A   1      31.740  27.502  23.631  1.00  0.00     0.057 A 
ATOM     12  C   UNL A   1      32.299  25.290  21.986  1.00  0.00     0.031 A 
ATOM     13  C   UNL A   1      32.684  26.540  24.045  1.00  0.00     0.007 A 
ATOM     14  C   UNL A   1      32.957  25.445  23.220  1.00  0.00     0.049 A 
ATOM     15  N   UNL A   1      33.936  24.692  23.860  1.00  0.00    -0.340 N 
ATOM     16  C   UNL A   1      34.061  25.146  25.166  1.00  0.00     0.020 A 
ATOM     17  C   UNL A   1      34.736  24.420  26.276  1.00  0.00     0.065 C 
BRANCH   9  18
ATOM     18  O   UNL A   1      30.118  28.291  22.142  1.00  0.00    -0.497 OA
ATOM     19  C   UNL A   1      30.673  29.598  22.036  1.00  0.00     0.278 C 
ENDBRANCH   9  18
BRANCH  15  20
ATOM     20  C   UNL A   1      34.614  23.526  23.281  1.00  0.00     0.157 C 
BRANCH  20  21
ATOM     21  C   UNL A   1      34.109  22.186  23.794  1.00  0.00    -0.028 A 
ATOM     22  C   UNL A   1      32.822  21.710  23.492  1.00  0.00     0.007 A 
ATOM     23  C   UNL A   1      34.958  21.341  24.528  1.00  0.00     0.007 A 
ATOM     24  C   UNL A   1      32.382  20.455  23.925  1.00  0.00     0.016 A 
ATOM     25  C   UNL A   1      34.532  20.072  24.943  1.00  0.00     0.016 A 
ATOM     26  C   UNL A   1      33.244  19.636  24.643  1.00  0.00     0.017 A 
ATOM     27  Br  UNL A   1      32.675  17.916  25.176  1.00  0.00    -0.051 Br
ENDBRANCH  20  21
ENDBRANCH  15  20
ENDBRANCH   7   8
ENDBRANCH   4   7
ENDBRANCH   2   3
ENDBRANCH   1   2
BRANCH   1  28
ATOM     28  C   UNL A   1      35.097  31.601  27.620  1.00  0.00     0.023 C 
BRANCH  28  29
ATOM     29  C   UNL A   1      34.665  32.863  28.369  1.00  0.00     0.116 C 
BRANCH  29  30
ATOM     30  N   UNL A   1      34.297  32.646  29.754  1.00  0.00    -0.352 N 
ATOM     31  C   UNL A   1      34.990  32.263  30.873  1.00  0.00     0.251 C 
ATOM     32  H   UNL A   1      33.343  32.811  29.930  1.00  0.00     0.163 HD
ATOM     33  O   UNL A   1      34.448  32.517  31.952  1.00  0.00    -0.269 OA
BRANCH  31  34
ATOM     34  C   UNL A   1      36.285  31.523  30.870  1.00  0.00     0.039 A 
ATOM     35  C   UNL A   1      37.546  32.107  30.807  1.00  0.00     0.014 A 
ATOM     36  C   UNL A   1      36.201  30.114  30.858  1.00  0.00     0.014 A 
ATOM     37  C   UNL A   1      38.682  31.316  30.662  1.00  0.00     0.010 A 
ATOM     38  C   UNL A   1      37.339  29.316  30.725  1.00  0.00     0.010 A 
ATOM     39  C   UNL A   1      38.583  29.920  30.592  1.00  0.00    -0.014 A 
BRANCH  39  40
ATOM     40  C   UNL A   1      39.835  29.171  30.471  1.00  0.00     0.031 A 
ATOM     41  C   UNL A   1      40.575  28.994  31.753  1.00  0.00     0.074 A 
ATOM     42  C   UNL A   1      40.323  28.634  29.334  1.00  0.00     0.049 A 
ATOM     43  N   UNL A   1      41.676  29.567  32.119  1.00  0.00    -0.248 NA
ATOM     44  C   UNL A   1      39.943  28.190  32.808  1.00  0.00     0.031 C 
ATOM     45  C   UNL A   1      39.655  28.464  28.042  1.00  0.00     0.029 A 
ATOM     46  N   UNL A   1      41.546  28.060  29.125  1.00  0.00    -0.354 N 
ATOM     47  C   UNL A   1      41.984  29.053  33.377  1.00  0.00     0.074 A 
ATOM     48  C   UNL A   1      40.819  28.322  33.805  1.00  0.00     0.031 C 
ATOM     49  C   UNL A   1      40.403  27.655  27.253  1.00  0.00     0.029 A 
ATOM     50  C   UNL A   1      41.666  27.383  27.918  1.00  0.00     0.049 A 
ATOM     51  H   UNL A   1      42.281  28.121  29.778  1.00  0.00     0.167 HD
ATOM     52  C   UNL A   1      43.247  29.110  33.884  1.00  0.00     0.037 A 
ATOM     53  C   UNL A   1      42.724  26.639  27.510  1.00  0.00     0.037 A 
ATOM     54  C   UNL A   1      44.062  30.044  33.152  1.00  0.00     0.049 A 
ATOM     55  C   UNL A   1      43.911  27.108  28.262  1.00  0.00     0.074 A 
ATOM     56  C   UNL A   1      44.097  31.412  32.977  1.00  0.00     0.029 A 
ATOM     57  N   UNL A   1      44.871  29.507  32.185  1.00  0.00    -0.354 N 
ATOM     58  N   UNL A   1      44.465  28.276  28.101  1.00  0.00    -0.248 NA
ATOM     59  C   UNL A   1      44.317  26.384  29.457  1.00  0.00     0.031 C 
ATOM     60  C   UNL A   1      44.622  31.614  31.666  1.00  0.00     0.029 A 
ATOM     61  C   UNL A   1      44.904  30.362  31.116  1.00  0.00     0.049 A 
ATOM     62  H   UNL A   1      45.349  28.649  32.247  1.00  0.00     0.167 HD
ATOM     63  C   UNL A   1      44.950  28.609  29.352  1.00  0.00     0.074 A 
ATOM     64  C   UNL A   1      44.966  27.357  30.097  1.00  0.00     0.031 C 
ATOM     65  C   UNL A   1      45.028  29.913  29.745  1.00  0.00     0.037 A 
BRANCH  52  66
ATOM     66  C   UNL A   1      43.878  28.053  34.769  1.00  0.00     0.058 A 
ATOM     67  C   UNL A   1      44.514  28.449  35.968  1.00  0.00     0.135 A 
ATOM     68  C   UNL A   1      44.169  26.741  34.336  1.00  0.00     0.135 A 
ATOM     69  F   UNL A   1      44.302  29.671  36.484  1.00  0.00    -0.206 F 
ATOM     70  C   UNL A   1      45.446  27.645  36.624  1.00  0.00     0.059 A 
ATOM     71  C   UNL A   1      45.058  25.904  35.004  1.00  0.00     0.059 A 
ATOM     72  F   UNL A   1      43.686  26.242  33.193  1.00  0.00    -0.206 F 
ATOM     73  C   UNL A   1      45.730  26.382  36.117  1.00  0.00     0.060 A 
BRANCH  73  74
ATOM     74  S   UNL A   1      47.038  25.398  36.874  1.00  0.00     0.124 S 
ATOM     75  O   UNL A   1      48.217  25.900  36.178  1.00  0.00    -0.237 OA
ATOM     76  O   UNL A   1      46.919  25.768  38.280  1.00  0.00    -0.237 OA
ATOM     77  O   UNL A   1      46.652  24.027  36.556  1.00  0.00    -0.744 OA
ENDBRANCH  73  74
ENDBRANCH  52  66
BRANCH  53  78
ATOM     78  C   UNL A   1      42.751  25.370  26.737  1.00  0.00     0.058 A 
ATOM     79  C   UNL A   1      43.320  25.325  25.450  1.00  0.00     0.135 A 
ATOM     80  C   UNL A   1      42.541  24.130  27.369  1.00  0.00     0.135 A 
ATOM     81  F   UNL A   1      43.557  26.461  24.775  1.00  0.00    -0.206 F 
ATOM     82  C   UNL A   1      43.743  24.130  24.862  1.00  0.00     0.059 A 
ATOM     83  C   UNL A   1      42.946  22.923  26.798  1.00  0.00     0.059 A 
ATOM     84  F   UNL A   1      42.029  24.065  28.607  1.00  0.00    -0.206 F 
ATOM     85  C   UNL A   1      43.583  22.935  25.561  1.00  0.00     0.060 A 
BRANCH  85  86
ATOM     86  S   UNL A   1      44.331  21.425  24.904  1.00  0.00     0.124 S 
ATOM     87  O   UNL A   1      45.573  21.346  25.665  1.00  0.00    -0.237 OA
ATOM     88  O   UNL A   1      43.322  20.420  25.223  1.00  0.00    -0.237 OA
ATOM     89  O   UNL A   1      44.487  21.716  23.481  1.00  0.00    -0.744 OA
ENDBRANCH  85  86
ENDBRANCH  53  78
BRANCH  65  90
ATOM     90  C   UNL A   1      45.031  30.966  28.672  1.00  0.00     0.058 A 
ATOM     91  C   UNL A   1      46.171  31.397  27.971  1.00  0.00     0.135 A 
ATOM     92  C   UNL A   1      43.791  31.488  28.270  1.00  0.00     0.135 A 
ATOM     93  F   UNL A   1      47.380  30.879  28.231  1.00  0.00    -0.206 F 
ATOM     94  C   UNL A   1      46.082  32.338  26.942  1.00  0.00     0.059 A 
ATOM     95  C   UNL A   1      43.677  32.401  27.229  1.00  0.00     0.059 A 
ATOM     96  F   UNL A   1      42.663  31.074  28.870  1.00  0.00    -0.206 F 
ATOM     97  C   UNL A   1      44.829  32.833  26.576  1.00  0.00     0.060 A 
BRANCH  97  98
ATOM     98  S   UNL A   1      44.704  33.995  25.200  1.00  0.00     0.124 S 
ATOM     99  O   UNL A   1      44.225  33.137  24.115  1.00  0.00    -0.237 OA
ATOM    100  O   UNL A   1      43.736  34.973  25.698  1.00  0.00    -0.237 OA
ATOM    101  O   UNL A   1      46.060  34.497  25.045  1.00  0.00    -0.744 OA
ENDBRANCH  97  98
ENDBRANCH  65  90
ENDBRANCH  39  40
ENDBRANCH  31  34
ENDBRANCH  29  30
ENDBRANCH  28  29
ENDBRANCH   1  28
TORSDOF 18
ENDMDL
MODEL 2
REMARK VINA RESULT:     -12.3      1.198      2.568
REMARK SMILES COc1ccc2c(c1)c(CC(=O)NCCCCNC(=O)c1ccc(-c3c4nc(c(-c5c(F)cc(S(=O)(=O)[O-])cc5F)c5ccc([nH]5)c(-c5c(F)cc(S(=O)(=O)[O-])cc5F)c5nc(c(-c6c(F)cc(S(=O)(=O)[O-])cc6F)c6ccc3[nH]6)C=C5)C=C4)cc1)c(C)n2Cc1ccc(Br)cc1
REMARK SMILES IDX 15 1 14 2 13 3 11 4 12 5 10 7 9 8 3 9 4 10 8 11 5 12 7 13
REMARK SMILES IDX 6 14 89 15 87 16 88 17 2 18 1 19 90 20 91 21 92 22 97 23
REMARK SMILES IDX 93 24 96 25 94 26 95 27 16 28 17 29 18 30 19 31 20 33 21 34
REMARK SMILES IDX 22 35 86 36 23 37 85 38 24 39 25 40 26 41 79 42 27 43 84 44
REMARK SMILES IDX 78 45 80 46 28 47 83 48 77 49 76 50 29 52 63 53 42 54 62 55
REMARK SMILES IDX 43 56 46 57 61 58 81 59 44 60 45 61 60 63 82 64 47 65 30 66
REMARK SMILES IDX 31 67 40 68 32 69 33 70 39 71 41 72 34 73 35 74 36 75 37 76
REMARK SMILES IDX 38 77 64 78 65 79 74 80 66 81 67 82 73 83 75 84 68 85 69 86
REMARK SMILES IDX 70 87 71 88 72 89 48 90 49 91 58 92 50 93 51 94 57 95 59 96
REMARK SMILES IDX 52 97 53 98 54 99 55 100 56 101
REMARK H PARENT 13 6 18 32 80 51 46 62
REMARK Flexibility Score: inf
ROOT
ATOM      1  C   UNL A   1      35.086  29.926  27.379  1.00  0.00     0.023 C 
ENDROOT
BRANCH   1   2
ATOM      2  C   UNL A   1      34.436  28.596  26.998  1.00  0.00     0.116 C 
BRANCH   2   3
ATOM      3  N   UNL A   1      34.213  28.470  25.569  1.00  0.00    -0.356 N 
ATOM      4  C   UNL A   1      33.720  27.413  24.857  1.00  0.00     0.224 C 
ATOM      5  O   UNL A   1      33.567  27.556  23.639  1.00  0.00    -0.275 OA
ATOM      6  H   UNL A   1      34.452  29.262  25.035  1.00  0.00     0.163 HD
BRANCH   4   7
ATOM      7  C   UNL A   1      33.278  26.133  25.554  1.00  0.00     0.138 C 
BRANCH   7   8
ATOM      8  C   UNL A   1      33.551  24.897  24.755  1.00  0.00    -0.010 A 
ATOM      9  C   UNL A   1      37.024  23.387  25.178  1.00  0.00     0.119 A 
ATOM     10  C   UNL A   1      36.788  22.248  24.416  1.00  0.00     0.048 A 
ATOM     11  C   UNL A   1      35.998  24.303  25.401  1.00  0.00     0.057 A 
ATOM     12  C   UNL A   1      35.533  22.019  23.827  1.00  0.00     0.031 A 
ATOM     13  C   UNL A   1      34.745  24.123  24.778  1.00  0.00     0.007 A 
ATOM     14  C   UNL A   1      34.523  22.985  23.998  1.00  0.00     0.049 A 
ATOM     15  N   UNL A   1      33.210  23.057  23.543  1.00  0.00    -0.340 N 
ATOM     16  C   UNL A   1      32.726  24.333  23.792  1.00  0.00     0.020 A 
ATOM     17  C   UNL A   1      31.511  24.935  23.178  1.00  0.00     0.065 C 
BRANCH   9  18
ATOM     18  O   UNL A   1      38.211  23.665  25.803  1.00  0.00    -0.497 OA
ATOM     19  C   UNL A   1      38.949  22.511  26.191  1.00  0.00     0.278 C 
ENDBRANCH   9  18
BRANCH  15  20
ATOM     20  C   UNL A   1      32.517  21.998  22.800  1.00  0.00     0.157 C 
BRANCH  20  21
ATOM     21  C   UNL A   1      32.497  20.648  23.501  1.00  0.00    -0.028 A 
ATOM     22  C   UNL A   1      32.527  19.438  22.788  1.00  0.00     0.007 A 
ATOM     23  C   UNL A   1      32.527  20.576  24.903  1.00  0.00     0.007 A 
ATOM     24  C   UNL A   1      32.559  18.201  23.439  1.00  0.00     0.016 A 
ATOM     25  C   UNL A   1      32.585  19.340  25.562  1.00  0.00     0.016 A 
ATOM     26  C   UNL A   1      32.596  18.157  24.827  1.00  0.00     0.017 A 
ATOM     27  Br  UNL A   1      32.701  16.491  25.710  1.00  0.00    -0.051 Br
ENDBRANCH  20  21
ENDBRANCH  15  20
ENDBRANCH   7   8
ENDBRANCH   4   7
ENDBRANCH   2   3
ENDBRANCH   1   2
BRANCH   1  28
ATOM     28  C   UNL A   1      34.119  31.110  27.513  1.00  0.00     0.023 C 
BRANCH  28  29
ATOM     29  C   UNL A   1      34.654  32.304  28.305  1.00  0.00     0.116 C 
BRANCH  29  30
ATOM     30  N   UNL A   1      34.381  32.256  29.728  1.00  0.00    -0.352 N 
ATOM     31  C   UNL A   1      35.146  31.989  30.834  1.00  0.00     0.251 C 
ATOM     32  H   UNL A   1      33.443  32.459  29.948  1.00  0.00     0.163 HD
ATOM     33  O   UNL A   1      34.683  32.377  31.911  1.00  0.00    -0.269 OA
BRANCH  31  34
ATOM     34  C   UNL A   1      36.428  31.228  30.830  1.00  0.00     0.039 A 
ATOM     35  C   UNL A   1      37.698  31.789  30.928  1.00  0.00     0.014 A 
ATOM     36  C   UNL A   1      36.328  29.834  30.635  1.00  0.00     0.014 A 
ATOM     37  C   UNL A   1      38.831  30.998  30.765  1.00  0.00     0.010 A 
ATOM     38  C   UNL A   1      37.462  29.034  30.483  1.00  0.00     0.010 A 
ATOM     39  C   UNL A   1      38.720  29.624  30.514  1.00  0.00    -0.014 A 
BRANCH  39  40
ATOM     40  C   UNL A   1      39.968  28.869  30.389  1.00  0.00     0.031 A 
ATOM     41  C   UNL A   1      40.692  28.652  31.674  1.00  0.00     0.074 A 
ATOM     42  C   UNL A   1      40.467  28.359  29.243  1.00  0.00     0.049 A 
ATOM     43  N   UNL A   1      41.792  29.207  32.069  1.00  0.00    -0.248 NA
ATOM     44  C   UNL A   1      40.040  27.824  32.699  1.00  0.00     0.031 C 
ATOM     45  C   UNL A   1      39.813  28.229  27.939  1.00  0.00     0.029 A 
ATOM     46  N   UNL A   1      41.689  27.782  29.034  1.00  0.00    -0.354 N 
ATOM     47  C   UNL A   1      42.080  28.657  33.316  1.00  0.00     0.074 A 
ATOM     48  C   UNL A   1      40.905  27.923  33.710  1.00  0.00     0.031 C 
ATOM     49  C   UNL A   1      40.565  27.436  27.138  1.00  0.00     0.029 A 
ATOM     50  C   UNL A   1      41.819  27.137  27.811  1.00  0.00     0.049 A 
ATOM     51  H   UNL A   1      42.416  27.820  29.697  1.00  0.00     0.167 HD
ATOM     52  C   UNL A   1      43.337  28.690  33.840  1.00  0.00     0.037 A 
ATOM     53  C   UNL A   1      42.876  26.397  27.395  1.00  0.00     0.037 A 
ATOM     54  C   UNL A   1      44.168  29.638  33.144  1.00  0.00     0.049 A 
ATOM     55  C   UNL A   1      44.057  26.836  28.174  1.00  0.00     0.074 A 
ATOM     56  C   UNL A   1      44.215  31.010  33.006  1.00  0.00     0.029 A 
ATOM     57  N   UNL A   1      44.985  29.122  32.172  1.00  0.00    -0.354 N 
ATOM     58  N   UNL A   1      44.621  28.004  28.052  1.00  0.00    -0.248 NA
ATOM     59  C   UNL A   1      44.443  26.077  29.354  1.00  0.00     0.031 C 
ATOM     60  C   UNL A   1      44.757  31.243  31.707  1.00  0.00     0.029 A 
ATOM     61  C   UNL A   1      45.037  30.005  31.127  1.00  0.00     0.049 A 
ATOM     62  H   UNL A   1      45.456  28.259  32.217  1.00  0.00     0.167 HD
ATOM     63  C   UNL A   1      45.093  28.300  29.317  1.00  0.00     0.074 A 
ATOM     64  C   UNL A   1      45.091  27.028  30.028  1.00  0.00     0.031 C 
ATOM     65  C   UNL A   1      45.175  29.592  29.747  1.00  0.00     0.037 A 
BRANCH  52  66
ATOM     66  C   UNL A   1      43.950  27.605  34.703  1.00  0.00     0.058 A 
ATOM     67  C   UNL A   1      44.599  27.967  35.906  1.00  0.00     0.135 A 
ATOM     68  C   UNL A   1      44.211  26.295  34.247  1.00  0.00     0.135 A 
ATOM     69  F   UNL A   1      44.416  29.184  36.444  1.00  0.00    -0.206 F 
ATOM     70  C   UNL A   1      45.517  27.132  36.544  1.00  0.00     0.059 A 
ATOM     71  C   UNL A   1      45.086  25.428  34.896  1.00  0.00     0.059 A 
ATOM     72  F   UNL A   1      43.713  25.826  33.098  1.00  0.00    -0.206 F 
ATOM     73  C   UNL A   1      45.772  25.872  36.013  1.00  0.00     0.060 A 
BRANCH  73  74
ATOM     74  S   UNL A   1      47.062  24.849  36.748  1.00  0.00     0.124 S 
ATOM     75  O   UNL A   1      48.225  25.238  35.957  1.00  0.00    -0.237 OA
ATOM     76  O   UNL A   1      47.052  25.298  38.135  1.00  0.00    -0.237 OA
ATOM     77  O   UNL A   1      46.576  23.490  36.529  1.00  0.00    -0.744 OA
ENDBRANCH  73  74
ENDBRANCH  52  66
BRANCH  53  78
ATOM     78  C   UNL A   1      42.904  25.149  26.588  1.00  0.00     0.058 A 
ATOM     79  C   UNL A   1      43.703  25.058  25.433  1.00  0.00     0.135 A 
ATOM     80  C   UNL A   1      42.430  23.932  27.115  1.00  0.00     0.135 A 
ATOM     81  F   UNL A   1      44.199  26.169  24.865  1.00  0.00    -0.206 F 
ATOM     82  C   UNL A   1      44.089  23.831  24.887  1.00  0.00     0.059 A 
ATOM     83  C   UNL A   1      42.794  22.696  26.582  1.00  0.00     0.059 A 
ATOM     84  F   UNL A   1      41.683  23.908  28.229  1.00  0.00    -0.206 F 
ATOM     85  C   UNL A   1      43.656  22.652  25.491  1.00  0.00     0.060 A 
BRANCH  85  86
ATOM     86  S   UNL A   1      44.335  21.074  24.926  1.00  0.00     0.124 S 
ATOM     87  O   UNL A   1      43.266  20.143  25.272  1.00  0.00    -0.237 OA
ATOM     88  O   UNL A   1      44.531  21.318  23.501  1.00  0.00    -0.237 OA
ATOM     89  O   UNL A   1      45.562  20.934  25.705  1.00  0.00    -0.744 OA
ENDBRANCH  85  86
ENDBRANCH  53  78
BRANCH  65  90
ATOM     90  C   UNL A   1      45.199  30.673  28.702  1.00  0.00     0.058 A 
ATOM     91  C   UNL A   1      44.063  31.329  28.195  1.00  0.00     0.135 A 
ATOM     92  C   UNL A   1      46.454  31.133  28.272  1.00  0.00     0.135 A 
ATOM     93  F   UNL A   1      42.833  31.012  28.625  1.00  0.00    -0.206 F 
ATOM     94  C   UNL A   1      44.173  32.368  27.269  1.00  0.00     0.059 A 
ATOM     95  C   UNL A   1      46.587  32.186  27.375  1.00  0.00     0.059 A 
ATOM     96  F   UNL A   1      47.576  30.579  28.761  1.00  0.00    -0.206 F 
ATOM     97  C   UNL A   1      45.440  32.792  26.866  1.00  0.00     0.060 A 
BRANCH  97  98
ATOM     98  S   UNL A   1      45.587  34.183  25.723  1.00  0.00     0.124 S 
ATOM     99  O   UNL A   1      44.678  33.792  24.645  1.00  0.00    -0.237 OA
ATOM    100  O   UNL A   1      45.140  35.312  26.540  1.00  0.00    -0.237 OA
ATOM    101  O   UNL A   1      46.999  34.197  25.374  1.00  0.00    -0.744 OA
ENDBRANCH  97  98
ENDBRANCH  65  90
ENDBRANCH  39  40
ENDBRANCH  31  34
ENDBRANCH  29  30
ENDBRANCH  28  29
ENDBRANCH   1  28
TORSDOF 18
ENDMDL
MODEL 3
REMARK VINA RESULT:     -12.1      3.328      9.632
REMARK SMILES COc1ccc2c(c1)c(CC(=O)NCCCCNC(=O)c1ccc(-c3c4nc(c(-c5c(F)cc(S(=O)(=O)[O-])cc5F)c5ccc([nH]5)c(-c5c(F)cc(S(=O)(=O)[O-])cc5F)c5nc(c(-c6c(F)cc(S(=O)(=O)[O-])cc6F)c6ccc3[nH]6)C=C5)C=C4)cc1)c(C)n2Cc1ccc(Br)cc1
REMARK SMILES IDX 15 1 14 2 13 3 11 4 12 5 10 7 9 8 3 9 4 10 8 11 5 12 7 13
REMARK SMILES IDX 6 14 89 15 87 16 88 17 2 18 1 19 90 20 91 21 92 22 97 23
REMARK SMILES IDX 93 24 96 25 94 26 95 27 16 28 17 29 18 30 19 31 20 33 21 34
REMARK SMILES IDX 22 35 86 36 23 37 85 38 24 39 25 40 26 41 79 42 27 43 84 44
REMARK SMILES IDX 78 45 80 46 28 47 83 48 77 49 76 50 29 52 63 53 42 54 62 55
REMARK SMILES IDX 43 56 46 57 61 58 81 59 44 60 45 61 60 63 82 64 47 65 30 66
REMARK SMILES IDX 31 67 40 68 32 69 33 70 39 71 41 72 34 73 35 74 36 75 37 76
REMARK SMILES IDX 38 77 64 78 65 79 74 80 66 81 67 82 73 83 75 84 68 85 69 86
REMARK SMILES IDX 70 87 71 88 72 89 48 90 49 91 58 92 50 93 51 94 57 95 59 96
REMARK SMILES IDX 52 97 53 98 54 99 55 100 56 101
REMARK H PARENT 13 6 18 32 80 51 46 62
REMARK Flexibility Score: inf
ROOT
ATOM      1  C   UNL A   1      39.176  19.969  25.676  1.00  0.00     0.023 C 
ENDROOT
BRANCH   1   2
ATOM      2  C   UNL A   1      38.121  21.032  25.371  1.00  0.00     0.116 C 
BRANCH   2   3
ATOM      3  N   UNL A   1      36.836  20.460  25.013  1.00  0.00    -0.356 N 
ATOM      4  C   UNL A   1      35.577  20.869  25.354  1.00  0.00     0.224 C 
ATOM      5  O   UNL A   1      34.618  20.249  24.883  1.00  0.00    -0.275 OA
ATOM      6  H   UNL A   1      36.877  19.659  24.442  1.00  0.00     0.163 HD
BRANCH   4   7
ATOM      7  C   UNL A   1      35.359  22.112  26.208  1.00  0.00     0.138 C 
BRANCH   7   8
ATOM      8  C   UNL A   1      34.460  23.123  25.567  1.00  0.00    -0.010 A 
ATOM      9  C   UNL A   1      30.906  23.280  26.932  1.00  0.00     0.119 A 
ATOM     10  C   UNL A   1      30.508  24.388  26.193  1.00  0.00     0.048 A 
ATOM     11  C   UNL A   1      32.217  22.813  26.842  1.00  0.00     0.057 A 
ATOM     12  C   UNL A   1      31.399  25.030  25.316  1.00  0.00     0.031 A 
ATOM     13  C   UNL A   1      33.114  23.407  25.930  1.00  0.00     0.007 A 
ATOM     14  C   UNL A   1      32.700  24.510  25.177  1.00  0.00     0.049 A 
ATOM     15  N   UNL A   1      33.787  24.899  24.401  1.00  0.00    -0.340 N 
ATOM     16  C   UNL A   1      34.749  23.902  24.455  1.00  0.00     0.020 A 
ATOM     17  C   UNL A   1      35.901  23.756  23.523  1.00  0.00     0.065 C 
BRANCH   9  18
ATOM     18  O   UNL A   1      30.104  22.618  27.824  1.00  0.00    -0.497 OA
ATOM     19  C   UNL A   1      28.763  22.442  27.379  1.00  0.00     0.278 C 
ENDBRANCH   9  18
BRANCH  15  20
ATOM     20  C   UNL A   1      33.832  26.101  23.559  1.00  0.00     0.157 C 
BRANCH  20  21
ATOM     21  C   UNL A   1      33.389  27.376  24.259  1.00  0.00    -0.028 A 
ATOM     22  C   UNL A   1      32.336  28.167  23.771  1.00  0.00     0.007 A 
ATOM     23  C   UNL A   1      33.979  27.760  25.476  1.00  0.00     0.007 A 
ATOM     24  C   UNL A   1      31.901  29.311  24.447  1.00  0.00     0.016 A 
ATOM     25  C   UNL A   1      33.529  28.891  26.171  1.00  0.00     0.016 A 
ATOM     26  C   UNL A   1      32.495  29.665  25.652  1.00  0.00     0.017 A 
ATOM     27  Br  UNL A   1      31.869  31.174  26.598  1.00  0.00    -0.051 Br
ENDBRANCH  20  21
ENDBRANCH  15  20
ENDBRANCH   7   8
ENDBRANCH   4   7
ENDBRANCH   2   3
ENDBRANCH   1   2
BRANCH   1  28
ATOM     28  C   UNL A   1      40.377  20.459  26.496  1.00  0.00     0.023 C 
BRANCH  28  29
ATOM     29  C   UNL A   1      40.641  21.965  26.435  1.00  0.00     0.116 C 
BRANCH  29  30
ATOM     30  N   UNL A   1      41.667  22.359  25.490  1.00  0.00    -0.352 N 
ATOM     31  C   UNL A   1      42.578  23.382  25.448  1.00  0.00     0.251 C 
ATOM     32  H   UNL A   1      41.721  21.763  24.709  1.00  0.00     0.163 HD
ATOM     33  O   UNL A   1      43.530  23.220  24.679  1.00  0.00    -0.269 OA
BRANCH  31  34
ATOM     34  C   UNL A   1      42.465  24.665  26.199  1.00  0.00     0.039 A 
ATOM     35  C   UNL A   1      43.061  24.935  27.427  1.00  0.00     0.014 A 
ATOM     36  C   UNL A   1      41.622  25.647  25.637  1.00  0.00     0.014 A 
ATOM     37  C   UNL A   1      42.768  26.113  28.108  1.00  0.00     0.010 A 
ATOM     38  C   UNL A   1      41.335  26.836  26.310  1.00  0.00     0.010 A 
ATOM     39  C   UNL A   1      41.884  27.056  27.568  1.00  0.00    -0.014 A 
BRANCH  39  40
ATOM     40  C   UNL A   1      41.663  28.279  28.342  1.00  0.00     0.031 A 
ATOM     41  C   UNL A   1      42.783  29.261  28.279  1.00  0.00     0.074 A 
ATOM     42  C   UNL A   1      40.553  28.570  29.052  1.00  0.00     0.049 A 
ATOM     43  N   UNL A   1      43.627  29.563  29.211  1.00  0.00    -0.248 NA
ATOM     44  C   UNL A   1      43.083  29.879  26.980  1.00  0.00     0.031 C 
ATOM     45  C   UNL A   1      39.258  27.887  29.046  1.00  0.00     0.029 A 
ATOM     46  N   UNL A   1      40.347  29.614  29.910  1.00  0.00    -0.354 N 
ATOM     47  C   UNL A   1      44.454  30.553  28.683  1.00  0.00     0.074 A 
ATOM     48  C   UNL A   1      44.163  30.606  27.274  1.00  0.00     0.031 C 
ATOM     49  C   UNL A   1      38.347  28.647  29.700  1.00  0.00     0.029 A 
ATOM     50  C   UNL A   1      39.025  29.782  30.304  1.00  0.00     0.049 A 
ATOM     51  H   UNL A   1      41.075  30.198  30.223  1.00  0.00     0.167 HD
ATOM     52  C   UNL A   1      45.176  31.385  29.484  1.00  0.00     0.037 A 
ATOM     53  C   UNL A   1      38.528  30.795  31.057  1.00  0.00     0.037 A 
ATOM     54  C   UNL A   1      45.249  30.880  30.831  1.00  0.00     0.049 A 
ATOM     55  C   UNL A   1      39.653  31.356  31.841  1.00  0.00     0.074 A 
ATOM     56  C   UNL A   1      45.836  29.803  31.461  1.00  0.00     0.029 A 
ATOM     57  N   UNL A   1      44.349  31.407  31.720  1.00  0.00    -0.354 N 
ATOM     58  N   UNL A   1      40.261  30.723  32.805  1.00  0.00    -0.248 NA
ATOM     59  C   UNL A   1      40.339  32.538  31.341  1.00  0.00     0.031 C 
ATOM     60  C   UNL A   1      44.983  29.494  32.562  1.00  0.00     0.029 A 
ATOM     61  C   UNL A   1      43.932  30.413  32.564  1.00  0.00     0.049 A 
ATOM     62  H   UNL A   1      44.051  32.344  31.748  1.00  0.00     0.167 HD
ATOM     63  C   UNL A   1      41.569  31.166  32.745  1.00  0.00     0.074 A 
ATOM     64  C   UNL A   1      41.521  32.378  31.938  1.00  0.00     0.031 C 
ATOM     65  C   UNL A   1      42.598  30.354  33.123  1.00  0.00     0.037 A 
BRANCH  52  66
ATOM     66  C   UNL A   1      45.480  32.838  29.181  1.00  0.00     0.058 A 
ATOM     67  C   UNL A   1      44.412  33.761  29.092  1.00  0.00     0.135 A 
ATOM     68  C   UNL A   1      46.712  33.289  28.659  1.00  0.00     0.135 A 
ATOM     69  F   UNL A   1      43.196  33.449  29.569  1.00  0.00    -0.206 F 
ATOM     70  C   UNL A   1      44.534  34.988  28.440  1.00  0.00     0.059 A 
ATOM     71  C   UNL A   1      46.867  34.530  28.048  1.00  0.00     0.059 A 
ATOM     72  F   UNL A   1      47.800  32.511  28.623  1.00  0.00    -0.206 F 
ATOM     73  C   UNL A   1      45.762  35.351  27.898  1.00  0.00     0.060 A 
BRANCH  73  74
ATOM     74  S   UNL A   1      45.887  36.866  26.929  1.00  0.00     0.124 S 
ATOM     75  O   UNL A   1      44.496  37.081  26.546  1.00  0.00    -0.237 OA
ATOM     76  O   UNL A   1      46.437  37.804  27.902  1.00  0.00    -0.237 OA
ATOM     77  O   UNL A   1      46.790  36.495  25.843  1.00  0.00    -0.744 OA
ENDBRANCH  73  74
ENDBRANCH  52  66
BRANCH  53  78
ATOM     78  C   UNL A   1      37.229  31.509  30.951  1.00  0.00     0.058 A 
ATOM     79  C   UNL A   1      36.217  31.305  31.908  1.00  0.00     0.135 A 
ATOM     80  C   UNL A   1      37.087  32.641  30.126  1.00  0.00     0.135 A 
ATOM     81  F   UNL A   1      36.274  30.252  32.738  1.00  0.00    -0.206 F 
ATOM     82  C   UNL A   1      35.178  32.219  32.102  1.00  0.00     0.059 A 
ATOM     83  C   UNL A   1      36.053  33.562  30.293  1.00  0.00     0.059 A 
ATOM     84  F   UNL A   1      38.011  32.938  29.200  1.00  0.00    -0.206 F 
ATOM     85  C   UNL A   1      35.124  33.365  31.310  1.00  0.00     0.060 A 
BRANCH  85  86
ATOM     86  S   UNL A   1      33.918  34.652  31.707  1.00  0.00     0.124 S 
ATOM     87  O   UNL A   1      34.778  35.771  32.074  1.00  0.00    -0.237 OA
ATOM     88  O   UNL A   1      33.192  34.791  30.449  1.00  0.00    -0.237 OA
ATOM     89  O   UNL A   1      33.149  34.069  32.804  1.00  0.00    -0.744 OA
ENDBRANCH  85  86
ENDBRANCH  53  78
BRANCH  65  90
ATOM     90  C   UNL A   1      42.276  29.192  34.021  1.00  0.00     0.058 A 
ATOM     91  C   UNL A   1      41.888  27.916  33.577  1.00  0.00     0.135 A 
ATOM     92  C   UNL A   1      42.471  29.364  35.400  1.00  0.00     0.135 A 
ATOM     93  F   UNL A   1      41.770  27.645  32.270  1.00  0.00    -0.206 F 
ATOM     94  C   UNL A   1      41.666  26.869  34.474  1.00  0.00     0.059 A 
ATOM     95  C   UNL A   1      42.285  28.327  36.307  1.00  0.00     0.059 A 
ATOM     96  F   UNL A   1      42.890  30.547  35.877  1.00  0.00    -0.206 F 
ATOM     97  C   UNL A   1      41.868  27.083  35.838  1.00  0.00     0.060 A 
BRANCH  97  98
ATOM     98  S   UNL A   1      41.650  25.711  36.993  1.00  0.00     0.124 S 
ATOM     99  O   UNL A   1      40.422  26.092  37.694  1.00  0.00    -0.237 OA
ATOM    100  O   UNL A   1      41.527  24.560  36.097  1.00  0.00    -0.237 OA
ATOM    101  O   UNL A   1      42.861  25.738  37.797  1.00  0.00    -0.744 OA
ENDBRANCH  97  98
ENDBRANCH  65  90
ENDBRANCH  39  40
ENDBRANCH  31  34
ENDBRANCH  29  30
ENDBRANCH  28  29
ENDBRANCH   1  28
TORSDOF 18
ENDMDL
