MODEL 1
REMARK VINA RESULT:     -12.0      0.000      0.000
REMARK SMILES CC1=C(C#N)C(=O)N(C)C(=O)/C1=C\Nc1ccc(C(=O)NCCCCNC(=O)c2ccc(-c3c4nc(c(-c5c(F)cc(S(=O)(=O)[O-])cc5F)c5ccc([nH]5)c(-c5c(F)cc(S(=O)(=O)[O-])cc5F)c5nc(c(-c6c(F)cc(S(=O)(=O)[O-])cc6F)c6ccc3[nH]6)C=C5)C=C4)cc2)c(O)c1
REMARK SMILES IDX 23 1 22 2 21 3 19 4 20 5 18 7 15 8 16 9 97 10 17 11 95 12
REMARK SMILES IDX 14 13 13 15 1 16 2 17 3 18 12 19 6 20 10 21 7 22 8 23 11 24
REMARK SMILES IDX 9 25 4 26 5 27 96 28 24 30 25 31 26 32 27 33 28 35 29 36
REMARK SMILES IDX 30 37 94 38 31 39 93 40 32 41 33 42 34 43 87 44 35 45 92 46
REMARK SMILES IDX 86 47 88 48 36 49 91 50 85 51 84 52 37 54 71 55 50 56 70 57
REMARK SMILES IDX 51 58 54 59 69 60 89 61 52 62 53 63 68 65 90 66 55 67 38 68
REMARK SMILES IDX 39 69 48 70 40 71 41 72 47 73 49 74 42 75 43 76 44 77 45 78
REMARK SMILES IDX 46 79 72 80 73 81 82 82 74 83 75 84 81 85 83 86 76 87 77 88
REMARK SMILES IDX 78 89 79 90 80 91 56 92 57 93 66 94 58 95 59 96 65 97 67 98
REMARK SMILES IDX 60 99 61 100 62 101 63 102 64 103
REMARK H PARENT 21 6 14 14 96 29 26 34 88 53 54 64
REMARK Flexibility Score: inf
ROOT
ATOM      1  C   UNL A   1      32.837  29.928  25.093  1.00  0.00     0.023 C 
ENDROOT
BRANCH   1   2
ATOM      2  C   UNL A   1      31.319  29.796  25.015  1.00  0.00     0.116 C 
BRANCH   2   3
ATOM      3  N   UNL A   1      30.827  29.328  23.727  1.00  0.00    -0.352 N 
ATOM      4  C   UNL A   1      30.888  28.068  23.182  1.00  0.00     0.255 C 
ATOM      5  O   UNL A   1      30.464  27.863  22.048  1.00  0.00    -0.269 OA
ATOM      6  H   UNL A   1      30.388  30.010  23.168  1.00  0.00     0.163 HD
BRANCH   4   7
ATOM      7  C   UNL A   1      31.497  26.955  23.938  1.00  0.00     0.081 A 
ATOM      8  C   UNL A   1      32.429  24.722  25.388  1.00  0.00     0.042 A 
ATOM      9  C   UNL A   1      31.334  25.460  25.846  1.00  0.00     0.027 A 
ATOM     10  C   UNL A   1      33.085  25.160  24.226  1.00  0.00     0.073 A 
ATOM     11  C   UNL A   1      30.869  26.569  25.128  1.00  0.00     0.020 A 
ATOM     12  C   UNL A   1      32.648  26.283  23.530  1.00  0.00     0.130 A 
BRANCH   8  13
ATOM     13  N   UNL A   1      32.906  23.559  26.004  1.00  0.00    -0.361 N 
ATOM     14  H   UNL A   1      33.363  23.709  26.864  1.00  0.00     0.166 HD
BRANCH  13  15
ATOM     15  C   UNL A   1      32.847  22.244  25.614  1.00  0.00     0.097 C 
ATOM     16  C   UNL A   1      32.325  19.520  24.635  1.00  0.00     0.047 C 
ATOM     17  C   UNL A   1      33.726  20.033  24.892  1.00  0.00    -0.013 C 
ATOM     18  C   UNL A   1      34.819  19.263  24.731  1.00  0.00     0.121 C 
ATOM     19  C   UNL A   1      33.882  21.425  25.321  1.00  0.00     0.060 C 
ATOM     20  C   UNL A   1      36.191  19.768  24.982  1.00  0.00     0.271 C 
ATOM     21  C   UNL A   1      35.272  22.004  25.448  1.00  0.00     0.262 C 
ATOM     22  O   UNL A   1      37.155  19.012  24.873  1.00  0.00    -0.268 OA
ATOM     23  N   UNL A   1      36.320  21.105  25.322  1.00  0.00    -0.277 N 
ATOM     24  O   UNL A   1      35.451  23.205  25.655  1.00  0.00    -0.269 OA
ATOM     25  C   UNL A   1      37.673  21.596  25.523  1.00  0.00     0.157 C 
BRANCH  18  26
ATOM     26  C   UNL A   1      34.720  17.809  24.299  1.00  0.00     0.105 C 
ATOM     27  N   UNL A   1      34.636  16.602  23.940  1.00  0.00    -0.192 NA
ENDBRANCH  18  26
ENDBRANCH  13  15
ENDBRANCH   8  13
BRANCH  12  28
ATOM     28  O   UNL A   1      33.422  26.667  22.470  1.00  0.00    -0.507 OA
ATOM     29  H   UNL A   1      33.284  27.503  22.068  1.00  0.00     0.293 HD
ENDBRANCH  12  28
ENDBRANCH   4   7
ENDBRANCH   2   3
ENDBRANCH   1   2
BRANCH   1  30
ATOM     30  C   UNL A   1      33.566  28.823  25.857  1.00  0.00     0.023 C 
BRANCH  30  31
ATOM     31  C   UNL A   1      33.485  28.896  27.379  1.00  0.00     0.116 C 
BRANCH  31  32
ATOM     32  N   UNL A   1      33.536  30.255  27.899  1.00  0.00    -0.352 N 
ATOM     33  C   UNL A   1      34.580  30.924  28.500  1.00  0.00     0.251 C 
ATOM     34  H   UNL A   1      32.704  30.771  27.807  1.00  0.00     0.163 HD
ATOM     35  O   UNL A   1      34.404  32.041  28.976  1.00  0.00    -0.269 OA
BRANCH  33  36
ATOM     36  C   UNL A   1      35.901  30.269  28.608  1.00  0.00     0.039 A 
ATOM     37  C   UNL A   1      36.746  30.257  27.495  1.00  0.00     0.014 A 
ATOM     38  C   UNL A   1      36.324  29.721  29.820  1.00  0.00     0.014 A 
ATOM     39  C   UNL A   1      38.060  29.796  27.630  1.00  0.00     0.010 A 
ATOM     40  C   UNL A   1      37.653  29.343  29.973  1.00  0.00     0.010 A 
ATOM     41  C   UNL A   1      38.541  29.391  28.884  1.00  0.00    -0.014 A 
BRANCH  41  42
ATOM     42  C   UNL A   1      39.964  29.021  29.107  1.00  0.00     0.031 A 
ATOM     43  C   UNL A   1      40.935  30.063  29.590  1.00  0.00     0.074 A 
ATOM     44  C   UNL A   1      40.405  27.791  28.771  1.00  0.00     0.049 A 
ATOM     45  N   UNL A   1      42.239  30.016  29.650  1.00  0.00    -0.248 NA
ATOM     46  C   UNL A   1      40.358  31.344  30.031  1.00  0.00     0.031 C 
ATOM     47  C   UNL A   1      39.572  26.696  28.266  1.00  0.00     0.029 A 
ATOM     48  N   UNL A   1      41.672  27.261  28.781  1.00  0.00    -0.354 N 
ATOM     49  C   UNL A   1      42.641  31.266  30.103  1.00  0.00     0.074 A 
ATOM     50  C   UNL A   1      41.445  32.065  30.261  1.00  0.00     0.031 C 
ATOM     51  C   UNL A   1      40.347  25.625  28.027  1.00  0.00     0.029 A 
ATOM     52  C   UNL A   1      41.737  25.970  28.311  1.00  0.00     0.049 A 
ATOM     53  H   UNL A   1      42.461  27.759  29.096  1.00  0.00     0.167 HD
ATOM     54  C   UNL A   1      43.892  31.704  30.381  1.00  0.00     0.037 A 
ATOM     55  C   UNL A   1      42.797  25.161  28.110  1.00  0.00     0.037 A 
ATOM     56  C   UNL A   1      45.075  30.893  30.259  1.00  0.00     0.049 A 
ATOM     57  C   UNL A   1      44.179  25.671  28.423  1.00  0.00     0.074 A 
ATOM     58  C   UNL A   1      46.385  31.233  30.548  1.00  0.00     0.029 A 
ATOM     59  N   UNL A   1      45.089  29.577  29.821  1.00  0.00    -0.354 N 
ATOM     60  N   UNL A   1      44.539  26.850  28.870  1.00  0.00    -0.248 NA
ATOM     61  C   UNL A   1      45.298  24.744  28.201  1.00  0.00     0.031 C 
ATOM     62  C   UNL A   1      47.195  30.129  30.262  1.00  0.00     0.029 A 
ATOM     63  C   UNL A   1      46.385  29.090  29.832  1.00  0.00     0.049 A 
ATOM     64  H   UNL A   1      44.296  29.065  29.545  1.00  0.00     0.167 HD
ATOM     65  C   UNL A   1      45.921  26.793  29.019  1.00  0.00     0.074 A 
ATOM     66  C   UNL A   1      46.333  25.466  28.613  1.00  0.00     0.031 C 
ATOM     67  C   UNL A   1      46.771  27.753  29.457  1.00  0.00     0.037 A 
BRANCH  54  68
ATOM     68  C   UNL A   1      44.042  33.123  30.854  1.00  0.00     0.058 A 
ATOM     69  C   UNL A   1      43.998  33.450  32.219  1.00  0.00     0.135 A 
ATOM     70  C   UNL A   1      44.254  34.165  29.937  1.00  0.00     0.135 A 
ATOM     71  F   UNL A   1      43.780  32.493  33.136  1.00  0.00    -0.206 F 
ATOM     72  C   UNL A   1      44.123  34.763  32.656  1.00  0.00     0.059 A 
ATOM     73  C   UNL A   1      44.411  35.484  30.355  1.00  0.00     0.059 A 
ATOM     74  F   UNL A   1      44.306  33.908  28.621  1.00  0.00    -0.206 F 
ATOM     75  C   UNL A   1      44.326  35.774  31.716  1.00  0.00     0.060 A 
BRANCH  75  76
ATOM     76  S   UNL A   1      44.481  37.476  32.299  1.00  0.00     0.124 S 
ATOM     77  O   UNL A   1      44.114  38.226  31.102  1.00  0.00    -0.237 OA
ATOM     78  O   UNL A   1      43.518  37.521  33.394  1.00  0.00    -0.237 OA
ATOM     79  O   UNL A   1      45.883  37.572  32.697  1.00  0.00    -0.744 OA
ENDBRANCH  75  76
ENDBRANCH  54  68
BRANCH  55  80
ATOM     80  C   UNL A   1      42.598  23.777  27.601  1.00  0.00     0.058 A 
ATOM     81  C   UNL A   1      42.475  22.698  28.489  1.00  0.00     0.135 A 
ATOM     82  C   UNL A   1      42.530  23.503  26.226  1.00  0.00     0.135 A 
ATOM     83  F   UNL A   1      42.539  22.909  29.812  1.00  0.00    -0.206 F 
ATOM     84  C   UNL A   1      42.312  21.394  28.034  1.00  0.00     0.059 A 
ATOM     85  C   UNL A   1      42.344  22.210  25.748  1.00  0.00     0.059 A 
ATOM     86  F   UNL A   1      42.626  24.502  25.335  1.00  0.00    -0.206 F 
ATOM     87  C   UNL A   1      42.249  21.159  26.660  1.00  0.00     0.060 A 
BRANCH  87  88
ATOM     88  S   UNL A   1      42.003  19.467  26.080  1.00  0.00     0.124 S 
ATOM     89  O   UNL A   1      42.445  18.693  27.234  1.00  0.00    -0.237 OA
ATOM     90  O   UNL A   1      40.569  19.441  25.805  1.00  0.00    -0.237 OA
ATOM     91  O   UNL A   1      42.859  19.390  24.900  1.00  0.00    -0.744 OA
ENDBRANCH  87  88
ENDBRANCH  55  80
BRANCH  67  92
ATOM     92  C   UNL A   1      48.224  27.397  29.586  1.00  0.00     0.058 A 
ATOM     93  C   UNL A   1      49.145  27.675  28.567  1.00  0.00     0.135 A 
ATOM     94  C   UNL A   1      48.712  26.858  30.787  1.00  0.00     0.135 A 
ATOM     95  F   UNL A   1      48.727  28.183  27.397  1.00  0.00    -0.206 F 
ATOM     96  C   UNL A   1      50.505  27.430  28.733  1.00  0.00     0.059 A 
ATOM     97  C   UNL A   1      50.070  26.625  30.984  1.00  0.00     0.059 A 
ATOM     98  F   UNL A   1      47.870  26.581  31.796  1.00  0.00    -0.206 F 
ATOM     99  C   UNL A   1      50.958  26.912  29.949  1.00  0.00     0.060 A 
BRANCH  99 100
ATOM    100  S   UNL A   1      52.733  26.670  30.181  1.00  0.00     0.124 S 
ATOM    101  O   UNL A   1      53.162  28.004  30.585  1.00  0.00    -0.237 OA
ATOM    102  O   UNL A   1      52.775  25.647  31.222  1.00  0.00    -0.237 OA
ATOM    103  O   UNL A   1      53.190  26.235  28.864  1.00  0.00    -0.744 OA
ENDBRANCH  99 100
ENDBRANCH  67  92
ENDBRANCH  41  42
ENDBRANCH  33  36
ENDBRANCH  31  32
ENDBRANCH  30  31
ENDBRANCH   1  30
TORSDOF 18
ENDMDL
MODEL 2
REMARK VINA RESULT:     -11.7      2.059      2.800
REMARK SMILES CC1=C(C#N)C(=O)N(C)C(=O)/C1=C\Nc1ccc(C(=O)NCCCCNC(=O)c2ccc(-c3c4nc(c(-c5c(F)cc(S(=O)(=O)[O-])cc5F)c5ccc([nH]5)c(-c5c(F)cc(S(=O)(=O)[O-])cc5F)c5nc(c(-c6c(F)cc(S(=O)(=O)[O-])cc6F)c6ccc3[nH]6)C=C5)C=C4)cc2)c(O)c1
REMARK SMILES IDX 23 1 22 2 21 3 19 4 20 5 18 7 15 8 16 9 97 10 17 11 95 12
REMARK SMILES IDX 14 13 13 15 1 16 2 17 3 18 12 19 6 20 10 21 7 22 8 23 11 24
REMARK SMILES IDX 9 25 4 26 5 27 96 28 24 30 25 31 26 32 27 33 28 35 29 36
REMARK SMILES IDX 30 37 94 38 31 39 93 40 32 41 33 42 34 43 87 44 35 45 92 46
REMARK SMILES IDX 86 47 88 48 36 49 91 50 85 51 84 52 37 54 71 55 50 56 70 57
REMARK SMILES IDX 51 58 54 59 69 60 89 61 52 62 53 63 68 65 90 66 55 67 38 68
REMARK SMILES IDX 39 69 48 70 40 71 41 72 47 73 49 74 42 75 43 76 44 77 45 78
REMARK SMILES IDX 46 79 72 80 73 81 82 82 74 83 75 84 81 85 83 86 76 87 77 88
REMARK SMILES IDX 78 89 79 90 80 91 56 92 57 93 66 94 58 95 59 96 65 97 67 98
REMARK SMILES IDX 60 99 61 100 62 101 63 102 64 103
REMARK H PARENT 21 6 14 14 96 29 26 34 88 53 54 64
REMARK Flexibility Score: inf
ROOT
ATOM      1  C   UNL A   1      32.887  30.935  26.884  1.00  0.00     0.023 C 
ENDROOT
BRANCH   1   2
ATOM      2  C   UNL A   1      31.677  30.094  26.490  1.00  0.00     0.116 C 
BRANCH   2   3
ATOM      3  N   UNL A   1      31.401  30.079  25.060  1.00  0.00    -0.352 N 
ATOM      4  C   UNL A   1      31.553  29.052  24.160  1.00  0.00     0.255 C 
ATOM      5  O   UNL A   1      31.318  29.235  22.969  1.00  0.00    -0.269 OA
ATOM      6  H   UNL A   1      31.055  30.922  24.687  1.00  0.00     0.163 HD
BRANCH   4   7
ATOM      7  C   UNL A   1      32.036  27.730  24.607  1.00  0.00     0.081 A 
ATOM      8  C   UNL A   1      33.099  25.327  25.632  1.00  0.00     0.042 A 
ATOM      9  C   UNL A   1      33.945  26.359  25.218  1.00  0.00     0.027 A 
ATOM     10  C   UNL A   1      31.715  25.497  25.466  1.00  0.00     0.073 A 
ATOM     11  C   UNL A   1      33.420  27.553  24.709  1.00  0.00     0.020 A 
ATOM     12  C   UNL A   1      31.190  26.668  24.925  1.00  0.00     0.130 A 
BRANCH   8  13
ATOM     13  N   UNL A   1      33.541  24.136  26.222  1.00  0.00    -0.361 N 
ATOM     14  H   UNL A   1      34.072  24.259  27.043  1.00  0.00     0.166 HD
BRANCH  13  15
ATOM     15  C   UNL A   1      33.360  22.827  25.852  1.00  0.00     0.097 C 
ATOM     16  C   UNL A   1      32.577  20.142  24.942  1.00  0.00     0.047 C 
ATOM     17  C   UNL A   1      34.026  20.552  25.101  1.00  0.00    -0.013 C 
ATOM     18  C   UNL A   1      35.047  19.702  24.880  1.00  0.00     0.121 C 
ATOM     19  C   UNL A   1      34.311  21.931  25.503  1.00  0.00     0.060 C 
ATOM     20  C   UNL A   1      36.466  20.107  25.035  1.00  0.00     0.271 C 
ATOM     21  C   UNL A   1      35.745  22.408  25.533  1.00  0.00     0.262 C 
ATOM     22  O   UNL A   1      37.363  19.281  24.873  1.00  0.00    -0.268 OA
ATOM     23  N   UNL A   1      36.714  21.433  25.350  1.00  0.00    -0.277 N 
ATOM     24  O   UNL A   1      36.025  23.594  25.713  1.00  0.00    -0.269 OA
ATOM     25  C   UNL A   1      38.110  21.824  25.458  1.00  0.00     0.157 C 
BRANCH  18  26
ATOM     26  C   UNL A   1      34.814  18.257  24.472  1.00  0.00     0.105 C 
ATOM     27  N   UNL A   1      34.620  17.056  24.134  1.00  0.00    -0.192 NA
ENDBRANCH  18  26
ENDBRANCH  13  15
ENDBRANCH   8  13
BRANCH  12  28
ATOM     28  O   UNL A   1      29.838  26.680  24.724  1.00  0.00    -0.507 OA
ATOM     29  H   UNL A   1      29.311  27.345  25.122  1.00  0.00     0.293 HD
ENDBRANCH  12  28
ENDBRANCH   4   7
ENDBRANCH   2   3
ENDBRANCH   1   2
BRANCH   1  30
ATOM     30  C   UNL A   1      34.115  30.159  27.360  1.00  0.00     0.023 C 
BRANCH  30  31
ATOM     31  C   UNL A   1      35.297  31.000  27.832  1.00  0.00     0.116 C 
BRANCH  31  32
ATOM     32  N   UNL A   1      35.266  31.297  29.257  1.00  0.00    -0.352 N 
ATOM     33  C   UNL A   1      36.174  30.971  30.239  1.00  0.00     0.251 C 
ATOM     34  H   UNL A   1      34.481  31.806  29.563  1.00  0.00     0.163 HD
ATOM     35  O   UNL A   1      35.925  31.217  31.416  1.00  0.00    -0.269 OA
BRANCH  33  36
ATOM     36  C   UNL A   1      37.431  30.284  29.873  1.00  0.00     0.039 A 
ATOM     37  C   UNL A   1      37.838  30.279  28.536  1.00  0.00     0.014 A 
ATOM     38  C   UNL A   1      38.232  29.698  30.855  1.00  0.00     0.014 A 
ATOM     39  C   UNL A   1      39.103  29.785  28.200  1.00  0.00     0.010 A 
ATOM     40  C   UNL A   1      39.520  29.286  30.532  1.00  0.00     0.010 A 
ATOM     41  C   UNL A   1      39.976  29.340  29.204  1.00  0.00    -0.014 A 
BRANCH  41  42
ATOM     42  C   UNL A   1      41.377  28.932  28.914  1.00  0.00     0.031 A 
ATOM     43  C   UNL A   1      42.465  29.971  28.904  1.00  0.00     0.074 A 
ATOM     44  C   UNL A   1      41.652  27.662  28.552  1.00  0.00     0.049 A 
ATOM     45  N   UNL A   1      43.696  29.876  28.478  1.00  0.00    -0.248 NA
ATOM     46  C   UNL A   1      42.103  31.306  29.408  1.00  0.00     0.031 C 
ATOM     47  C   UNL A   1      40.683  26.564  28.496  1.00  0.00     0.029 A 
ATOM     48  N   UNL A   1      42.827  27.084  28.138  1.00  0.00    -0.354 N 
ATOM     49  C   UNL A   1      44.248  31.142  28.633  1.00  0.00     0.074 A 
ATOM     50  C   UNL A   1      43.203  31.999  29.150  1.00  0.00     0.031 C 
ATOM     51  C   UNL A   1      41.305  25.447  28.084  1.00  0.00     0.029 A 
ATOM     52  C   UNL A   1      42.703  25.757  27.798  1.00  0.00     0.049 A 
ATOM     53  H   UNL A   1      43.680  27.574  28.089  1.00  0.00     0.167 HD
ATOM     54  C   UNL A   1      45.515  31.550  28.383  1.00  0.00     0.037 A 
ATOM     55  C   UNL A   1      43.605  24.892  27.292  1.00  0.00     0.037 A 
ATOM     56  C   UNL A   1      46.560  30.685  27.905  1.00  0.00     0.049 A 
ATOM     57  C   UNL A   1      45.007  25.370  27.020  1.00  0.00     0.074 A 
ATOM     58  C   UNL A   1      47.886  30.994  27.653  1.00  0.00     0.029 A 
ATOM     59  N   UNL A   1      46.400  29.338  27.616  1.00  0.00    -0.354 N 
ATOM     60  N   UNL A   1      45.516  26.566  27.190  1.00  0.00    -0.248 NA
ATOM     61  C   UNL A   1      45.956  24.383  26.483  1.00  0.00     0.031 C 
ATOM     62  C   UNL A   1      48.522  29.839  27.188  1.00  0.00     0.029 A 
ATOM     63  C   UNL A   1      47.603  28.802  27.188  1.00  0.00     0.049 A 
ATOM     64  H   UNL A   1      45.558  28.837  27.703  1.00  0.00     0.167 HD
ATOM     65  C   UNL A   1      46.853  26.466  26.820  1.00  0.00     0.074 A 
ATOM     66  C   UNL A   1      47.074  25.095  26.413  1.00  0.00     0.031 C 
ATOM     67  C   UNL A   1      47.812  27.424  26.820  1.00  0.00     0.037 A 
BRANCH  54  68
ATOM     68  C   UNL A   1      45.840  32.997  28.635  1.00  0.00     0.058 A 
ATOM     69  C   UNL A   1      46.363  33.427  29.865  1.00  0.00     0.135 A 
ATOM     70  C   UNL A   1      45.648  33.959  27.631  1.00  0.00     0.135 A 
ATOM     71  F   UNL A   1      46.550  32.550  30.864  1.00  0.00    -0.206 F 
ATOM     72  C   UNL A   1      46.652  34.766  30.102  1.00  0.00     0.059 A 
ATOM     73  C   UNL A   1      45.958  35.301  27.837  1.00  0.00     0.059 A 
ATOM     74  F   UNL A   1      45.152  33.601  26.436  1.00  0.00    -0.206 F 
ATOM     75  C   UNL A   1      46.443  35.696  29.083  1.00  0.00     0.060 A 
BRANCH  75  76
ATOM     76  S   UNL A   1      46.817  37.432  29.409  1.00  0.00     0.124 S 
ATOM     77  O   UNL A   1      45.732  38.100  28.698  1.00  0.00    -0.237 OA
ATOM     78  O   UNL A   1      46.754  37.497  30.866  1.00  0.00    -0.237 OA
ATOM     79  O   UNL A   1      48.147  37.606  28.834  1.00  0.00    -0.744 OA
ENDBRANCH  75  76
ENDBRANCH  54  68
BRANCH  55  80
ATOM     80  C   UNL A   1      43.221  23.480  27.022  1.00  0.00     0.058 A 
ATOM     81  C   UNL A   1      42.981  23.043  25.711  1.00  0.00     0.135 A 
ATOM     82  C   UNL A   1      43.084  22.545  28.059  1.00  0.00     0.135 A 
ATOM     83  F   UNL A   1      43.093  23.902  24.687  1.00  0.00    -0.206 F 
ATOM     84  C   UNL A   1      42.598  21.733  25.437  1.00  0.00     0.059 A 
ATOM     85  C   UNL A   1      42.726  21.224  27.808  1.00  0.00     0.059 A 
ATOM     86  F   UNL A   1      43.320  22.909  29.329  1.00  0.00    -0.206 F 
ATOM     87  C   UNL A   1      42.472  20.830  26.494  1.00  0.00     0.060 A 
BRANCH  87  88
ATOM     88  S   UNL A   1      42.008  19.124  26.126  1.00  0.00     0.124 S 
ATOM     89  O   UNL A   1      40.582  19.259  25.859  1.00  0.00    -0.237 OA
ATOM     90  O   UNL A   1      42.849  18.820  24.971  1.00  0.00    -0.237 OA
ATOM     91  O   UNL A   1      42.359  18.411  27.350  1.00  0.00    -0.744 OA
ENDBRANCH  87  88
ENDBRANCH  55  80
BRANCH  67  92
ATOM     92  C   UNL A   1      49.205  27.022  26.431  1.00  0.00     0.058 A 
ATOM     93  C   UNL A   1      50.121  26.529  27.371  1.00  0.00     0.135 A 
ATOM     94  C   UNL A   1      49.592  27.043  25.081  1.00  0.00     0.135 A 
ATOM     95  F   UNL A   1      49.802  26.497  28.674  1.00  0.00    -0.206 F 
ATOM     96  C   UNL A   1      51.377  26.069  26.986  1.00  0.00     0.059 A 
ATOM     97  C   UNL A   1      50.833  26.567  24.671  1.00  0.00     0.059 A 
ATOM     98  F   UNL A   1      48.747  27.499  24.143  1.00  0.00    -0.206 F 
ATOM     99  C   UNL A   1      51.720  26.085  25.632  1.00  0.00     0.060 A 
BRANCH  99 100
ATOM    100  S   UNL A   1      53.322  25.414  25.136  1.00  0.00     0.124 S 
ATOM    101  O   UNL A   1      53.361  25.762  23.720  1.00  0.00    -0.237 OA
ATOM    102  O   UNL A   1      54.247  26.148  25.995  1.00  0.00    -0.237 OA
ATOM    103  O   UNL A   1      53.200  23.990  25.430  1.00  0.00    -0.744 OA
ENDBRANCH  99 100
ENDBRANCH  67  92
ENDBRANCH  41  42
ENDBRANCH  33  36
ENDBRANCH  31  32
ENDBRANCH  30  31
ENDBRANCH   1  30
TORSDOF 18
ENDMDL
MODEL 3
REMARK VINA RESULT:     -11.6      1.951      2.595
REMARK SMILES CC1=C(C#N)C(=O)N(C)C(=O)/C1=C\Nc1ccc(C(=O)NCCCCNC(=O)c2ccc(-c3c4nc(c(-c5c(F)cc(S(=O)(=O)[O-])cc5F)c5ccc([nH]5)c(-c5c(F)cc(S(=O)(=O)[O-])cc5F)c5nc(c(-c6c(F)cc(S(=O)(=O)[O-])cc6F)c6ccc3[nH]6)C=C5)C=C4)cc2)c(O)c1
REMARK SMILES IDX 23 1 22 2 21 3 19 4 20 5 18 7 15 8 16 9 97 10 17 11 95 12
REMARK SMILES IDX 14 13 13 15 1 16 2 17 3 18 12 19 6 20 10 21 7 22 8 23 11 24
REMARK SMILES IDX 9 25 4 26 5 27 96 28 24 30 25 31 26 32 27 33 28 35 29 36
REMARK SMILES IDX 30 37 94 38 31 39 93 40 32 41 33 42 34 43 87 44 35 45 92 46
REMARK SMILES IDX 86 47 88 48 36 49 91 50 85 51 84 52 37 54 71 55 50 56 70 57
REMARK SMILES IDX 51 58 54 59 69 60 89 61 52 62 53 63 68 65 90 66 55 67 38 68
REMARK SMILES IDX 39 69 48 70 40 71 41 72 47 73 49 74 42 75 43 76 44 77 45 78
REMARK SMILES IDX 46 79 72 80 73 81 82 82 74 83 75 84 81 85 83 86 76 87 77 88
REMARK SMILES IDX 78 89 79 90 80 91 56 92 57 93 66 94 58 95 59 96 65 97 67 98
REMARK SMILES IDX 60 99 61 100 62 101 63 102 64 103
REMARK H PARENT 21 6 14 14 96 29 26 34 88 53 54 64
REMARK Flexibility Score: inf
ROOT
ATOM      1  C   UNL A   1      32.130  29.436  27.091  1.00  0.00     0.023 C 
ENDROOT
BRANCH   1   2
ATOM      2  C   UNL A   1      32.252  30.501  26.004  1.00  0.00     0.116 C 
BRANCH   2   3
ATOM      3  N   UNL A   1      31.077  30.622  25.154  1.00  0.00    -0.352 N 
ATOM      4  C   UNL A   1      30.648  29.795  24.144  1.00  0.00     0.255 C 
ATOM      5  O   UNL A   1      29.651  30.083  23.490  1.00  0.00    -0.269 OA
ATOM      6  H   UNL A   1      30.508  31.407  25.329  1.00  0.00     0.163 HD
BRANCH   4   7
ATOM      7  C   UNL A   1      31.403  28.569  23.810  1.00  0.00     0.081 A 
ATOM      8  C   UNL A   1      32.639  26.153  23.043  1.00  0.00     0.042 A 
ATOM      9  C   UNL A   1      31.387  26.145  23.663  1.00  0.00     0.027 A 
ATOM     10  C   UNL A   1      33.287  27.388  22.871  1.00  0.00     0.073 A 
ATOM     11  C   UNL A   1      30.771  27.343  24.045  1.00  0.00     0.020 A 
ATOM     12  C   UNL A   1      32.694  28.578  23.284  1.00  0.00     0.130 A 
BRANCH   8  13
ATOM     13  N   UNL A   1      33.287  25.008  22.562  1.00  0.00    -0.361 N 
ATOM     14  H   UNL A   1      34.147  25.182  22.116  1.00  0.00     0.166 HD
BRANCH  13  15
ATOM     15  C   UNL A   1      32.925  23.685  22.606  1.00  0.00     0.097 C 
ATOM     16  C   UNL A   1      32.149  20.868  22.268  1.00  0.00     0.047 C 
ATOM     17  C   UNL A   1      32.758  21.392  23.552  1.00  0.00    -0.013 C 
ATOM     18  C   UNL A   1      32.942  20.614  24.636  1.00  0.00     0.121 C 
ATOM     19  C   UNL A   1      33.165  22.798  23.598  1.00  0.00     0.060 C 
ATOM     20  C   UNL A   1      33.539  21.129  25.893  1.00  0.00     0.271 C 
ATOM     21  C   UNL A   1      33.902  23.312  24.813  1.00  0.00     0.262 C 
ATOM     22  O   UNL A   1      33.638  20.394  26.873  1.00  0.00    -0.268 OA
ATOM     23  N   UNL A   1      33.978  22.443  25.891  1.00  0.00    -0.277 N 
ATOM     24  O   UNL A   1      34.398  24.439  24.835  1.00  0.00    -0.269 OA
ATOM     25  C   UNL A   1      34.599  22.921  27.115  1.00  0.00     0.157 C 
BRANCH  18  26
ATOM     26  C   UNL A   1      32.529  19.151  24.653  1.00  0.00     0.105 C 
ATOM     27  N   UNL A   1      32.186  17.936  24.666  1.00  0.00    -0.192 NA
ENDBRANCH  18  26
ENDBRANCH  13  15
ENDBRANCH   8  13
BRANCH  12  28
ATOM     28  O   UNL A   1      33.458  29.704  23.152  1.00  0.00    -0.507 OA
ATOM     29  H   UNL A   1      33.879  29.891  22.335  1.00  0.00     0.293 HD
ENDBRANCH  12  28
ENDBRANCH   4   7
ENDBRANCH   2   3
ENDBRANCH   1   2
BRANCH   1  30
ATOM     30  C   UNL A   1      33.340  28.519  27.268  1.00  0.00     0.023 C 
BRANCH  30  31
ATOM     31  C   UNL A   1      34.699  29.209  27.328  1.00  0.00     0.116 C 
BRANCH  31  32
ATOM     32  N   UNL A   1      34.791  30.220  28.370  1.00  0.00    -0.352 N 
ATOM     33  C   UNL A   1      35.855  30.548  29.181  1.00  0.00     0.251 C 
ATOM     34  H   UNL A   1      33.973  30.748  28.517  1.00  0.00     0.163 HD
ATOM     35  O   UNL A   1      35.713  31.366  30.086  1.00  0.00    -0.269 OA
BRANCH  33  36
ATOM     36  C   UNL A   1      37.158  29.878  28.983  1.00  0.00     0.039 A 
ATOM     37  C   UNL A   1      37.765  29.930  27.726  1.00  0.00     0.014 A 
ATOM     38  C   UNL A   1      37.802  29.250  30.050  1.00  0.00     0.014 A 
ATOM     39  C   UNL A   1      39.069  29.451  27.567  1.00  0.00     0.010 A 
ATOM     40  C   UNL A   1      39.127  28.852  29.912  1.00  0.00     0.010 A 
ATOM     41  C   UNL A   1      39.781  28.962  28.673  1.00  0.00    -0.014 A 
BRANCH  41  42
ATOM     42  C   UNL A   1      41.213  28.567  28.585  1.00  0.00     0.031 A 
ATOM     43  C   UNL A   1      42.282  29.617  28.720  1.00  0.00     0.074 A 
ATOM     44  C   UNL A   1      41.547  27.298  28.273  1.00  0.00     0.049 A 
ATOM     45  N   UNL A   1      43.562  29.532  28.472  1.00  0.00    -0.248 NA
ATOM     46  C   UNL A   1      41.841  30.951  29.161  1.00  0.00     0.031 C 
ATOM     47  C   UNL A   1      40.606  26.190  28.089  1.00  0.00     0.029 A 
ATOM     48  N   UNL A   1      42.774  26.730  28.032  1.00  0.00    -0.354 N 
ATOM     49  C   UNL A   1      44.074  30.804  28.694  1.00  0.00     0.074 A 
ATOM     50  C   UNL A   1      42.959  31.653  29.055  1.00  0.00     0.031 C 
ATOM     51  C   UNL A   1      41.290  25.077  27.776  1.00  0.00     0.029 A 
ATOM     52  C   UNL A   1      42.711  25.399  27.686  1.00  0.00     0.049 A 
ATOM     53  H   UNL A   1      43.621  27.228  28.100  1.00  0.00     0.167 HD
ATOM     54  C   UNL A   1      45.360  31.224  28.622  1.00  0.00     0.037 A 
ATOM     55  C   UNL A   1      43.683  24.541  27.317  1.00  0.00     0.037 A 
ATOM     56  C   UNL A   1      46.470  30.367  28.300  1.00  0.00     0.049 A 
ATOM     57  C   UNL A   1      45.104  25.032  27.240  1.00  0.00     0.074 A 
ATOM     58  C   UNL A   1      47.815  30.688  28.235  1.00  0.00     0.029 A 
ATOM     59  N   UNL A   1      46.364  29.017  28.000  1.00  0.00    -0.354 N 
ATOM     60  N   UNL A   1      45.574  26.234  27.473  1.00  0.00    -0.248 NA
ATOM     61  C   UNL A   1      46.128  24.052  26.848  1.00  0.00     0.031 C 
ATOM     62  C   UNL A   1      48.520  29.536  27.871  1.00  0.00     0.029 A 
ATOM     63  C   UNL A   1      47.620  28.490  27.749  1.00  0.00     0.049 A 
ATOM     64  H   UNL A   1      45.523  28.508  27.972  1.00  0.00     0.167 HD
ATOM     65  C   UNL A   1      46.951  26.145  27.294  1.00  0.00     0.074 A 
ATOM     66  C   UNL A   1      47.239  24.774  26.930  1.00  0.00     0.031 C 
ATOM     67  C   UNL A   1      47.891  27.112  27.423  1.00  0.00     0.037 A 
BRANCH  54  68
ATOM     68  C   UNL A   1      45.633  32.674  28.908  1.00  0.00     0.058 A 
ATOM     69  C   UNL A   1      45.631  33.636  27.885  1.00  0.00     0.135 A 
ATOM     70  C   UNL A   1      45.879  33.112  30.219  1.00  0.00     0.135 A 
ATOM     71  F   UNL A   1      45.418  33.268  26.611  1.00  0.00    -0.206 F 
ATOM     72  C   UNL A   1      45.896  34.975  28.146  1.00  0.00     0.059 A 
ATOM     73  C   UNL A   1      46.119  34.453  30.508  1.00  0.00     0.059 A 
ATOM     74  F   UNL A   1      45.892  32.234  31.234  1.00  0.00    -0.206 F 
ATOM     75  C   UNL A   1      46.143  35.373  29.461  1.00  0.00     0.060 A 
BRANCH  75  76
ATOM     76  S   UNL A   1      46.492  37.115  29.783  1.00  0.00     0.124 S 
ATOM     77  O   UNL A   1      47.119  37.046  31.100  1.00  0.00    -0.237 OA
ATOM     78  O   UNL A   1      47.379  37.466  28.679  1.00  0.00    -0.237 OA
ATOM     79  O   UNL A   1      45.172  37.738  29.747  1.00  0.00    -0.744 OA
ENDBRANCH  75  76
ENDBRANCH  54  68
BRANCH  55  80
ATOM     80  C   UNL A   1      43.353  23.124  27.005  1.00  0.00     0.058 A 
ATOM     81  C   UNL A   1      43.042  22.219  28.030  1.00  0.00     0.135 A 
ATOM     82  C   UNL A   1      43.344  22.646  25.685  1.00  0.00     0.135 A 
ATOM     83  F   UNL A   1      43.044  22.628  29.308  1.00  0.00    -0.206 F 
ATOM     84  C   UNL A   1      42.754  20.885  27.763  1.00  0.00     0.059 A 
ATOM     85  C   UNL A   1      43.036  21.321  25.391  1.00  0.00     0.059 A 
ATOM     86  F   UNL A   1      43.617  23.476  24.667  1.00  0.00    -0.206 F 
ATOM     87  C   UNL A   1      42.754  20.444  26.439  1.00  0.00     0.060 A 
BRANCH  87  88
ATOM     88  S   UNL A   1      42.345  18.719  26.099  1.00  0.00     0.124 S 
ATOM     89  O   UNL A   1      40.936  18.816  25.741  1.00  0.00    -0.237 OA
ATOM     90  O   UNL A   1      43.262  18.395  25.008  1.00  0.00    -0.237 OA
ATOM     91  O   UNL A   1      42.633  18.051  27.366  1.00  0.00    -0.744 OA
ENDBRANCH  87  88
ENDBRANCH  55  80
BRANCH  67  92
ATOM     92  C   UNL A   1      49.328  26.722  27.235  1.00  0.00     0.058 A 
ATOM     93  C   UNL A   1      49.944  26.757  25.976  1.00  0.00     0.135 A 
ATOM     94  C   UNL A   1      50.121  26.401  28.349  1.00  0.00     0.135 A 
ATOM     95  F   UNL A   1      49.227  27.049  24.880  1.00  0.00    -0.206 F 
ATOM     96  C   UNL A   1      51.301  26.486  25.827  1.00  0.00     0.059 A 
ATOM     97  C   UNL A   1      51.484  26.149  28.226  1.00  0.00     0.059 A 
ATOM     98  F   UNL A   1      49.579  26.363  29.576  1.00  0.00    -0.206 F 
ATOM     99  C   UNL A   1      52.064  26.191  26.959  1.00  0.00     0.060 A 
BRANCH  99 100
ATOM    100  S   UNL A   1      53.839  25.917  26.762  1.00  0.00     0.124 S 
ATOM    101  O   UNL A   1      54.297  25.949  28.146  1.00  0.00    -0.237 OA
ATOM    102  O   UNL A   1      53.882  24.612  26.109  1.00  0.00    -0.237 OA
ATOM    103  O   UNL A   1      54.265  27.040  25.932  1.00  0.00    -0.744 OA
ENDBRANCH  99 100
ENDBRANCH  67  92
ENDBRANCH  41  42
ENDBRANCH  33  36
ENDBRANCH  31  32
ENDBRANCH  30  31
ENDBRANCH   1  30
TORSDOF 18
ENDMDL
