MODEL 1
REMARK VINA RESULT:     -12.5      0.000      0.000
REMARK SMILES CCc1cccc2c3c([nH]c12)[C@](CC)(CC(=O)NCCCCNC(=O)c1ccc(-c2c4nc(c(-c5c(F)cc(S(=O)(=O)[O-])cc5F)c5ccc([nH]5)c(-c5c(F)cc(S(=O)(=O)[O-])cc5F)c5nc(c(-c6c(F)cc(S(=O)(=O)[O-])cc6F)c6ccc2[nH]6)C=C5)C=C4)cc1)OCC3
REMARK SMILES IDX 21 1 20 2 19 3 18 4 16 5 17 6 15 8 12 9 3 10 4 11 11 12 5 13
REMARK SMILES IDX 7 14 10 15 6 16 8 17 9 18 94 20 93 21 92 22 2 23 1 24 13 25
REMARK SMILES IDX 14 26 22 27 23 28 24 29 25 31 26 32 27 33 91 34 28 35 90 36
REMARK SMILES IDX 29 37 30 38 31 39 84 40 32 41 89 42 83 43 85 44 33 45 88 46
REMARK SMILES IDX 82 47 81 48 34 50 68 51 47 52 67 53 48 54 51 55 66 56 86 57
REMARK SMILES IDX 49 58 50 59 65 61 87 62 52 63 35 64 36 65 45 66 37 67 38 68
REMARK SMILES IDX 44 69 46 70 39 71 40 72 41 73 42 74 43 75 69 76 70 77 79 78
REMARK SMILES IDX 71 79 72 80 78 81 80 82 73 83 74 84 75 85 76 86 77 87 53 88
REMARK SMILES IDX 54 89 63 90 55 91 56 92 62 93 64 94 57 95 58 96 59 97 60 98
REMARK SMILES IDX 61 99
REMARK H PARENT 18 7 10 19 23 30 85 49 51 60
REMARK Flexibility Score: inf
ROOT
ATOM      1  C   UNL A   1      39.328  21.861  25.997  1.00  0.00     0.023 C 
ENDROOT
BRANCH   1   2
ATOM      2  C   UNL A   1      38.839  23.186  26.608  1.00  0.00     0.023 C 
BRANCH   2   3
ATOM      3  C   UNL A   1      37.552  23.782  26.019  1.00  0.00     0.116 C 
BRANCH   3   4
ATOM      4  N   UNL A   1      37.386  23.603  24.581  1.00  0.00    -0.356 N 
ATOM      5  C   UNL A   1      36.451  22.927  23.845  1.00  0.00     0.223 C 
ATOM      6  O   UNL A   1      36.551  22.972  22.617  1.00  0.00    -0.275 OA
ATOM      7  H   UNL A   1      38.074  24.053  24.040  1.00  0.00     0.163 HD
BRANCH   5   8
ATOM      8  C   UNL A   1      35.296  22.212  24.508  1.00  0.00     0.142 C 
BRANCH   8   9
ATOM      9  C   UNL A   1      33.916  22.909  24.563  1.00  0.00     0.117 C 
ATOM     10  C   UNL A   1      33.741  27.909  25.318  1.00  0.00    -0.024 A 
ATOM     11  C   UNL A   1      33.450  28.985  24.447  1.00  0.00     0.006 A 
ATOM     12  C   UNL A   1      33.868  26.641  24.714  1.00  0.00     0.049 A 
ATOM     13  C   UNL A   1      33.257  28.807  23.078  1.00  0.00     0.001 A 
ATOM     14  C   UNL A   1      33.599  26.438  23.361  1.00  0.00     0.003 A 
ATOM     15  N   UNL A   1      34.190  25.398  25.241  1.00  0.00    -0.356 N 
ATOM     16  C   UNL A   1      33.306  27.531  22.528  1.00  0.00     0.010 A 
ATOM     17  C   UNL A   1      33.552  25.040  23.163  1.00  0.00    -0.014 A 
ATOM     18  C   UNL A   1      33.947  24.404  24.319  1.00  0.00     0.052 A 
ATOM     19  H   UNL A   1      34.544  25.249  26.147  1.00  0.00     0.166 HD
ATOM     20  C   UNL A   1      32.989  24.317  22.013  1.00  0.00     0.066 C 
ATOM     21  C   UNL A   1      33.064  22.818  22.249  1.00  0.00     0.166 C 
ATOM     22  O   UNL A   1      32.967  22.363  23.614  1.00  0.00    -0.368 OA
BRANCH  10  23
ATOM     23  C   UNL A   1      33.841  28.175  26.800  1.00  0.00     0.034 C 
ATOM     24  C   UNL A   1      34.938  29.174  27.150  1.00  0.00     0.009 C 
ENDBRANCH  10  23
BRANCH   9  25
ATOM     25  C   UNL A   1      33.277  22.639  25.967  1.00  0.00     0.039 C 
ATOM     26  C   UNL A   1      34.253  22.251  27.079  1.00  0.00     0.007 C 
ENDBRANCH   9  25
ENDBRANCH   8   9
ENDBRANCH   5   8
ENDBRANCH   3   4
ENDBRANCH   2   3
ENDBRANCH   1   2
BRANCH   1  27
ATOM     27  C   UNL A   1      40.698  21.424  26.500  1.00  0.00     0.116 C 
BRANCH  27  28
ATOM     28  N   UNL A   1      41.759  21.893  25.637  1.00  0.00    -0.352 N 
ATOM     29  C   UNL A   1      42.392  23.089  25.446  1.00  0.00     0.251 C 
ATOM     30  H   UNL A   1      42.106  21.184  25.049  1.00  0.00     0.163 HD
ATOM     31  O   UNL A   1      43.181  23.114  24.495  1.00  0.00    -0.269 OA
BRANCH  29  32
ATOM     32  C   UNL A   1      42.221  24.323  26.270  1.00  0.00     0.039 A 
ATOM     33  C   UNL A   1      42.716  24.539  27.557  1.00  0.00     0.014 A 
ATOM     34  C   UNL A   1      41.515  25.373  25.651  1.00  0.00     0.014 A 
ATOM     35  C   UNL A   1      42.506  25.762  28.206  1.00  0.00     0.010 A 
ATOM     36  C   UNL A   1      41.315  26.598  26.288  1.00  0.00     0.010 A 
ATOM     37  C   UNL A   1      41.798  26.792  27.578  1.00  0.00    -0.014 A 
BRANCH  37  38
ATOM     38  C   UNL A   1      41.640  28.063  28.288  1.00  0.00     0.031 A 
ATOM     39  C   UNL A   1      42.747  29.062  28.156  1.00  0.00     0.074 A 
ATOM     40  C   UNL A   1      40.518  28.425  28.944  1.00  0.00     0.049 A 
ATOM     41  N   UNL A   1      43.508  29.549  29.083  1.00  0.00    -0.248 NA
ATOM     42  C   UNL A   1      43.076  29.543  26.807  1.00  0.00     0.031 C 
ATOM     43  C   UNL A   1      39.215  27.757  28.962  1.00  0.00     0.029 A 
ATOM     44  N   UNL A   1      40.300  29.554  29.679  1.00  0.00    -0.354 N 
ATOM     45  C   UNL A   1      44.315  30.512  28.474  1.00  0.00     0.074 A 
ATOM     46  C   UNL A   1      44.071  30.397  27.057  1.00  0.00     0.031 C 
ATOM     47  C   UNL A   1      38.297  28.592  29.496  1.00  0.00     0.029 A 
ATOM     48  C   UNL A   1      38.968  29.787  29.980  1.00  0.00     0.049 A 
ATOM     49  H   UNL A   1      41.027  30.150  29.971  1.00  0.00     0.167 HD
ATOM     50  C   UNL A   1      45.033  31.431  29.184  1.00  0.00     0.037 A 
ATOM     51  C   UNL A   1      38.445  30.907  30.537  1.00  0.00     0.037 A 
ATOM     52  C   UNL A   1      45.135  31.074  30.572  1.00  0.00     0.049 A 
ATOM     53  C   UNL A   1      39.539  31.600  31.263  1.00  0.00     0.074 A 
ATOM     54  C   UNL A   1      45.683  30.014  31.267  1.00  0.00     0.029 A 
ATOM     55  N   UNL A   1      44.343  31.736  31.479  1.00  0.00    -0.354 N 
ATOM     56  N   UNL A   1      40.119  31.134  32.336  1.00  0.00    -0.248 NA
ATOM     57  C   UNL A   1      40.275  32.645  30.567  1.00  0.00     0.031 C 
ATOM     58  C   UNL A   1      44.818  29.811  32.381  1.00  0.00     0.029 A 
ATOM     59  C   UNL A   1      43.812  30.778  32.306  1.00  0.00     0.049 A 
ATOM     60  H   UNL A   1      44.187  32.706  31.527  1.00  0.00     0.167 HD
ATOM     61  C   UNL A   1      41.447  31.519  32.224  1.00  0.00     0.074 A 
ATOM     62  C   UNL A   1      41.458  32.534  31.176  1.00  0.00     0.031 C 
ATOM     63  C   UNL A   1      42.453  30.793  32.797  1.00  0.00     0.037 A 
BRANCH  50  64
ATOM     64  C   UNL A   1      45.447  32.801  28.693  1.00  0.00     0.058 A 
ATOM     65  C   UNL A   1      46.813  33.160  28.680  1.00  0.00     0.135 A 
ATOM     66  C   UNL A   1      44.538  33.864  28.504  1.00  0.00     0.135 A 
ATOM     67  F   UNL A   1      47.768  32.231  28.846  1.00  0.00    -0.206 F 
ATOM     68  C   UNL A   1      47.241  34.485  28.575  1.00  0.00     0.059 A 
ATOM     69  C   UNL A   1      44.946  35.187  28.345  1.00  0.00     0.059 A 
ATOM     70  F   UNL A   1      43.214  33.679  28.565  1.00  0.00    -0.206 F 
ATOM     71  C   UNL A   1      46.294  35.494  28.434  1.00  0.00     0.060 A 
BRANCH  71  72
ATOM     72  S   UNL A   1      46.830  37.216  28.463  1.00  0.00     0.124 S 
ATOM     73  O   UNL A   1      46.392  37.633  29.790  1.00  0.00    -0.237 OA
ATOM     74  O   UNL A   1      48.272  37.093  28.275  1.00  0.00    -0.237 OA
ATOM     75  O   UNL A   1      46.106  37.811  27.343  1.00  0.00    -0.744 OA
ENDBRANCH  71  72
ENDBRANCH  50  64
BRANCH  51  76
ATOM     76  C   UNL A   1      37.136  31.537  30.230  1.00  0.00     0.058 A 
ATOM     77  C   UNL A   1      36.283  31.997  31.246  1.00  0.00     0.135 A 
ATOM     78  C   UNL A   1      36.807  31.932  28.917  1.00  0.00     0.135 A 
ATOM     79  F   UNL A   1      36.538  31.700  32.530  1.00  0.00    -0.206 F 
ATOM     80  C   UNL A   1      35.188  32.827  30.980  1.00  0.00     0.059 A 
ATOM     81  C   UNL A   1      35.714  32.744  28.625  1.00  0.00     0.059 A 
ATOM     82  F   UNL A   1      37.596  31.616  27.878  1.00  0.00    -0.206 F 
ATOM     83  C   UNL A   1      34.921  33.209  29.665  1.00  0.00     0.060 A 
BRANCH  83  84
ATOM     84  S   UNL A   1      33.607  34.403  29.332  1.00  0.00     0.124 S 
ATOM     85  O   UNL A   1      34.327  35.458  28.627  1.00  0.00    -0.237 OA
ATOM     86  O   UNL A   1      32.676  33.619  28.529  1.00  0.00    -0.237 OA
ATOM     87  O   UNL A   1      33.127  34.761  30.665  1.00  0.00    -0.744 OA
ENDBRANCH  83  84
ENDBRANCH  51  76
BRANCH  63  88
ATOM     88  C   UNL A   1      42.089  29.721  33.793  1.00  0.00     0.058 A 
ATOM     89  C   UNL A   1      41.806  28.392  33.434  1.00  0.00     0.135 A 
ATOM     90  C   UNL A   1      42.217  30.001  35.162  1.00  0.00     0.135 A 
ATOM     91  F   UNL A   1      41.776  28.019  32.147  1.00  0.00    -0.206 F 
ATOM     92  C   UNL A   1      41.624  27.395  34.391  1.00  0.00     0.059 A 
ATOM     93  C   UNL A   1      42.071  29.013  36.134  1.00  0.00     0.059 A 
ATOM     94  F   UNL A   1      42.553  31.237  35.568  1.00  0.00    -0.206 F 
ATOM     95  C   UNL A   1      41.767  27.712  35.740  1.00  0.00     0.060 A 
BRANCH  95  96
ATOM     96  S   UNL A   1      41.653  26.391  36.966  1.00  0.00     0.124 S 
ATOM     97  O   UNL A   1      41.653  25.193  36.127  1.00  0.00    -0.237 OA
ATOM     98  O   UNL A   1      42.860  26.599  37.767  1.00  0.00    -0.237 OA
ATOM     99  O   UNL A   1      40.404  26.669  37.657  1.00  0.00    -0.744 OA
ENDBRANCH  95  96
ENDBRANCH  63  88
ENDBRANCH  37  38
ENDBRANCH  29  32
ENDBRANCH  27  28
ENDBRANCH   1  27
TORSDOF 17
ENDMDL
MODEL 2
REMARK VINA RESULT:     -12.1      1.958      3.065
REMARK SMILES CCc1cccc2c3c([nH]c12)[C@](CC)(CC(=O)NCCCCNC(=O)c1ccc(-c2c4nc(c(-c5c(F)cc(S(=O)(=O)[O-])cc5F)c5ccc([nH]5)c(-c5c(F)cc(S(=O)(=O)[O-])cc5F)c5nc(c(-c6c(F)cc(S(=O)(=O)[O-])cc6F)c6ccc2[nH]6)C=C5)C=C4)cc1)OCC3
REMARK SMILES IDX 21 1 20 2 19 3 18 4 16 5 17 6 15 8 12 9 3 10 4 11 11 12 5 13
REMARK SMILES IDX 7 14 10 15 6 16 8 17 9 18 94 20 93 21 92 22 2 23 1 24 13 25
REMARK SMILES IDX 14 26 22 27 23 28 24 29 25 31 26 32 27 33 91 34 28 35 90 36
REMARK SMILES IDX 29 37 30 38 31 39 84 40 32 41 89 42 83 43 85 44 33 45 88 46
REMARK SMILES IDX 82 47 81 48 34 50 68 51 47 52 67 53 48 54 51 55 66 56 86 57
REMARK SMILES IDX 49 58 50 59 65 61 87 62 52 63 35 64 36 65 45 66 37 67 38 68
REMARK SMILES IDX 44 69 46 70 39 71 40 72 41 73 42 74 43 75 69 76 70 77 79 78
REMARK SMILES IDX 71 79 72 80 78 81 80 82 73 83 74 84 75 85 76 86 77 87 53 88
REMARK SMILES IDX 54 89 63 90 55 91 56 92 62 93 64 94 57 95 58 96 59 97 60 98
REMARK SMILES IDX 61 99
REMARK H PARENT 18 7 10 19 23 30 85 49 51 60
REMARK Flexibility Score: inf
ROOT
ATOM      1  C   UNL A   1      36.234  21.333  25.061  1.00  0.00     0.023 C 
ENDROOT
BRANCH   1   2
ATOM      2  C   UNL A   1      35.276  21.484  26.255  1.00  0.00     0.023 C 
BRANCH   2   3
ATOM      3  C   UNL A   1      33.776  21.352  25.956  1.00  0.00     0.116 C 
BRANCH   3   4
ATOM      4  N   UNL A   1      32.901  22.149  26.806  1.00  0.00    -0.356 N 
ATOM      5  C   UNL A   1      31.907  23.044  26.514  1.00  0.00     0.223 C 
ATOM      6  O   UNL A   1      31.307  23.559  27.460  1.00  0.00    -0.275 OA
ATOM      7  H   UNL A   1      33.053  22.021  27.771  1.00  0.00     0.163 HD
BRANCH   5   8
ATOM      8  C   UNL A   1      31.508  23.336  25.085  1.00  0.00     0.142 C 
BRANCH   8   9
ATOM      9  C   UNL A   1      32.275  24.428  24.302  1.00  0.00     0.117 C 
ATOM     10  C   UNL A   1      30.115  28.966  23.709  1.00  0.00    -0.024 A 
ATOM     11  C   UNL A   1      30.378  30.221  24.306  1.00  0.00     0.006 A 
ATOM     12  C   UNL A   1      30.812  27.865  24.250  1.00  0.00     0.049 A 
ATOM     13  C   UNL A   1      31.299  30.378  25.339  1.00  0.00     0.001 A 
ATOM     14  C   UNL A   1      31.794  28.021  25.227  1.00  0.00     0.003 A 
ATOM     15  N   UNL A   1      30.766  26.510  23.952  1.00  0.00    -0.356 N 
ATOM     16  C   UNL A   1      32.031  29.286  25.792  1.00  0.00     0.010 A 
ATOM     17  C   UNL A   1      32.464  26.782  25.330  1.00  0.00    -0.014 A 
ATOM     18  C   UNL A   1      31.806  25.845  24.562  1.00  0.00     0.052 A 
ATOM     19  H   UNL A   1      30.084  26.084  23.384  1.00  0.00     0.166 HD
ATOM     20  C   UNL A   1      33.765  26.517  25.963  1.00  0.00     0.066 C 
ATOM     21  C   UNL A   1      34.156  25.062  25.766  1.00  0.00     0.166 C 
ATOM     22  O   UNL A   1      33.700  24.417  24.560  1.00  0.00    -0.368 OA
BRANCH  10  23
ATOM     23  C   UNL A   1      29.173  28.899  22.532  1.00  0.00     0.034 C 
ATOM     24  C   UNL A   1      29.190  30.168  21.686  1.00  0.00     0.009 C 
ENDBRANCH  10  23
BRANCH   9  25
ATOM     25  C   UNL A   1      32.143  24.126  22.771  1.00  0.00     0.039 C 
ATOM     26  C   UNL A   1      33.091  23.060  22.218  1.00  0.00     0.007 C 
ENDBRANCH   9  25
ENDBRANCH   8   9
ENDBRANCH   5   8
ENDBRANCH   3   4
ENDBRANCH   2   3
ENDBRANCH   1   2
BRANCH   1  27
ATOM     27  C   UNL A   1      37.439  22.263  25.120  1.00  0.00     0.116 C 
BRANCH  27  28
ATOM     28  N   UNL A   1      38.583  21.619  25.726  1.00  0.00    -0.352 N 
ATOM     29  C   UNL A   1      39.658  22.043  26.454  1.00  0.00     0.251 C 
ATOM     30  H   UNL A   1      38.587  20.645  25.579  1.00  0.00     0.163 HD
ATOM     31  O   UNL A   1      40.507  21.174  26.683  1.00  0.00    -0.269 OA
BRANCH  29  32
ATOM     32  C   UNL A   1      39.880  23.422  26.985  1.00  0.00     0.039 A 
ATOM     33  C   UNL A   1      39.049  24.528  26.798  1.00  0.00     0.014 A 
ATOM     34  C   UNL A   1      41.032  23.589  27.778  1.00  0.00     0.014 A 
ATOM     35  C   UNL A   1      39.365  25.762  27.381  1.00  0.00     0.010 A 
ATOM     36  C   UNL A   1      41.343  24.812  28.372  1.00  0.00     0.010 A 
ATOM     37  C   UNL A   1      40.515  25.910  28.162  1.00  0.00    -0.014 A 
BRANCH  37  38
ATOM     38  C   UNL A   1      40.776  27.214  28.777  1.00  0.00     0.031 A 
ATOM     39  C   UNL A   1      41.908  28.018  28.217  1.00  0.00     0.074 A 
ATOM     40  C   UNL A   1      39.993  27.772  29.722  1.00  0.00     0.049 A 
ATOM     41  N   UNL A   1      42.991  28.409  28.810  1.00  0.00    -0.248 NA
ATOM     42  C   UNL A   1      41.841  28.395  26.798  1.00  0.00     0.031 C 
ATOM     43  C   UNL A   1      38.688  27.321  30.209  1.00  0.00     0.029 A 
ATOM     44  N   UNL A   1      40.187  28.945  30.391  1.00  0.00    -0.354 N 
ATOM     45  C   UNL A   1      43.680  29.211  27.898  1.00  0.00     0.074 A 
ATOM     46  C   UNL A   1      42.973  29.088  26.647  1.00  0.00     0.031 C 
ATOM     47  C   UNL A   1      38.120  28.309  30.935  1.00  0.00     0.029 A 
ATOM     48  C   UNL A   1      39.073  29.398  31.080  1.00  0.00     0.049 A 
ATOM     49  H   UNL A   1      41.045  29.428  30.387  1.00  0.00     0.167 HD
ATOM     50  C   UNL A   1      44.712  30.026  28.263  1.00  0.00     0.037 A 
ATOM     51  C   UNL A   1      38.923  30.605  31.678  1.00  0.00     0.037 A 
ATOM     52  C   UNL A   1      45.211  29.705  29.572  1.00  0.00     0.049 A 
ATOM     53  C   UNL A   1      40.280  31.139  31.958  1.00  0.00     0.074 A 
ATOM     54  C   UNL A   1      45.802  28.594  30.143  1.00  0.00     0.029 A 
ATOM     55  N   UNL A   1      44.860  30.514  30.625  1.00  0.00    -0.354 N 
ATOM     56  N   UNL A   1      41.107  30.623  32.826  1.00  0.00    -0.248 NA
ATOM     57  C   UNL A   1      40.886  32.029  30.979  1.00  0.00     0.031 C 
ATOM     58  C   UNL A   1      45.329  28.570  31.487  1.00  0.00     0.029 A 
ATOM     59  C   UNL A   1      44.500  29.681  31.654  1.00  0.00     0.049 A 
ATOM     60  H   UNL A   1      44.865  31.499  30.639  1.00  0.00     0.167 HD
ATOM     61  C   UNL A   1      42.365  30.787  32.267  1.00  0.00     0.074 A 
ATOM     62  C   UNL A   1      42.176  31.751  31.188  1.00  0.00     0.031 C 
ATOM     63  C   UNL A   1      43.391  29.930  32.549  1.00  0.00     0.037 A 
BRANCH  50  64
ATOM     64  C   UNL A   1      45.129  31.296  27.553  1.00  0.00     0.058 A 
ATOM     65  C   UNL A   1      46.390  31.363  26.918  1.00  0.00     0.135 A 
ATOM     66  C   UNL A   1      44.464  32.529  27.715  1.00  0.00     0.135 A 
ATOM     67  F   UNL A   1      47.112  30.251  26.707  1.00  0.00    -0.206 F 
ATOM     68  C   UNL A   1      46.982  32.573  26.552  1.00  0.00     0.059 A 
ATOM     69  C   UNL A   1      45.014  33.743  27.309  1.00  0.00     0.059 A 
ATOM     70  F   UNL A   1      43.297  32.621  28.364  1.00  0.00    -0.206 F 
ATOM     71  C   UNL A   1      46.294  33.761  26.776  1.00  0.00     0.060 A 
BRANCH  71  72
ATOM     72  S   UNL A   1      47.118  35.333  26.456  1.00  0.00     0.124 S 
ATOM     73  O   UNL A   1      47.923  35.003  25.285  1.00  0.00    -0.237 OA
ATOM     74  O   UNL A   1      45.991  36.231  26.224  1.00  0.00    -0.237 OA
ATOM     75  O   UNL A   1      47.864  35.578  27.686  1.00  0.00    -0.744 OA
ENDBRANCH  71  72
ENDBRANCH  50  64
BRANCH  51  76
ATOM     76  C   UNL A   1      37.687  31.425  31.751  1.00  0.00     0.058 A 
ATOM     77  C   UNL A   1      37.033  31.666  32.971  1.00  0.00     0.135 A 
ATOM     78  C   UNL A   1      37.262  32.203  30.654  1.00  0.00     0.135 A 
ATOM     79  F   UNL A   1      37.395  30.997  34.076  1.00  0.00    -0.206 F 
ATOM     80  C   UNL A   1      36.040  32.643  33.103  1.00  0.00     0.059 A 
ATOM     81  C   UNL A   1      36.266  33.170  30.757  1.00  0.00     0.059 A 
ATOM     82  F   UNL A   1      37.870  32.112  29.461  1.00  0.00    -0.206 F 
ATOM     83  C   UNL A   1      35.674  33.403  31.991  1.00  0.00     0.060 A 
BRANCH  83  84
ATOM     84  S   UNL A   1      34.509  34.769  32.189  1.00  0.00     0.124 S 
ATOM     85  O   UNL A   1      35.305  35.741  32.931  1.00  0.00    -0.237 OA
ATOM     86  O   UNL A   1      34.206  35.115  30.805  1.00  0.00    -0.237 OA
ATOM     87  O   UNL A   1      33.405  34.169  32.934  1.00  0.00    -0.744 OA
ENDBRANCH  83  84
ENDBRANCH  51  76
BRANCH  63  88
ATOM     88  C   UNL A   1      43.227  28.964  33.694  1.00  0.00     0.058 A 
ATOM     89  C   UNL A   1      43.581  29.266  35.021  1.00  0.00     0.135 A 
ATOM     90  C   UNL A   1      42.518  27.773  33.476  1.00  0.00     0.135 A 
ATOM     91  F   UNL A   1      44.161  30.433  35.330  1.00  0.00    -0.206 F 
ATOM     92  C   UNL A   1      43.274  28.408  36.077  1.00  0.00     0.059 A 
ATOM     93  C   UNL A   1      42.173  26.917  34.521  1.00  0.00     0.059 A 
ATOM     94  F   UNL A   1      42.092  27.460  32.241  1.00  0.00    -0.206 F 
ATOM     95  C   UNL A   1      42.562  27.239  35.819  1.00  0.00     0.060 A 
BRANCH  95  96
ATOM     96  S   UNL A   1      42.061  26.195  37.206  1.00  0.00     0.124 S 
ATOM     97  O   UNL A   1      43.086  26.501  38.204  1.00  0.00    -0.237 OA
ATOM     98  O   UNL A   1      40.719  26.694  37.508  1.00  0.00    -0.237 OA
ATOM     99  O   UNL A   1      42.106  24.849  36.658  1.00  0.00    -0.744 OA
ENDBRANCH  95  96
ENDBRANCH  63  88
ENDBRANCH  37  38
ENDBRANCH  29  32
ENDBRANCH  27  28
ENDBRANCH   1  27
TORSDOF 17
ENDMDL
MODEL 3
REMARK VINA RESULT:     -12.0      1.864      2.746
REMARK SMILES CCc1cccc2c3c([nH]c12)[C@](CC)(CC(=O)NCCCCNC(=O)c1ccc(-c2c4nc(c(-c5c(F)cc(S(=O)(=O)[O-])cc5F)c5ccc([nH]5)c(-c5c(F)cc(S(=O)(=O)[O-])cc5F)c5nc(c(-c6c(F)cc(S(=O)(=O)[O-])cc6F)c6ccc2[nH]6)C=C5)C=C4)cc1)OCC3
REMARK SMILES IDX 21 1 20 2 19 3 18 4 16 5 17 6 15 8 12 9 3 10 4 11 11 12 5 13
REMARK SMILES IDX 7 14 10 15 6 16 8 17 9 18 94 20 93 21 92 22 2 23 1 24 13 25
REMARK SMILES IDX 14 26 22 27 23 28 24 29 25 31 26 32 27 33 91 34 28 35 90 36
REMARK SMILES IDX 29 37 30 38 31 39 84 40 32 41 89 42 83 43 85 44 33 45 88 46
REMARK SMILES IDX 82 47 81 48 34 50 68 51 47 52 67 53 48 54 51 55 66 56 86 57
REMARK SMILES IDX 49 58 50 59 65 61 87 62 52 63 35 64 36 65 45 66 37 67 38 68
REMARK SMILES IDX 44 69 46 70 39 71 40 72 41 73 42 74 43 75 69 76 70 77 79 78
REMARK SMILES IDX 71 79 72 80 78 81 80 82 73 83 74 84 75 85 76 86 77 87 53 88
REMARK SMILES IDX 54 89 63 90 55 91 56 92 62 93 64 94 57 95 58 96 59 97 60 98
REMARK SMILES IDX 61 99
REMARK H PARENT 18 7 10 19 23 30 85 49 51 60
REMARK Flexibility Score: inf
ROOT
ATOM      1  C   UNL A   1      36.861  22.234  23.923  1.00  0.00     0.023 C 
ENDROOT
BRANCH   1   2
ATOM      2  C   UNL A   1      35.855  23.251  23.357  1.00  0.00     0.023 C 
BRANCH   2   3
ATOM      3  C   UNL A   1      34.378  22.830  23.353  1.00  0.00     0.116 C 
BRANCH   3   4
ATOM      4  N   UNL A   1      33.511  23.613  22.481  1.00  0.00    -0.356 N 
ATOM      5  C   UNL A   1      33.202  24.946  22.456  1.00  0.00     0.223 C 
ATOM      6  O   UNL A   1      32.440  25.338  21.569  1.00  0.00    -0.275 OA
ATOM      7  H   UNL A   1      33.065  23.085  21.780  1.00  0.00     0.163 HD
BRANCH   5   8
ATOM      8  C   UNL A   1      33.826  25.916  23.433  1.00  0.00     0.142 C 
BRANCH   8   9
ATOM      9  C   UNL A   1      33.126  26.169  24.789  1.00  0.00     0.117 C 
ATOM     10  C   UNL A   1      34.647  30.076  27.623  1.00  0.00    -0.024 A 
ATOM     11  C   UNL A   1      34.054  31.330  27.896  1.00  0.00     0.006 A 
ATOM     12  C   UNL A   1      34.013  29.293  26.636  1.00  0.00     0.049 A 
ATOM     13  C   UNL A   1      32.889  31.759  27.264  1.00  0.00     0.001 A 
ATOM     14  C   UNL A   1      32.804  29.675  26.056  1.00  0.00     0.003 A 
ATOM     15  N   UNL A   1      34.338  28.059  26.089  1.00  0.00    -0.356 N 
ATOM     16  C   UNL A   1      32.241  30.927  26.357  1.00  0.00     0.010 A 
ATOM     17  C   UNL A   1      32.327  28.555  25.340  1.00  0.00    -0.014 A 
ATOM     18  C   UNL A   1      33.291  27.571  25.339  1.00  0.00     0.052 A 
ATOM     19  H   UNL A   1      35.198  27.598  26.219  1.00  0.00     0.166 HD
ATOM     20  C   UNL A   1      30.964  28.329  24.834  1.00  0.00     0.066 C 
ATOM     21  C   UNL A   1      30.862  26.952  24.201  1.00  0.00     0.166 C 
ATOM     22  O   UNL A   1      31.700  25.915  24.747  1.00  0.00    -0.368 OA
BRANCH  10  23
ATOM     23  C   UNL A   1      35.855  29.649  28.421  1.00  0.00     0.034 C 
ATOM     24  C   UNL A   1      37.145  29.688  27.609  1.00  0.00     0.009 C 
ENDBRANCH  10  23
BRANCH   9  25
ATOM     25  C   UNL A   1      33.684  25.146  25.836  1.00  0.00     0.039 C 
ATOM     26  C   UNL A   1      32.702  24.074  26.310  1.00  0.00     0.007 C 
ENDBRANCH   9  25
ENDBRANCH   8   9
ENDBRANCH   5   8
ENDBRANCH   3   4
ENDBRANCH   2   3
ENDBRANCH   1   2
BRANCH   1  27
ATOM     27  C   UNL A   1      37.366  22.583  25.317  1.00  0.00     0.116 C 
BRANCH  27  28
ATOM     28  N   UNL A   1      38.564  21.846  25.652  1.00  0.00    -0.352 N 
ATOM     29  C   UNL A   1      39.735  22.143  26.290  1.00  0.00     0.251 C 
ATOM     30  H   UNL A   1      38.526  20.910  25.349  1.00  0.00     0.163 HD
ATOM     31  O   UNL A   1      40.586  21.248  26.259  1.00  0.00    -0.269 OA
BRANCH  29  32
ATOM     32  C   UNL A   1      40.056  23.415  27.004  1.00  0.00     0.039 A 
ATOM     33  C   UNL A   1      41.182  23.667  27.790  1.00  0.00     0.014 A 
ATOM     34  C   UNL A   1      39.130  24.462  26.825  1.00  0.00     0.014 A 
ATOM     35  C   UNL A   1      41.373  24.922  28.380  1.00  0.00     0.010 A 
ATOM     36  C   UNL A   1      39.323  25.718  27.399  1.00  0.00     0.010 A 
ATOM     37  C   UNL A   1      40.442  25.948  28.194  1.00  0.00    -0.014 A 
BRANCH  37  38
ATOM     38  C   UNL A   1      40.710  27.252  28.805  1.00  0.00     0.031 A 
ATOM     39  C   UNL A   1      41.835  28.057  28.231  1.00  0.00     0.074 A 
ATOM     40  C   UNL A   1      39.938  27.811  29.759  1.00  0.00     0.049 A 
ATOM     41  N   UNL A   1      42.925  28.448  28.812  1.00  0.00    -0.248 NA
ATOM     42  C   UNL A   1      41.752  28.432  26.813  1.00  0.00     0.031 C 
ATOM     43  C   UNL A   1      38.638  27.361  30.262  1.00  0.00     0.029 A 
ATOM     44  N   UNL A   1      40.140  28.985  30.425  1.00  0.00    -0.354 N 
ATOM     45  C   UNL A   1      43.603  29.249  27.891  1.00  0.00     0.074 A 
ATOM     46  C   UNL A   1      42.882  29.125  26.648  1.00  0.00     0.031 C 
ATOM     47  C   UNL A   1      38.079  28.349  30.993  1.00  0.00     0.029 A 
ATOM     48  C   UNL A   1      39.033  29.438  31.125  1.00  0.00     0.049 A 
ATOM     49  H   UNL A   1      40.997  29.468  30.410  1.00  0.00     0.167 HD
ATOM     50  C   UNL A   1      44.639  30.065  28.243  1.00  0.00     0.037 A 
ATOM     51  C   UNL A   1      38.890  30.646  31.725  1.00  0.00     0.037 A 
ATOM     52  C   UNL A   1      45.153  29.745  29.547  1.00  0.00     0.049 A 
ATOM     53  C   UNL A   1      40.250  31.180  31.989  1.00  0.00     0.074 A 
ATOM     54  C   UNL A   1      45.751  28.635  30.112  1.00  0.00     0.029 A 
ATOM     55  N   UNL A   1      44.814  30.555  30.603  1.00  0.00    -0.354 N 
ATOM     56  N   UNL A   1      41.087  30.665  32.847  1.00  0.00    -0.248 NA
ATOM     57  C   UNL A   1      40.845  32.070  31.002  1.00  0.00     0.031 C 
ATOM     58  C   UNL A   1      45.294  28.612  31.461  1.00  0.00     0.029 A 
ATOM     59  C   UNL A   1      44.466  29.723  31.637  1.00  0.00     0.049 A 
ATOM     60  H   UNL A   1      44.820  31.539  30.616  1.00  0.00     0.167 HD
ATOM     61  C   UNL A   1      42.339  30.829  32.274  1.00  0.00     0.074 A 
ATOM     62  C   UNL A   1      42.137  31.792  31.196  1.00  0.00     0.031 C 
ATOM     63  C   UNL A   1      43.368  29.972  32.545  1.00  0.00     0.037 A 
BRANCH  50  64
ATOM     64  C   UNL A   1      45.048  31.334  27.528  1.00  0.00     0.058 A 
ATOM     65  C   UNL A   1      46.300  31.401  26.877  1.00  0.00     0.135 A 
ATOM     66  C   UNL A   1      44.386  32.568  27.697  1.00  0.00     0.135 A 
ATOM     67  F   UNL A   1      47.020  30.288  26.658  1.00  0.00    -0.206 F 
ATOM     68  C   UNL A   1      46.888  32.610  26.502  1.00  0.00     0.059 A 
ATOM     69  C   UNL A   1      44.931  33.781  27.283  1.00  0.00     0.059 A 
ATOM     70  F   UNL A   1      43.226  32.660  28.361  1.00  0.00    -0.206 F 
ATOM     71  C   UNL A   1      46.204  33.799  26.735  1.00  0.00     0.060 A 
BRANCH  71  72
ATOM     72  S   UNL A   1      47.025  35.370  26.403  1.00  0.00     0.124 S 
ATOM     73  O   UNL A   1      45.888  36.233  26.105  1.00  0.00    -0.237 OA
ATOM     74  O   UNL A   1      47.712  35.630  27.664  1.00  0.00    -0.237 OA
ATOM     75  O   UNL A   1      47.896  35.061  25.273  1.00  0.00    -0.744 OA
ENDBRANCH  71  72
ENDBRANCH  50  64
BRANCH  51  76
ATOM     76  C   UNL A   1      37.655  31.466  31.811  1.00  0.00     0.058 A 
ATOM     77  C   UNL A   1      37.012  31.704  33.037  1.00  0.00     0.135 A 
ATOM     78  C   UNL A   1      37.219  32.247  30.720  1.00  0.00     0.135 A 
ATOM     79  F   UNL A   1      37.385  31.032  34.137  1.00  0.00    -0.206 F 
ATOM     80  C   UNL A   1      36.021  32.681  33.181  1.00  0.00     0.059 A 
ATOM     81  C   UNL A   1      36.224  33.213  30.834  1.00  0.00     0.059 A 
ATOM     82  F   UNL A   1      37.816  32.159  29.521  1.00  0.00    -0.206 F 
ATOM     83  C   UNL A   1      35.644  33.443  32.074  1.00  0.00     0.060 A 
BRANCH  83  84
ATOM     84  S   UNL A   1      34.481  34.809  32.286  1.00  0.00     0.124 S 
ATOM     85  O   UNL A   1      35.219  35.700  33.175  1.00  0.00    -0.237 OA
ATOM     86  O   UNL A   1      34.305  35.277  30.917  1.00  0.00    -0.237 OA
ATOM     87  O   UNL A   1      33.309  34.169  32.879  1.00  0.00    -0.744 OA
ENDBRANCH  83  84
ENDBRANCH  51  76
BRANCH  63  88
ATOM     88  C   UNL A   1      43.217  29.008  33.693  1.00  0.00     0.058 A 
ATOM     89  C   UNL A   1      42.492  27.807  33.607  1.00  0.00     0.135 A 
ATOM     90  C   UNL A   1      43.984  29.211  34.851  1.00  0.00     0.135 A 
ATOM     91  F   UNL A   1      41.823  27.485  32.492  1.00  0.00    -0.206 F 
ATOM     92  C   UNL A   1      42.501  26.867  34.637  1.00  0.00     0.059 A 
ATOM     93  C   UNL A   1      44.033  28.271  35.878  1.00  0.00     0.059 A 
ATOM     94  F   UNL A   1      44.753  30.307  34.965  1.00  0.00    -0.206 F 
ATOM     95  C   UNL A   1      43.281  27.103  35.767  1.00  0.00     0.060 A 
BRANCH  95  96
ATOM     96  S   UNL A   1      43.385  25.827  37.041  1.00  0.00     0.124 S 
ATOM     97  O   UNL A   1      44.757  25.347  36.881  1.00  0.00    -0.237 OA
ATOM     98  O   UNL A   1      43.121  26.583  38.267  1.00  0.00    -0.237 OA
ATOM     99  O   UNL A   1      42.345  24.882  36.669  1.00  0.00    -0.744 OA
ENDBRANCH  95  96
ENDBRANCH  63  88
ENDBRANCH  37  38
ENDBRANCH  29  32
ENDBRANCH  27  28
ENDBRANCH   1  27
TORSDOF 17
ENDMDL
