MODEL 1
REMARK VINA RESULT:     -10.8      0.000      0.000
REMARK SMILES O=C(CSc1ccc2ccccc2n1)NCc1ccc(C(=O)NCCCCNC(=O)c2ccc(-c3c4nc(c(-c5c(F)cc(S(=O)(=O)[O-])cc5F)c5ccc([nH]5)c(-c5c(F)cc(S(=O)(=O)[O-])cc5F)c5nc(c(-c6c(F)cc(S(=O)(=O)[O-])cc6F)c6ccc3[nH]6)C=C5)C=C4)cc2)cc1
REMARK SMILES IDX 24 1 23 2 21 3 22 4 20 6 17 7 18 8 98 9 19 10 97 11 16 12
REMARK SMILES IDX 15 13 1 14 2 15 3 17 4 18 5 19 6 20 14 21 7 22 13 23 8 24
REMARK SMILES IDX 12 25 9 26 11 27 10 28 25 29 26 30 27 31 28 32 29 33 30 35
REMARK SMILES IDX 31 36 32 37 96 38 33 39 95 40 34 41 35 42 36 43 89 44 37 45
REMARK SMILES IDX 94 46 88 47 90 48 38 49 93 50 87 51 86 52 39 54 73 55 52 56
REMARK SMILES IDX 72 57 53 58 56 59 71 60 91 61 54 62 55 63 70 65 92 66 57 67
REMARK SMILES IDX 40 68 41 69 50 70 42 71 43 72 49 73 51 74 44 75 45 76 46 77
REMARK SMILES IDX 47 78 48 79 74 80 75 81 84 82 76 83 77 84 83 85 85 86 78 87
REMARK SMILES IDX 79 88 80 89 81 90 82 91 58 92 59 93 68 94 60 95 61 96 67 97
REMARK SMILES IDX 69 98 62 99 63 100 64 101 65 102 66 103
REMARK H PARENT 23 5 15 16 28 34 90 53 56 64
REMARK Flexibility Score: inf
ROOT
ATOM      1  C   UNL A   1      33.707  33.932  28.613  1.00  0.00     0.116 C 
ENDROOT
BRANCH   1   2
ATOM      2  N   UNL A   1      33.091  35.166  29.061  1.00  0.00    -0.352 N 
ATOM      3  C   UNL A   1      33.097  35.795  30.281  1.00  0.00     0.251 C 
ATOM      4  O   UNL A   1      32.543  36.890  30.373  1.00  0.00    -0.269 OA
ATOM      5  H   UNL A   1      32.577  35.638  28.367  1.00  0.00     0.163 HD
BRANCH   3   6
ATOM      6  C   UNL A   1      33.785  35.235  31.477  1.00  0.00     0.039 A 
ATOM      7  C   UNL A   1      35.096  34.341  33.822  1.00  0.00    -0.029 A 
ATOM      8  C   UNL A   1      34.762  35.692  33.659  1.00  0.00     0.006 A 
ATOM      9  C   UNL A   1      34.713  33.437  32.821  1.00  0.00     0.006 A 
ATOM     10  C   UNL A   1      34.117  36.134  32.500  1.00  0.00     0.014 A 
ATOM     11  C   UNL A   1      34.052  33.879  31.668  1.00  0.00     0.014 A 
BRANCH   7  12
ATOM     12  C   UNL A   1      35.766  33.888  35.097  1.00  0.00     0.151 C 
BRANCH  12  13
ATOM     13  N   UNL A   1      37.206  33.977  35.042  1.00  0.00    -0.351 N 
ATOM     14  O   UNL A   1      37.623  32.016  36.156  1.00  0.00    -0.274 OA
ATOM     15  C   UNL A   1      38.034  32.999  35.538  1.00  0.00     0.230 C 
ATOM     16  H   UNL A   1      37.612  34.775  34.632  1.00  0.00     0.163 HD
BRANCH  15  17
ATOM     17  C   UNL A   1      39.524  33.266  35.393  1.00  0.00     0.176 C 
BRANCH  17  18
ATOM     18  S   UNL A   1      40.410  32.050  34.366  1.00  0.00    -0.096 SA
BRANCH  18  19
ATOM     19  C   UNL A   1      40.444  32.940  32.827  1.00  0.00     0.097 A 
ATOM     20  C   UNL A   1      39.342  32.917  31.987  1.00  0.00     0.036 A 
ATOM     21  N   UNL A   1      41.596  33.567  32.514  1.00  0.00    -0.241 NA
ATOM     22  C   UNL A   1      39.424  33.585  30.770  1.00  0.00     0.013 A 
ATOM     23  C   UNL A   1      41.676  34.213  31.339  1.00  0.00     0.072 A 
ATOM     24  C   UNL A   1      40.605  34.248  30.420  1.00  0.00     0.000 A 
ATOM     25  C   UNL A   1      42.852  34.869  31.000  1.00  0.00     0.029 A 
ATOM     26  C   UNL A   1      40.742  34.927  29.197  1.00  0.00     0.010 A 
ATOM     27  C   UNL A   1      42.993  35.544  29.784  1.00  0.00     0.002 A 
ATOM     28  C   UNL A   1      41.937  35.571  28.879  1.00  0.00     0.001 A 
ENDBRANCH  18  19
ENDBRANCH  17  18
ENDBRANCH  15  17
ENDBRANCH  12  13
ENDBRANCH   7  12
ENDBRANCH   3   6
ENDBRANCH   1   2
BRANCH   1  29
ATOM     29  C   UNL A   1      35.051  34.209  27.937  1.00  0.00     0.023 C 
BRANCH  29  30
ATOM     30  C   UNL A   1      36.273  33.807  28.769  1.00  0.00     0.023 C 
BRANCH  30  31
ATOM     31  C   UNL A   1      36.564  32.309  28.817  1.00  0.00     0.116 C 
BRANCH  31  32
ATOM     32  N   UNL A   1      36.030  31.659  30.005  1.00  0.00    -0.352 N 
ATOM     33  C   UNL A   1      36.512  30.560  30.678  1.00  0.00     0.251 C 
ATOM     34  H   UNL A   1      35.213  32.062  30.379  1.00  0.00     0.163 HD
ATOM     35  O   UNL A   1      35.880  30.078  31.605  1.00  0.00    -0.269 OA
BRANCH  33  36
ATOM     36  C   UNL A   1      37.781  29.944  30.233  1.00  0.00     0.039 A 
ATOM     37  C   UNL A   1      38.065  29.906  28.865  1.00  0.00     0.014 A 
ATOM     38  C   UNL A   1      38.701  29.449  31.162  1.00  0.00     0.014 A 
ATOM     39  C   UNL A   1      39.313  29.451  28.434  1.00  0.00     0.010 A 
ATOM     40  C   UNL A   1      39.963  29.047  30.733  1.00  0.00     0.010 A 
ATOM     41  C   UNL A   1      40.286  29.063  29.368  1.00  0.00    -0.014 A 
BRANCH  41  42
ATOM     42  C   UNL A   1      41.668  28.724  28.944  1.00  0.00     0.031 A 
ATOM     43  C   UNL A   1      42.718  29.794  28.851  1.00  0.00     0.074 A 
ATOM     44  C   UNL A   1      41.946  27.462  28.559  1.00  0.00     0.049 A 
ATOM     45  N   UNL A   1      43.944  29.708  28.407  1.00  0.00    -0.248 NA
ATOM     46  C   UNL A   1      42.332  31.143  29.296  1.00  0.00     0.031 C 
ATOM     47  C   UNL A   1      40.995  26.348  28.559  1.00  0.00     0.029 A 
ATOM     48  N   UNL A   1      43.105  26.908  28.076  1.00  0.00    -0.354 N 
ATOM     49  C   UNL A   1      44.475  30.987  28.507  1.00  0.00     0.074 A 
ATOM     50  C   UNL A   1      43.424  31.841  29.018  1.00  0.00     0.031 C 
ATOM     51  C   UNL A   1      41.610  25.243  28.108  1.00  0.00     0.029 A 
ATOM     52  C   UNL A   1      42.986  25.576  27.752  1.00  0.00     0.049 A 
ATOM     53  H   UNL A   1      43.942  27.415  27.971  1.00  0.00     0.167 HD
ATOM     54  C   UNL A   1      45.731  31.406  28.217  1.00  0.00     0.037 A 
ATOM     55  C   UNL A   1      43.879  24.724  27.213  1.00  0.00     0.037 A 
ATOM     56  C   UNL A   1      46.778  30.547  27.730  1.00  0.00     0.049 A 
ATOM     57  C   UNL A   1      45.262  25.218  26.890  1.00  0.00     0.074 A 
ATOM     58  C   UNL A   1      48.099  30.866  27.466  1.00  0.00     0.029 A 
ATOM     59  N   UNL A   1      46.623  29.202  27.428  1.00  0.00    -0.354 N 
ATOM     60  N   UNL A   1      45.765  26.419  27.049  1.00  0.00    -0.248 NA
ATOM     61  C   UNL A   1      46.199  24.243  26.315  1.00  0.00     0.031 C 
ATOM     62  C   UNL A   1      48.735  29.722  26.971  1.00  0.00     0.029 A 
ATOM     63  C   UNL A   1      47.820  28.682  26.961  1.00  0.00     0.049 A 
ATOM     64  H   UNL A   1      45.787  28.692  27.530  1.00  0.00     0.167 HD
ATOM     65  C   UNL A   1      47.080  26.340  26.607  1.00  0.00     0.074 A 
ATOM     66  C   UNL A   1      47.301  24.970  26.191  1.00  0.00     0.031 C 
ATOM     67  C   UNL A   1      48.020  27.315  26.549  1.00  0.00     0.037 A 
BRANCH  54  68
ATOM     68  C   UNL A   1      46.045  32.860  28.430  1.00  0.00     0.058 A 
ATOM     69  C   UNL A   1      46.002  33.781  27.372  1.00  0.00     0.135 A 
ATOM     70  C   UNL A   1      46.348  33.348  29.711  1.00  0.00     0.135 A 
ATOM     71  F   UNL A   1      45.733  33.365  26.124  1.00  0.00    -0.206 F 
ATOM     72  C   UNL A   1      46.269  35.132  27.571  1.00  0.00     0.059 A 
ATOM     73  C   UNL A   1      46.596  34.699  29.939  1.00  0.00     0.059 A 
ATOM     74  F   UNL A   1      46.405  32.509  30.757  1.00  0.00    -0.206 F 
ATOM     75  C   UNL A   1      46.566  35.580  28.859  1.00  0.00     0.060 A 
BRANCH  75  76
ATOM     76  S   UNL A   1      46.896  37.339  29.103  1.00  0.00     0.124 S 
ATOM     77  O   UNL A   1      48.356  37.361  29.113  1.00  0.00    -0.237 OA
ATOM     78  O   UNL A   1      46.261  37.942  27.937  1.00  0.00    -0.237 OA
ATOM     79  O   UNL A   1      46.256  37.630  30.383  1.00  0.00    -0.744 OA
ENDBRANCH  75  76
ENDBRANCH  54  68
BRANCH  55  80
ATOM     80  C   UNL A   1      43.495  23.313  26.948  1.00  0.00     0.058 A 
ATOM     81  C   UNL A   1      43.319  22.850  25.637  1.00  0.00     0.135 A 
ATOM     82  C   UNL A   1      43.300  22.401  27.997  1.00  0.00     0.135 A 
ATOM     83  F   UNL A   1      43.487  23.687  24.601  1.00  0.00    -0.206 F 
ATOM     84  C   UNL A   1      42.947  21.535  25.372  1.00  0.00     0.059 A 
ATOM     85  C   UNL A   1      42.951  21.076  27.757  1.00  0.00     0.059 A 
ATOM     86  F   UNL A   1      43.472  22.792  29.269  1.00  0.00    -0.206 F 
ATOM     87  C   UNL A   1      42.765  20.655  26.441  1.00  0.00     0.060 A 
BRANCH  87  88
ATOM     88  S   UNL A   1      42.325  18.940  26.088  1.00  0.00     0.124 S 
ATOM     89  O   UNL A   1      42.602  18.297  27.367  1.00  0.00    -0.237 OA
ATOM     90  O   UNL A   1      40.917  19.051  25.720  1.00  0.00    -0.237 OA
ATOM     91  O   UNL A   1      43.223  18.585  24.992  1.00  0.00    -0.744 OA
ENDBRANCH  87  88
ENDBRANCH  55  80
BRANCH  67  92
ATOM     92  C   UNL A   1      49.376  26.932  26.028  1.00  0.00     0.058 A 
ATOM     93  C   UNL A   1      50.331  26.318  26.854  1.00  0.00     0.135 A 
ATOM     94  C   UNL A   1      49.708  27.140  24.681  1.00  0.00     0.135 A 
ATOM     95  F   UNL A   1      50.064  26.106  28.152  1.00  0.00    -0.206 F 
ATOM     96  C   UNL A   1      51.577  25.940  26.364  1.00  0.00     0.059 A 
ATOM     97  C   UNL A   1      50.940  26.749  24.164  1.00  0.00     0.059 A 
ATOM     98  F   UNL A   1      48.827  27.716  23.848  1.00  0.00    -0.206 F 
ATOM     99  C   UNL A   1      51.872  26.160  25.018  1.00  0.00     0.060 A 
BRANCH  99 100
ATOM    100  S   UNL A   1      53.480  25.633  24.385  1.00  0.00     0.124 S 
ATOM    101  O   UNL A   1      53.498  24.225  24.767  1.00  0.00    -0.237 OA
ATOM    102  O   UNL A   1      53.358  25.901  22.955  1.00  0.00    -0.237 OA
ATOM    103  O   UNL A   1      54.422  26.490  25.098  1.00  0.00    -0.744 OA
ENDBRANCH  99 100
ENDBRANCH  67  92
ENDBRANCH  41  42
ENDBRANCH  33  36
ENDBRANCH  31  32
ENDBRANCH  30  31
ENDBRANCH  29  30
ENDBRANCH   1  29
TORSDOF 19
ENDMDL
MODEL 2
REMARK VINA RESULT:     -10.3      3.787      5.483
REMARK SMILES O=C(CSc1ccc2ccccc2n1)NCc1ccc(C(=O)NCCCCNC(=O)c2ccc(-c3c4nc(c(-c5c(F)cc(S(=O)(=O)[O-])cc5F)c5ccc([nH]5)c(-c5c(F)cc(S(=O)(=O)[O-])cc5F)c5nc(c(-c6c(F)cc(S(=O)(=O)[O-])cc6F)c6ccc3[nH]6)C=C5)C=C4)cc2)cc1
REMARK SMILES IDX 24 1 23 2 21 3 22 4 20 6 17 7 18 8 98 9 19 10 97 11 16 12
REMARK SMILES IDX 15 13 1 14 2 15 3 17 4 18 5 19 6 20 14 21 7 22 13 23 8 24
REMARK SMILES IDX 12 25 9 26 11 27 10 28 25 29 26 30 27 31 28 32 29 33 30 35
REMARK SMILES IDX 31 36 32 37 96 38 33 39 95 40 34 41 35 42 36 43 89 44 37 45
REMARK SMILES IDX 94 46 88 47 90 48 38 49 93 50 87 51 86 52 39 54 73 55 52 56
REMARK SMILES IDX 72 57 53 58 56 59 71 60 91 61 54 62 55 63 70 65 92 66 57 67
REMARK SMILES IDX 40 68 41 69 50 70 42 71 43 72 49 73 51 74 44 75 45 76 46 77
REMARK SMILES IDX 47 78 48 79 74 80 75 81 84 82 76 83 77 84 83 85 85 86 78 87
REMARK SMILES IDX 79 88 80 89 81 90 82 91 58 92 59 93 68 94 60 95 61 96 67 97
REMARK SMILES IDX 69 98 62 99 63 100 64 101 65 102 66 103
REMARK H PARENT 23 5 15 16 28 34 90 53 56 64
REMARK Flexibility Score: inf
ROOT
ATOM      1  C   UNL A   1      37.462  34.333  30.838  1.00  0.00     0.116 C 
ENDROOT
BRANCH   1   2
ATOM      2  N   UNL A   1      36.291  34.689  31.616  1.00  0.00    -0.352 N 
ATOM      3  C   UNL A   1      35.913  34.358  32.894  1.00  0.00     0.251 C 
ATOM      4  O   UNL A   1      34.885  34.864  33.344  1.00  0.00    -0.269 OA
ATOM      5  H   UNL A   1      35.653  35.270  31.144  1.00  0.00     0.163 HD
BRANCH   3   6
ATOM      6  C   UNL A   1      36.715  33.461  33.770  1.00  0.00     0.039 A 
ATOM      7  C   UNL A   1      38.231  31.628  35.304  1.00  0.00    -0.029 A 
ATOM      8  C   UNL A   1      37.774  31.284  34.024  1.00  0.00     0.006 A 
ATOM      9  C   UNL A   1      37.968  32.920  35.780  1.00  0.00     0.006 A 
ATOM     10  C   UNL A   1      37.023  32.189  33.268  1.00  0.00     0.014 A 
ATOM     11  C   UNL A   1      37.230  33.831  35.013  1.00  0.00     0.014 A 
BRANCH   7  12
ATOM     12  C   UNL A   1      39.066  30.641  36.086  1.00  0.00     0.151 C 
BRANCH  12  13
ATOM     13  N   UNL A   1      40.388  30.457  35.536  1.00  0.00    -0.351 N 
ATOM     14  O   UNL A   1      40.729  28.358  36.395  1.00  0.00    -0.274 OA
ATOM     15  C   UNL A   1      41.107  29.296  35.693  1.00  0.00     0.230 C 
ATOM     16  H   UNL A   1      40.792  31.196  35.026  1.00  0.00     0.163 HD
BRANCH  15  17
ATOM     17  C   UNL A   1      42.483  29.285  35.045  1.00  0.00     0.176 C 
BRANCH  17  18
ATOM     18  S   UNL A   1      43.836  28.798  36.161  1.00  0.00    -0.096 SA
BRANCH  18  19
ATOM     19  C   UNL A   1      43.865  27.050  35.836  1.00  0.00     0.097 A 
ATOM     20  C   UNL A   1      43.783  26.148  36.885  1.00  0.00     0.036 A 
ATOM     21  N   UNL A   1      44.028  26.674  34.552  1.00  0.00    -0.241 NA
ATOM     22  C   UNL A   1      43.858  24.789  36.595  1.00  0.00     0.013 A 
ATOM     23  C   UNL A   1      44.101  25.361  34.271  1.00  0.00     0.072 A 
ATOM     24  C   UNL A   1      44.022  24.369  35.271  1.00  0.00     0.000 A 
ATOM     25  C   UNL A   1      44.264  24.954  32.954  1.00  0.00     0.029 A 
ATOM     26  C   UNL A   1      44.116  23.009  34.929  1.00  0.00     0.010 A 
ATOM     27  C   UNL A   1      44.359  23.602  32.609  1.00  0.00     0.002 A 
ATOM     28  C   UNL A   1      44.287  22.628  33.599  1.00  0.00     0.001 A 
ENDBRANCH  18  19
ENDBRANCH  17  18
ENDBRANCH  15  17
ENDBRANCH  12  13
ENDBRANCH   7  12
ENDBRANCH   3   6
ENDBRANCH   1   2
BRANCH   1  29
ATOM     29  C   UNL A   1      37.059  33.705  29.503  1.00  0.00     0.023 C 
BRANCH  29  30
ATOM     30  C   UNL A   1      35.559  33.773  29.198  1.00  0.00     0.023 C 
BRANCH  30  31
ATOM     31  C   UNL A   1      34.732  32.606  29.734  1.00  0.00     0.116 C 
BRANCH  31  32
ATOM     32  N   UNL A   1      34.031  31.874  28.690  1.00  0.00    -0.352 N 
ATOM     33  C   UNL A   1      34.462  30.791  27.958  1.00  0.00     0.251 C 
ATOM     34  H   UNL A   1      33.124  32.196  28.480  1.00  0.00     0.163 HD
ATOM     35  O   UNL A   1      33.782  30.356  27.041  1.00  0.00    -0.269 OA
BRANCH  33  36
ATOM     36  C   UNL A   1      35.778  30.191  28.267  1.00  0.00     0.039 A 
ATOM     37  C   UNL A   1      36.770  30.210  27.283  1.00  0.00     0.014 A 
ATOM     38  C   UNL A   1      36.042  29.656  29.530  1.00  0.00     0.014 A 
ATOM     39  C   UNL A   1      38.058  29.771  27.597  1.00  0.00     0.010 A 
ATOM     40  C   UNL A   1      37.339  29.268  29.856  1.00  0.00     0.010 A 
ATOM     41  C   UNL A   1      38.362  29.340  28.898  1.00  0.00    -0.014 A 
BRANCH  41  42
ATOM     42  C   UNL A   1      39.755  29.017  29.296  1.00  0.00     0.031 A 
ATOM     43  C   UNL A   1      40.607  30.044  29.983  1.00  0.00     0.074 A 
ATOM     44  C   UNL A   1      40.274  27.820  28.956  1.00  0.00     0.049 A 
ATOM     45  N   UNL A   1      41.870  29.979  30.314  1.00  0.00    -0.248 NA
ATOM     46  C   UNL A   1      39.961  31.322  30.324  1.00  0.00     0.031 C 
ATOM     47  C   UNL A   1      39.557  26.758  28.244  1.00  0.00     0.029 A 
ATOM     48  N   UNL A   1      41.530  27.301  29.146  1.00  0.00    -0.354 N 
ATOM     49  C   UNL A   1      42.176  31.205  30.891  1.00  0.00     0.074 A 
ATOM     50  C   UNL A   1      40.975  32.011  30.829  1.00  0.00     0.031 C 
ATOM     51  C   UNL A   1      40.382  25.713  28.066  1.00  0.00     0.029 A 
ATOM     52  C   UNL A   1      41.693  26.041  28.616  1.00  0.00     0.049 A 
ATOM     53  H   UNL A   1      42.247  27.784  29.617  1.00  0.00     0.167 HD
ATOM     54  C   UNL A   1      43.346  31.612  31.439  1.00  0.00     0.037 A 
ATOM     55  C   UNL A   1      42.780  25.248  28.565  1.00  0.00     0.037 A 
ATOM     56  C   UNL A   1      44.530  30.799  31.516  1.00  0.00     0.049 A 
ATOM     57  C   UNL A   1      44.069  25.730  29.170  1.00  0.00     0.074 A 
ATOM     58  C   UNL A   1      45.745  31.100  32.108  1.00  0.00     0.029 A 
ATOM     59  N   UNL A   1      44.652  29.524  30.982  1.00  0.00    -0.354 N 
ATOM     60  N   UNL A   1      44.322  26.871  29.767  1.00  0.00    -0.248 NA
ATOM     61  C   UNL A   1      45.220  24.819  29.096  1.00  0.00     0.031 C 
ATOM     62  C   UNL A   1      46.613  30.022  31.900  1.00  0.00     0.029 A 
ATOM     63  C   UNL A   1      45.928  29.034  31.212  1.00  0.00     0.049 A 
ATOM     64  H   UNL A   1      43.938  29.038  30.510  1.00  0.00     0.167 HD
ATOM     65  C   UNL A   1      45.657  26.808  30.151  1.00  0.00     0.074 A 
ATOM     66  C   UNL A   1      46.152  25.511  29.737  1.00  0.00     0.031 C 
ATOM     67  C   UNL A   1      46.405  27.741  30.789  1.00  0.00     0.037 A 
BRANCH  54  68
ATOM     68  C   UNL A   1      43.400  33.002  32.009  1.00  0.00     0.058 A 
ATOM     69  C   UNL A   1      43.757  34.105  31.217  1.00  0.00     0.135 A 
ATOM     70  C   UNL A   1      43.048  33.242  33.347  1.00  0.00     0.135 A 
ATOM     71  F   UNL A   1      44.118  33.929  29.936  1.00  0.00    -0.206 F 
ATOM     72  C   UNL A   1      43.785  35.395  31.737  1.00  0.00     0.059 A 
ATOM     73  C   UNL A   1      43.045  34.527  33.882  1.00  0.00     0.059 A 
ATOM     74  F   UNL A   1      42.700  32.222  34.147  1.00  0.00    -0.206 F 
ATOM     75  C   UNL A   1      43.427  35.595  33.071  1.00  0.00     0.060 A 
BRANCH  75  76
ATOM     76  S   UNL A   1      43.454  37.278  33.726  1.00  0.00     0.124 S 
ATOM     77  O   UNL A   1      42.153  37.354  34.384  1.00  0.00    -0.237 OA
ATOM     78  O   UNL A   1      44.612  37.250  34.613  1.00  0.00    -0.237 OA
ATOM     79  O   UNL A   1      43.603  38.104  32.532  1.00  0.00    -0.744 OA
ENDBRANCH  75  76
ENDBRANCH  54  68
BRANCH  55  80
ATOM     80  C   UNL A   1      42.695  23.912  27.920  1.00  0.00     0.058 A 
ATOM     81  C   UNL A   1      42.514  22.753  28.688  1.00  0.00     0.135 A 
ATOM     82  C   UNL A   1      42.789  23.767  26.527  1.00  0.00     0.135 A 
ATOM     83  F   UNL A   1      42.425  22.841  30.024  1.00  0.00    -0.206 F 
ATOM     84  C   UNL A   1      42.445  21.494  28.101  1.00  0.00     0.059 A 
ATOM     85  C   UNL A   1      42.700  22.521  25.915  1.00  0.00     0.059 A 
ATOM     86  F   UNL A   1      42.947  24.848  25.747  1.00  0.00    -0.206 F 
ATOM     87  C   UNL A   1      42.540  21.388  26.712  1.00  0.00     0.060 A 
BRANCH  87  88
ATOM     88  S   UNL A   1      42.406  19.754  25.955  1.00  0.00     0.124 S 
ATOM     89  O   UNL A   1      42.725  18.883  27.080  1.00  0.00    -0.237 OA
ATOM     90  O   UNL A   1      41.018  19.734  25.505  1.00  0.00    -0.237 OA
ATOM     91  O   UNL A   1      43.401  19.800  24.887  1.00  0.00    -0.744 OA
ENDBRANCH  87  88
ENDBRANCH  55  80
BRANCH  67  92
ATOM     92  C   UNL A   1      47.834  27.389  31.088  1.00  0.00     0.058 A 
ATOM     93  C   UNL A   1      48.866  27.690  30.186  1.00  0.00     0.135 A 
ATOM     94  C   UNL A   1      48.181  26.786  32.307  1.00  0.00     0.135 A 
ATOM     95  F   UNL A   1      48.584  28.259  29.003  1.00  0.00    -0.206 F 
ATOM     96  C   UNL A   1      50.193  27.387  30.475  1.00  0.00     0.059 A 
ATOM     97  C   UNL A   1      49.503  26.496  32.627  1.00  0.00     0.059 A 
ATOM     98  F   UNL A   1      47.232  26.485  33.207  1.00  0.00    -0.206 F 
ATOM     99  C   UNL A   1      50.501  26.790  31.698  1.00  0.00     0.060 A 
BRANCH  99 100
ATOM    100  S   UNL A   1      52.231  26.434  32.077  1.00  0.00     0.124 S 
ATOM    101  O   UNL A   1      52.920  27.440  31.276  1.00  0.00    -0.237 OA
ATOM    102  O   UNL A   1      52.283  26.630  33.523  1.00  0.00    -0.237 OA
ATOM    103  O   UNL A   1      52.398  25.054  31.633  1.00  0.00    -0.744 OA
ENDBRANCH  99 100
ENDBRANCH  67  92
ENDBRANCH  41  42
ENDBRANCH  33  36
ENDBRANCH  31  32
ENDBRANCH  30  31
ENDBRANCH  29  30
ENDBRANCH   1  29
TORSDOF 19
ENDMDL
MODEL 3
REMARK VINA RESULT:     -10.1      9.182     16.950
REMARK SMILES O=C(CSc1ccc2ccccc2n1)NCc1ccc(C(=O)NCCCCNC(=O)c2ccc(-c3c4nc(c(-c5c(F)cc(S(=O)(=O)[O-])cc5F)c5ccc([nH]5)c(-c5c(F)cc(S(=O)(=O)[O-])cc5F)c5nc(c(-c6c(F)cc(S(=O)(=O)[O-])cc6F)c6ccc3[nH]6)C=C5)C=C4)cc2)cc1
REMARK SMILES IDX 24 1 23 2 21 3 22 4 20 6 17 7 18 8 98 9 19 10 97 11 16 12
REMARK SMILES IDX 15 13 1 14 2 15 3 17 4 18 5 19 6 20 14 21 7 22 13 23 8 24
REMARK SMILES IDX 12 25 9 26 11 27 10 28 25 29 26 30 27 31 28 32 29 33 30 35
REMARK SMILES IDX 31 36 32 37 96 38 33 39 95 40 34 41 35 42 36 43 89 44 37 45
REMARK SMILES IDX 94 46 88 47 90 48 38 49 93 50 87 51 86 52 39 54 73 55 52 56
REMARK SMILES IDX 72 57 53 58 56 59 71 60 91 61 54 62 55 63 70 65 92 66 57 67
REMARK SMILES IDX 40 68 41 69 50 70 42 71 43 72 49 73 51 74 44 75 45 76 46 77
REMARK SMILES IDX 47 78 48 79 74 80 75 81 84 82 76 83 77 84 83 85 85 86 78 87
REMARK SMILES IDX 79 88 80 89 81 90 82 91 58 92 59 93 68 94 60 95 61 96 67 97
REMARK SMILES IDX 69 98 62 99 63 100 64 101 65 102 66 103
REMARK H PARENT 23 5 15 16 28 34 90 53 56 64
REMARK Flexibility Score: inf
ROOT
ATOM      1  C   UNL A   1      45.684  22.429  37.024  1.00  0.00     0.116 C 
ENDROOT
BRANCH   1   2
ATOM      2  N   UNL A   1      45.810  21.421  35.990  1.00  0.00    -0.352 N 
ATOM      3  C   UNL A   1      46.117  20.084  36.056  1.00  0.00     0.251 C 
ATOM      4  O   UNL A   1      46.086  19.430  35.013  1.00  0.00    -0.269 OA
ATOM      5  H   UNL A   1      45.648  21.753  35.078  1.00  0.00     0.163 HD
BRANCH   3   6
ATOM      6  C   UNL A   1      46.432  19.387  37.332  1.00  0.00     0.039 A 
ATOM      7  C   UNL A   1      46.879  17.963  39.738  1.00  0.00    -0.029 A 
ATOM      8  C   UNL A   1      45.755  17.694  38.945  1.00  0.00     0.006 A 
ATOM      9  C   UNL A   1      47.803  18.913  39.281  1.00  0.00     0.006 A 
ATOM     10  C   UNL A   1      45.534  18.399  37.758  1.00  0.00     0.014 A 
ATOM     11  C   UNL A   1      47.588  19.606  38.084  1.00  0.00     0.014 A 
BRANCH   7  12
ATOM     12  C   UNL A   1      47.108  17.165  41.000  1.00  0.00     0.151 C 
BRANCH  12  13
ATOM     13  N   UNL A   1      45.881  16.796  41.666  1.00  0.00    -0.351 N 
ATOM     14  O   UNL A   1      46.620  17.203  43.799  1.00  0.00    -0.274 OA
ATOM     15  C   UNL A   1      45.713  16.892  43.027  1.00  0.00     0.230 C 
ATOM     16  H   UNL A   1      45.132  16.462  41.122  1.00  0.00     0.163 HD
BRANCH  15  17
ATOM     17  C   UNL A   1      44.353  16.458  43.551  1.00  0.00     0.176 C 
BRANCH  17  18
ATOM     18  S   UNL A   1      43.081  16.254  42.264  1.00  0.00    -0.096 SA
BRANCH  18  19
ATOM     19  C   UNL A   1      42.741  14.520  42.466  1.00  0.00     0.097 A 
ATOM     20  C   UNL A   1      41.776  13.906  41.684  1.00  0.00     0.036 A 
ATOM     21  N   UNL A   1      43.418  13.878  43.439  1.00  0.00    -0.241 NA
ATOM     22  C   UNL A   1      41.504  12.560  41.904  1.00  0.00     0.013 A 
ATOM     23  C   UNL A   1      43.157  12.577  43.652  1.00  0.00     0.072 A 
ATOM     24  C   UNL A   1      42.194  11.867  42.904  1.00  0.00     0.000 A 
ATOM     25  C   UNL A   1      43.847  11.897  44.647  1.00  0.00     0.029 A 
ATOM     26  C   UNL A   1      41.947  10.509  43.173  1.00  0.00     0.010 A 
ATOM     27  C   UNL A   1      43.603  10.547  44.919  1.00  0.00     0.002 A 
ATOM     28  C   UNL A   1      42.650   9.853  44.182  1.00  0.00     0.001 A 
ENDBRANCH  18  19
ENDBRANCH  17  18
ENDBRANCH  15  17
ENDBRANCH  12  13
ENDBRANCH   7  12
ENDBRANCH   3   6
ENDBRANCH   1   2
BRANCH   1  29
ATOM     29  C   UNL A   1      46.151  23.793  36.514  1.00  0.00     0.023 C 
BRANCH  29  30
ATOM     30  C   UNL A   1      47.643  24.070  36.721  1.00  0.00     0.023 C 
BRANCH  30  31
ATOM     31  C   UNL A   1      48.067  25.526  36.541  1.00  0.00     0.116 C 
BRANCH  31  32
ATOM     32  N   UNL A   1      48.055  26.284  37.784  1.00  0.00    -0.352 N 
ATOM     33  C   UNL A   1      47.231  27.324  38.152  1.00  0.00     0.251 C 
ATOM     34  H   UNL A   1      48.726  26.016  38.452  1.00  0.00     0.163 HD
ATOM     35  O   UNL A   1      47.424  27.921  39.200  1.00  0.00    -0.269 OA
BRANCH  33  36
ATOM     36  C   UNL A   1      46.140  27.735  37.243  1.00  0.00     0.039 A 
ATOM     37  C   UNL A   1      44.877  27.160  37.408  1.00  0.00     0.014 A 
ATOM     38  C   UNL A   1      46.352  28.712  36.266  1.00  0.00     0.014 A 
ATOM     39  C   UNL A   1      43.803  27.630  36.649  1.00  0.00     0.010 A 
ATOM     40  C   UNL A   1      45.270  29.215  35.550  1.00  0.00     0.010 A 
ATOM     41  C   UNL A   1      43.983  28.692  35.749  1.00  0.00    -0.014 A 
BRANCH  41  42
ATOM     42  C   UNL A   1      42.830  29.311  35.048  1.00  0.00     0.031 A 
ATOM     43  C   UNL A   1      42.438  28.846  33.675  1.00  0.00     0.074 A 
ATOM     44  C   UNL A   1      42.195  30.352  35.622  1.00  0.00     0.049 A 
ATOM     45  N   UNL A   1      41.529  29.331  32.870  1.00  0.00    -0.248 NA
ATOM     46  C   UNL A   1      43.179  27.700  33.125  1.00  0.00     0.031 C 
ATOM     47  C   UNL A   1      42.518  30.924  36.931  1.00  0.00     0.029 A 
ATOM     48  N   UNL A   1      41.158  31.129  35.169  1.00  0.00    -0.354 N 
ATOM     49  C   UNL A   1      41.592  28.560  31.717  1.00  0.00     0.074 A 
ATOM     50  C   UNL A   1      42.658  27.599  31.910  1.00  0.00     0.031 C 
ATOM     51  C   UNL A   1      41.691  31.952  37.180  1.00  0.00     0.029 A 
ATOM     52  C   UNL A   1      40.804  32.138  36.035  1.00  0.00     0.049 A 
ATOM     53  H   UNL A   1      40.709  30.978  34.306  1.00  0.00     0.167 HD
ATOM     54  C   UNL A   1      40.820  28.636  30.607  1.00  0.00     0.037 A 
ATOM     55  C   UNL A   1      39.882  33.112  35.914  1.00  0.00     0.037 A 
ATOM     56  C   UNL A   1      39.748  29.579  30.429  1.00  0.00     0.049 A 
ATOM     57  C   UNL A   1      39.046  33.179  34.666  1.00  0.00     0.074 A 
ATOM     58  C   UNL A   1      38.868  29.694  29.366  1.00  0.00     0.029 A 
ATOM     59  N   UNL A   1      39.411  30.575  31.334  1.00  0.00    -0.354 N 
ATOM     60  N   UNL A   1      39.080  32.402  33.610  1.00  0.00    -0.248 NA
ATOM     61  C   UNL A   1      38.048  34.255  34.592  1.00  0.00     0.031 C 
ATOM     62  C   UNL A   1      38.022  30.781  29.611  1.00  0.00     0.029 A 
ATOM     63  C   UNL A   1      38.351  31.321  30.844  1.00  0.00     0.049 A 
ATOM     64  H   UNL A   1      39.859  30.730  32.197  1.00  0.00     0.167 HD
ATOM     65  C   UNL A   1      38.099  32.887  32.753  1.00  0.00     0.074 A 
ATOM     66  C   UNL A   1      37.477  34.011  33.421  1.00  0.00     0.031 C 
ATOM     67  C   UNL A   1      37.746  32.440  31.523  1.00  0.00     0.037 A 
BRANCH  54  68
ATOM     68  C   UNL A   1      41.099  27.661  29.497  1.00  0.00     0.058 A 
ATOM     69  C   UNL A   1      42.190  27.833  28.630  1.00  0.00     0.135 A 
ATOM     70  C   UNL A   1      40.299  26.520  29.326  1.00  0.00     0.135 A 
ATOM     71  F   UNL A   1      42.978  28.914  28.740  1.00  0.00    -0.206 F 
ATOM     72  C   UNL A   1      42.465  26.919  27.617  1.00  0.00     0.059 A 
ATOM     73  C   UNL A   1      40.569  25.581  28.335  1.00  0.00     0.059 A 
ATOM     74  F   UNL A   1      39.243  26.310  30.127  1.00  0.00    -0.206 F 
ATOM     75  C   UNL A   1      41.648  25.796  27.478  1.00  0.00     0.060 A 
BRANCH  75  76
ATOM     76  S   UNL A   1      42.027  24.613  26.168  1.00  0.00     0.124 S 
ATOM     77  O   UNL A   1      40.895  23.697  26.268  1.00  0.00    -0.237 OA
ATOM     78  O   UNL A   1      42.054  25.459  24.979  1.00  0.00    -0.237 OA
ATOM     79  O   UNL A   1      43.317  24.062  26.571  1.00  0.00    -0.744 OA
ENDBRANCH  75  76
ENDBRANCH  54  68
BRANCH  55  80
ATOM     80  C   UNL A   1      39.697  34.100  37.008  1.00  0.00     0.058 A 
ATOM     81  C   UNL A   1      40.216  35.398  36.899  1.00  0.00     0.135 A 
ATOM     82  C   UNL A   1      38.996  33.770  38.178  1.00  0.00     0.135 A 
ATOM     83  F   UNL A   1      40.898  35.758  35.801  1.00  0.00    -0.206 F 
ATOM     84  C   UNL A   1      40.061  36.332  37.919  1.00  0.00     0.059 A 
ATOM     85  C   UNL A   1      38.809  34.694  39.202  1.00  0.00     0.059 A 
ATOM     86  F   UNL A   1      38.467  32.546  38.323  1.00  0.00    -0.206 F 
ATOM     87  C   UNL A   1      39.356  35.969  39.068  1.00  0.00     0.060 A 
BRANCH  87  88
ATOM     88  S   UNL A   1      39.123  37.200  40.369  1.00  0.00     0.124 S 
ATOM     89  O   UNL A   1      38.452  38.272  39.641  1.00  0.00    -0.237 OA
ATOM     90  O   UNL A   1      38.306  36.477  41.337  1.00  0.00    -0.237 OA
ATOM     91  O   UNL A   1      40.487  37.487  40.804  1.00  0.00    -0.744 OA
ENDBRANCH  87  88
ENDBRANCH  55  80
BRANCH  67  92
ATOM     92  C   UNL A   1      36.629  33.162  30.824  1.00  0.00     0.058 A 
ATOM     93  C   UNL A   1      35.298  33.038  31.251  1.00  0.00     0.135 A 
ATOM     94  C   UNL A   1      36.897  34.020  29.746  1.00  0.00     0.135 A 
ATOM     95  F   UNL A   1      34.989  32.223  32.271  1.00  0.00    -0.206 F 
ATOM     96  C   UNL A   1      34.267  33.728  30.619  1.00  0.00     0.059 A 
ATOM     97  C   UNL A   1      35.885  34.737  29.116  1.00  0.00     0.059 A 
ATOM     98  F   UNL A   1      38.155  34.179  29.305  1.00  0.00    -0.206 F 
ATOM     99  C   UNL A   1      34.571  34.575  29.553  1.00  0.00     0.060 A 
BRANCH  99 100
ATOM    100  S   UNL A   1      33.230  35.492  28.764  1.00  0.00     0.124 S 
ATOM    101  O   UNL A   1      32.608  34.456  27.946  1.00  0.00    -0.237 OA
ATOM    102  O   UNL A   1      32.448  35.951  29.908  1.00  0.00    -0.237 OA
ATOM    103  O   UNL A   1      33.925  36.542  28.027  1.00  0.00    -0.744 OA
ENDBRANCH  99 100
ENDBRANCH  67  92
ENDBRANCH  41  42
ENDBRANCH  33  36
ENDBRANCH  31  32
ENDBRANCH  30  31
ENDBRANCH  29  30
ENDBRANCH   1  29
TORSDOF 19
ENDMDL
