MODEL 1
REMARK VINA RESULT:     -13.1      0.000      0.000
REMARK SMILES O=C(NCCCCNC(=O)C1CC[NH+]([C@H]2CC(=O)N(c3ccc4c(c3)OCCO4)C2=O)CC1)c1ccc(-c2c3nc(c(-c4c(F)cc(S(=O)(=O)[O-])cc4F)c4ccc([nH]4)c(-c4c(F)cc(S(=O)(=O)[O-])cc4F)c4nc(c(-c5c(F)cc(S(=O)(=O)[O-])cc5F)c5ccc2[nH]5)C=C4)C=C3)cc1
REMARK SMILES IDX 5 1 4 2 3 3 1 4 2 5 34 7 35 8 99 9 36 10 98 11 37 12 38 13
REMARK SMILES IDX 39 14 92 15 40 16 97 17 91 18 93 19 41 20 96 21 90 22 89 23
REMARK SMILES IDX 42 25 76 26 55 27 75 28 56 29 59 30 74 31 94 32 57 33 58 34
REMARK SMILES IDX 73 36 95 37 60 38 43 39 44 40 53 41 45 42 46 43 52 44 54 45
REMARK SMILES IDX 47 46 48 47 49 48 50 49 51 50 77 51 78 52 87 53 79 54 80 55
REMARK SMILES IDX 86 56 88 57 81 58 82 59 83 60 84 61 85 62 61 63 62 64 71 65
REMARK SMILES IDX 63 66 64 67 70 68 72 69 65 70 66 71 67 72 68 73 69 74 6 75
REMARK SMILES IDX 7 76 8 77 9 78 10 80 11 81 12 82 33 83 13 84 32 85 14 86
REMARK SMILES IDX 15 88 16 89 30 90 17 91 19 92 31 93 18 94 20 95 21 96 25 97
REMARK SMILES IDX 22 98 24 99 23 100 26 101 29 102 27 103 28 104
REMARK H PARENT 3 6 93 24 59 35 8 79 14 87
REMARK Flexibility Score: inf
ROOT
ATOM      1  C   UNL A   1      35.763  32.420  28.011  1.00  0.00     0.023 C 
ENDROOT
BRANCH   1   2
ATOM      2  C   UNL A   1      36.587  32.522  29.287  1.00  0.00     0.116 C 
BRANCH   2   3
ATOM      3  N   UNL A   1      36.079  31.699  30.375  1.00  0.00    -0.352 N 
ATOM      4  O   UNL A   1      36.016  29.874  31.711  1.00  0.00    -0.269 OA
ATOM      5  C   UNL A   1      36.610  30.523  30.858  1.00  0.00     0.251 C 
ATOM      6  H   UNL A   1      35.262  32.022  30.818  1.00  0.00     0.163 HD
BRANCH   5   7
ATOM      7  C   UNL A   1      37.891  30.040  30.298  1.00  0.00     0.039 A 
ATOM      8  C   UNL A   1      38.976  29.806  31.144  1.00  0.00     0.014 A 
ATOM      9  C   UNL A   1      38.026  29.889  28.915  1.00  0.00     0.014 A 
ATOM     10  C   UNL A   1      40.232  29.580  30.599  1.00  0.00     0.010 A 
ATOM     11  C   UNL A   1      39.276  29.566  28.375  1.00  0.00     0.010 A 
ATOM     12  C   UNL A   1      40.397  29.443  29.209  1.00  0.00    -0.014 A 
BRANCH  12  13
ATOM     13  C   UNL A   1      41.746  29.108  28.683  1.00  0.00     0.031 A 
ATOM     14  C   UNL A   1      42.858  30.122  28.658  1.00  0.00     0.074 A 
ATOM     15  C   UNL A   1      41.973  27.840  28.290  1.00  0.00     0.049 A 
ATOM     16  N   UNL A   1      44.105  29.960  28.292  1.00  0.00    -0.248 NA
ATOM     17  C   UNL A   1      42.533  31.492  29.085  1.00  0.00     0.031 C 
ATOM     18  C   UNL A   1      40.961  26.780  28.248  1.00  0.00     0.029 A 
ATOM     19  N   UNL A   1      43.123  27.215  27.884  1.00  0.00    -0.354 N 
ATOM     20  C   UNL A   1      44.712  31.202  28.435  1.00  0.00     0.074 A 
ATOM     21  C   UNL A   1      43.689  32.118  28.894  1.00  0.00     0.031 C 
ATOM     22  C   UNL A   1      41.545  25.626  27.896  1.00  0.00     0.029 A 
ATOM     23  C   UNL A   1      42.956  25.874  27.630  1.00  0.00     0.049 A 
ATOM     24  H   UNL A   1      43.985  27.680  27.783  1.00  0.00     0.167 HD
ATOM     25  C   UNL A   1      46.006  31.542  28.215  1.00  0.00     0.037 A 
ATOM     26  C   UNL A   1      43.837  24.944  27.218  1.00  0.00     0.037 A 
ATOM     27  C   UNL A   1      47.021  30.620  27.766  1.00  0.00     0.049 A 
ATOM     28  C   UNL A   1      45.266  25.346  26.997  1.00  0.00     0.074 A 
ATOM     29  C   UNL A   1      48.360  30.867  27.512  1.00  0.00     0.029 A 
ATOM     30  N   UNL A   1      46.812  29.273  27.509  1.00  0.00    -0.354 N 
ATOM     31  N   UNL A   1      45.819  26.526  27.147  1.00  0.00    -0.248 NA
ATOM     32  C   UNL A   1      46.188  24.294  26.552  1.00  0.00     0.031 C 
ATOM     33  C   UNL A   1      48.953  29.677  27.075  1.00  0.00     0.029 A 
ATOM     34  C   UNL A   1      47.993  28.678  27.095  1.00  0.00     0.049 A 
ATOM     35  H   UNL A   1      45.950  28.807  27.607  1.00  0.00     0.167 HD
ATOM     36  C   UNL A   1      47.157  26.359  26.811  1.00  0.00     0.074 A 
ATOM     37  C   UNL A   1      47.334  24.957  26.487  1.00  0.00     0.031 C 
ATOM     38  C   UNL A   1      48.147  27.284  26.764  1.00  0.00     0.037 A 
BRANCH  25  39
ATOM     39  C   UNL A   1      46.407  32.973  28.454  1.00  0.00     0.058 A 
ATOM     40  C   UNL A   1      46.891  33.402  29.699  1.00  0.00     0.135 A 
ATOM     41  C   UNL A   1      46.366  33.913  27.411  1.00  0.00     0.135 A 
ATOM     42  F   UNL A   1      46.939  32.550  30.735  1.00  0.00    -0.206 F 
ATOM     43  C   UNL A   1      47.304  34.714  29.908  1.00  0.00     0.059 A 
ATOM     44  C   UNL A   1      46.795  35.227  27.590  1.00  0.00     0.059 A 
ATOM     45  F   UNL A   1      45.912  33.558  26.198  1.00  0.00    -0.206 F 
ATOM     46  C   UNL A   1      47.253  35.621  28.847  1.00  0.00     0.060 A 
BRANCH  46  47
ATOM     47  S   UNL A   1      47.806  37.316  29.130  1.00  0.00     0.124 S 
ATOM     48  O   UNL A   1      48.146  37.740  27.775  1.00  0.00    -0.237 OA
ATOM     49  O   UNL A   1      46.621  37.941  29.709  1.00  0.00    -0.237 OA
ATOM     50  O   UNL A   1      48.936  37.158  30.039  1.00  0.00    -0.744 OA
ENDBRANCH  46  47
ENDBRANCH  25  39
BRANCH  26  51
ATOM     51  C   UNL A   1      43.378  23.552  26.977  1.00  0.00     0.058 A 
ATOM     52  C   UNL A   1      43.106  22.679  28.039  1.00  0.00     0.135 A 
ATOM     53  C   UNL A   1      43.174  23.080  25.671  1.00  0.00     0.135 A 
ATOM     54  F   UNL A   1      43.286  23.086  29.306  1.00  0.00    -0.206 F 
ATOM     55  C   UNL A   1      42.664  21.380  27.816  1.00  0.00     0.059 A 
ATOM     56  C   UNL A   1      42.706  21.795  25.423  1.00  0.00     0.059 A 
ATOM     57  F   UNL A   1      43.399  23.886  24.621  1.00  0.00    -0.206 F 
ATOM     58  C   UNL A   1      42.466  20.948  26.504  1.00  0.00     0.060 A 
BRANCH  58  59
ATOM     59  S   UNL A   1      41.846  19.277  26.217  1.00  0.00     0.124 S 
ATOM     60  O   UNL A   1      42.231  18.607  27.453  1.00  0.00    -0.237 OA
ATOM     61  O   UNL A   1      40.415  19.504  26.032  1.00  0.00    -0.237 OA
ATOM     62  O   UNL A   1      42.563  18.857  25.017  1.00  0.00    -0.744 OA
ENDBRANCH  58  59
ENDBRANCH  26  51
BRANCH  38  63
ATOM     63  C   UNL A   1      49.506  26.797  26.351  1.00  0.00     0.058 A 
ATOM     64  C   UNL A   1      49.952  26.909  25.025  1.00  0.00     0.135 A 
ATOM     65  C   UNL A   1      50.372  26.213  27.290  1.00  0.00     0.135 A 
ATOM     66  F   UNL A   1      49.157  27.453  24.089  1.00  0.00    -0.206 F 
ATOM     67  C   UNL A   1      51.196  26.427  24.634  1.00  0.00     0.059 A 
ATOM     68  C   UNL A   1      51.630  25.746  26.926  1.00  0.00     0.059 A 
ATOM     69  F   UNL A   1      49.995  26.091  28.572  1.00  0.00    -0.206 F 
ATOM     70  C   UNL A   1      52.026  25.840  25.592  1.00  0.00     0.060 A 
BRANCH  70  71
ATOM     71  S   UNL A   1      53.638  25.214  25.076  1.00  0.00     0.124 S 
ATOM     72  O   UNL A   1      53.653  25.574  23.663  1.00  0.00    -0.237 OA
ATOM     73  O   UNL A   1      54.555  25.962  25.931  1.00  0.00    -0.237 OA
ATOM     74  O   UNL A   1      53.552  23.784  25.361  1.00  0.00    -0.744 OA
ENDBRANCH  70  71
ENDBRANCH  38  63
ENDBRANCH  12  13
ENDBRANCH   5   7
ENDBRANCH   2   3
ENDBRANCH   1   2
BRANCH   1  75
ATOM     75  C   UNL A   1      34.370  31.821  28.185  1.00  0.00     0.023 C 
BRANCH  75  76
ATOM     76  C   UNL A   1      34.157  30.485  27.476  1.00  0.00     0.116 C 
BRANCH  76  77
ATOM     77  N   UNL A   1      33.204  30.577  26.379  1.00  0.00    -0.356 N 
ATOM     78  C   UNL A   1      32.470  29.585  25.787  1.00  0.00     0.223 C 
ATOM     79  H   UNL A   1      33.067  31.480  26.012  1.00  0.00     0.163 HD
ATOM     80  O   UNL A   1      31.687  29.867  24.883  1.00  0.00    -0.275 OA
BRANCH  78  81
ATOM     81  C   UNL A   1      32.642  28.168  26.311  1.00  0.00     0.089 C 
ATOM     82  C   UNL A   1      33.800  27.421  25.621  1.00  0.00     0.075 C 
ATOM     83  C   UNL A   1      31.274  27.457  26.298  1.00  0.00     0.075 C 
ATOM     84  C   UNL A   1      33.377  26.420  24.551  1.00  0.00     0.263 C 
ATOM     85  C   UNL A   1      31.071  26.465  25.162  1.00  0.00     0.263 C 
ATOM     86  N   UNL A   1      32.217  25.602  24.914  1.00  0.00    -0.324 N 
ATOM     87  H   UNL A   1      31.945  25.027  24.116  1.00  0.00     0.348 HD
BRANCH  86  88
ATOM     88  C   UNL A   1      32.492  24.490  25.851  1.00  0.00     0.284 C 
ATOM     89  C   UNL A   1      31.355  23.863  26.643  1.00  0.00     0.176 C 
ATOM     90  C   UNL A   1      33.097  23.272  25.144  1.00  0.00     0.292 C 
ATOM     91  C   UNL A   1      31.069  22.580  25.931  1.00  0.00     0.240 C 
ATOM     92  N   UNL A   1      32.170  22.251  25.183  1.00  0.00    -0.245 N 
ATOM     93  O   UNL A   1      34.205  23.252  24.621  1.00  0.00    -0.267 OA
ATOM     94  O   UNL A   1      30.050  21.930  26.128  1.00  0.00    -0.274 OA
BRANCH  92  95
ATOM     95  C   UNL A   1      32.364  20.958  24.643  1.00  0.00     0.056 A 
ATOM     96  C   UNL A   1      32.139  20.731  23.279  1.00  0.00     0.031 A 
ATOM     97  C   UNL A   1      32.869  19.916  25.433  1.00  0.00     0.077 A 
ATOM     98  C   UNL A   1      32.467  19.501  22.702  1.00  0.00     0.052 A 
ATOM     99  C   UNL A   1      33.143  18.670  24.865  1.00  0.00     0.163 A 
ATOM    100  C   UNL A   1      32.953  18.468  23.497  1.00  0.00     0.161 A 
ATOM    101  O   UNL A   1      33.584  17.690  25.717  1.00  0.00    -0.486 OA
ATOM    102  O   UNL A   1      33.233  17.284  22.865  1.00  0.00    -0.486 OA
ATOM    103  C   UNL A   1      34.136  16.574  25.011  1.00  0.00     0.271 C 
ATOM    104  C   UNL A   1      33.293  16.205  23.802  1.00  0.00     0.271 C 
ENDBRANCH  92  95
ENDBRANCH  86  88
ENDBRANCH  78  81
ENDBRANCH  76  77
ENDBRANCH  75  76
ENDBRANCH   1  75
TORSDOF 16
ENDMDL
MODEL 2
REMARK VINA RESULT:     -12.9      6.268     11.996
REMARK SMILES O=C(NCCCCNC(=O)C1CC[NH+]([C@H]2CC(=O)N(c3ccc4c(c3)OCCO4)C2=O)CC1)c1ccc(-c2c3nc(c(-c4c(F)cc(S(=O)(=O)[O-])cc4F)c4ccc([nH]4)c(-c4c(F)cc(S(=O)(=O)[O-])cc4F)c4nc(c(-c5c(F)cc(S(=O)(=O)[O-])cc5F)c5ccc2[nH]5)C=C4)C=C3)cc1
REMARK SMILES IDX 5 1 4 2 3 3 1 4 2 5 34 7 35 8 99 9 36 10 98 11 37 12 38 13
REMARK SMILES IDX 39 14 92 15 40 16 97 17 91 18 93 19 41 20 96 21 90 22 89 23
REMARK SMILES IDX 42 25 76 26 55 27 75 28 56 29 59 30 74 31 94 32 57 33 58 34
REMARK SMILES IDX 73 36 95 37 60 38 43 39 44 40 53 41 45 42 46 43 52 44 54 45
REMARK SMILES IDX 47 46 48 47 49 48 50 49 51 50 77 51 78 52 87 53 79 54 80 55
REMARK SMILES IDX 86 56 88 57 81 58 82 59 83 60 84 61 85 62 61 63 62 64 71 65
REMARK SMILES IDX 63 66 64 67 70 68 72 69 65 70 66 71 67 72 68 73 69 74 6 75
REMARK SMILES IDX 7 76 8 77 9 78 10 80 11 81 12 82 33 83 13 84 32 85 14 86
REMARK SMILES IDX 15 88 16 89 30 90 17 91 19 92 31 93 18 94 20 95 21 96 25 97
REMARK SMILES IDX 22 98 24 99 23 100 26 101 29 102 27 103 28 104
REMARK H PARENT 3 6 93 24 59 35 8 79 14 87
REMARK Flexibility Score: inf
ROOT
ATOM      1  C   UNL A   1      39.359  22.951  26.535  1.00  0.00     0.023 C 
ENDROOT
BRANCH   1   2
ATOM      2  C   UNL A   1      40.699  23.556  26.928  1.00  0.00     0.116 C 
BRANCH   2   3
ATOM      3  N   UNL A   1      41.327  24.322  25.862  1.00  0.00    -0.352 N 
ATOM      4  O   UNL A   1      42.155  26.191  24.891  1.00  0.00    -0.269 OA
ATOM      5  C   UNL A   1      41.739  25.637  25.901  1.00  0.00     0.251 C 
ATOM      6  H   UNL A   1      41.476  23.845  25.014  1.00  0.00     0.163 HD
BRANCH   5   7
ATOM      7  C   UNL A   1      41.631  26.376  27.179  1.00  0.00     0.039 A 
ATOM      8  C   UNL A   1      40.626  26.048  28.090  1.00  0.00     0.014 A 
ATOM      9  C   UNL A   1      42.495  27.445  27.432  1.00  0.00     0.014 A 
ATOM     10  C   UNL A   1      40.384  26.885  29.171  1.00  0.00     0.010 A 
ATOM     11  C   UNL A   1      42.306  28.231  28.574  1.00  0.00     0.010 A 
ATOM     12  C   UNL A   1      41.228  27.978  29.435  1.00  0.00    -0.014 A 
BRANCH  12  13
ATOM     13  C   UNL A   1      40.980  28.787  30.657  1.00  0.00     0.031 A 
ATOM     14  C   UNL A   1      41.868  28.681  31.867  1.00  0.00     0.074 A 
ATOM     15  C   UNL A   1      39.971  29.679  30.630  1.00  0.00     0.049 A 
ATOM     16  N   UNL A   1      41.819  29.369  32.981  1.00  0.00    -0.248 NA
ATOM     17  C   UNL A   1      42.939  27.674  31.833  1.00  0.00     0.031 C 
ATOM     18  C   UNL A   1      39.030  29.849  29.518  1.00  0.00     0.029 A 
ATOM     19  N   UNL A   1      39.584  30.630  31.538  1.00  0.00    -0.354 N 
ATOM     20  C   UNL A   1      42.842  28.876  33.782  1.00  0.00     0.074 A 
ATOM     21  C   UNL A   1      43.478  27.809  33.039  1.00  0.00     0.031 C 
ATOM     22  C   UNL A   1      38.214  30.878  29.784  1.00  0.00     0.029 A 
ATOM     23  C   UNL A   1      38.533  31.403  31.105  1.00  0.00     0.049 A 
ATOM     24  H   UNL A   1      40.016  30.748  32.414  1.00  0.00     0.167 HD
ATOM     25  C   UNL A   1      43.220  29.285  35.019  1.00  0.00     0.037 A 
ATOM     26  C   UNL A   1      37.886  32.418  31.707  1.00  0.00     0.037 A 
ATOM     27  C   UNL A   1      42.585  30.356  35.747  1.00  0.00     0.049 A 
ATOM     28  C   UNL A   1      38.336  32.859  33.069  1.00  0.00     0.074 A 
ATOM     29  C   UNL A   1      42.894  30.845  37.006  1.00  0.00     0.029 A 
ATOM     30  N   UNL A   1      41.517  31.109  35.282  1.00  0.00    -0.354 N 
ATOM     31  N   UNL A   1      39.312  32.383  33.805  1.00  0.00    -0.248 NA
ATOM     32  C   UNL A   1      37.601  33.972  33.681  1.00  0.00     0.031 C 
ATOM     33  C   UNL A   1      41.994  31.873  37.312  1.00  0.00     0.029 A 
ATOM     34  C   UNL A   1      41.150  32.053  36.228  1.00  0.00     0.049 A 
ATOM     35  H   UNL A   1      41.082  30.991  34.406  1.00  0.00     0.167 HD
ATOM     36  C   UNL A   1      39.306  33.138  34.971  1.00  0.00     0.074 A 
ATOM     37  C   UNL A   1      38.254  34.125  34.824  1.00  0.00     0.031 C 
ATOM     38  C   UNL A   1      40.093  33.018  36.069  1.00  0.00     0.037 A 
BRANCH  25  39
ATOM     39  C   UNL A   1      44.376  28.575  35.671  1.00  0.00     0.058 A 
ATOM     40  C   UNL A   1      44.180  27.458  36.498  1.00  0.00     0.135 A 
ATOM     41  C   UNL A   1      45.698  28.975  35.417  1.00  0.00     0.135 A 
ATOM     42  F   UNL A   1      42.937  27.040  36.786  1.00  0.00    -0.206 F 
ATOM     43  C   UNL A   1      45.251  26.774  37.065  1.00  0.00     0.059 A 
ATOM     44  C   UNL A   1      46.787  28.292  35.956  1.00  0.00     0.059 A 
ATOM     45  F   UNL A   1      45.945  30.036  34.633  1.00  0.00    -0.206 F 
ATOM     46  C   UNL A   1      46.552  27.198  36.788  1.00  0.00     0.060 A 
BRANCH  46  47
ATOM     47  S   UNL A   1      47.931  26.290  37.519  1.00  0.00     0.124 S 
ATOM     48  O   UNL A   1      47.831  25.007  36.831  1.00  0.00    -0.237 OA
ATOM     49  O   UNL A   1      49.079  27.115  37.154  1.00  0.00    -0.237 OA
ATOM     50  O   UNL A   1      47.607  26.266  38.942  1.00  0.00    -0.744 OA
ENDBRANCH  46  47
ENDBRANCH  25  39
BRANCH  26  51
ATOM     51  C   UNL A   1      36.737  33.066  31.024  1.00  0.00     0.058 A 
ATOM     52  C   UNL A   1      35.421  32.862  31.460  1.00  0.00     0.135 A 
ATOM     53  C   UNL A   1      36.942  33.930  29.938  1.00  0.00     0.135 A 
ATOM     54  F   UNL A   1      35.175  32.044  32.495  1.00  0.00    -0.206 F 
ATOM     55  C   UNL A   1      34.344  33.478  30.830  1.00  0.00     0.059 A 
ATOM     56  C   UNL A   1      35.886  34.579  29.310  1.00  0.00     0.059 A 
ATOM     57  F   UNL A   1      38.188  34.175  29.499  1.00  0.00    -0.206 F 
ATOM     58  C   UNL A   1      34.588  34.336  29.756  1.00  0.00     0.060 A 
BRANCH  58  59
ATOM     59  S   UNL A   1      33.194  35.172  28.971  1.00  0.00     0.124 S 
ATOM     60  O   UNL A   1      32.757  34.169  28.008  1.00  0.00    -0.237 OA
ATOM     61  O   UNL A   1      32.297  35.408  30.099  1.00  0.00    -0.237 OA
ATOM     62  O   UNL A   1      33.802  36.372  28.405  1.00  0.00    -0.744 OA
ENDBRANCH  58  59
ENDBRANCH  26  51
BRANCH  38  63
ATOM     63  C   UNL A   1      39.839  33.987  37.189  1.00  0.00     0.058 A 
ATOM     64  C   UNL A   1      40.389  35.278  37.177  1.00  0.00     0.135 A 
ATOM     65  C   UNL A   1      39.038  33.622  38.282  1.00  0.00     0.135 A 
ATOM     66  F   UNL A   1      41.168  35.671  36.157  1.00  0.00    -0.206 F 
ATOM     67  C   UNL A   1      40.183  36.163  38.229  1.00  0.00     0.059 A 
ATOM     68  C   UNL A   1      38.800  34.500  39.334  1.00  0.00     0.059 A 
ATOM     69  F   UNL A   1      38.483  32.401  38.335  1.00  0.00    -0.206 F 
ATOM     70  C   UNL A   1      39.392  35.762  39.307  1.00  0.00     0.060 A 
BRANCH  70  71
ATOM     71  S   UNL A   1      39.132  36.917  40.670  1.00  0.00     0.124 S 
ATOM     72  O   UNL A   1      38.454  36.070  41.645  1.00  0.00    -0.237 OA
ATOM     73  O   UNL A   1      40.495  37.311  41.013  1.00  0.00    -0.237 OA
ATOM     74  O   UNL A   1      38.315  37.968  40.071  1.00  0.00    -0.744 OA
ENDBRANCH  70  71
ENDBRANCH  38  63
ENDBRANCH  12  13
ENDBRANCH   5   7
ENDBRANCH   2   3
ENDBRANCH   1   2
BRANCH   1  75
ATOM     75  C   UNL A   1      38.203  23.944  26.438  1.00  0.00     0.023 C 
BRANCH  75  76
ATOM     76  C   UNL A   1      36.889  23.345  25.941  1.00  0.00     0.116 C 
BRANCH  76  77
ATOM     77  N   UNL A   1      36.922  23.020  24.522  1.00  0.00    -0.356 N 
ATOM     78  C   UNL A   1      35.955  23.207  23.570  1.00  0.00     0.223 C 
ATOM     79  H   UNL A   1      37.756  22.608  24.201  1.00  0.00     0.163 HD
ATOM     80  O   UNL A   1      36.184  22.891  22.405  1.00  0.00    -0.275 OA
BRANCH  78  81
ATOM     81  C   UNL A   1      34.643  23.837  24.008  1.00  0.00     0.089 C 
ATOM     82  C   UNL A   1      33.546  22.788  24.273  1.00  0.00     0.075 C 
ATOM     83  C   UNL A   1      34.276  24.969  23.028  1.00  0.00     0.075 C 
ATOM     84  C   UNL A   1      32.509  22.644  23.163  1.00  0.00     0.263 C 
ATOM     85  C   UNL A   1      33.186  24.627  22.023  1.00  0.00     0.263 C 
ATOM     86  N   UNL A   1      32.052  23.915  22.595  1.00  0.00    -0.324 N 
ATOM     87  H   UNL A   1      31.433  23.730  21.805  1.00  0.00     0.348 HD
BRANCH  86  88
ATOM     88  C   UNL A   1      31.076  24.664  23.416  1.00  0.00     0.284 C 
ATOM     89  C   UNL A   1      30.760  24.205  24.830  1.00  0.00     0.176 C 
ATOM     90  C   UNL A   1      31.502  26.119  23.641  1.00  0.00     0.292 C 
ATOM     91  C   UNL A   1      31.521  25.146  25.707  1.00  0.00     0.240 C 
ATOM     92  N   UNL A   1      31.807  26.273  24.979  1.00  0.00    -0.245 N 
ATOM     93  O   UNL A   1      31.578  26.966  22.759  1.00  0.00    -0.267 OA
ATOM     94  O   UNL A   1      31.714  24.930  26.897  1.00  0.00    -0.274 OA
BRANCH  92  95
ATOM     95  C   UNL A   1      32.231  27.480  25.580  1.00  0.00     0.056 A 
ATOM     96  C   UNL A   1      31.310  28.515  25.792  1.00  0.00     0.031 A 
ATOM     97  C   UNL A   1      33.542  27.628  26.056  1.00  0.00     0.077 A 
ATOM     98  C   UNL A   1      31.676  29.652  26.516  1.00  0.00     0.052 A 
ATOM     99  C   UNL A   1      33.920  28.790  26.731  1.00  0.00     0.163 A 
ATOM    100  C   UNL A   1      32.983  29.796  26.971  1.00  0.00     0.161 A 
ATOM    101  O   UNL A   1      35.234  28.876  27.116  1.00  0.00    -0.486 OA
ATOM    102  O   UNL A   1      33.274  30.947  27.655  1.00  0.00    -0.486 OA
ATOM    103  C   UNL A   1      35.447  29.929  28.063  1.00  0.00     0.271 C 
ATOM    104  C   UNL A   1      34.684  31.186  27.681  1.00  0.00     0.271 C 
ENDBRANCH  92  95
ENDBRANCH  86  88
ENDBRANCH  78  81
ENDBRANCH  76  77
ENDBRANCH  75  76
ENDBRANCH   1  75
TORSDOF 16
ENDMDL
MODEL 3
REMARK VINA RESULT:     -12.8      6.101      8.242
REMARK SMILES O=C(NCCCCNC(=O)C1CC[NH+]([C@H]2CC(=O)N(c3ccc4c(c3)OCCO4)C2=O)CC1)c1ccc(-c2c3nc(c(-c4c(F)cc(S(=O)(=O)[O-])cc4F)c4ccc([nH]4)c(-c4c(F)cc(S(=O)(=O)[O-])cc4F)c4nc(c(-c5c(F)cc(S(=O)(=O)[O-])cc5F)c5ccc2[nH]5)C=C4)C=C3)cc1
REMARK SMILES IDX 5 1 4 2 3 3 1 4 2 5 34 7 35 8 99 9 36 10 98 11 37 12 38 13
REMARK SMILES IDX 39 14 92 15 40 16 97 17 91 18 93 19 41 20 96 21 90 22 89 23
REMARK SMILES IDX 42 25 76 26 55 27 75 28 56 29 59 30 74 31 94 32 57 33 58 34
REMARK SMILES IDX 73 36 95 37 60 38 43 39 44 40 53 41 45 42 46 43 52 44 54 45
REMARK SMILES IDX 47 46 48 47 49 48 50 49 51 50 77 51 78 52 87 53 79 54 80 55
REMARK SMILES IDX 86 56 88 57 81 58 82 59 83 60 84 61 85 62 61 63 62 64 71 65
REMARK SMILES IDX 63 66 64 67 70 68 72 69 65 70 66 71 67 72 68 73 69 74 6 75
REMARK SMILES IDX 7 76 8 77 9 78 10 80 11 81 12 82 33 83 13 84 32 85 14 86
REMARK SMILES IDX 15 88 16 89 30 90 17 91 19 92 31 93 18 94 20 95 21 96 25 97
REMARK SMILES IDX 22 98 24 99 23 100 26 101 29 102 27 103 28 104
REMARK H PARENT 3 6 93 24 59 35 8 79 14 87
REMARK Flexibility Score: inf
ROOT
ATOM      1  C   UNL A   1      31.825  31.974  26.949  1.00  0.00     0.023 C 
ENDROOT
BRANCH   1   2
ATOM      2  C   UNL A   1      32.969  32.829  27.475  1.00  0.00     0.116 C 
BRANCH   2   3
ATOM      3  N   UNL A   1      32.586  34.203  27.760  1.00  0.00    -0.352 N 
ATOM      4  O   UNL A   1      32.617  36.144  28.922  1.00  0.00    -0.269 OA
ATOM      5  C   UNL A   1      33.112  35.042  28.718  1.00  0.00     0.251 C 
ATOM      6  H   UNL A   1      31.866  34.578  27.201  1.00  0.00     0.163 HD
BRANCH   5   7
ATOM      7  C   UNL A   1      34.261  34.569  29.521  1.00  0.00     0.039 A 
ATOM      8  C   UNL A   1      35.550  34.622  28.988  1.00  0.00     0.014 A 
ATOM      9  C   UNL A   1      34.038  34.007  30.781  1.00  0.00     0.014 A 
ATOM     10  C   UNL A   1      36.587  33.971  29.642  1.00  0.00     0.010 A 
ATOM     11  C   UNL A   1      35.106  33.434  31.481  1.00  0.00     0.010 A 
ATOM     12  C   UNL A   1      36.382  33.381  30.902  1.00  0.00    -0.014 A 
BRANCH  12  13
ATOM     13  C   UNL A   1      37.547  32.779  31.602  1.00  0.00     0.031 A 
ATOM     14  C   UNL A   1      38.012  33.284  32.941  1.00  0.00     0.074 A 
ATOM     15  C   UNL A   1      38.142  31.711  31.034  1.00  0.00     0.049 A 
ATOM     16  N   UNL A   1      38.969  32.818  33.704  1.00  0.00    -0.248 NA
ATOM     17  C   UNL A   1      37.329  34.464  33.492  1.00  0.00     0.031 C 
ATOM     18  C   UNL A   1      37.790  31.151  29.725  1.00  0.00     0.029 A 
ATOM     19  N   UNL A   1      39.136  30.886  31.489  1.00  0.00    -0.354 N 
ATOM     20  C   UNL A   1      39.010  33.648  34.818  1.00  0.00     0.074 A 
ATOM     21  C   UNL A   1      38.001  34.667  34.619  1.00  0.00     0.031 C 
ATOM     22  C   UNL A   1      38.513  30.045  29.510  1.00  0.00     0.029 A 
ATOM     23  C   UNL A   1      39.421  29.849  30.633  1.00  0.00     0.049 A 
ATOM     24  H   UNL A   1      39.602  31.022  32.346  1.00  0.00     0.167 HD
ATOM     25  C   UNL A   1      39.810  33.560  35.910  1.00  0.00     0.037 A 
ATOM     26  C   UNL A   1      40.320  28.853  30.732  1.00  0.00     0.037 A 
ATOM     27  C   UNL A   1      40.807  32.536  36.103  1.00  0.00     0.049 A 
ATOM     28  C   UNL A   1      41.181  28.771  31.958  1.00  0.00     0.074 A 
ATOM     29  C   UNL A   1      41.668  32.361  37.174  1.00  0.00     0.029 A 
ATOM     30  N   UNL A   1      41.075  31.509  35.209  1.00  0.00    -0.354 N 
ATOM     31  N   UNL A   1      41.197  29.564  33.004  1.00  0.00    -0.248 NA
ATOM     32  C   UNL A   1      42.144  27.665  32.020  1.00  0.00     0.031 C 
ATOM     33  C   UNL A   1      42.474  31.246  36.914  1.00  0.00     0.029 A 
ATOM     34  C   UNL A   1      42.089  30.702  35.700  1.00  0.00     0.049 A 
ATOM     35  H   UNL A   1      40.611  31.373  34.351  1.00  0.00     0.167 HD
ATOM     36  C   UNL A   1      42.174  29.052  33.848  1.00  0.00     0.074 A 
ATOM     37  C   UNL A   1      42.699  27.862  33.207  1.00  0.00     0.031 C 
ATOM     38  C   UNL A   1      42.606  29.530  35.041  1.00  0.00     0.037 A 
BRANCH  25  39
ATOM     39  C   UNL A   1      39.645  34.598  36.987  1.00  0.00     0.058 A 
ATOM     40  C   UNL A   1      38.861  34.357  38.126  1.00  0.00     0.135 A 
ATOM     41  C   UNL A   1      40.325  35.824  36.911  1.00  0.00     0.135 A 
ATOM     42  F   UNL A   1      38.178  33.208  38.245  1.00  0.00    -0.206 F 
ATOM     43  C   UNL A   1      38.745  35.298  39.144  1.00  0.00     0.059 A 
ATOM     44  C   UNL A   1      40.241  36.774  37.928  1.00  0.00     0.059 A 
ATOM     45  F   UNL A   1      41.090  36.109  35.845  1.00  0.00    -0.206 F 
ATOM     46  C   UNL A   1      39.439  36.505  39.036  1.00  0.00     0.060 A 
BRANCH  46  47
ATOM     47  S   UNL A   1      39.289  37.711  40.372  1.00  0.00     0.124 S 
ATOM     48  O   UNL A   1      39.013  36.846  41.514  1.00  0.00    -0.237 OA
ATOM     49  O   UNL A   1      40.601  38.351  40.366  1.00  0.00    -0.237 OA
ATOM     50  O   UNL A   1      38.179  38.557  39.944  1.00  0.00    -0.744 OA
ENDBRANCH  46  47
ENDBRANCH  25  39
BRANCH  26  51
ATOM     51  C   UNL A   1      40.454  27.870  29.626  1.00  0.00     0.058 A 
ATOM     52  C   UNL A   1      39.598  26.765  29.524  1.00  0.00     0.135 A 
ATOM     53  C   UNL A   1      41.428  28.039  28.630  1.00  0.00     0.135 A 
ATOM     54  F   UNL A   1      38.650  26.562  30.453  1.00  0.00    -0.206 F 
ATOM     55  C   UNL A   1      39.712  25.851  28.483  1.00  0.00     0.059 A 
ATOM     56  C   UNL A   1      41.544  27.155  27.563  1.00  0.00     0.059 A 
ATOM     57  F   UNL A   1      42.257  29.095  28.671  1.00  0.00    -0.206 F 
ATOM     58  C   UNL A   1      40.689  26.056  27.506  1.00  0.00     0.060 A 
BRANCH  58  59
ATOM     59  S   UNL A   1      40.806  24.895  26.128  1.00  0.00     0.124 S 
ATOM     60  O   UNL A   1      39.423  24.447  26.008  1.00  0.00    -0.237 OA
ATOM     61  O   UNL A   1      41.298  25.745  25.048  1.00  0.00    -0.237 OA
ATOM     62  O   UNL A   1      41.756  23.899  26.611  1.00  0.00    -0.744 OA
ENDBRANCH  58  59
ENDBRANCH  26  51
BRANCH  38  63
ATOM     63  C   UNL A   1      43.696  28.753  35.723  1.00  0.00     0.058 A 
ATOM     64  C   UNL A   1      43.403  27.698  36.601  1.00  0.00     0.135 A 
ATOM     65  C   UNL A   1      45.046  29.066  35.496  1.00  0.00     0.135 A 
ATOM     66  F   UNL A   1      42.128  27.366  36.856  1.00  0.00    -0.206 F 
ATOM     67  C   UNL A   1      44.411  27.001  37.259  1.00  0.00     0.059 A 
ATOM     68  C   UNL A   1      46.070  28.367  36.125  1.00  0.00     0.059 A 
ATOM     69  F   UNL A   1      45.377  30.061  34.658  1.00  0.00    -0.206 F 
ATOM     70  C   UNL A   1      45.742  27.348  37.020  1.00  0.00     0.060 A 
BRANCH  70  71
ATOM     71  S   UNL A   1      47.043  26.441  37.881  1.00  0.00     0.124 S 
ATOM     72  O   UNL A   1      46.269  25.650  38.830  1.00  0.00    -0.237 OA
ATOM     73  O   UNL A   1      47.675  25.692  36.798  1.00  0.00    -0.237 OA
ATOM     74  O   UNL A   1      47.864  27.499  38.463  1.00  0.00    -0.744 OA
ENDBRANCH  70  71
ENDBRANCH  38  63
ENDBRANCH  12  13
ENDBRANCH   5   7
ENDBRANCH   2   3
ENDBRANCH   1   2
BRANCH   1  75
ATOM     75  C   UNL A   1      32.126  30.481  26.844  1.00  0.00     0.023 C 
BRANCH  75  76
ATOM     76  C   UNL A   1      32.349  29.975  25.421  1.00  0.00     0.116 C 
BRANCH  76  77
ATOM     77  N   UNL A   1      31.129  29.473  24.805  1.00  0.00    -0.356 N 
ATOM     78  C   UNL A   1      30.885  28.250  24.242  1.00  0.00     0.223 C 
ATOM     79  H   UNL A   1      30.372  30.103  24.792  1.00  0.00     0.163 HD
ATOM     80  O   UNL A   1      29.768  28.000  23.794  1.00  0.00    -0.275 OA
BRANCH  78  81
ATOM     81  C   UNL A   1      32.018  27.237  24.230  1.00  0.00     0.089 C 
ATOM     82  C   UNL A   1      31.957  26.298  23.010  1.00  0.00     0.075 C 
ATOM     83  C   UNL A   1      32.096  26.552  25.609  1.00  0.00     0.075 C 
ATOM     84  C   UNL A   1      31.407  24.904  23.294  1.00  0.00     0.263 C 
ATOM     85  C   UNL A   1      31.522  25.143  25.665  1.00  0.00     0.263 C 
ATOM     86  N   UNL A   1      31.898  24.303  24.537  1.00  0.00    -0.324 N 
ATOM     87  H   UNL A   1      31.416  23.418  24.698  1.00  0.00     0.348 HD
BRANCH  86  88
ATOM     88  C   UNL A   1      33.270  23.754  24.479  1.00  0.00     0.284 C 
ATOM     89  C   UNL A   1      34.107  23.661  25.745  1.00  0.00     0.176 C 
ATOM     90  C   UNL A   1      33.295  22.307  23.974  1.00  0.00     0.292 C 
ATOM     91  C   UNL A   1      34.042  22.218  26.130  1.00  0.00     0.240 C 
ATOM     92  N   UNL A   1      33.682  21.495  25.021  1.00  0.00    -0.245 N 
ATOM     93  O   UNL A   1      32.989  21.961  22.839  1.00  0.00    -0.267 OA
ATOM     94  O   UNL A   1      34.383  21.813  27.234  1.00  0.00    -0.274 OA
BRANCH  92  95
ATOM     95  C   UNL A   1      33.834  20.091  24.946  1.00  0.00     0.056 A 
ATOM     96  C   UNL A   1      35.082  19.541  24.624  1.00  0.00     0.031 A 
ATOM     97  C   UNL A   1      32.778  19.232  25.280  1.00  0.00     0.077 A 
ATOM     98  C   UNL A   1      35.287  18.161  24.690  1.00  0.00     0.052 A 
ATOM     99  C   UNL A   1      32.969  17.849  25.291  1.00  0.00     0.163 A 
ATOM    100  C   UNL A   1      34.228  17.315  25.008  1.00  0.00     0.161 A 
ATOM    101  O   UNL A   1      31.872  17.079  25.577  1.00  0.00    -0.486 OA
ATOM    102  O   UNL A   1      34.498  15.972  25.033  1.00  0.00    -0.486 OA
ATOM    103  C   UNL A   1      32.230  15.726  25.879  1.00  0.00     0.271 C 
ATOM    104  C   UNL A   1      33.296  15.205  24.930  1.00  0.00     0.271 C 
ENDBRANCH  92  95
ENDBRANCH  86  88
ENDBRANCH  78  81
ENDBRANCH  76  77
ENDBRANCH  75  76
ENDBRANCH   1  75
TORSDOF 16
ENDMDL
