MODEL 1
REMARK VINA RESULT:      -9.2      0.000      0.000
REMARK SMILES CC(C)C[C@H](NC(=O)[C@@H](NC(=O)[C@H](C)NC(=O)CNC(=O)OCc1ccccc1)C(C)C)C(=O)NCCCCNC(=O)c1ccc(-c2c3nc(c(-c4c(F)cc(S(=O)(=O)[O-])cc4F)c4ccc([nH]4)c(-c4c(F)cc(S(=O)(=O)[O-])cc4F)c4nc(c(-c5c(F)cc(S(=O)(=O)[O-])cc5F)c5ccc2[nH]5)C=C4)C=C3)cc1
REMARK SMILES IDX 5 1 4 2 2 3 1 4 3 5 33 6 34 7 35 8 36 10 37 11 38 12 39 13
REMARK SMILES IDX 40 14 41 15 42 17 43 18 44 19 108 20 45 21 107 22 46 23
REMARK SMILES IDX 47 24 48 25 101 26 49 27 106 28 100 29 102 30 50 31 105 32
REMARK SMILES IDX 99 33 98 34 51 36 85 37 64 38 84 39 65 40 68 41 83 42 103 43
REMARK SMILES IDX 66 44 67 45 82 47 104 48 69 49 52 50 53 51 62 52 54 53 55 54
REMARK SMILES IDX 61 55 63 56 56 57 57 58 58 59 59 60 60 61 86 62 87 63 96 64
REMARK SMILES IDX 88 65 89 66 95 67 97 68 90 69 91 70 92 71 93 72 94 73 70 74
REMARK SMILES IDX 71 75 80 76 72 77 73 78 79 79 81 80 74 81 75 82 76 83 77 84
REMARK SMILES IDX 78 85 6 86 7 87 8 89 9 90 10 91 11 92 12 94 13 95 14 96
REMARK SMILES IDX 15 97 16 98 17 100 18 101 19 102 20 103 21 105 22 106 23 107
REMARK SMILES IDX 24 108 25 109 29 110 26 111 28 112 27 113 30 114 31 115
REMARK SMILES IDX 32 116
REMARK H PARENT 35 9 40 16 102 35 68 46 6 88 10 93 15 99 19 104
REMARK Flexibility Score: inf
ROOT
ATOM      1  C   UNL A   1      33.249  22.711  23.959  1.00  0.00     0.171 C 
ENDROOT
BRANCH   1   2
ATOM      2  C   UNL A   1      33.259  21.225  23.544  1.00  0.00     0.038 C 
BRANCH   2   3
ATOM      3  C   UNL A   1      33.775  20.250  24.622  1.00  0.00    -0.015 C 
ATOM      4  C   UNL A   1      33.067  20.476  25.953  1.00  0.00     0.007 C 
ATOM      5  C   UNL A   1      33.552  18.801  24.186  1.00  0.00     0.007 C 
ENDBRANCH   2   3
ENDBRANCH   1   2
BRANCH   1   6
ATOM      6  C   UNL A   1      34.483  23.487  23.467  1.00  0.00     0.242 C 
ATOM      7  O   UNL A   1      34.454  24.082  22.386  1.00  0.00    -0.273 OA
ATOM      8  N   UNL A   1      35.632  23.578  24.177  1.00  0.00    -0.354 N 
ATOM      9  H   UNL A   1      36.301  24.181  23.781  1.00  0.00     0.163 HD
BRANCH   8  10
ATOM     10  C   UNL A   1      36.057  22.955  25.412  1.00  0.00     0.116 C 
BRANCH  10  11
ATOM     11  C   UNL A   1      37.555  23.139  25.629  1.00  0.00     0.023 C 
BRANCH  11  12
ATOM     12  C   UNL A   1      38.357  21.839  25.727  1.00  0.00     0.023 C 
BRANCH  12  13
ATOM     13  C   UNL A   1      39.633  21.918  26.560  1.00  0.00     0.116 C 
BRANCH  13  14
ATOM     14  N   UNL A   1      40.654  20.982  26.118  1.00  0.00    -0.352 N 
ATOM     15  C   UNL A   1      42.019  21.136  26.111  1.00  0.00     0.251 C 
ATOM     16  H   UNL A   1      40.323  20.121  25.777  1.00  0.00     0.163 HD
ATOM     17  O   UNL A   1      42.732  20.280  25.599  1.00  0.00    -0.269 OA
BRANCH  15  18
ATOM     18  C   UNL A   1      42.609  22.358  26.689  1.00  0.00     0.039 A 
ATOM     19  C   UNL A   1      42.942  22.366  28.045  1.00  0.00     0.014 A 
ATOM     20  C   UNL A   1      42.871  23.471  25.883  1.00  0.00     0.014 A 
ATOM     21  C   UNL A   1      43.601  23.471  28.582  1.00  0.00     0.010 A 
ATOM     22  C   UNL A   1      43.587  24.543  26.407  1.00  0.00     0.010 A 
ATOM     23  C   UNL A   1      43.959  24.552  27.761  1.00  0.00    -0.014 A 
BRANCH  23  24
ATOM     24  C   UNL A   1      44.724  25.703  28.301  1.00  0.00     0.031 A 
ATOM     25  C   UNL A   1      44.042  26.707  29.186  1.00  0.00     0.074 A 
ATOM     26  C   UNL A   1      46.010  25.875  27.939  1.00  0.00     0.049 A 
ATOM     27  N   UNL A   1      44.518  27.811  29.701  1.00  0.00    -0.248 NA
ATOM     28  C   UNL A   1      42.631  26.451  29.515  1.00  0.00     0.031 C 
ATOM     29  C   UNL A   1      46.762  24.995  27.040  1.00  0.00     0.029 A 
ATOM     30  N   UNL A   1      46.911  26.852  28.273  1.00  0.00    -0.354 N 
ATOM     31  C   UNL A   1      43.464  28.388  30.399  1.00  0.00     0.074 A 
ATOM     32  C   UNL A   1      42.310  27.539  30.200  1.00  0.00     0.031 C 
ATOM     33  C   UNL A   1      48.013  25.465  26.909  1.00  0.00     0.029 A 
ATOM     34  C   UNL A   1      48.145  26.692  27.688  1.00  0.00     0.049 A 
ATOM     35  H   UNL A   1      46.695  27.600  28.876  1.00  0.00     0.167 HD
ATOM     36  C   UNL A   1      43.466  29.510  31.157  1.00  0.00     0.037 A 
ATOM     37  C   UNL A   1      49.254  27.450  27.769  1.00  0.00     0.037 A 
ATOM     38  C   UNL A   1      44.626  30.333  31.373  1.00  0.00     0.049 A 
ATOM     39  C   UNL A   1      49.239  28.681  28.633  1.00  0.00     0.074 A 
ATOM     40  C   UNL A   1      44.747  31.459  32.168  1.00  0.00     0.029 A 
ATOM     41  N   UNL A   1      45.867  30.118  30.793  1.00  0.00    -0.354 N 
ATOM     42  N   UNL A   1      48.250  29.180  29.336  1.00  0.00    -0.248 NA
ATOM     43  C   UNL A   1      50.489  29.447  28.723  1.00  0.00     0.031 C 
ATOM     44  C   UNL A   1      46.054  31.943  32.042  1.00  0.00     0.029 A 
ATOM     45  C   UNL A   1      46.758  31.096  31.201  1.00  0.00     0.049 A 
ATOM     46  H   UNL A   1      46.084  29.378  30.180  1.00  0.00     0.167 HD
ATOM     47  C   UNL A   1      48.763  30.305  29.970  1.00  0.00     0.074 A 
ATOM     48  C   UNL A   1      50.154  30.406  29.576  1.00  0.00     0.031 C 
ATOM     49  C   UNL A   1      48.141  31.176  30.802  1.00  0.00     0.037 A 
BRANCH  36  50
ATOM     50  C   UNL A   1      42.171  29.901  31.813  1.00  0.00     0.058 A 
ATOM     51  C   UNL A   1      41.850  29.479  33.113  1.00  0.00     0.135 A 
ATOM     52  C   UNL A   1      41.245  30.716  31.143  1.00  0.00     0.135 A 
ATOM     53  F   UNL A   1      42.692  28.685  33.794  1.00  0.00    -0.206 F 
ATOM     54  C   UNL A   1      40.643  29.821  33.712  1.00  0.00     0.059 A 
ATOM     55  C   UNL A   1      40.043  31.094  31.733  1.00  0.00     0.059 A 
ATOM     56  F   UNL A   1      41.501  31.147  29.898  1.00  0.00    -0.206 F 
ATOM     57  C   UNL A   1      39.743  30.625  33.012  1.00  0.00     0.060 A 
BRANCH  57  58
ATOM     58  S   UNL A   1      38.174  31.051  33.797  1.00  0.00     0.124 S 
ATOM     59  O   UNL A   1      38.207  30.207  34.987  1.00  0.00    -0.237 OA
ATOM     60  O   UNL A   1      38.319  32.484  34.032  1.00  0.00    -0.237 OA
ATOM     61  O   UNL A   1      37.182  30.681  32.792  1.00  0.00    -0.744 OA
ENDBRANCH  57  58
ENDBRANCH  36  50
BRANCH  37  62
ATOM     62  C   UNL A   1      50.480  27.047  27.031  1.00  0.00     0.058 A 
ATOM     63  C   UNL A   1      51.438  26.214  27.626  1.00  0.00     0.135 A 
ATOM     64  C   UNL A   1      50.706  27.464  25.710  1.00  0.00     0.135 A 
ATOM     65  F   UNL A   1      51.268  25.794  28.889  1.00  0.00    -0.206 F 
ATOM     66  C   UNL A   1      52.583  25.815  26.944  1.00  0.00     0.059 A 
ATOM     67  C   UNL A   1      51.833  27.061  24.999  1.00  0.00     0.059 A 
ATOM     68  F   UNL A   1      49.810  28.247  25.089  1.00  0.00    -0.206 F 
ATOM     69  C   UNL A   1      52.769  26.243  25.628  1.00  0.00     0.060 A 
BRANCH  69  70
ATOM     70  S   UNL A   1      54.229  25.671  24.730  1.00  0.00     0.124 S 
ATOM     71  O   UNL A   1      55.289  26.438  25.374  1.00  0.00    -0.237 OA
ATOM     72  O   UNL A   1      54.219  24.238  25.007  1.00  0.00    -0.237 OA
ATOM     73  O   UNL A   1      53.935  26.036  23.348  1.00  0.00    -0.744 OA
ENDBRANCH  69  70
ENDBRANCH  37  62
BRANCH  49  74
ATOM     74  C   UNL A   1      48.964  32.298  31.366  1.00  0.00     0.058 A 
ATOM     75  C   UNL A   1      49.687  32.153  32.559  1.00  0.00     0.135 A 
ATOM     76  C   UNL A   1      49.075  33.515  30.674  1.00  0.00     0.135 A 
ATOM     77  F   UNL A   1      49.610  31.011  33.261  1.00  0.00    -0.206 F 
ATOM     78  C   UNL A   1      50.477  33.183  33.059  1.00  0.00     0.059 A 
ATOM     79  C   UNL A   1      49.876  34.550  31.143  1.00  0.00     0.059 A 
ATOM     80  F   UNL A   1      48.410  33.701  29.522  1.00  0.00    -0.206 F 
ATOM     81  C   UNL A   1      50.566  34.378  32.343  1.00  0.00     0.060 A 
BRANCH  81  82
ATOM     82  S   UNL A   1      51.623  35.696  32.981  1.00  0.00     0.124 S 
ATOM     83  O   UNL A   1      52.824  34.955  33.350  1.00  0.00    -0.237 OA
ATOM     84  O   UNL A   1      51.753  36.580  31.827  1.00  0.00    -0.237 OA
ATOM     85  O   UNL A   1      50.852  36.240  34.095  1.00  0.00    -0.744 OA
ENDBRANCH  81  82
ENDBRANCH  49  74
ENDBRANCH  23  24
ENDBRANCH  15  18
ENDBRANCH  13  14
ENDBRANCH  12  13
ENDBRANCH  11  12
ENDBRANCH  10  11
ENDBRANCH   8  10
ENDBRANCH   1   6
BRANCH   1  86
ATOM     86  N   UNL A   1      32.021  23.369  23.503  1.00  0.00    -0.343 N 
ATOM     87  C   UNL A   1      31.211  24.291  24.084  1.00  0.00     0.243 C 
ATOM     88  H   UNL A   1      31.727  23.089  22.605  1.00  0.00     0.164 HD
ATOM     89  O   UNL A   1      30.165  24.551  23.476  1.00  0.00    -0.273 OA
BRANCH  87  90
ATOM     90  C   UNL A   1      31.602  25.119  25.343  1.00  0.00     0.174 C 
BRANCH  90  91
ATOM     91  N   UNL A   1      31.098  26.508  25.249  1.00  0.00    -0.342 N 
ATOM     92  C   UNL A   1      31.699  27.728  25.325  1.00  0.00     0.242 C 
ATOM     93  H   UNL A   1      30.127  26.561  25.102  1.00  0.00     0.164 HD
ATOM     94  O   UNL A   1      31.479  28.469  24.356  1.00  0.00    -0.273 OA
BRANCH  92  95
ATOM     95  C   UNL A   1      32.265  28.339  26.651  1.00  0.00     0.168 C 
ATOM     96  C   UNL A   1      31.345  27.950  27.810  1.00  0.00     0.041 C 
BRANCH  95  97
ATOM     97  N   UNL A   1      32.555  29.760  26.751  1.00  0.00    -0.343 N 
ATOM     98  C   UNL A   1      33.688  30.415  27.146  1.00  0.00     0.240 C 
ATOM     99  H   UNL A   1      31.811  30.350  26.491  1.00  0.00     0.164 HD
ATOM    100  O   UNL A   1      33.642  31.645  27.204  1.00  0.00    -0.273 OA
BRANCH  98 101
ATOM    101  C   UNL A   1      34.910  29.633  27.620  1.00  0.00     0.219 C 
BRANCH 101 102
ATOM    102  N   UNL A   1      36.022  30.562  27.639  1.00  0.00    -0.312 N 
ATOM    103  C   UNL A   1      37.170  30.390  28.336  1.00  0.00     0.407 C 
ATOM    104  H   UNL A   1      35.937  31.383  27.102  1.00  0.00     0.167 HD
ATOM    105  O   UNL A   1      37.893  31.350  28.607  1.00  0.00    -0.225 OA
BRANCH 103 106
ATOM    106  O   UNL A   1      37.381  29.107  28.707  1.00  0.00    -0.445 OA
BRANCH 106 107
ATOM    107  C   UNL A   1      38.714  28.785  29.127  1.00  0.00     0.270 C 
BRANCH 107 108
ATOM    108  C   UNL A   1      39.490  28.095  28.038  1.00  0.00    -0.011 A 
ATOM    109  C   UNL A   1      39.373  26.710  27.866  1.00  0.00     0.007 A 
ATOM    110  C   UNL A   1      40.393  28.811  27.241  1.00  0.00     0.007 A 
ATOM    111  C   UNL A   1      40.161  26.045  26.931  1.00  0.00     0.000 A 
ATOM    112  C   UNL A   1      41.177  28.145  26.299  1.00  0.00     0.000 A 
ATOM    113  C   UNL A   1      41.065  26.762  26.150  1.00  0.00     0.000 A 
ENDBRANCH 107 108
ENDBRANCH 106 107
ENDBRANCH 103 106
ENDBRANCH 101 102
ENDBRANCH  98 101
ENDBRANCH  95  97
ENDBRANCH  92  95
ENDBRANCH  90  91
BRANCH  90 114
ATOM    114  C   UNL A   1      31.377  24.343  26.657  1.00  0.00     0.015 C 
ATOM    115  C   UNL A   1      30.401  23.163  26.557  1.00  0.00     0.010 C 
ATOM    116  C   UNL A   1      32.704  23.780  27.195  1.00  0.00     0.010 C 
ENDBRANCH  90 114
ENDBRANCH  87  90
ENDBRANCH   1  86
TORSDOF 27
ENDMDL
MODEL 2
REMARK VINA RESULT:      -8.9      1.625      2.141
REMARK SMILES CC(C)C[C@H](NC(=O)[C@@H](NC(=O)[C@H](C)NC(=O)CNC(=O)OCc1ccccc1)C(C)C)C(=O)NCCCCNC(=O)c1ccc(-c2c3nc(c(-c4c(F)cc(S(=O)(=O)[O-])cc4F)c4ccc([nH]4)c(-c4c(F)cc(S(=O)(=O)[O-])cc4F)c4nc(c(-c5c(F)cc(S(=O)(=O)[O-])cc5F)c5ccc2[nH]5)C=C4)C=C3)cc1
REMARK SMILES IDX 5 1 4 2 2 3 1 4 3 5 33 6 34 7 35 8 36 10 37 11 38 12 39 13
REMARK SMILES IDX 40 14 41 15 42 17 43 18 44 19 108 20 45 21 107 22 46 23
REMARK SMILES IDX 47 24 48 25 101 26 49 27 106 28 100 29 102 30 50 31 105 32
REMARK SMILES IDX 99 33 98 34 51 36 85 37 64 38 84 39 65 40 68 41 83 42 103 43
REMARK SMILES IDX 66 44 67 45 82 47 104 48 69 49 52 50 53 51 62 52 54 53 55 54
REMARK SMILES IDX 61 55 63 56 56 57 57 58 58 59 59 60 60 61 86 62 87 63 96 64
REMARK SMILES IDX 88 65 89 66 95 67 97 68 90 69 91 70 92 71 93 72 94 73 70 74
REMARK SMILES IDX 71 75 80 76 72 77 73 78 79 79 81 80 74 81 75 82 76 83 77 84
REMARK SMILES IDX 78 85 6 86 7 87 8 89 9 90 10 91 11 92 12 94 13 95 14 96
REMARK SMILES IDX 15 97 16 98 17 100 18 101 19 102 20 103 21 105 22 106 23 107
REMARK SMILES IDX 24 108 25 109 29 110 26 111 28 112 27 113 30 114 31 115
REMARK SMILES IDX 32 116
REMARK H PARENT 35 9 40 16 102 35 68 46 6 88 10 93 15 99 19 104
REMARK Flexibility Score: inf
ROOT
ATOM      1  C   UNL A   1      34.660  22.217  24.379  1.00  0.00     0.171 C 
ENDROOT
BRANCH   1   2
ATOM      2  C   UNL A   1      34.483  20.695  24.566  1.00  0.00     0.038 C 
BRANCH   2   3
ATOM      3  C   UNL A   1      33.022  20.217  24.680  1.00  0.00    -0.015 C 
ATOM      4  C   UNL A   1      32.521  19.655  23.356  1.00  0.00     0.007 C 
ATOM      5  C   UNL A   1      32.894  19.136  25.755  1.00  0.00     0.007 C 
ENDBRANCH   2   3
ENDBRANCH   1   2
BRANCH   1   6
ATOM      6  C   UNL A   1      36.010  22.597  23.747  1.00  0.00     0.242 C 
ATOM      7  O   UNL A   1      36.051  23.098  22.619  1.00  0.00    -0.273 OA
ATOM      8  N   UNL A   1      37.197  22.430  24.377  1.00  0.00    -0.354 N 
ATOM      9  H   UNL A   1      37.966  22.801  23.889  1.00  0.00     0.163 HD
BRANCH   8  10
ATOM     10  C   UNL A   1      37.542  21.808  25.637  1.00  0.00     0.116 C 
BRANCH  10  11
ATOM     11  C   UNL A   1      38.968  22.162  26.048  1.00  0.00     0.023 C 
BRANCH  11  12
ATOM     12  C   UNL A   1      39.915  20.967  26.185  1.00  0.00     0.023 C 
BRANCH  12  13
ATOM     13  C   UNL A   1      41.353  21.312  26.558  1.00  0.00     0.116 C 
BRANCH  13  14
ATOM     14  N   UNL A   1      42.332  20.632  25.723  1.00  0.00    -0.352 N 
ATOM     15  C   UNL A   1      43.565  21.072  25.311  1.00  0.00     0.251 C 
ATOM     16  H   UNL A   1      42.074  19.736  25.411  1.00  0.00     0.163 HD
ATOM     17  O   UNL A   1      44.220  20.408  24.514  1.00  0.00    -0.269 OA
BRANCH  15  18
ATOM     18  C   UNL A   1      44.073  22.364  25.807  1.00  0.00     0.039 A 
ATOM     19  C   UNL A   1      44.827  22.383  26.981  1.00  0.00     0.014 A 
ATOM     20  C   UNL A   1      43.840  23.542  25.090  1.00  0.00     0.014 A 
ATOM     21  C   UNL A   1      45.407  23.579  27.405  1.00  0.00     0.010 A 
ATOM     22  C   UNL A   1      44.474  24.718  25.479  1.00  0.00     0.010 A 
ATOM     23  C   UNL A   1      45.263  24.747  26.639  1.00  0.00    -0.014 A 
BRANCH  23  24
ATOM     24  C   UNL A   1      45.933  26.009  27.036  1.00  0.00     0.031 A 
ATOM     25  C   UNL A   1      45.245  26.960  27.974  1.00  0.00     0.074 A 
ATOM     26  C   UNL A   1      47.128  26.326  26.500  1.00  0.00     0.049 A 
ATOM     27  N   UNL A   1      45.634  28.138  28.386  1.00  0.00    -0.248 NA
ATOM     28  C   UNL A   1      43.935  26.543  28.498  1.00  0.00     0.031 C 
ATOM     29  C   UNL A   1      47.867  25.507  25.534  1.00  0.00     0.029 A 
ATOM     30  N   UNL A   1      47.928  27.424  26.680  1.00  0.00    -0.354 N 
ATOM     31  C   UNL A   1      44.613  28.610  29.202  1.00  0.00     0.074 A 
ATOM     32  C   UNL A   1      43.565  27.612  29.186  1.00  0.00     0.031 C 
ATOM     33  C   UNL A   1      49.017  26.125  25.223  1.00  0.00     0.029 A 
ATOM     34  C   UNL A   1      49.086  27.394  25.940  1.00  0.00     0.049 A 
ATOM     35  H   UNL A   1      47.694  28.167  27.284  1.00  0.00     0.167 HD
ATOM     36  C   UNL A   1      44.564  29.758  29.919  1.00  0.00     0.037 A 
ATOM     37  C   UNL A   1      50.086  28.290  25.847  1.00  0.00     0.037 A 
ATOM     38  C   UNL A   1      45.623  30.730  29.952  1.00  0.00     0.049 A 
ATOM     39  C   UNL A   1      50.021  29.549  26.668  1.00  0.00     0.074 A 
ATOM     40  C   UNL A   1      45.697  31.899  30.689  1.00  0.00     0.029 A 
ATOM     41  N   UNL A   1      46.797  30.647  29.217  1.00  0.00    -0.354 N 
ATOM     42  N   UNL A   1      49.074  29.951  27.482  1.00  0.00    -0.248 NA
ATOM     43  C   UNL A   1      51.160  30.470  26.566  1.00  0.00     0.031 C 
ATOM     44  C   UNL A   1      46.902  32.539  30.374  1.00  0.00     0.029 A 
ATOM     45  C   UNL A   1      47.596  31.748  29.472  1.00  0.00     0.049 A 
ATOM     46  H   UNL A   1      47.029  29.912  28.603  1.00  0.00     0.167 HD
ATOM     47  C   UNL A   1      49.512  31.161  28.006  1.00  0.00     0.074 A 
ATOM     48  C   UNL A   1      50.814  31.419  27.426  1.00  0.00     0.031 C 
ATOM     49  C   UNL A   1      48.893  31.984  28.889  1.00  0.00     0.037 A 
BRANCH  36  50
ATOM     50  C   UNL A   1      43.325  30.012  30.731  1.00  0.00     0.058 A 
ATOM     51  C   UNL A   1      43.222  29.589  32.066  1.00  0.00     0.135 A 
ATOM     52  C   UNL A   1      42.232  30.697  30.176  1.00  0.00     0.135 A 
ATOM     53  F   UNL A   1      44.231  28.915  32.642  1.00  0.00    -0.206 F 
ATOM     54  C   UNL A   1      42.068  29.803  32.811  1.00  0.00     0.059 A 
ATOM     55  C   UNL A   1      41.077  30.947  30.911  1.00  0.00     0.059 A 
ATOM     56  F   UNL A   1      42.277  31.123  28.904  1.00  0.00    -0.206 F 
ATOM     57  C   UNL A   1      40.998  30.479  32.223  1.00  0.00     0.060 A 
BRANCH  57  58
ATOM     58  S   UNL A   1      39.501  30.739  33.197  1.00  0.00     0.124 S 
ATOM     59  O   UNL A   1      38.489  30.847  32.151  1.00  0.00    -0.237 OA
ATOM     60  O   UNL A   1      39.443  29.530  34.013  1.00  0.00    -0.237 OA
ATOM     61  O   UNL A   1      39.783  31.971  33.929  1.00  0.00    -0.744 OA
ENDBRANCH  57  58
ENDBRANCH  36  50
BRANCH  37  62
ATOM     62  C   UNL A   1      51.249  28.011  24.963  1.00  0.00     0.058 A 
ATOM     63  C   UNL A   1      51.136  28.116  23.570  1.00  0.00     0.135 A 
ATOM     64  C   UNL A   1      52.500  27.660  25.494  1.00  0.00     0.135 A 
ATOM     65  F   UNL A   1      49.958  28.444  23.016  1.00  0.00    -0.206 F 
ATOM     66  C   UNL A   1      52.218  27.873  22.730  1.00  0.00     0.059 A 
ATOM     67  C   UNL A   1      53.603  27.434  24.676  1.00  0.00     0.059 A 
ATOM     68  F   UNL A   1      52.665  27.565  26.823  1.00  0.00    -0.206 F 
ATOM     69  C   UNL A   1      53.449  27.535  23.294  1.00  0.00     0.060 A 
BRANCH  69  70
ATOM     70  S   UNL A   1      54.863  27.281  22.199  1.00  0.00     0.124 S 
ATOM     71  O   UNL A   1      55.783  26.560  23.070  1.00  0.00    -0.237 OA
ATOM     72  O   UNL A   1      54.274  26.506  21.111  1.00  0.00    -0.237 OA
ATOM     73  O   UNL A   1      55.261  28.640  21.846  1.00  0.00    -0.744 OA
ENDBRANCH  69  70
ENDBRANCH  37  62
BRANCH  49  74
ATOM     74  C   UNL A   1      49.627  33.227  29.302  1.00  0.00     0.058 A 
ATOM     75  C   UNL A   1      50.513  33.231  30.390  1.00  0.00     0.135 A 
ATOM     76  C   UNL A   1      49.483  34.415  28.567  1.00  0.00     0.135 A 
ATOM     77  F   UNL A   1      50.680  32.123  31.129  1.00  0.00    -0.206 F 
ATOM     78  C   UNL A   1      51.217  34.375  30.748  1.00  0.00     0.059 A 
ATOM     79  C   UNL A   1      50.195  35.565  28.892  1.00  0.00     0.059 A 
ATOM     80  F   UNL A   1      48.655  34.460  27.511  1.00  0.00    -0.206 F 
ATOM     81  C   UNL A   1      51.052  35.538  29.992  1.00  0.00     0.060 A 
BRANCH  81  82
ATOM     82  S   UNL A   1      52.000  37.007  30.442  1.00  0.00     0.124 S 
ATOM     83  O   UNL A   1      52.780  37.236  29.230  1.00  0.00    -0.237 OA
ATOM     84  O   UNL A   1      50.951  37.986  30.714  1.00  0.00    -0.237 OA
ATOM     85  O   UNL A   1      52.762  36.575  31.609  1.00  0.00    -0.744 OA
ENDBRANCH  81  82
ENDBRANCH  49  74
ENDBRANCH  23  24
ENDBRANCH  15  18
ENDBRANCH  13  14
ENDBRANCH  12  13
ENDBRANCH  11  12
ENDBRANCH  10  11
ENDBRANCH   8  10
ENDBRANCH   1   6
BRANCH   1  86
ATOM     86  N   UNL A   1      33.557  22.775  23.593  1.00  0.00    -0.343 N 
ATOM     87  C   UNL A   1      32.577  23.665  23.900  1.00  0.00     0.243 C 
ATOM     88  H   UNL A   1      33.517  22.442  22.666  1.00  0.00     0.164 HD
ATOM     89  O   UNL A   1      31.709  23.832  23.034  1.00  0.00    -0.273 OA
BRANCH  87  90
ATOM     90  C   UNL A   1      32.590  24.564  25.170  1.00  0.00     0.174 C 
BRANCH  90  91
ATOM     91  N   UNL A   1      32.193  25.954  24.847  1.00  0.00    -0.342 N 
ATOM     92  C   UNL A   1      32.787  27.164  25.038  1.00  0.00     0.242 C 
ATOM     93  H   UNL A   1      31.317  26.015  24.402  1.00  0.00     0.164 HD
ATOM     94  O   UNL A   1      32.906  27.845  24.009  1.00  0.00    -0.273 OA
BRANCH  92  95
ATOM     95  C   UNL A   1      32.939  27.849  26.438  1.00  0.00     0.168 C 
ATOM     96  C   UNL A   1      31.754  27.446  27.319  1.00  0.00     0.041 C 
BRANCH  95  97
ATOM     97  N   UNL A   1      33.124  29.287  26.547  1.00  0.00    -0.343 N 
ATOM     98  C   UNL A   1      34.143  30.017  27.095  1.00  0.00     0.240 C 
ATOM     99  H   UNL A   1      32.396  29.825  26.162  1.00  0.00     0.164 HD
ATOM    100  O   UNL A   1      34.015  31.242  27.115  1.00  0.00    -0.273 OA
BRANCH  98 101
ATOM    101  C   UNL A   1      35.321  29.320  27.767  1.00  0.00     0.219 C 
BRANCH 101 102
ATOM    102  N   UNL A   1      36.408  30.277  27.808  1.00  0.00    -0.312 N 
ATOM    103  C   UNL A   1      37.597  30.082  28.426  1.00  0.00     0.407 C 
ATOM    104  H   UNL A   1      36.272  31.138  27.350  1.00  0.00     0.167 HD
ATOM    105  O   UNL A   1      38.309  31.037  28.741  1.00  0.00    -0.225 OA
BRANCH 103 106
ATOM    106  O   UNL A   1      37.861  28.779  28.673  1.00  0.00    -0.445 OA
BRANCH 106 107
ATOM    107  C   UNL A   1      39.217  28.468  29.021  1.00  0.00     0.270 C 
BRANCH 107 108
ATOM    108  C   UNL A   1      39.988  27.937  27.843  1.00  0.00    -0.011 A 
ATOM    109  C   UNL A   1      39.985  26.563  27.567  1.00  0.00     0.007 A 
ATOM    110  C   UNL A   1      40.776  28.792  27.061  1.00  0.00     0.007 A 
ATOM    111  C   UNL A   1      40.775  26.048  26.543  1.00  0.00     0.000 A 
ATOM    112  C   UNL A   1      41.560  28.274  26.030  1.00  0.00     0.000 A 
ATOM    113  C   UNL A   1      41.564  26.902  25.777  1.00  0.00     0.000 A 
ENDBRANCH 107 108
ENDBRANCH 106 107
ENDBRANCH 103 106
ENDBRANCH 101 102
ENDBRANCH  98 101
ENDBRANCH  95  97
ENDBRANCH  92  95
ENDBRANCH  90  91
BRANCH  90 114
ATOM    114  C   UNL A   1      31.939  23.878  26.390  1.00  0.00     0.015 C 
ATOM    115  C   UNL A   1      30.824  22.879  26.056  1.00  0.00     0.010 C 
ATOM    116  C   UNL A   1      32.990  23.116  27.215  1.00  0.00     0.010 C 
ENDBRANCH  90 114
ENDBRANCH  87  90
ENDBRANCH   1  86
TORSDOF 27
ENDMDL
MODEL 3
REMARK VINA RESULT:      -8.8      5.571      8.451
REMARK SMILES CC(C)C[C@H](NC(=O)[C@@H](NC(=O)[C@H](C)NC(=O)CNC(=O)OCc1ccccc1)C(C)C)C(=O)NCCCCNC(=O)c1ccc(-c2c3nc(c(-c4c(F)cc(S(=O)(=O)[O-])cc4F)c4ccc([nH]4)c(-c4c(F)cc(S(=O)(=O)[O-])cc4F)c4nc(c(-c5c(F)cc(S(=O)(=O)[O-])cc5F)c5ccc2[nH]5)C=C4)C=C3)cc1
REMARK SMILES IDX 5 1 4 2 2 3 1 4 3 5 33 6 34 7 35 8 36 10 37 11 38 12 39 13
REMARK SMILES IDX 40 14 41 15 42 17 43 18 44 19 108 20 45 21 107 22 46 23
REMARK SMILES IDX 47 24 48 25 101 26 49 27 106 28 100 29 102 30 50 31 105 32
REMARK SMILES IDX 99 33 98 34 51 36 85 37 64 38 84 39 65 40 68 41 83 42 103 43
REMARK SMILES IDX 66 44 67 45 82 47 104 48 69 49 52 50 53 51 62 52 54 53 55 54
REMARK SMILES IDX 61 55 63 56 56 57 57 58 58 59 59 60 60 61 86 62 87 63 96 64
REMARK SMILES IDX 88 65 89 66 95 67 97 68 90 69 91 70 92 71 93 72 94 73 70 74
REMARK SMILES IDX 71 75 80 76 72 77 73 78 79 79 81 80 74 81 75 82 76 83 77 84
REMARK SMILES IDX 78 85 6 86 7 87 8 89 9 90 10 91 11 92 12 94 13 95 14 96
REMARK SMILES IDX 15 97 16 98 17 100 18 101 19 102 20 103 21 105 22 106 23 107
REMARK SMILES IDX 24 108 25 109 29 110 26 111 28 112 27 113 30 114 31 115
REMARK SMILES IDX 32 116
REMARK H PARENT 35 9 40 16 102 35 68 46 6 88 10 93 15 99 19 104
REMARK Flexibility Score: inf
ROOT
ATOM      1  C   UNL A   1      35.697  23.217  24.782  1.00  0.00     0.171 C 
ENDROOT
BRANCH   1   2
ATOM      2  C   UNL A   1      34.769  22.366  25.675  1.00  0.00     0.038 C 
BRANCH   2   3
ATOM      3  C   UNL A   1      34.345  23.035  26.998  1.00  0.00    -0.015 C 
ATOM      4  C   UNL A   1      33.622  24.352  26.744  1.00  0.00     0.007 C 
ATOM      5  C   UNL A   1      33.419  22.111  27.793  1.00  0.00     0.007 C 
ENDBRANCH   2   3
ENDBRANCH   1   2
BRANCH   1   6
ATOM      6  C   UNL A   1      37.119  22.642  24.664  1.00  0.00     0.242 C 
ATOM      7  O   UNL A   1      37.350  21.707  23.893  1.00  0.00    -0.273 OA
ATOM      8  N   UNL A   1      38.174  23.126  25.362  1.00  0.00    -0.354 N 
ATOM      9  H   UNL A   1      39.036  22.720  25.116  1.00  0.00     0.163 HD
BRANCH   8  10
ATOM     10  C   UNL A   1      38.267  24.130  26.399  1.00  0.00     0.116 C 
BRANCH  10  11
ATOM     11  C   UNL A   1      39.301  23.735  27.449  1.00  0.00     0.023 C 
BRANCH  11  12
ATOM     12  C   UNL A   1      40.494  22.940  26.911  1.00  0.00     0.023 C 
BRANCH  12  13
ATOM     13  C   UNL A   1      41.844  23.645  27.004  1.00  0.00     0.116 C 
BRANCH  13  14
ATOM     14  N   UNL A   1      42.048  24.616  25.941  1.00  0.00    -0.352 N 
ATOM     15  C   UNL A   1      41.995  25.987  26.004  1.00  0.00     0.251 C 
ATOM     16  H   UNL A   1      42.251  24.240  25.055  1.00  0.00     0.163 HD
ATOM     17  O   UNL A   1      42.087  26.654  24.979  1.00  0.00    -0.269 OA
BRANCH  15  18
ATOM     18  C   UNL A   1      41.788  26.640  27.310  1.00  0.00     0.039 A 
ATOM     19  C   UNL A   1      42.883  27.224  27.949  1.00  0.00     0.014 A 
ATOM     20  C   UNL A   1      40.510  26.713  27.874  1.00  0.00     0.014 A 
ATOM     21  C   UNL A   1      42.686  27.941  29.129  1.00  0.00     0.010 A 
ATOM     22  C   UNL A   1      40.308  27.484  29.014  1.00  0.00     0.010 A 
ATOM     23  C   UNL A   1      41.393  28.105  29.652  1.00  0.00    -0.014 A 
BRANCH  23  24
ATOM     24  C   UNL A   1      41.157  28.926  30.865  1.00  0.00     0.031 A 
ATOM     25  C   UNL A   1      40.059  29.951  30.874  1.00  0.00     0.074 A 
ATOM     26  C   UNL A   1      41.973  28.791  31.928  1.00  0.00     0.049 A 
ATOM     27  N   UNL A   1      39.739  30.807  31.808  1.00  0.00    -0.248 NA
ATOM     28  C   UNL A   1      39.228  30.043  29.664  1.00  0.00     0.031 C 
ATOM     29  C   UNL A   1      43.109  27.867  32.013  1.00  0.00     0.029 A 
ATOM     30  N   UNL A   1      41.983  29.437  33.137  1.00  0.00    -0.354 N 
ATOM     31  C   UNL A   1      38.682  31.550  31.294  1.00  0.00     0.074 A 
ATOM     32  C   UNL A   1      38.450  31.077  29.947  1.00  0.00     0.031 C 
ATOM     33  C   UNL A   1      43.691  27.996  33.216  1.00  0.00     0.029 A 
ATOM     34  C   UNL A   1      42.993  29.028  33.976  1.00  0.00     0.049 A 
ATOM     35  H   UNL A   1      41.327  30.129  33.382  1.00  0.00     0.167 HD
ATOM     36  C   UNL A   1      37.957  32.520  31.899  1.00  0.00     0.037 A 
ATOM     37  C   UNL A   1      43.320  29.442  35.214  1.00  0.00     0.037 A 
ATOM     38  C   UNL A   1      38.177  32.965  33.250  1.00  0.00     0.049 A 
ATOM     39  C   UNL A   1      42.488  30.507  35.874  1.00  0.00     0.074 A 
ATOM     40  C   UNL A   1      37.462  33.901  33.976  1.00  0.00     0.029 A 
ATOM     41  N   UNL A   1      39.187  32.501  34.080  1.00  0.00    -0.354 N 
ATOM     42  N   UNL A   1      41.454  31.157  35.396  1.00  0.00    -0.248 NA
ATOM     43  C   UNL A   1      42.860  30.889  37.243  1.00  0.00     0.031 C 
ATOM     44  C   UNL A   1      38.061  34.028  35.234  1.00  0.00     0.029 A 
ATOM     45  C   UNL A   1      39.123  33.141  35.307  1.00  0.00     0.049 A 
ATOM     46  H   UNL A   1      39.852  31.818  33.835  1.00  0.00     0.167 HD
ATOM     47  C   UNL A   1      41.037  32.008  36.411  1.00  0.00     0.074 A 
ATOM     48  C   UNL A   1      41.923  31.782  37.535  1.00  0.00     0.031 C 
ATOM     49  C   UNL A   1      40.012  32.897  36.415  1.00  0.00     0.037 A 
BRANCH  36  50
ATOM     50  C   UNL A   1      36.853  33.156  31.101  1.00  0.00     0.058 A 
ATOM     51  C   UNL A   1      37.125  34.046  30.050  1.00  0.00     0.135 A 
ATOM     52  C   UNL A   1      35.508  32.865  31.381  1.00  0.00     0.135 A 
ATOM     53  F   UNL A   1      38.392  34.372  29.750  1.00  0.00    -0.206 F 
ATOM     54  C   UNL A   1      36.104  34.652  29.327  1.00  0.00     0.059 A 
ATOM     55  C   UNL A   1      34.470  33.439  30.653  1.00  0.00     0.059 A 
ATOM     56  F   UNL A   1      35.191  32.022  32.376  1.00  0.00    -0.206 F 
ATOM     57  C   UNL A   1      34.778  34.346  29.639  1.00  0.00     0.060 A 
BRANCH  57  58
ATOM     58  S   UNL A   1      33.463  35.150  28.701  1.00  0.00     0.124 S 
ATOM     59  O   UNL A   1      34.182  36.261  28.086  1.00  0.00    -0.237 OA
ATOM     60  O   UNL A   1      33.034  34.093  27.790  1.00  0.00    -0.237 OA
ATOM     61  O   UNL A   1      32.493  35.521  29.726  1.00  0.00    -0.744 OA
ENDBRANCH  57  58
ENDBRANCH  36  50
BRANCH  37  62
ATOM     62  C   UNL A   1      44.475  28.825  35.919  1.00  0.00     0.058 A 
ATOM     63  C   UNL A   1      45.751  29.402  35.854  1.00  0.00     0.135 A 
ATOM     64  C   UNL A   1      44.320  27.663  36.691  1.00  0.00     0.135 A 
ATOM     65  F   UNL A   1      45.949  30.510  35.124  1.00  0.00    -0.206 F 
ATOM     66  C   UNL A   1      46.838  28.845  36.520  1.00  0.00     0.059 A 
ATOM     67  C   UNL A   1      45.387  27.099  37.385  1.00  0.00     0.059 A 
ATOM     68  F   UNL A   1      43.115  27.083  36.800  1.00  0.00    -0.206 F 
ATOM     69  C   UNL A   1      46.644  27.694  37.286  1.00  0.00     0.060 A 
BRANCH  69  70
ATOM     70  S   UNL A   1      48.048  27.012  38.195  1.00  0.00     0.124 S 
ATOM     71  O   UNL A   1      49.170  27.442  37.369  1.00  0.00    -0.237 OA
ATOM     72  O   UNL A   1      47.922  27.668  39.493  1.00  0.00    -0.237 OA
ATOM     73  O   UNL A   1      47.779  25.578  38.199  1.00  0.00    -0.744 OA
ENDBRANCH  69  70
ENDBRANCH  37  62
BRANCH  49  74
ATOM     74  C   UNL A   1      39.777  33.672  37.680  1.00  0.00     0.058 A 
ATOM     75  C   UNL A   1      38.847  33.247  38.640  1.00  0.00     0.135 A 
ATOM     76  C   UNL A   1      40.530  34.824  37.958  1.00  0.00     0.135 A 
ATOM     77  F   UNL A   1      38.097  32.155  38.419  1.00  0.00    -0.206 F 
ATOM     78  C   UNL A   1      38.657  33.948  39.826  1.00  0.00     0.059 A 
ATOM     79  C   UNL A   1      40.374  35.527  39.148  1.00  0.00     0.059 A 
ATOM     80  F   UNL A   1      41.440  35.266  37.076  1.00  0.00    -0.206 F 
ATOM     81  C   UNL A   1      39.427  35.087  40.072  1.00  0.00     0.060 A 
BRANCH  81  82
ATOM     82  S   UNL A   1      39.200  35.969  41.631  1.00  0.00     0.124 S 
ATOM     83  O   UNL A   1      39.223  37.358  41.188  1.00  0.00    -0.237 OA
ATOM     84  O   UNL A   1      37.906  35.470  42.088  1.00  0.00    -0.237 OA
ATOM     85  O   UNL A   1      40.345  35.543  42.431  1.00  0.00    -0.744 OA
ENDBRANCH  81  82
ENDBRANCH  49  74
ENDBRANCH  23  24
ENDBRANCH  15  18
ENDBRANCH  13  14
ENDBRANCH  12  13
ENDBRANCH  11  12
ENDBRANCH  10  11
ENDBRANCH   8  10
ENDBRANCH   1   6
BRANCH   1  86
ATOM     86  N   UNL A   1      35.111  23.401  23.451  1.00  0.00    -0.343 N 
ATOM     87  C   UNL A   1      33.890  23.092  22.942  1.00  0.00     0.243 C 
ATOM     88  H   UNL A   1      35.717  23.830  22.803  1.00  0.00     0.164 HD
ATOM     89  O   UNL A   1      33.753  23.267  21.725  1.00  0.00    -0.273 OA
BRANCH  87  90
ATOM     90  C   UNL A   1      32.660  22.701  23.813  1.00  0.00     0.174 C 
BRANCH  90  91
ATOM     91  N   UNL A   1      31.797  23.875  24.079  1.00  0.00    -0.342 N 
ATOM     92  C   UNL A   1      31.230  24.819  23.279  1.00  0.00     0.242 C 
ATOM     93  H   UNL A   1      31.591  23.998  25.034  1.00  0.00     0.164 HD
ATOM     94  O   UNL A   1      30.003  24.936  23.413  1.00  0.00    -0.273 OA
BRANCH  92  95
ATOM     95  C   UNL A   1      32.037  25.952  22.560  1.00  0.00     0.168 C 
ATOM     96  C   UNL A   1      33.030  26.560  23.552  1.00  0.00     0.041 C 
BRANCH  95  97
ATOM     97  N   UNL A   1      31.352  27.034  21.873  1.00  0.00    -0.343 N 
ATOM     98  C   UNL A   1      30.713  28.139  22.363  1.00  0.00     0.240 C 
ATOM     99  H   UNL A   1      31.346  26.959  20.892  1.00  0.00     0.164 HD
ATOM    100  O   UNL A   1      30.148  28.874  21.550  1.00  0.00    -0.273 OA
BRANCH  98 101
ATOM    101  C   UNL A   1      30.603  28.368  23.867  1.00  0.00     0.219 C 
BRANCH 101 102
ATOM    102  N   UNL A   1      30.258  29.763  24.056  1.00  0.00    -0.312 N 
ATOM    103  C   UNL A   1      30.862  30.605  24.928  1.00  0.00     0.407 C 
ATOM    104  H   UNL A   1      29.528  30.129  23.506  1.00  0.00     0.167 HD
ATOM    105  O   UNL A   1      30.300  31.634  25.304  1.00  0.00    -0.225 OA
BRANCH 103 106
ATOM    106  O   UNL A   1      32.074  30.167  25.337  1.00  0.00    -0.445 OA
BRANCH 106 107
ATOM    107  C   UNL A   1      32.243  30.016  26.753  1.00  0.00     0.270 C 
BRANCH 107 108
ATOM    108  C   UNL A   1      33.697  29.997  27.142  1.00  0.00    -0.011 A 
ATOM    109  C   UNL A   1      34.322  31.177  27.565  1.00  0.00     0.007 A 
ATOM    110  C   UNL A   1      34.456  28.827  27.012  1.00  0.00     0.007 A 
ATOM    111  C   UNL A   1      35.689  31.196  27.830  1.00  0.00     0.000 A 
ATOM    112  C   UNL A   1      35.824  28.845  27.286  1.00  0.00     0.000 A 
ATOM    113  C   UNL A   1      36.440  30.031  27.687  1.00  0.00     0.000 A 
ENDBRANCH 107 108
ENDBRANCH 106 107
ENDBRANCH 103 106
ENDBRANCH 101 102
ENDBRANCH  98 101
ENDBRANCH  95  97
ENDBRANCH  92  95
ENDBRANCH  90  91
BRANCH  90 114
ATOM    114  C   UNL A   1      31.995  21.390  23.346  1.00  0.00     0.015 C 
ATOM    115  C   UNL A   1      31.912  21.208  21.825  1.00  0.00     0.010 C 
ATOM    116  C   UNL A   1      32.745  20.168  23.902  1.00  0.00     0.010 C 
ENDBRANCH  90 114
ENDBRANCH  87  90
ENDBRANCH   1  86
TORSDOF 27
ENDMDL
