MODEL 1
REMARK VINA RESULT:      -9.9      0.000      0.000
REMARK SMILES O=C(CCCC[C@H](O)c1ccc(Cl)s1)NCCCCNC(=O)c1ccc(-c2c3nc(c(-c4c(F)cc(S(=O)(=O)[O-])cc4F)c4ccc([nH]4)c(-c4c(F)cc(S(=O)(=O)[O-])cc4F)c4nc(c(-c5c(F)cc(S(=O)(=O)[O-])cc5F)c5ccc2[nH]5)C=C4)C=C3)cc1
REMARK SMILES IDX 16 1 15 2 1 3 2 4 3 6 4 7 5 8 6 9 7 10 9 11 10 12 14 13
REMARK SMILES IDX 11 14 12 15 13 16 8 17 17 19 18 20 19 21 20 22 21 23 22 25
REMARK SMILES IDX 23 26 24 27 88 28 25 29 87 30 26 31 27 32 28 33 81 34 29 35
REMARK SMILES IDX 86 36 80 37 82 38 30 39 85 40 79 41 78 42 31 44 65 45 44 46
REMARK SMILES IDX 64 47 45 48 48 49 63 50 83 51 46 52 47 53 62 55 84 56 49 57
REMARK SMILES IDX 32 58 33 59 42 60 34 61 35 62 41 63 43 64 36 65 37 66 38 67
REMARK SMILES IDX 39 68 40 69 66 70 67 71 76 72 68 73 69 74 75 75 77 76 70 77
REMARK SMILES IDX 71 78 72 79 73 80 74 81 50 82 51 83 60 84 52 85 53 86 59 87
REMARK SMILES IDX 61 88 54 89 55 90 56 91 57 92 58 93
REMARK H PARENT 15 5 8 18 20 24 82 43 48 54
REMARK Flexibility Score: inf
ROOT
ATOM      1  C   UNL A   1      39.110  22.523  26.697  1.00  0.00     0.116 C 
ENDROOT
BRANCH   1   2
ATOM      2  N   UNL A   1      38.394  22.746  25.462  1.00  0.00    -0.356 N 
ATOM      3  O   UNL A   1      36.857  21.063  25.749  1.00  0.00    -0.275 OA
ATOM      4  C   UNL A   1      37.296  22.006  25.098  1.00  0.00     0.219 C 
ATOM      5  H   UNL A   1      38.706  23.458  24.857  1.00  0.00     0.163 HD
BRANCH   4   6
ATOM      6  C   UNL A   1      36.673  22.445  23.791  1.00  0.00     0.100 C 
BRANCH   6   7
ATOM      7  C   UNL A   1      35.818  23.707  23.931  1.00  0.00     0.010 C 
BRANCH   7   8
ATOM      8  C   UNL A   1      35.294  24.053  25.335  1.00  0.00     0.004 C 
BRANCH   8   9
ATOM      9  C   UNL A   1      33.776  23.959  25.584  1.00  0.00     0.037 C 
BRANCH   9  10
ATOM     10  C   UNL A   1      32.922  23.369  24.445  1.00  0.00     0.154 C 
BRANCH  10  11
ATOM     11  C   UNL A   1      32.816  21.871  24.469  1.00  0.00     0.035 A 
ATOM     12  C   UNL A   1      33.183  20.985  25.471  1.00  0.00     0.020 A 
ATOM     13  S   UNL A   1      32.161  21.022  23.120  1.00  0.00    -0.126 S 
ATOM     14  C   UNL A   1      33.087  19.623  25.061  1.00  0.00     0.033 A 
ATOM     15  C   UNL A   1      32.595  19.529  23.786  1.00  0.00     0.093 A 
ATOM     16  Cl  UNL A   1      32.400  18.093  22.866  1.00  0.00    -0.072 Cl
ENDBRANCH  10  11
BRANCH  10  17
ATOM     17  O   UNL A   1      31.596  23.889  24.536  1.00  0.00    -0.388 OA
ATOM     18  H   UNL A   1      31.509  24.656  23.950  1.00  0.00     0.211 HD
ENDBRANCH  10  17
ENDBRANCH   9  10
ENDBRANCH   8   9
ENDBRANCH   7   8
ENDBRANCH   6   7
ENDBRANCH   4   6
ENDBRANCH   1   2
BRANCH   1  19
ATOM     19  C   UNL A   1      40.504  21.953  26.449  1.00  0.00     0.023 C 
BRANCH  19  20
ATOM     20  C   UNL A   1      41.500  22.143  27.598  1.00  0.00     0.023 C 
BRANCH  20  21
ATOM     21  C   UNL A   1      42.596  23.176  27.353  1.00  0.00     0.116 C 
BRANCH  21  22
ATOM     22  N   UNL A   1      42.338  23.996  26.181  1.00  0.00    -0.352 N 
ATOM     23  C   UNL A   1      41.860  25.281  26.096  1.00  0.00     0.251 C 
ATOM     24  H   UNL A   1      42.535  23.566  25.317  1.00  0.00     0.163 HD
ATOM     25  O   UNL A   1      41.544  25.738  24.998  1.00  0.00    -0.269 OA
BRANCH  23  26
ATOM     26  C   UNL A   1      41.698  26.107  27.313  1.00  0.00     0.039 A 
ATOM     27  C   UNL A   1      42.639  27.104  27.582  1.00  0.00     0.014 A 
ATOM     28  C   UNL A   1      40.636  25.894  28.197  1.00  0.00     0.014 A 
ATOM     29  C   UNL A   1      42.477  27.931  28.697  1.00  0.00     0.010 A 
ATOM     30  C   UNL A   1      40.435  26.767  29.267  1.00  0.00     0.010 A 
ATOM     31  C   UNL A   1      41.352  27.797  29.528  1.00  0.00    -0.014 A 
BRANCH  31  32
ATOM     32  C   UNL A   1      41.116  28.730  30.663  1.00  0.00     0.031 A 
ATOM     33  C   UNL A   1      41.921  28.609  31.930  1.00  0.00     0.074 A 
ATOM     34  C   UNL A   1      40.135  29.650  30.575  1.00  0.00     0.049 A 
ATOM     35  N   UNL A   1      41.808  29.283  33.047  1.00  0.00    -0.248 NA
ATOM     36  C   UNL A   1      42.971  27.579  31.955  1.00  0.00     0.031 C 
ATOM     37  C   UNL A   1      39.255  29.841  29.419  1.00  0.00     0.029 A 
ATOM     38  N   UNL A   1      39.701  30.592  31.477  1.00  0.00    -0.354 N 
ATOM     39  C   UNL A   1      42.765  28.757  33.906  1.00  0.00     0.074 A 
ATOM     40  C   UNL A   1      43.409  27.668  33.204  1.00  0.00     0.031 C 
ATOM     41  C   UNL A   1      38.403  30.846  29.673  1.00  0.00     0.029 A 
ATOM     42  C   UNL A   1      38.642  31.344  31.024  1.00  0.00     0.049 A 
ATOM     43  H   UNL A   1      40.111  30.715  32.363  1.00  0.00     0.167 HD
ATOM     44  C   UNL A   1      43.096  29.160  35.157  1.00  0.00     0.037 A 
ATOM     45  C   UNL A   1      37.934  32.316  31.631  1.00  0.00     0.037 A 
ATOM     46  C   UNL A   1      42.462  30.254  35.848  1.00  0.00     0.049 A 
ATOM     47  C   UNL A   1      38.306  32.735  33.029  1.00  0.00     0.074 A 
ATOM     48  C   UNL A   1      42.757  30.768  37.099  1.00  0.00     0.029 A 
ATOM     49  N   UNL A   1      41.405  31.003  35.350  1.00  0.00    -0.354 N 
ATOM     50  N   UNL A   1      39.254  32.264  33.805  1.00  0.00    -0.248 NA
ATOM     51  C   UNL A   1      37.521  33.822  33.631  1.00  0.00     0.031 C 
ATOM     52  C   UNL A   1      41.844  31.790  37.379  1.00  0.00     0.029 A 
ATOM     53  C   UNL A   1      41.020  31.956  36.278  1.00  0.00     0.049 A 
ATOM     54  H   UNL A   1      40.989  30.874  34.467  1.00  0.00     0.167 HD
ATOM     55  C   UNL A   1      39.197  33.016  34.973  1.00  0.00     0.074 A 
ATOM     56  C   UNL A   1      38.131  33.980  34.797  1.00  0.00     0.031 C 
ATOM     57  C   UNL A   1      39.960  32.916  36.091  1.00  0.00     0.037 A 
BRANCH  44  58
ATOM     58  C   UNL A   1      44.199  28.416  35.863  1.00  0.00     0.058 A 
ATOM     59  C   UNL A   1      43.931  27.316  36.695  1.00  0.00     0.135 A 
ATOM     60  C   UNL A   1      45.543  28.780  35.676  1.00  0.00     0.135 A 
ATOM     61  F   UNL A   1      42.665  26.932  36.922  1.00  0.00    -0.206 F 
ATOM     62  C   UNL A   1      44.951  26.624  37.340  1.00  0.00     0.059 A 
ATOM     63  C   UNL A   1      46.582  28.081  36.286  1.00  0.00     0.059 A 
ATOM     64  F   UNL A   1      45.859  29.822  34.892  1.00  0.00    -0.206 F 
ATOM     65  C   UNL A   1      46.274  27.015  37.129  1.00  0.00     0.060 A 
BRANCH  65  66
ATOM     66  S   UNL A   1      47.584  26.102  37.971  1.00  0.00     0.124 S 
ATOM     67  O   UNL A   1      47.259  24.726  37.611  1.00  0.00    -0.237 OA
ATOM     68  O   UNL A   1      48.789  26.650  37.357  1.00  0.00    -0.237 OA
ATOM     69  O   UNL A   1      47.389  26.446  39.377  1.00  0.00    -0.744 OA
ENDBRANCH  65  66
ENDBRANCH  44  58
BRANCH  45  70
ATOM     70  C   UNL A   1      36.801  32.968  30.916  1.00  0.00     0.058 A 
ATOM     71  C   UNL A   1      35.471  32.631  31.206  1.00  0.00     0.135 A 
ATOM     72  C   UNL A   1      37.028  33.947  29.937  1.00  0.00     0.135 A 
ATOM     73  F   UNL A   1      35.201  31.695  32.129  1.00  0.00    -0.206 F 
ATOM     74  C   UNL A   1      34.405  33.226  30.538  1.00  0.00     0.059 A 
ATOM     75  C   UNL A   1      35.979  34.579  29.276  1.00  0.00     0.059 A 
ATOM     76  F   UNL A   1      38.282  34.319  29.635  1.00  0.00    -0.206 F 
ATOM     77  C   UNL A   1      34.670  34.203  29.577  1.00  0.00     0.060 A 
BRANCH  77  78
ATOM     78  S   UNL A   1      33.280  35.006  28.750  1.00  0.00     0.124 S 
ATOM     79  O   UNL A   1      32.760  33.918  27.929  1.00  0.00    -0.237 OA
ATOM     80  O   UNL A   1      32.446  35.411  29.878  1.00  0.00    -0.237 OA
ATOM     81  O   UNL A   1      33.911  36.103  28.022  1.00  0.00    -0.744 OA
ENDBRANCH  77  78
ENDBRANCH  45  70
BRANCH  57  82
ATOM     82  C   UNL A   1      39.700  33.898  37.201  1.00  0.00     0.058 A 
ATOM     83  C   UNL A   1      38.877  33.582  38.294  1.00  0.00     0.135 A 
ATOM     84  C   UNL A   1      40.326  35.156  37.197  1.00  0.00     0.135 A 
ATOM     85  F   UNL A   1      38.248  32.396  38.345  1.00  0.00    -0.206 F 
ATOM     86  C   UNL A   1      38.665  34.485  39.330  1.00  0.00     0.059 A 
ATOM     87  C   UNL A   1      40.153  36.063  38.238  1.00  0.00     0.059 A 
ATOM     88  F   UNL A   1      41.131  35.507  36.182  1.00  0.00    -0.206 F 
ATOM     89  C   UNL A   1      39.310  35.723  39.295  1.00  0.00     0.060 A 
BRANCH  89  90
ATOM     90  S   UNL A   1      39.053  36.872  40.664  1.00  0.00     0.124 S 
ATOM     91  O   UNL A   1      40.426  37.192  41.039  1.00  0.00    -0.237 OA
ATOM     92  O   UNL A   1      38.301  37.949  40.028  1.00  0.00    -0.237 OA
ATOM     93  O   UNL A   1      38.305  36.080  41.636  1.00  0.00    -0.744 OA
ENDBRANCH  89  90
ENDBRANCH  57  82
ENDBRANCH  31  32
ENDBRANCH  23  26
ENDBRANCH  21  22
ENDBRANCH  20  21
ENDBRANCH  19  20
ENDBRANCH   1  19
TORSDOF 20
ENDMDL
MODEL 2
REMARK VINA RESULT:      -9.9      5.062     10.678
REMARK SMILES O=C(CCCC[C@H](O)c1ccc(Cl)s1)NCCCCNC(=O)c1ccc(-c2c3nc(c(-c4c(F)cc(S(=O)(=O)[O-])cc4F)c4ccc([nH]4)c(-c4c(F)cc(S(=O)(=O)[O-])cc4F)c4nc(c(-c5c(F)cc(S(=O)(=O)[O-])cc5F)c5ccc2[nH]5)C=C4)C=C3)cc1
REMARK SMILES IDX 16 1 15 2 1 3 2 4 3 6 4 7 5 8 6 9 7 10 9 11 10 12 14 13
REMARK SMILES IDX 11 14 12 15 13 16 8 17 17 19 18 20 19 21 20 22 21 23 22 25
REMARK SMILES IDX 23 26 24 27 88 28 25 29 87 30 26 31 27 32 28 33 81 34 29 35
REMARK SMILES IDX 86 36 80 37 82 38 30 39 85 40 79 41 78 42 31 44 65 45 44 46
REMARK SMILES IDX 64 47 45 48 48 49 63 50 83 51 46 52 47 53 62 55 84 56 49 57
REMARK SMILES IDX 32 58 33 59 42 60 34 61 35 62 41 63 43 64 36 65 37 66 38 67
REMARK SMILES IDX 39 68 40 69 66 70 67 71 76 72 68 73 69 74 75 75 77 76 70 77
REMARK SMILES IDX 71 78 72 79 73 80 74 81 50 82 51 83 60 84 52 85 53 86 59 87
REMARK SMILES IDX 61 88 54 89 55 90 56 91 57 92 58 93
REMARK H PARENT 15 5 8 18 20 24 82 43 48 54
REMARK Flexibility Score: inf
ROOT
ATOM      1  C   UNL A   1      30.734  26.856  24.897  1.00  0.00     0.116 C 
ENDROOT
BRANCH   1   2
ATOM      2  N   UNL A   1      31.100  25.512  25.278  1.00  0.00    -0.356 N 
ATOM      3  O   UNL A   1      29.341  25.164  26.715  1.00  0.00    -0.275 OA
ATOM      4  C   UNL A   1      30.349  24.756  26.146  1.00  0.00     0.219 C 
ATOM      5  H   UNL A   1      31.921  25.120  24.900  1.00  0.00     0.163 HD
BRANCH   4   6
ATOM      6  C   UNL A   1      30.890  23.361  26.362  1.00  0.00     0.100 C 
BRANCH   6   7
ATOM      7  C   UNL A   1      32.263  23.350  27.037  1.00  0.00     0.010 C 
BRANCH   7   8
ATOM      8  C   UNL A   1      33.132  22.094  26.853  1.00  0.00     0.004 C 
BRANCH   8   9
ATOM      9  C   UNL A   1      33.261  21.506  25.435  1.00  0.00     0.037 C 
BRANCH   9  10
ATOM     10  C   UNL A   1      34.304  22.156  24.506  1.00  0.00     0.154 C 
BRANCH  10  11
ATOM     11  C   UNL A   1      33.781  23.321  23.715  1.00  0.00     0.035 A 
ATOM     12  C   UNL A   1      32.874  23.328  22.667  1.00  0.00     0.020 A 
ATOM     13  S   UNL A   1      34.310  24.922  24.069  1.00  0.00    -0.126 S 
ATOM     14  C   UNL A   1      32.753  24.610  22.054  1.00  0.00     0.033 A 
ATOM     15  C   UNL A   1      33.528  25.536  22.701  1.00  0.00     0.093 A 
ATOM     16  Cl  UNL A   1      33.754  27.177  22.251  1.00  0.00    -0.072 Cl
ENDBRANCH  10  11
BRANCH  10  17
ATOM     17  O   UNL A   1      35.397  22.632  25.290  1.00  0.00    -0.388 OA
ATOM     18  H   UNL A   1      35.099  22.792  26.198  1.00  0.00     0.211 HD
ENDBRANCH  10  17
ENDBRANCH   9  10
ENDBRANCH   8   9
ENDBRANCH   7   8
ENDBRANCH   6   7
ENDBRANCH   4   6
ENDBRANCH   1   2
BRANCH   1  19
ATOM     19  C   UNL A   1      31.773  27.877  25.355  1.00  0.00     0.023 C 
BRANCH  19  20
ATOM     20  C   UNL A   1      32.246  27.721  26.804  1.00  0.00     0.023 C 
BRANCH  20  21
ATOM     21  C   UNL A   1      33.604  28.340  27.123  1.00  0.00     0.116 C 
BRANCH  21  22
ATOM     22  N   UNL A   1      33.503  29.739  27.502  1.00  0.00    -0.352 N 
ATOM     23  C   UNL A   1      34.418  30.546  28.132  1.00  0.00     0.251 C 
ATOM     24  H   UNL A   1      32.651  30.175  27.272  1.00  0.00     0.163 HD
ATOM     25  O   UNL A   1      34.074  31.661  28.524  1.00  0.00    -0.269 OA
BRANCH  23  26
ATOM     26  C   UNL A   1      35.802  30.077  28.367  1.00  0.00     0.039 A 
ATOM     27  C   UNL A   1      36.717  30.118  27.312  1.00  0.00     0.014 A 
ATOM     28  C   UNL A   1      36.198  29.582  29.613  1.00  0.00     0.014 A 
ATOM     29  C   UNL A   1      38.042  29.728  27.524  1.00  0.00     0.010 A 
ATOM     30  C   UNL A   1      37.537  29.266  29.843  1.00  0.00     0.010 A 
ATOM     31  C   UNL A   1      38.475  29.337  28.802  1.00  0.00    -0.014 A 
BRANCH  31  32
ATOM     32  C   UNL A   1      39.904  29.012  29.066  1.00  0.00     0.031 A 
ATOM     33  C   UNL A   1      40.834  30.058  29.620  1.00  0.00     0.074 A 
ATOM     34  C   UNL A   1      40.377  27.790  28.750  1.00  0.00     0.049 A 
ATOM     35  N   UNL A   1      42.121  29.982  29.846  1.00  0.00    -0.248 NA
ATOM     36  C   UNL A   1      40.247  31.370  29.937  1.00  0.00     0.031 C 
ATOM     37  C   UNL A   1      39.590  26.702  28.165  1.00  0.00     0.029 A 
ATOM     38  N   UNL A   1      41.639  27.259  28.863  1.00  0.00    -0.354 N 
ATOM     39  C   UNL A   1      42.498  31.231  30.325  1.00  0.00     0.074 A 
ATOM     40  C   UNL A   1      41.316  32.066  30.299  1.00  0.00     0.031 C 
ATOM     41  C   UNL A   1      40.378  25.631  27.990  1.00  0.00     0.029 A 
ATOM     42  C   UNL A   1      41.737  25.964  28.405  1.00  0.00     0.049 A 
ATOM     43  H   UNL A   1      42.401  27.757  29.235  1.00  0.00     0.167 HD
ATOM     44  C   UNL A   1      43.711  31.639  30.770  1.00  0.00     0.037 A 
ATOM     45  C   UNL A   1      42.801  25.143  28.317  1.00  0.00     0.037 A 
ATOM     46  C   UNL A   1      44.882  30.801  30.807  1.00  0.00     0.049 A 
ATOM     47  C   UNL A   1      44.144  25.624  28.799  1.00  0.00     0.074 A 
ATOM     48  C   UNL A   1      46.146  31.108  31.281  1.00  0.00     0.029 A 
ATOM     49  N   UNL A   1      44.937  29.491  30.350  1.00  0.00    -0.354 N 
ATOM     50  N   UNL A   1      44.468  26.791  29.303  1.00  0.00    -0.248 NA
ATOM     51  C   UNL A   1      45.263  24.676  28.710  1.00  0.00     0.031 C 
ATOM     52  C   UNL A   1      46.976  30.004  31.063  1.00  0.00     0.029 A 
ATOM     53  C   UNL A   1      46.217  28.986  30.510  1.00  0.00     0.049 A 
ATOM     54  H   UNL A   1      44.177  28.994  29.969  1.00  0.00     0.167 HD
ATOM     55  C   UNL A   1      45.820  26.708  29.617  1.00  0.00     0.074 A 
ATOM     56  C   UNL A   1      46.249  25.371  29.258  1.00  0.00     0.031 C 
ATOM     57  C   UNL A   1      46.633  27.652  30.154  1.00  0.00     0.037 A 
BRANCH  44  58
ATOM     58  C   UNL A   1      43.837  33.059  31.257  1.00  0.00     0.058 A 
ATOM     59  C   UNL A   1      43.682  33.390  32.613  1.00  0.00     0.135 A 
ATOM     60  C   UNL A   1      44.156  34.097  30.365  1.00  0.00     0.135 A 
ATOM     61  F   UNL A   1      43.362  32.442  33.508  1.00  0.00    -0.206 F 
ATOM     62  C   UNL A   1      43.807  34.700  33.063  1.00  0.00     0.059 A 
ATOM     63  C   UNL A   1      44.318  35.410  30.798  1.00  0.00     0.059 A 
ATOM     64  F   UNL A   1      44.317  33.839  29.058  1.00  0.00    -0.206 F 
ATOM     65  C   UNL A   1      44.127  35.704  32.147  1.00  0.00     0.060 A 
BRANCH  65  66
ATOM     66  S   UNL A   1      44.289  37.397  32.750  1.00  0.00     0.124 S 
ATOM     67  O   UNL A   1      45.604  37.357  33.381  1.00  0.00    -0.237 OA
ATOM     68  O   UNL A   1      44.200  38.176  31.518  1.00  0.00    -0.237 OA
ATOM     69  O   UNL A   1      43.159  37.544  33.663  1.00  0.00    -0.744 OA
ENDBRANCH  65  66
ENDBRANCH  44  58
BRANCH  45  70
ATOM     70  C   UNL A   1      42.638  23.774  27.754  1.00  0.00     0.058 A 
ATOM     71  C   UNL A   1      42.650  23.553  26.369  1.00  0.00     0.135 A 
ATOM     72  C   UNL A   1      42.479  22.658  28.592  1.00  0.00     0.135 A 
ATOM     73  F   UNL A   1      42.791  24.587  25.526  1.00  0.00    -0.206 F 
ATOM     74  C   UNL A   1      42.490  22.279  25.832  1.00  0.00     0.059 A 
ATOM     75  C   UNL A   1      42.347  21.371  28.080  1.00  0.00     0.059 A 
ATOM     76  F   UNL A   1      42.479  22.812  29.925  1.00  0.00    -0.206 F 
ATOM     77  C   UNL A   1      42.343  21.194  26.697  1.00  0.00     0.060 A 
BRANCH  77  78
ATOM     78  S   UNL A   1      42.185  19.538  25.992  1.00  0.00     0.124 S 
ATOM     79  O   UNL A   1      40.757  19.478  25.703  1.00  0.00    -0.237 OA
ATOM     80  O   UNL A   1      43.069  19.615  24.833  1.00  0.00    -0.237 OA
ATOM     81  O   UNL A   1      42.650  18.670  27.069  1.00  0.00    -0.744 OA
ENDBRANCH  77  78
ENDBRANCH  45  70
BRANCH  57  82
ATOM     82  C   UNL A   1      48.062  27.268  30.426  1.00  0.00     0.058 A 
ATOM     83  C   UNL A   1      49.097  27.579  29.529  1.00  0.00     0.135 A 
ATOM     84  C   UNL A   1      48.409  26.625  31.626  1.00  0.00     0.135 A 
ATOM     85  F   UNL A   1      48.822  28.186  28.364  1.00  0.00    -0.206 F 
ATOM     86  C   UNL A   1      50.420  27.245  29.801  1.00  0.00     0.059 A 
ATOM     87  C   UNL A   1      49.729  26.310  31.934  1.00  0.00     0.059 A 
ATOM     88  F   UNL A   1      47.461  26.313  32.524  1.00  0.00    -0.206 F 
ATOM     89  C   UNL A   1      50.726  26.614  31.008  1.00  0.00     0.060 A 
BRANCH  89  90
ATOM     90  S   UNL A   1      52.452  26.218  31.364  1.00  0.00     0.124 S 
ATOM     91  O   UNL A   1      52.320  24.971  32.109  1.00  0.00    -0.237 OA
ATOM     92  O   UNL A   1      53.026  26.101  30.027  1.00  0.00    -0.237 OA
ATOM     93  O   UNL A   1      52.911  27.368  32.139  1.00  0.00    -0.744 OA
ENDBRANCH  89  90
ENDBRANCH  57  82
ENDBRANCH  31  32
ENDBRANCH  23  26
ENDBRANCH  21  22
ENDBRANCH  20  21
ENDBRANCH  19  20
ENDBRANCH   1  19
TORSDOF 20
ENDMDL
MODEL 3
REMARK VINA RESULT:      -9.7      2.843      4.048
REMARK SMILES O=C(CCCC[C@H](O)c1ccc(Cl)s1)NCCCCNC(=O)c1ccc(-c2c3nc(c(-c4c(F)cc(S(=O)(=O)[O-])cc4F)c4ccc([nH]4)c(-c4c(F)cc(S(=O)(=O)[O-])cc4F)c4nc(c(-c5c(F)cc(S(=O)(=O)[O-])cc5F)c5ccc2[nH]5)C=C4)C=C3)cc1
REMARK SMILES IDX 16 1 15 2 1 3 2 4 3 6 4 7 5 8 6 9 7 10 9 11 10 12 14 13
REMARK SMILES IDX 11 14 12 15 13 16 8 17 17 19 18 20 19 21 20 22 21 23 22 25
REMARK SMILES IDX 23 26 24 27 88 28 25 29 87 30 26 31 27 32 28 33 81 34 29 35
REMARK SMILES IDX 86 36 80 37 82 38 30 39 85 40 79 41 78 42 31 44 65 45 44 46
REMARK SMILES IDX 64 47 45 48 48 49 63 50 83 51 46 52 47 53 62 55 84 56 49 57
REMARK SMILES IDX 32 58 33 59 42 60 34 61 35 62 41 63 43 64 36 65 37 66 38 67
REMARK SMILES IDX 39 68 40 69 66 70 67 71 76 72 68 73 69 74 75 75 77 76 70 77
REMARK SMILES IDX 71 78 72 79 73 80 74 81 50 82 51 83 60 84 52 85 53 86 59 87
REMARK SMILES IDX 61 88 54 89 55 90 56 91 57 92 58 93
REMARK H PARENT 15 5 8 18 20 24 82 43 48 54
REMARK Flexibility Score: inf
ROOT
ATOM      1  C   UNL A   1      46.026  23.715  25.235  1.00  0.00     0.116 C 
ENDROOT
BRANCH   1   2
ATOM      2  N   UNL A   1      45.994  22.272  25.318  1.00  0.00    -0.356 N 
ATOM      3  O   UNL A   1      44.440  21.954  23.657  1.00  0.00    -0.275 OA
ATOM      4  C   UNL A   1      45.214  21.499  24.493  1.00  0.00     0.219 C 
ATOM      5  H   UNL A   1      46.555  21.825  25.993  1.00  0.00     0.163 HD
BRANCH   4   6
ATOM      6  C   UNL A   1      45.376  20.013  24.720  1.00  0.00     0.100 C 
BRANCH   6   7
ATOM      7  C   UNL A   1      44.064  19.239  24.569  1.00  0.00     0.010 C 
BRANCH   7   8
ATOM      8  C   UNL A   1      43.414  18.694  25.852  1.00  0.00     0.004 C 
BRANCH   8   9
ATOM      9  C   UNL A   1      41.979  19.144  26.183  1.00  0.00     0.037 C 
BRANCH   9  10
ATOM     10  C   UNL A   1      41.789  19.963  27.475  1.00  0.00     0.154 C 
BRANCH  10  11
ATOM     11  C   UNL A   1      41.061  21.262  27.278  1.00  0.00     0.035 A 
ATOM     12  C   UNL A   1      41.264  22.480  27.910  1.00  0.00     0.020 A 
ATOM     13  S   UNL A   1      39.778  21.378  26.135  1.00  0.00    -0.126 S 
ATOM     14  C   UNL A   1      40.263  23.440  27.582  1.00  0.00     0.033 A 
ATOM     15  C   UNL A   1      39.377  22.932  26.669  1.00  0.00     0.093 A 
ATOM     16  Cl  UNL A   1      37.970  23.708  26.064  1.00  0.00    -0.072 Cl
ENDBRANCH  10  11
BRANCH  10  17
ATOM     17  O   UNL A   1      41.036  19.193  28.411  1.00  0.00    -0.388 OA
ATOM     18  H   UNL A   1      41.203  19.520  29.308  1.00  0.00     0.211 HD
ENDBRANCH  10  17
ENDBRANCH   9  10
ENDBRANCH   8   9
ENDBRANCH   7   8
ENDBRANCH   6   7
ENDBRANCH   4   6
ENDBRANCH   1   2
BRANCH   1  19
ATOM     19  C   UNL A   1      45.232  24.364  26.365  1.00  0.00     0.023 C 
BRANCH  19  20
ATOM     20  C   UNL A   1      45.423  25.878  26.510  1.00  0.00     0.023 C 
BRANCH  20  21
ATOM     21  C   UNL A   1      44.904  26.720  25.348  1.00  0.00     0.116 C 
BRANCH  21  22
ATOM     22  N   UNL A   1      43.597  26.284  24.884  1.00  0.00    -0.352 N 
ATOM     23  C   UNL A   1      42.377  26.347  25.511  1.00  0.00     0.251 C 
ATOM     24  H   UNL A   1      43.585  25.885  23.984  1.00  0.00     0.163 HD
ATOM     25  O   UNL A   1      41.413  25.761  25.019  1.00  0.00    -0.269 OA
BRANCH  23  26
ATOM     26  C   UNL A   1      42.220  27.087  26.782  1.00  0.00     0.039 A 
ATOM     27  C   UNL A   1      42.664  28.410  26.853  1.00  0.00     0.014 A 
ATOM     28  C   UNL A   1      41.654  26.482  27.909  1.00  0.00     0.014 A 
ATOM     29  C   UNL A   1      42.479  29.145  28.027  1.00  0.00     0.010 A 
ATOM     30  C   UNL A   1      41.402  27.239  29.053  1.00  0.00     0.010 A 
ATOM     31  C   UNL A   1      41.810  28.580  29.125  1.00  0.00    -0.014 A 
BRANCH  31  32
ATOM     32  C   UNL A   1      41.519  29.379  30.346  1.00  0.00     0.031 A 
ATOM     33  C   UNL A   1      42.362  29.215  31.583  1.00  0.00     0.074 A 
ATOM     34  C   UNL A   1      40.458  30.210  30.361  1.00  0.00     0.049 A 
ATOM     35  N   UNL A   1      42.218  29.770  32.760  1.00  0.00    -0.248 NA
ATOM     36  C   UNL A   1      43.501  28.287  31.494  1.00  0.00     0.031 C 
ATOM     37  C   UNL A   1      39.537  30.426  29.243  1.00  0.00     0.029 A 
ATOM     38  N   UNL A   1      39.965  31.021  31.354  1.00  0.00    -0.354 N 
ATOM     39  C   UNL A   1      43.239  29.256  33.551  1.00  0.00     0.074 A 
ATOM     40  C   UNL A   1      43.959  28.300  32.738  1.00  0.00     0.031 C 
ATOM     41  C   UNL A   1      38.605  31.322  29.604  1.00  0.00     0.029 A 
ATOM     42  C   UNL A   1      38.832  31.713  30.992  1.00  0.00     0.049 A 
ATOM     43  H   UNL A   1      40.383  31.099  32.242  1.00  0.00     0.167 HD
ATOM     44  C   UNL A   1      43.563  29.571  34.828  1.00  0.00     0.037 A 
ATOM     45  C   UNL A   1      38.055  32.557  31.699  1.00  0.00     0.037 A 
ATOM     46  C   UNL A   1      42.851  30.534  35.629  1.00  0.00     0.049 A 
ATOM     47  C   UNL A   1      38.423  32.877  33.123  1.00  0.00     0.074 A 
ATOM     48  C   UNL A   1      43.130  30.955  36.918  1.00  0.00     0.029 A 
ATOM     49  N   UNL A   1      41.720  31.226  35.221  1.00  0.00    -0.354 N 
ATOM     50  N   UNL A   1      39.428  32.425  33.836  1.00  0.00    -0.248 NA
ATOM     51  C   UNL A   1      37.560  33.828  33.838  1.00  0.00     0.031 C 
ATOM     52  C   UNL A   1      42.137  31.859  37.308  1.00  0.00     0.029 A 
ATOM     53  C   UNL A   1      41.274  32.051  36.241  1.00  0.00     0.049 A 
ATOM     54  H   UNL A   1      41.295  31.143  34.336  1.00  0.00     0.167 HD
ATOM     55  C   UNL A   1      39.334  33.056  35.071  1.00  0.00     0.074 A 
ATOM     56  C   UNL A   1      38.182  33.933  35.003  1.00  0.00     0.031 C 
ATOM     57  C   UNL A   1      40.129  32.924  36.162  1.00  0.00     0.037 A 
BRANCH  44  58
ATOM     58  C   UNL A   1      44.744  28.868  35.443  1.00  0.00     0.058 A 
ATOM     59  C   UNL A   1      44.617  27.610  36.056  1.00  0.00     0.135 A 
ATOM     60  C   UNL A   1      46.028  29.438  35.386  1.00  0.00     0.135 A 
ATOM     61  F   UNL A   1      43.413  27.024  36.154  1.00  0.00    -0.206 F 
ATOM     62  C   UNL A   1      45.711  26.958  36.617  1.00  0.00     0.059 A 
ATOM     63  C   UNL A   1      47.141  28.788  35.911  1.00  0.00     0.059 A 
ATOM     64  F   UNL A   1      46.209  30.637  34.811  1.00  0.00    -0.206 F 
ATOM     65  C   UNL A   1      46.970  27.556  36.538  1.00  0.00     0.060 A 
BRANCH  65  66
ATOM     66  S   UNL A   1      48.377  26.693  37.268  1.00  0.00     0.124 S 
ATOM     67  O   UNL A   1      48.441  25.490  36.443  1.00  0.00    -0.237 OA
ATOM     68  O   UNL A   1      49.462  27.650  37.076  1.00  0.00    -0.237 OA
ATOM     69  O   UNL A   1      47.968  26.483  38.653  1.00  0.00    -0.744 OA
ENDBRANCH  65  66
ENDBRANCH  44  58
BRANCH  45  70
ATOM     70  C   UNL A   1      36.852  33.166  31.067  1.00  0.00     0.058 A 
ATOM     71  C   UNL A   1      36.974  34.156  30.081  1.00  0.00     0.135 A 
ATOM     72  C   UNL A   1      35.558  32.760  31.428  1.00  0.00     0.135 A 
ATOM     73  F   UNL A   1      38.189  34.583  29.705  1.00  0.00    -0.206 F 
ATOM     74  C   UNL A   1      35.857  34.738  29.489  1.00  0.00     0.059 A 
ATOM     75  C   UNL A   1      34.426  33.305  30.830  1.00  0.00     0.059 A 
ATOM     76  F   UNL A   1      35.386  31.803  32.354  1.00  0.00    -0.206 F 
ATOM     77  C   UNL A   1      34.586  34.302  29.869  1.00  0.00     0.060 A 
BRANCH  77  78
ATOM     78  S   UNL A   1      33.143  35.028  29.060  1.00  0.00     0.124 S 
ATOM     79  O   UNL A   1      32.795  33.990  28.096  1.00  0.00    -0.237 OA
ATOM     80  O   UNL A   1      32.220  35.197  30.178  1.00  0.00    -0.237 OA
ATOM     81  O   UNL A   1      33.665  36.268  28.494  1.00  0.00    -0.744 OA
ENDBRANCH  77  78
ENDBRANCH  45  70
BRANCH  57  82
ATOM     82  C   UNL A   1      39.810  33.772  37.364  1.00  0.00     0.058 A 
ATOM     83  C   UNL A   1      38.916  33.343  38.358  1.00  0.00     0.135 A 
ATOM     84  C   UNL A   1      40.449  35.010  37.549  1.00  0.00     0.135 A 
ATOM     85  F   UNL A   1      38.273  32.171  38.228  1.00  0.00    -0.206 F 
ATOM     86  C   UNL A   1      38.649  34.120  39.480  1.00  0.00     0.059 A 
ATOM     87  C   UNL A   1      40.221  35.790  38.678  1.00  0.00     0.059 A 
ATOM     88  F   UNL A   1      41.320  35.464  36.634  1.00  0.00    -0.206 F 
ATOM     89  C   UNL A   1      39.309  35.341  39.633  1.00  0.00     0.060 A 
BRANCH  89  90
ATOM     90  S   UNL A   1      38.979  36.324  41.111  1.00  0.00     0.124 S 
ATOM     91  O   UNL A   1      40.252  36.231  41.816  1.00  0.00    -0.237 OA
ATOM     92  O   UNL A   1      38.659  37.633  40.550  1.00  0.00    -0.237 OA
ATOM     93  O   UNL A   1      37.860  35.627  41.740  1.00  0.00    -0.744 OA
ENDBRANCH  89  90
ENDBRANCH  57  82
ENDBRANCH  31  32
ENDBRANCH  23  26
ENDBRANCH  21  22
ENDBRANCH  20  21
ENDBRANCH  19  20
ENDBRANCH   1  19
TORSDOF 20
ENDMDL
