MODEL 1
REMARK VINA RESULT:     -11.7      0.000      0.000
REMARK SMILES C[C@@H](Oc1ccccc1Cl)C(=O)N1CC[C@H](C(=O)NCCCCNC(=O)c2ccc(-c3c4nc(c(-c5c(F)cc(S(=O)(=O)[O-])cc5F)c5ccc([nH]5)c(-c5c(F)cc(S(=O)(=O)[O-])cc5F)c5nc(c(-c6c(F)cc(S(=O)(=O)[O-])cc6F)c6ccc3[nH]6)C=C5)C=C4)cc2)[C@@H]1C
REMARK SMILES IDX 21 1 20 2 19 3 17 4 18 5 16 7 13 8 14 9 93 10 15 11 94 12
REMARK SMILES IDX 11 13 12 14 2 15 1 16 3 17 4 18 5 19 9 20 6 21 8 22 10 23
REMARK SMILES IDX 7 24 22 25 23 26 24 27 25 28 26 30 27 31 28 32 92 33 29 34
REMARK SMILES IDX 91 35 30 36 31 37 32 38 85 39 33 40 90 41 84 42 86 43 34 44
REMARK SMILES IDX 89 45 83 46 82 47 35 49 69 50 48 51 68 52 49 53 52 54 67 55
REMARK SMILES IDX 87 56 50 57 51 58 66 60 88 61 53 62 36 63 37 64 46 65 38 66
REMARK SMILES IDX 39 67 45 68 47 69 40 70 41 71 42 72 43 73 44 74 70 75 71 76
REMARK SMILES IDX 80 77 72 78 73 79 79 80 81 81 74 82 75 83 76 84 77 85 78 86
REMARK SMILES IDX 54 87 55 88 64 89 56 90 57 91 63 92 65 93 58 94 59 95 60 96
REMARK SMILES IDX 61 97 62 98
REMARK H PARENT 19 6 24 29 86 48 52 59
REMARK Flexibility Score: inf
ROOT
ATOM      1  C   UNL A   1      33.427  30.068  26.206  1.00  0.00     0.023 C 
ENDROOT
BRANCH   1   2
ATOM      2  C   UNL A   1      31.924  30.305  26.335  1.00  0.00     0.116 C 
BRANCH   2   3
ATOM      3  N   UNL A   1      31.262  30.277  25.044  1.00  0.00    -0.356 N 
ATOM      4  C   UNL A   1      30.940  29.216  24.248  1.00  0.00     0.225 C 
ATOM      5  O   UNL A   1      30.326  29.455  23.211  1.00  0.00    -0.275 OA
ATOM      6  H   UNL A   1      31.005  31.158  24.689  1.00  0.00     0.163 HD
BRANCH   4   7
ATOM      7  C   UNL A   1      31.276  27.812  24.741  1.00  0.00     0.102 C 
ATOM      8  N   UNL A   1      31.969  25.956  23.392  1.00  0.00    -0.336 N 
ATOM      9  C   UNL A   1      30.572  26.205  23.104  1.00  0.00     0.121 C 
ATOM     10  C   UNL A   1      32.521  27.079  24.168  1.00  0.00     0.094 C 
ATOM     11  C   UNL A   1      30.097  26.895  24.372  1.00  0.00     0.037 C 
ATOM     12  C   UNL A   1      33.459  27.947  23.332  1.00  0.00     0.032 C 
BRANCH   8  13
ATOM     13  C   UNL A   1      32.511  24.724  23.091  1.00  0.00     0.263 C 
ATOM     14  O   UNL A   1      32.682  24.382  21.913  1.00  0.00    -0.271 OA
BRANCH  13  15
ATOM     15  C   UNL A   1      32.829  23.707  24.205  1.00  0.00     0.259 C 
ATOM     16  C   UNL A   1      31.678  23.477  25.171  1.00  0.00     0.064 C 
BRANCH  15  17
ATOM     17  O   UNL A   1      33.266  22.475  23.606  1.00  0.00    -0.479 OA
BRANCH  17  18
ATOM     18  C   UNL A   1      34.550  22.147  23.960  1.00  0.00     0.139 A 
ATOM     19  C   UNL A   1      35.617  22.880  23.432  1.00  0.00     0.048 A 
ATOM     20  C   UNL A   1      34.801  21.035  24.771  1.00  0.00     0.083 A 
ATOM     21  C   UNL A   1      36.929  22.538  23.767  1.00  0.00     0.004 A 
ATOM     22  C   UNL A   1      36.113  20.711  25.122  1.00  0.00     0.024 A 
ATOM     23  Cl  UNL A   1      33.526  20.027  25.351  1.00  0.00    -0.080 Cl
ATOM     24  C   UNL A   1      37.176  21.465  24.624  1.00  0.00     0.002 A 
ENDBRANCH  17  18
ENDBRANCH  15  17
ENDBRANCH  13  15
ENDBRANCH   8  13
ENDBRANCH   4   7
ENDBRANCH   2   3
ENDBRANCH   1   2
BRANCH   1  25
ATOM     25  C   UNL A   1      34.039  29.224  27.327  1.00  0.00     0.023 C 
BRANCH  25  26
ATOM     26  C   UNL A   1      35.411  29.681  27.811  1.00  0.00     0.116 C 
BRANCH  26  27
ATOM     27  N   UNL A   1      35.387  30.195  29.169  1.00  0.00    -0.352 N 
ATOM     28  C   UNL A   1      36.406  30.253  30.091  1.00  0.00     0.251 C 
ATOM     29  H   UNL A   1      34.521  30.553  29.471  1.00  0.00     0.163 HD
ATOM     30  O   UNL A   1      36.161  30.583  31.245  1.00  0.00    -0.269 OA
BRANCH  28  31
ATOM     31  C   UNL A   1      37.786  29.894  29.691  1.00  0.00     0.039 A 
ATOM     32  C   UNL A   1      38.673  29.436  30.668  1.00  0.00     0.014 A 
ATOM     33  C   UNL A   1      38.209  30.018  28.365  1.00  0.00     0.014 A 
ATOM     34  C   UNL A   1      39.971  29.065  30.307  1.00  0.00     0.010 A 
ATOM     35  C   UNL A   1      39.472  29.566  27.993  1.00  0.00     0.010 A 
ATOM     36  C   UNL A   1      40.376  29.107  28.963  1.00  0.00    -0.014 A 
BRANCH  36  37
ATOM     37  C   UNL A   1      41.756  28.724  28.562  1.00  0.00     0.031 A 
ATOM     38  C   UNL A   1      42.844  29.767  28.525  1.00  0.00     0.074 A 
ATOM     39  C   UNL A   1      42.024  27.456  28.196  1.00  0.00     0.049 A 
ATOM     40  N   UNL A   1      44.099  29.642  28.173  1.00  0.00    -0.248 NA
ATOM     41  C   UNL A   1      42.464  31.138  28.903  1.00  0.00     0.031 C 
ATOM     42  C   UNL A   1      41.048  26.366  28.140  1.00  0.00     0.029 A 
ATOM     43  N   UNL A   1      43.198  26.869  27.793  1.00  0.00    -0.354 N 
ATOM     44  C   UNL A   1      44.649  30.915  28.273  1.00  0.00     0.074 A 
ATOM     45  C   UNL A   1      43.578  31.809  28.654  1.00  0.00     0.031 C 
ATOM     46  C   UNL A   1      41.669  25.238  27.757  1.00  0.00     0.029 A 
ATOM     47  C   UNL A   1      43.076  25.529  27.503  1.00  0.00     0.049 A 
ATOM     48  H   UNL A   1      44.048  27.360  27.720  1.00  0.00     0.167 HD
ATOM     49  C   UNL A   1      45.935  31.302  28.095  1.00  0.00     0.037 A 
ATOM     50  C   UNL A   1      43.995  24.638  27.081  1.00  0.00     0.037 A 
ATOM     51  C   UNL A   1      47.001  30.402  27.738  1.00  0.00     0.049 A 
ATOM     52  C   UNL A   1      45.421  25.086  26.899  1.00  0.00     0.074 A 
ATOM     53  C   UNL A   1      48.347  30.682  27.581  1.00  0.00     0.029 A 
ATOM     54  N   UNL A   1      46.842  29.049  27.480  1.00  0.00    -0.354 N 
ATOM     55  N   UNL A   1      45.938  26.282  27.058  1.00  0.00    -0.248 NA
ATOM     56  C   UNL A   1      46.392  24.061  26.496  1.00  0.00     0.031 C 
ATOM     57  C   UNL A   1      48.994  29.508  27.180  1.00  0.00     0.029 A 
ATOM     58  C   UNL A   1      48.063  28.482  27.150  1.00  0.00     0.049 A 
ATOM     59  H   UNL A   1      45.987  28.561  27.524  1.00  0.00     0.167 HD
ATOM     60  C   UNL A   1      47.300  26.145  26.815  1.00  0.00     0.074 A 
ATOM     61  C   UNL A   1      47.526  24.747  26.504  1.00  0.00     0.031 C 
ATOM     62  C   UNL A   1      48.277  27.087  26.853  1.00  0.00     0.037 A 
BRANCH  49  63
ATOM     63  C   UNL A   1      46.256  32.763  28.281  1.00  0.00     0.058 A 
ATOM     64  C   UNL A   1      46.682  33.276  29.518  1.00  0.00     0.135 A 
ATOM     65  C   UNL A   1      46.153  33.659  27.205  1.00  0.00     0.135 A 
ATOM     66  F   UNL A   1      46.784  32.469  30.586  1.00  0.00    -0.206 F 
ATOM     67  C   UNL A   1      46.952  34.630  29.691  1.00  0.00     0.059 A 
ATOM     68  C   UNL A   1      46.452  35.011  27.347  1.00  0.00     0.059 A 
ATOM     69  F   UNL A   1      45.753  33.226  25.999  1.00  0.00    -0.206 F 
ATOM     70  C   UNL A   1      46.833  35.490  28.600  1.00  0.00     0.060 A 
BRANCH  70  71
ATOM     71  S   UNL A   1      47.181  37.244  28.843  1.00  0.00     0.124 S 
ATOM     72  O   UNL A   1      48.589  37.317  28.462  1.00  0.00    -0.237 OA
ATOM     73  O   UNL A   1      46.243  37.879  27.923  1.00  0.00    -0.237 OA
ATOM     74  O   UNL A   1      46.905  37.453  30.261  1.00  0.00    -0.744 OA
ENDBRANCH  70  71
ENDBRANCH  49  63
BRANCH  50  75
ATOM     75  C   UNL A   1      43.600  23.224  26.841  1.00  0.00     0.058 A 
ATOM     76  C   UNL A   1      43.269  22.373  27.906  1.00  0.00     0.135 A 
ATOM     77  C   UNL A   1      43.529  22.698  25.541  1.00  0.00     0.135 A 
ATOM     78  F   UNL A   1      43.327  22.825  29.168  1.00  0.00    -0.206 F 
ATOM     79  C   UNL A   1      42.899  21.048  27.695  1.00  0.00     0.059 A 
ATOM     80  C   UNL A   1      43.135  21.386  25.302  1.00  0.00     0.059 A 
ATOM     81  F   UNL A   1      43.819  23.474  24.485  1.00  0.00    -0.206 F 
ATOM     82  C   UNL A   1      42.830  20.566  26.388  1.00  0.00     0.060 A 
BRANCH  82  83
ATOM     83  S   UNL A   1      42.295  18.860  26.123  1.00  0.00     0.124 S 
ATOM     84  O   UNL A   1      40.892  19.042  25.773  1.00  0.00    -0.237 OA
ATOM     85  O   UNL A   1      43.174  18.429  25.041  1.00  0.00    -0.237 OA
ATOM     86  O   UNL A   1      42.547  18.226  27.415  1.00  0.00    -0.744 OA
ENDBRANCH  82  83
ENDBRANCH  50  75
BRANCH  62  87
ATOM     87  C   UNL A   1      49.691  26.629  26.615  1.00  0.00     0.058 A 
ATOM     88  C   UNL A   1      50.254  26.573  25.329  1.00  0.00     0.135 A 
ATOM     89  C   UNL A   1      50.506  26.269  27.700  1.00  0.00     0.135 A 
ATOM     90  F   UNL A   1      49.519  26.904  24.255  1.00  0.00    -0.206 F 
ATOM     91  C   UNL A   1      51.560  26.137  25.126  1.00  0.00     0.059 A 
ATOM     92  C   UNL A   1      51.825  25.864  27.524  1.00  0.00     0.059 A 
ATOM     93  F   UNL A   1      50.026  26.318  28.954  1.00  0.00    -0.206 F 
ATOM     94  C   UNL A   1      52.337  25.783  26.230  1.00  0.00     0.060 A 
BRANCH  94  95
ATOM     95  S   UNL A   1      54.031  25.223  25.955  1.00  0.00     0.124 S 
ATOM     96  O   UNL A   1      54.531  26.244  25.039  1.00  0.00    -0.237 OA
ATOM     97  O   UNL A   1      54.592  25.250  27.301  1.00  0.00    -0.237 OA
ATOM     98  O   UNL A   1      53.860  23.893  25.380  1.00  0.00    -0.744 OA
ENDBRANCH  94  95
ENDBRANCH  62  87
ENDBRANCH  36  37
ENDBRANCH  28  31
ENDBRANCH  26  27
ENDBRANCH  25  26
ENDBRANCH   1  25
TORSDOF 18
ENDMDL
MODEL 2
REMARK VINA RESULT:     -11.4      2.928      3.796
REMARK SMILES C[C@@H](Oc1ccccc1Cl)C(=O)N1CC[C@H](C(=O)NCCCCNC(=O)c2ccc(-c3c4nc(c(-c5c(F)cc(S(=O)(=O)[O-])cc5F)c5ccc([nH]5)c(-c5c(F)cc(S(=O)(=O)[O-])cc5F)c5nc(c(-c6c(F)cc(S(=O)(=O)[O-])cc6F)c6ccc3[nH]6)C=C5)C=C4)cc2)[C@@H]1C
REMARK SMILES IDX 21 1 20 2 19 3 17 4 18 5 16 7 13 8 14 9 93 10 15 11 94 12
REMARK SMILES IDX 11 13 12 14 2 15 1 16 3 17 4 18 5 19 9 20 6 21 8 22 10 23
REMARK SMILES IDX 7 24 22 25 23 26 24 27 25 28 26 30 27 31 28 32 92 33 29 34
REMARK SMILES IDX 91 35 30 36 31 37 32 38 85 39 33 40 90 41 84 42 86 43 34 44
REMARK SMILES IDX 89 45 83 46 82 47 35 49 69 50 48 51 68 52 49 53 52 54 67 55
REMARK SMILES IDX 87 56 50 57 51 58 66 60 88 61 53 62 36 63 37 64 46 65 38 66
REMARK SMILES IDX 39 67 45 68 47 69 40 70 41 71 42 72 43 73 44 74 70 75 71 76
REMARK SMILES IDX 80 77 72 78 73 79 79 80 81 81 74 82 75 83 76 84 77 85 78 86
REMARK SMILES IDX 54 87 55 88 64 89 56 90 57 91 63 92 65 93 58 94 59 95 60 96
REMARK SMILES IDX 61 97 62 98
REMARK H PARENT 19 6 24 29 86 48 52 59
REMARK Flexibility Score: inf
ROOT
ATOM      1  C   UNL A   1      32.701  29.123  24.526  1.00  0.00     0.023 C 
ENDROOT
BRANCH   1   2
ATOM      2  C   UNL A   1      32.134  28.636  23.195  1.00  0.00     0.116 C 
BRANCH   2   3
ATOM      3  N   UNL A   1      30.858  27.967  23.365  1.00  0.00    -0.356 N 
ATOM      4  C   UNL A   1      30.582  26.716  23.839  1.00  0.00     0.225 C 
ATOM      5  O   UNL A   1      29.399  26.399  23.935  1.00  0.00    -0.275 OA
ATOM      6  H   UNL A   1      30.071  28.495  23.099  1.00  0.00     0.163 HD
BRANCH   4   7
ATOM      7  C   UNL A   1      31.744  25.844  24.303  1.00  0.00     0.102 C 
ATOM      8  N   UNL A   1      32.135  23.556  23.707  1.00  0.00    -0.336 N 
ATOM      9  C   UNL A   1      30.982  23.586  24.582  1.00  0.00     0.121 C 
ATOM     10  C   UNL A   1      32.466  24.925  23.279  1.00  0.00     0.094 C 
ATOM     11  C   UNL A   1      31.201  24.871  25.363  1.00  0.00     0.037 C 
ATOM     12  C   UNL A   1      32.102  25.171  21.816  1.00  0.00     0.032 C 
BRANCH   8  13
ATOM     13  C   UNL A   1      32.830  22.375  23.546  1.00  0.00     0.263 C 
ATOM     14  O   UNL A   1      32.444  21.522  22.736  1.00  0.00    -0.271 OA
BRANCH  13  15
ATOM     15  C   UNL A   1      34.046  22.047  24.435  1.00  0.00     0.259 C 
ATOM     16  C   UNL A   1      34.045  20.626  24.974  1.00  0.00     0.064 C 
BRANCH  15  17
ATOM     17  O   UNL A   1      35.252  22.331  23.707  1.00  0.00    -0.479 OA
BRANCH  17  18
ATOM     18  C   UNL A   1      36.331  22.521  24.533  1.00  0.00     0.139 A 
ATOM     19  C   UNL A   1      37.332  21.547  24.590  1.00  0.00     0.048 A 
ATOM     20  C   UNL A   1      36.392  23.635  25.376  1.00  0.00     0.083 A 
ATOM     21  C   UNL A   1      38.423  21.720  25.446  1.00  0.00     0.004 A 
ATOM     22  C   UNL A   1      37.495  23.816  26.213  1.00  0.00     0.024 A 
ATOM     23  Cl  UNL A   1      35.125  24.805  25.430  1.00  0.00    -0.080 Cl
ATOM     24  C   UNL A   1      38.512  22.861  26.244  1.00  0.00     0.002 A 
ENDBRANCH  17  18
ENDBRANCH  15  17
ENDBRANCH  13  15
ENDBRANCH   8  13
ENDBRANCH   4   7
ENDBRANCH   2   3
ENDBRANCH   1   2
BRANCH   1  25
ATOM     25  C   UNL A   1      33.837  28.265  25.089  1.00  0.00     0.023 C 
BRANCH  25  26
ATOM     26  C   UNL A   1      34.026  28.345  26.600  1.00  0.00     0.116 C 
BRANCH  26  27
ATOM     27  N   UNL A   1      33.762  29.670  27.131  1.00  0.00    -0.352 N 
ATOM     28  C   UNL A   1      34.559  30.456  27.931  1.00  0.00     0.251 C 
ATOM     29  H   UNL A   1      32.894  30.061  26.883  1.00  0.00     0.163 HD
ATOM     30  O   UNL A   1      34.106  31.490  28.409  1.00  0.00    -0.269 OA
BRANCH  28  31
ATOM     31  C   UNL A   1      35.948  30.039  28.230  1.00  0.00     0.039 A 
ATOM     32  C   UNL A   1      36.912  30.135  27.223  1.00  0.00     0.014 A 
ATOM     33  C   UNL A   1      36.299  29.545  29.488  1.00  0.00     0.014 A 
ATOM     34  C   UNL A   1      38.234  29.774  27.493  1.00  0.00     0.010 A 
ATOM     35  C   UNL A   1      37.631  29.269  29.781  1.00  0.00     0.010 A 
ATOM     36  C   UNL A   1      38.611  29.357  28.780  1.00  0.00    -0.014 A 
BRANCH  36  37
ATOM     37  C   UNL A   1      40.012  28.960  29.082  1.00  0.00     0.031 A 
ATOM     38  C   UNL A   1      40.948  29.946  29.734  1.00  0.00     0.074 A 
ATOM     39  C   UNL A   1      40.455  27.735  28.737  1.00  0.00     0.049 A 
ATOM     40  N   UNL A   1      42.211  29.804  30.048  1.00  0.00    -0.248 NA
ATOM     41  C   UNL A   1      40.400  31.275  30.047  1.00  0.00     0.031 C 
ATOM     42  C   UNL A   1      39.663  26.710  28.055  1.00  0.00     0.029 A 
ATOM     43  N   UNL A   1      41.683  27.146  28.906  1.00  0.00    -0.354 N 
ATOM     44  C   UNL A   1      42.609  31.026  30.578  1.00  0.00     0.074 A 
ATOM     45  C   UNL A   1      41.473  31.918  30.482  1.00  0.00     0.031 C 
ATOM     46  C   UNL A   1      40.416  25.609  27.891  1.00  0.00     0.029 A 
ATOM     47  C   UNL A   1      41.752  25.861  28.420  1.00  0.00     0.049 A 
ATOM     48  H   UNL A   1      42.443  27.601  29.336  1.00  0.00     0.167 HD
ATOM     49  C   UNL A   1      43.800  31.369  31.123  1.00  0.00     0.037 A 
ATOM     50  C   UNL A   1      42.777  24.985  28.405  1.00  0.00     0.037 A 
ATOM     51  C   UNL A   1      44.919  30.471  31.236  1.00  0.00     0.049 A 
ATOM     52  C   UNL A   1      44.090  25.383  29.025  1.00  0.00     0.074 A 
ATOM     53  C   UNL A   1      46.154  30.701  31.816  1.00  0.00     0.029 A 
ATOM     54  N   UNL A   1      44.941  29.169  30.758  1.00  0.00    -0.354 N 
ATOM     55  N   UNL A   1      44.431  26.523  29.578  1.00  0.00    -0.248 NA
ATOM     56  C   UNL A   1      45.153  24.369  29.034  1.00  0.00     0.031 C 
ATOM     57  C   UNL A   1      46.940  29.556  31.644  1.00  0.00     0.029 A 
ATOM     58  C   UNL A   1      46.172  28.589  31.015  1.00  0.00     0.049 A 
ATOM     59  H   UNL A   1      44.191  28.722  30.301  1.00  0.00     0.167 HD
ATOM     60  C   UNL A   1      45.732  26.351  30.038  1.00  0.00     0.074 A 
ATOM     61  C   UNL A   1      46.113  24.994  29.702  1.00  0.00     0.031 C 
ATOM     62  C   UNL A   1      46.536  27.232  30.685  1.00  0.00     0.037 A 
BRANCH  49  63
ATOM     63  C   UNL A   1      43.953  32.779  31.636  1.00  0.00     0.058 A 
ATOM     64  C   UNL A   1      43.586  33.134  32.945  1.00  0.00     0.135 A 
ATOM     65  C   UNL A   1      44.488  33.784  30.814  1.00  0.00     0.135 A 
ATOM     66  F   UNL A   1      43.054  32.220  33.771  1.00  0.00    -0.206 F 
ATOM     67  C   UNL A   1      43.704  34.442  33.405  1.00  0.00     0.059 A 
ATOM     68  C   UNL A   1      44.649  35.091  31.265  1.00  0.00     0.059 A 
ATOM     69  F   UNL A   1      44.858  33.503  29.555  1.00  0.00    -0.206 F 
ATOM     70  C   UNL A   1      44.235  35.414  32.557  1.00  0.00     0.060 A 
BRANCH  70  71
ATOM     71  S   UNL A   1      44.377  37.106  33.168  1.00  0.00     0.124 S 
ATOM     72  O   UNL A   1      45.824  37.246  33.305  1.00  0.00    -0.237 OA
ATOM     73  O   UNL A   1      43.766  37.879  32.091  1.00  0.00    -0.237 OA
ATOM     74  O   UNL A   1      43.629  37.081  34.420  1.00  0.00    -0.744 OA
ENDBRANCH  70  71
ENDBRANCH  49  63
BRANCH  50  75
ATOM     75  C   UNL A   1      42.587  23.633  27.815  1.00  0.00     0.058 A 
ATOM     76  C   UNL A   1      42.646  23.433  26.427  1.00  0.00     0.135 A 
ATOM     77  C   UNL A   1      42.360  22.510  28.625  1.00  0.00     0.135 A 
ATOM     78  F   UNL A   1      42.855  24.475  25.608  1.00  0.00    -0.206 F 
ATOM     79  C   UNL A   1      42.469  22.173  25.862  1.00  0.00     0.059 A 
ATOM     80  C   UNL A   1      42.208  21.236  28.087  1.00  0.00     0.059 A 
ATOM     81  F   UNL A   1      42.311  22.642  29.960  1.00  0.00    -0.206 F 
ATOM     82  C   UNL A   1      42.256  21.080  26.702  1.00  0.00     0.060 A 
BRANCH  82  83
ATOM     83  S   UNL A   1      42.083  19.442  25.960  1.00  0.00     0.124 S 
ATOM     84  O   UNL A   1      40.646  19.373  25.729  1.00  0.00    -0.237 OA
ATOM     85  O   UNL A   1      42.918  19.556  24.769  1.00  0.00    -0.237 OA
ATOM     86  O   UNL A   1      42.600  18.549  26.995  1.00  0.00    -0.744 OA
ENDBRANCH  82  83
ENDBRANCH  50  75
BRANCH  62  87
ATOM     87  C   UNL A   1      47.886  26.739  31.132  1.00  0.00     0.058 A 
ATOM     88  C   UNL A   1      48.102  26.204  32.413  1.00  0.00     0.135 A 
ATOM     89  C   UNL A   1      48.977  26.776  30.248  1.00  0.00     0.135 A 
ATOM     90  F   UNL A   1      47.095  26.145  33.299  1.00  0.00    -0.206 F 
ATOM     91  C   UNL A   1      49.360  25.762  32.813  1.00  0.00     0.059 A 
ATOM     92  C   UNL A   1      50.235  26.309  30.615  1.00  0.00     0.059 A 
ATOM     93  F   UNL A   1      48.826  27.264  29.006  1.00  0.00    -0.206 F 
ATOM     94  C   UNL A   1      50.420  25.821  31.907  1.00  0.00     0.060 A 
BRANCH  94  95
ATOM     95  S   UNL A   1      52.046  25.242  32.437  1.00  0.00     0.124 S 
ATOM     96  O   UNL A   1      52.044  25.615  33.848  1.00  0.00    -0.237 OA
ATOM     97  O   UNL A   1      51.974  23.811  32.160  1.00  0.00    -0.237 OA
ATOM     98  O   UNL A   1      52.967  25.993  31.591  1.00  0.00    -0.744 OA
ENDBRANCH  94  95
ENDBRANCH  62  87
ENDBRANCH  36  37
ENDBRANCH  28  31
ENDBRANCH  26  27
ENDBRANCH  25  26
ENDBRANCH   1  25
TORSDOF 18
ENDMDL
MODEL 3
REMARK VINA RESULT:     -11.3      2.563      9.040
REMARK SMILES C[C@@H](Oc1ccccc1Cl)C(=O)N1CC[C@H](C(=O)NCCCCNC(=O)c2ccc(-c3c4nc(c(-c5c(F)cc(S(=O)(=O)[O-])cc5F)c5ccc([nH]5)c(-c5c(F)cc(S(=O)(=O)[O-])cc5F)c5nc(c(-c6c(F)cc(S(=O)(=O)[O-])cc6F)c6ccc3[nH]6)C=C5)C=C4)cc2)[C@@H]1C
REMARK SMILES IDX 21 1 20 2 19 3 17 4 18 5 16 7 13 8 14 9 93 10 15 11 94 12
REMARK SMILES IDX 11 13 12 14 2 15 1 16 3 17 4 18 5 19 9 20 6 21 8 22 10 23
REMARK SMILES IDX 7 24 22 25 23 26 24 27 25 28 26 30 27 31 28 32 92 33 29 34
REMARK SMILES IDX 91 35 30 36 31 37 32 38 85 39 33 40 90 41 84 42 86 43 34 44
REMARK SMILES IDX 89 45 83 46 82 47 35 49 69 50 48 51 68 52 49 53 52 54 67 55
REMARK SMILES IDX 87 56 50 57 51 58 66 60 88 61 53 62 36 63 37 64 46 65 38 66
REMARK SMILES IDX 39 67 45 68 47 69 40 70 41 71 42 72 43 73 44 74 70 75 71 76
REMARK SMILES IDX 80 77 72 78 73 79 79 80 81 81 74 82 75 83 76 84 77 85 78 86
REMARK SMILES IDX 54 87 55 88 64 89 56 90 57 91 63 92 65 93 58 94 59 95 60 96
REMARK SMILES IDX 61 97 62 98
REMARK H PARENT 19 6 24 29 86 48 52 59
REMARK Flexibility Score: inf
ROOT
ATOM      1  C   UNL A   1      37.954  21.716  25.375  1.00  0.00     0.023 C 
ENDROOT
BRANCH   1   2
ATOM      2  C   UNL A   1      36.786  21.762  24.393  1.00  0.00     0.116 C 
BRANCH   2   3
ATOM      3  N   UNL A   1      35.803  20.733  24.676  1.00  0.00    -0.356 N 
ATOM      4  C   UNL A   1      34.449  20.833  24.825  1.00  0.00     0.225 C 
ATOM      5  O   UNL A   1      33.825  19.792  25.012  1.00  0.00    -0.275 OA
ATOM      6  H   UNL A   1      36.167  19.824  24.776  1.00  0.00     0.163 HD
BRANCH   4   7
ATOM      7  C   UNL A   1      33.800  22.202  24.654  1.00  0.00     0.102 C 
ATOM      8  N   UNL A   1      31.946  23.067  25.903  1.00  0.00    -0.336 N 
ATOM      9  C   UNL A   1      31.439  22.019  25.042  1.00  0.00     0.121 C 
ATOM     10  C   UNL A   1      33.418  23.029  25.914  1.00  0.00     0.094 C 
ATOM     11  C   UNL A   1      32.464  21.996  23.921  1.00  0.00     0.037 C 
ATOM     12  C   UNL A   1      33.967  22.493  27.234  1.00  0.00     0.032 C 
BRANCH   8  13
ATOM     13  C   UNL A   1      31.071  24.003  26.414  1.00  0.00     0.263 C 
ATOM     14  O   UNL A   1      30.223  23.679  27.256  1.00  0.00    -0.271 OA
BRANCH  13  15
ATOM     15  C   UNL A   1      31.063  25.450  25.882  1.00  0.00     0.259 C 
ATOM     16  C   UNL A   1      32.075  26.358  26.561  1.00  0.00     0.064 C 
BRANCH  15  17
ATOM     17  O   UNL A   1      31.251  25.428  24.457  1.00  0.00    -0.479 OA
BRANCH  17  18
ATOM     18  C   UNL A   1      30.844  26.592  23.856  1.00  0.00     0.139 A 
ATOM     19  C   UNL A   1      29.486  26.924  23.852  1.00  0.00     0.048 A 
ATOM     20  C   UNL A   1      31.762  27.400  23.177  1.00  0.00     0.083 A 
ATOM     21  C   UNL A   1      29.058  28.095  23.222  1.00  0.00     0.004 A 
ATOM     22  C   UNL A   1      31.333  28.581  22.568  1.00  0.00     0.024 A 
ATOM     23  Cl  UNL A   1      33.429  26.973  23.050  1.00  0.00    -0.080 Cl
ATOM     24  C   UNL A   1      29.983  28.931  22.595  1.00  0.00     0.002 A 
ENDBRANCH  17  18
ENDBRANCH  15  17
ENDBRANCH  13  15
ENDBRANCH   8  13
ENDBRANCH   4   7
ENDBRANCH   2   3
ENDBRANCH   1   2
BRANCH   1  25
ATOM     25  C   UNL A   1      38.776  20.426  25.329  1.00  0.00     0.023 C 
BRANCH  25  26
ATOM     26  C   UNL A   1      39.687  20.191  26.529  1.00  0.00     0.116 C 
BRANCH  26  27
ATOM     27  N   UNL A   1      40.790  19.295  26.232  1.00  0.00    -0.352 N 
ATOM     28  C   UNL A   1      42.123  19.590  26.064  1.00  0.00     0.251 C 
ATOM     29  H   UNL A   1      40.551  18.345  26.139  1.00  0.00     0.163 HD
ATOM     30  O   UNL A   1      42.890  18.721  25.666  1.00  0.00    -0.269 OA
BRANCH  28  31
ATOM     31  C   UNL A   1      42.619  20.957  26.341  1.00  0.00     0.039 A 
ATOM     32  C   UNL A   1      42.815  21.833  25.269  1.00  0.00     0.014 A 
ATOM     33  C   UNL A   1      42.899  21.374  27.644  1.00  0.00     0.014 A 
ATOM     34  C   UNL A   1      43.255  23.136  25.511  1.00  0.00     0.010 A 
ATOM     35  C   UNL A   1      43.252  22.697  27.891  1.00  0.00     0.010 A 
ATOM     36  C   UNL A   1      43.458  23.588  26.826  1.00  0.00    -0.014 A 
BRANCH  36  37
ATOM     37  C   UNL A   1      43.934  24.969  27.101  1.00  0.00     0.031 A 
ATOM     38  C   UNL A   1      45.389  25.315  26.909  1.00  0.00     0.074 A 
ATOM     39  C   UNL A   1      43.074  25.900  27.559  1.00  0.00     0.049 A 
ATOM     40  N   UNL A   1      46.006  26.449  27.125  1.00  0.00    -0.248 NA
ATOM     41  C   UNL A   1      46.272  24.234  26.442  1.00  0.00     0.031 C 
ATOM     42  C   UNL A   1      41.654  25.678  27.835  1.00  0.00     0.029 A 
ATOM     43  N   UNL A   1      43.271  27.220  27.880  1.00  0.00    -0.354 N 
ATOM     44  C   UNL A   1      47.345  26.213  26.836  1.00  0.00     0.074 A 
ATOM     45  C   UNL A   1      47.463  24.812  26.494  1.00  0.00     0.031 C 
ATOM     46  C   UNL A   1      41.102  26.828  28.255  1.00  0.00     0.029 A 
ATOM     47  C   UNL A   1      42.132  27.859  28.314  1.00  0.00     0.049 A 
ATOM     48  H   UNL A   1      44.144  27.668  27.805  1.00  0.00     0.167 HD
ATOM     49  C   UNL A   1      48.380  27.087  26.825  1.00  0.00     0.037 A 
ATOM     50  C   UNL A   1      41.942  29.132  28.714  1.00  0.00     0.037 A 
ATOM     51  C   UNL A   1      48.252  28.485  27.145  1.00  0.00     0.049 A 
ATOM     52  C   UNL A   1      43.103  30.091  28.685  1.00  0.00     0.074 A 
ATOM     53  C   UNL A   1      49.226  29.468  27.116  1.00  0.00     0.029 A 
ATOM     54  N   UNL A   1      47.077  29.100  27.553  1.00  0.00    -0.354 N 
ATOM     55  N   UNL A   1      44.352  29.866  28.349  1.00  0.00    -0.248 NA
ATOM     56  C   UNL A   1      42.826  31.480  29.074  1.00  0.00     0.031 C 
ATOM     57  C   UNL A   1      48.652  30.666  27.556  1.00  0.00     0.029 A 
ATOM     58  C   UNL A   1      47.305  30.445  27.794  1.00  0.00     0.049 A 
ATOM     59  H   UNL A   1      46.209  28.647  27.656  1.00  0.00     0.167 HD
ATOM     60  C   UNL A   1      45.000  31.093  28.446  1.00  0.00     0.074 A 
ATOM     61  C   UNL A   1      44.002  32.056  28.867  1.00  0.00     0.031 C 
ATOM     62  C   UNL A   1      46.300  31.397  28.203  1.00  0.00     0.037 A 
BRANCH  49  63
ATOM     63  C   UNL A   1      49.741  26.553  26.459  1.00  0.00     0.058 A 
ATOM     64  C   UNL A   1      50.196  26.535  25.129  1.00  0.00     0.135 A 
ATOM     65  C   UNL A   1      50.608  26.067  27.450  1.00  0.00     0.135 A 
ATOM     66  F   UNL A   1      49.405  26.972  24.137  1.00  0.00    -0.206 F 
ATOM     67  C   UNL A   1      51.443  26.017  24.793  1.00  0.00     0.059 A 
ATOM     68  C   UNL A   1      51.874  25.577  27.141  1.00  0.00     0.059 A 
ATOM     69  F   UNL A   1      50.228  26.060  28.738  1.00  0.00    -0.206 F 
ATOM     70  C   UNL A   1      52.274  25.539  25.806  1.00  0.00     0.060 A 
BRANCH  70  71
ATOM     71  S   UNL A   1      53.886  24.865  25.352  1.00  0.00     0.124 S 
ATOM     72  O   UNL A   1      54.635  25.041  26.592  1.00  0.00    -0.237 OA
ATOM     73  O   UNL A   1      53.559  23.486  25.000  1.00  0.00    -0.237 OA
ATOM     74  O   UNL A   1      54.307  25.709  24.239  1.00  0.00    -0.744 OA
ENDBRANCH  70  71
ENDBRANCH  49  63
BRANCH  50  75
ATOM     75  C   UNL A   1      40.589  29.582  29.138  1.00  0.00     0.058 A 
ATOM     76  C   UNL A   1      39.542  29.704  28.211  1.00  0.00     0.135 A 
ATOM     77  C   UNL A   1      40.308  29.882  30.480  1.00  0.00     0.135 A 
ATOM     78  F   UNL A   1      39.761  29.435  26.915  1.00  0.00    -0.206 F 
ATOM     79  C   UNL A   1      38.272  30.124  28.594  1.00  0.00     0.059 A 
ATOM     80  C   UNL A   1      39.039  30.277  30.893  1.00  0.00     0.059 A 
ATOM     81  F   UNL A   1      41.268  29.765  31.410  1.00  0.00    -0.206 F 
ATOM     82  C   UNL A   1      38.030  30.403  29.940  1.00  0.00     0.060 A 
BRANCH  82  83
ATOM     83  S   UNL A   1      36.363  30.894  30.434  1.00  0.00     0.124 S 
ATOM     84  O   UNL A   1      35.722  31.105  29.141  1.00  0.00    -0.237 OA
ATOM     85  O   UNL A   1      35.913  29.729  31.189  1.00  0.00    -0.237 OA
ATOM     86  O   UNL A   1      36.590  32.097  31.230  1.00  0.00    -0.744 OA
ENDBRANCH  82  83
ENDBRANCH  50  75
BRANCH  62  87
ATOM     87  C   UNL A   1      46.709  32.841  28.321  1.00  0.00     0.058 A 
ATOM     88  C   UNL A   1      46.542  33.755  27.268  1.00  0.00     0.135 A 
ATOM     89  C   UNL A   1      47.248  33.323  29.525  1.00  0.00     0.135 A 
ATOM     90  F   UNL A   1      46.032  33.348  26.094  1.00  0.00    -0.206 F 
ATOM     91  C   UNL A   1      46.935  35.084  27.391  1.00  0.00     0.059 A 
ATOM     92  C   UNL A   1      47.615  34.655  29.682  1.00  0.00     0.059 A 
ATOM     93  F   UNL A   1      47.416  32.497  30.571  1.00  0.00    -0.206 F 
ATOM     94  C   UNL A   1      47.473  35.524  28.602  1.00  0.00     0.060 A 
BRANCH  94  95
ATOM     95  S   UNL A   1      47.975  37.252  28.751  1.00  0.00     0.124 S 
ATOM     96  O   UNL A   1      49.009  37.346  27.725  1.00  0.00    -0.237 OA
ATOM     97  O   UNL A   1      46.733  37.964  28.466  1.00  0.00    -0.237 OA
ATOM     98  O   UNL A   1      48.447  37.351  30.128  1.00  0.00    -0.744 OA
ENDBRANCH  94  95
ENDBRANCH  62  87
ENDBRANCH  36  37
ENDBRANCH  28  31
ENDBRANCH  26  27
ENDBRANCH  25  26
ENDBRANCH   1  25
TORSDOF 18
ENDMDL
