MODEL 1
REMARK VINA RESULT:     -13.2      0.000      0.000
REMARK SMILES CC(C)n1c2c(c3ccccc31)[C@@H](c1ccccc1)N(CC(=O)NCCCCNC(=O)c1ccc(-c3c4nc(c(-c5c(F)cc(S(=O)(=O)[O-])cc5F)c5ccc([nH]5)c(-c5c(F)cc(S(=O)(=O)[O-])cc5F)c5nc(c(-c6c(F)cc(S(=O)(=O)[O-])cc6F)c6ccc3[nH]6)C=C5)C=C4)cc1)C2=O
REMARK SMILES IDX 27 1 26 2 25 3 24 4 22 5 23 6 21 8 20 9 4 10 5 11 12 12 6 13
REMARK SMILES IDX 98 14 7 15 11 16 13 17 99 18 8 19 10 20 9 21 2 22 1 23 3 24
REMARK SMILES IDX 14 25 15 26 19 27 16 28 18 29 17 30 28 31 29 32 30 33 31 35
REMARK SMILES IDX 32 36 33 37 97 38 34 39 96 40 35 41 36 42 37 43 90 44 38 45
REMARK SMILES IDX 95 46 89 47 91 48 39 49 94 50 88 51 87 52 40 54 74 55 53 56
REMARK SMILES IDX 73 57 54 58 57 59 72 60 92 61 55 62 56 63 71 65 93 66 58 67
REMARK SMILES IDX 41 68 42 69 51 70 43 71 44 72 50 73 52 74 45 75 46 76 47 77
REMARK SMILES IDX 48 78 49 79 75 80 76 81 85 82 77 83 78 84 84 85 86 86 79 87
REMARK SMILES IDX 80 88 81 89 82 90 83 91 59 92 60 93 69 94 61 95 62 96 68 97
REMARK SMILES IDX 70 98 63 99 64 100 65 101 66 102 67 103
REMARK H PARENT 24 7 29 34 91 53 57 64
REMARK Flexibility Score: inf
ROOT
ATOM      1  C   UNL A   1      42.313  20.619  26.975  1.00  0.00     0.023 C 
ENDROOT
BRANCH   1   2
ATOM      2  C   UNL A   1      40.822  20.589  27.333  1.00  0.00     0.023 C 
BRANCH   2   3
ATOM      3  C   UNL A   1      39.882  20.877  26.162  1.00  0.00     0.116 C 
BRANCH   3   4
ATOM      4  N   UNL A   1      39.118  22.089  26.366  1.00  0.00    -0.355 N 
ATOM      5  C   UNL A   1      37.924  22.432  25.797  1.00  0.00     0.239 C 
ATOM      6  O   UNL A   1      37.416  23.517  26.089  1.00  0.00    -0.273 OA
ATOM      7  H   UNL A   1      39.504  22.745  26.992  1.00  0.00     0.163 HD
BRANCH   5   8
ATOM      8  C   UNL A   1      37.251  21.482  24.798  1.00  0.00     0.220 C 
BRANCH   8   9
ATOM      9  N   UNL A   1      35.892  21.898  24.502  1.00  0.00    -0.317 N 
ATOM     10  N   UNL A   1      33.360  24.313  23.721  1.00  0.00    -0.334 N 
ATOM     11  C   UNL A   1      34.256  23.317  23.991  1.00  0.00     0.114 A 
ATOM     12  C   UNL A   1      32.289  24.158  24.609  1.00  0.00     0.049 A 
ATOM     13  C   UNL A   1      33.775  22.505  24.977  1.00  0.00     0.018 A 
ATOM     14  C   UNL A   1      35.581  22.943  23.626  1.00  0.00     0.272 C 
ATOM     15  C   UNL A   1      32.562  23.034  25.425  1.00  0.00     0.006 A 
ATOM     16  C   UNL A   1      31.105  24.890  24.821  1.00  0.00     0.027 A 
ATOM     17  C   UNL A   1      34.730  21.419  25.298  1.00  0.00     0.150 C 
ATOM     18  O   UNL A   1      36.327  23.482  22.820  1.00  0.00    -0.267 OA
ATOM     19  C   UNL A   1      31.673  22.668  26.454  1.00  0.00     0.011 A 
ATOM     20  C   UNL A   1      30.241  24.511  25.855  1.00  0.00     0.002 A 
ATOM     21  C   UNL A   1      30.519  23.419  26.665  1.00  0.00     0.001 A 
BRANCH  10  22
ATOM     22  C   UNL A   1      33.622  25.344  22.712  1.00  0.00     0.082 C 
ATOM     23  C   UNL A   1      32.626  25.242  21.549  1.00  0.00     0.031 C 
ATOM     24  C   UNL A   1      33.681  26.795  23.190  1.00  0.00     0.031 C 
ENDBRANCH  10  22
BRANCH  17  25
ATOM     25  C   UNL A   1      34.207  20.091  24.764  1.00  0.00    -0.021 A 
ATOM     26  C   UNL A   1      35.063  18.974  24.806  1.00  0.00     0.006 A 
ATOM     27  C   UNL A   1      32.938  19.909  24.181  1.00  0.00     0.006 A 
ATOM     28  C   UNL A   1      34.687  17.749  24.249  1.00  0.00     0.000 A 
ATOM     29  C   UNL A   1      32.552  18.677  23.647  1.00  0.00     0.000 A 
ATOM     30  C   UNL A   1      33.431  17.602  23.668  1.00  0.00     0.000 A 
ENDBRANCH  17  25
ENDBRANCH   8   9
ENDBRANCH   5   8
ENDBRANCH   3   4
ENDBRANCH   2   3
ENDBRANCH   1   2
BRANCH   1  31
ATOM     31  C   UNL A   1      42.816  19.338  26.312  1.00  0.00     0.116 C 
BRANCH  31  32
ATOM     32  N   UNL A   1      43.411  19.562  25.010  1.00  0.00    -0.352 N 
ATOM     33  C   UNL A   1      44.161  20.554  24.451  1.00  0.00     0.251 C 
ATOM     34  H   UNL A   1      43.232  18.825  24.382  1.00  0.00     0.163 HD
ATOM     35  O   UNL A   1      44.609  20.323  23.324  1.00  0.00    -0.269 OA
BRANCH  33  36
ATOM     36  C   UNL A   1      44.381  21.891  25.055  1.00  0.00     0.039 A 
ATOM     37  C   UNL A   1      45.310  22.187  26.055  1.00  0.00     0.014 A 
ATOM     38  C   UNL A   1      43.483  22.892  24.644  1.00  0.00     0.014 A 
ATOM     39  C   UNL A   1      45.225  23.376  26.757  1.00  0.00     0.010 A 
ATOM     40  C   UNL A   1      43.421  24.100  25.314  1.00  0.00     0.010 A 
ATOM     41  C   UNL A   1      44.230  24.291  26.429  1.00  0.00    -0.014 A 
BRANCH  41  42
ATOM     42  C   UNL A   1      44.087  25.478  27.258  1.00  0.00     0.031 A 
ATOM     43  C   UNL A   1      45.162  26.498  27.069  1.00  0.00     0.074 A 
ATOM     44  C   UNL A   1      42.988  25.645  28.023  1.00  0.00     0.049 A 
ATOM     45  N   UNL A   1      45.957  27.010  27.953  1.00  0.00    -0.248 NA
ATOM     46  C   UNL A   1      45.492  26.886  25.684  1.00  0.00     0.031 C 
ATOM     47  C   UNL A   1      41.791  24.798  28.094  1.00  0.00     0.029 A 
ATOM     48  N   UNL A   1      42.653  26.693  28.821  1.00  0.00    -0.354 N 
ATOM     49  C   UNL A   1      46.748  27.935  27.270  1.00  0.00     0.074 A 
ATOM     50  C   UNL A   1      46.522  27.712  25.866  1.00  0.00     0.031 C 
ATOM     51  C   UNL A   1      40.780  25.491  28.665  1.00  0.00     0.029 A 
ATOM     52  C   UNL A   1      41.295  26.763  29.131  1.00  0.00     0.049 A 
ATOM     53  H   UNL A   1      43.311  27.346  29.152  1.00  0.00     0.167 HD
ATOM     54  C   UNL A   1      47.396  28.952  27.901  1.00  0.00     0.037 A 
ATOM     55  C   UNL A   1      40.658  27.855  29.631  1.00  0.00     0.037 A 
ATOM     56  C   UNL A   1      47.507  28.722  29.314  1.00  0.00     0.049 A 
ATOM     57  C   UNL A   1      41.713  28.715  30.239  1.00  0.00     0.074 A 
ATOM     58  C   UNL A   1      48.183  27.798  30.086  1.00  0.00     0.029 A 
ATOM     59  N   UNL A   1      46.551  29.269  30.134  1.00  0.00    -0.354 N 
ATOM     60  N   UNL A   1      42.425  28.356  31.275  1.00  0.00    -0.248 NA
ATOM     61  C   UNL A   1      42.317  29.728  29.385  1.00  0.00     0.031 C 
ATOM     62  C   UNL A   1      47.287  27.484  31.150  1.00  0.00     0.029 A 
ATOM     63  C   UNL A   1      46.154  28.286  31.007  1.00  0.00     0.049 A 
ATOM     64  H   UNL A   1      46.215  30.193  30.102  1.00  0.00     0.167 HD
ATOM     65  C   UNL A   1      43.716  28.780  30.989  1.00  0.00     0.074 A 
ATOM     66  C   UNL A   1      43.578  29.654  29.823  1.00  0.00     0.031 C 
ATOM     67  C   UNL A   1      44.810  28.168  31.531  1.00  0.00     0.037 A 
BRANCH  54  68
ATOM     68  C   UNL A   1      47.656  30.291  27.270  1.00  0.00     0.058 A 
ATOM     69  C   UNL A   1      48.958  30.827  27.239  1.00  0.00     0.135 A 
ATOM     70  C   UNL A   1      46.616  31.182  26.924  1.00  0.00     0.135 A 
ATOM     71  F   UNL A   1      50.015  30.071  27.574  1.00  0.00    -0.206 F 
ATOM     72  C   UNL A   1      49.204  32.164  26.918  1.00  0.00     0.059 A 
ATOM     73  C   UNL A   1      46.841  32.503  26.554  1.00  0.00     0.059 A 
ATOM     74  F   UNL A   1      45.327  30.828  27.017  1.00  0.00    -0.206 F 
ATOM     75  C   UNL A   1      48.136  32.996  26.585  1.00  0.00     0.060 A 
BRANCH  75  76
ATOM     76  S   UNL A   1      48.444  34.739  26.252  1.00  0.00     0.124 S 
ATOM     77  O   UNL A   1      49.902  34.788  26.257  1.00  0.00    -0.237 OA
ATOM     78  O   UNL A   1      47.803  34.916  24.952  1.00  0.00    -0.237 OA
ATOM     79  O   UNL A   1      47.787  35.419  27.365  1.00  0.00    -0.744 OA
ENDBRANCH  75  76
ENDBRANCH  54  68
BRANCH  55  80
ATOM     80  C   UNL A   1      39.339  28.392  29.185  1.00  0.00     0.058 A 
ATOM     81  C   UNL A   1      38.256  28.507  30.074  1.00  0.00     0.135 A 
ATOM     82  C   UNL A   1      39.201  29.067  27.953  1.00  0.00     0.135 A 
ATOM     83  F   UNL A   1      38.310  27.921  31.279  1.00  0.00    -0.206 F 
ATOM     84  C   UNL A   1      37.122  29.278  29.778  1.00  0.00     0.059 A 
ATOM     85  C   UNL A   1      38.080  29.833  27.633  1.00  0.00     0.059 A 
ATOM     86  F   UNL A   1      40.194  29.079  27.053  1.00  0.00    -0.206 F 
ATOM     87  C   UNL A   1      37.053  29.956  28.560  1.00  0.00     0.060 A 
BRANCH  87  88
ATOM     88  S   UNL A   1      35.676  31.086  28.241  1.00  0.00     0.124 S 
ATOM     89  O   UNL A   1      34.882  30.332  27.277  1.00  0.00    -0.237 OA
ATOM     90  O   UNL A   1      35.091  31.239  29.569  1.00  0.00    -0.237 OA
ATOM     91  O   UNL A   1      36.331  32.279  27.710  1.00  0.00    -0.744 OA
ENDBRANCH  87  88
ENDBRANCH  55  80
BRANCH  67  92
ATOM     92  C   UNL A   1      44.593  27.134  32.610  1.00  0.00     0.058 A 
ATOM     93  C   UNL A   1      44.339  27.438  33.961  1.00  0.00     0.135 A 
ATOM     94  C   UNL A   1      44.469  25.791  32.229  1.00  0.00     0.135 A 
ATOM     95  F   UNL A   1      44.331  28.708  34.390  1.00  0.00    -0.206 F 
ATOM     96  C   UNL A   1      44.016  26.449  34.895  1.00  0.00     0.059 A 
ATOM     97  C   UNL A   1      44.119  24.792  33.135  1.00  0.00     0.059 A 
ATOM     98  F   UNL A   1      44.632  25.442  30.942  1.00  0.00    -0.206 F 
ATOM     99  C   UNL A   1      43.907  25.126  34.471  1.00  0.00     0.060 A 
BRANCH  99 100
ATOM    100  S   UNL A   1      43.438  23.852  35.664  1.00  0.00     0.124 S 
ATOM    101  O   UNL A   1      44.298  24.162  36.801  1.00  0.00    -0.237 OA
ATOM    102  O   UNL A   1      42.014  24.109  35.861  1.00  0.00    -0.237 OA
ATOM    103  O   UNL A   1      43.747  22.604  34.971  1.00  0.00    -0.744 OA
ENDBRANCH  99 100
ENDBRANCH  67  92
ENDBRANCH  41  42
ENDBRANCH  33  36
ENDBRANCH  31  32
ENDBRANCH   1  31
TORSDOF 17
ENDMDL
MODEL 2
REMARK VINA RESULT:     -13.1      2.619      3.962
REMARK SMILES CC(C)n1c2c(c3ccccc31)[C@@H](c1ccccc1)N(CC(=O)NCCCCNC(=O)c1ccc(-c3c4nc(c(-c5c(F)cc(S(=O)(=O)[O-])cc5F)c5ccc([nH]5)c(-c5c(F)cc(S(=O)(=O)[O-])cc5F)c5nc(c(-c6c(F)cc(S(=O)(=O)[O-])cc6F)c6ccc3[nH]6)C=C5)C=C4)cc1)C2=O
REMARK SMILES IDX 27 1 26 2 25 3 24 4 22 5 23 6 21 8 20 9 4 10 5 11 12 12 6 13
REMARK SMILES IDX 98 14 7 15 11 16 13 17 99 18 8 19 10 20 9 21 2 22 1 23 3 24
REMARK SMILES IDX 14 25 15 26 19 27 16 28 18 29 17 30 28 31 29 32 30 33 31 35
REMARK SMILES IDX 32 36 33 37 97 38 34 39 96 40 35 41 36 42 37 43 90 44 38 45
REMARK SMILES IDX 95 46 89 47 91 48 39 49 94 50 88 51 87 52 40 54 74 55 53 56
REMARK SMILES IDX 73 57 54 58 57 59 72 60 92 61 55 62 56 63 71 65 93 66 58 67
REMARK SMILES IDX 41 68 42 69 51 70 43 71 44 72 50 73 52 74 45 75 46 76 47 77
REMARK SMILES IDX 48 78 49 79 75 80 76 81 85 82 77 83 78 84 84 85 86 86 79 87
REMARK SMILES IDX 80 88 81 89 82 90 83 91 59 92 60 93 69 94 61 95 62 96 68 97
REMARK SMILES IDX 70 98 63 99 64 100 65 101 66 102 67 103
REMARK H PARENT 24 7 29 34 91 53 57 64
REMARK Flexibility Score: inf
ROOT
ATOM      1  C   UNL A   1      38.259  21.770  25.652  1.00  0.00     0.023 C 
ENDROOT
BRANCH   1   2
ATOM      2  C   UNL A   1      37.206  22.837  25.326  1.00  0.00     0.023 C 
BRANCH   2   3
ATOM      3  C   UNL A   1      36.659  22.776  23.899  1.00  0.00     0.116 C 
BRANCH   3   4
ATOM      4  N   UNL A   1      35.377  22.107  23.838  1.00  0.00    -0.355 N 
ATOM      5  C   UNL A   1      34.219  22.569  23.281  1.00  0.00     0.239 C 
ATOM      6  O   UNL A   1      33.213  21.857  23.325  1.00  0.00    -0.273 OA
ATOM      7  H   UNL A   1      35.335  21.211  24.246  1.00  0.00     0.163 HD
BRANCH   5   8
ATOM      8  C   UNL A   1      34.181  23.960  22.634  1.00  0.00     0.220 C 
BRANCH   8   9
ATOM      9  N   UNL A   1      33.351  24.877  23.395  1.00  0.00    -0.317 N 
ATOM     10  N   UNL A   1      31.327  27.807  23.803  1.00  0.00    -0.334 N 
ATOM     11  C   UNL A   1      32.060  26.656  23.740  1.00  0.00     0.114 A 
ATOM     12  C   UNL A   1      31.781  28.528  24.914  1.00  0.00     0.049 A 
ATOM     13  C   UNL A   1      32.925  26.590  24.794  1.00  0.00     0.018 A 
ATOM     14  C   UNL A   1      32.264  25.565  22.848  1.00  0.00     0.272 C 
ATOM     15  C   UNL A   1      32.813  27.775  25.526  1.00  0.00     0.006 A 
ATOM     16  C   UNL A   1      31.430  29.779  25.455  1.00  0.00     0.027 A 
ATOM     17  C   UNL A   1      33.742  25.355  24.749  1.00  0.00     0.150 C 
ATOM     18  O   UNL A   1      31.704  25.342  21.783  1.00  0.00    -0.267 OA
ATOM     19  C   UNL A   1      33.497  28.284  26.646  1.00  0.00     0.011 A 
ATOM     20  C   UNL A   1      32.130  30.267  26.565  1.00  0.00     0.002 A 
ATOM     21  C   UNL A   1      33.152  29.535  27.152  1.00  0.00     0.001 A 
BRANCH  10  22
ATOM     22  C   UNL A   1      30.326  28.150  22.788  1.00  0.00     0.082 C 
ATOM     23  C   UNL A   1      28.904  27.918  23.316  1.00  0.00     0.031 C 
ATOM     24  C   UNL A   1      30.405  29.545  22.167  1.00  0.00     0.031 C 
ENDBRANCH  10  22
BRANCH  17  25
ATOM     25  C   UNL A   1      33.280  24.386  25.829  1.00  0.00    -0.021 A 
ATOM     26  C   UNL A   1      34.255  23.808  26.665  1.00  0.00     0.006 A 
ATOM     27  C   UNL A   1      31.944  23.983  26.024  1.00  0.00     0.006 A 
ATOM     28  C   UNL A   1      33.917  22.840  27.615  1.00  0.00     0.000 A 
ATOM     29  C   UNL A   1      31.602  23.034  26.991  1.00  0.00     0.000 A 
ATOM     30  C   UNL A   1      32.590  22.452  27.776  1.00  0.00     0.000 A 
ENDBRANCH  17  25
ENDBRANCH   8   9
ENDBRANCH   5   8
ENDBRANCH   3   4
ENDBRANCH   2   3
ENDBRANCH   1   2
BRANCH   1  31
ATOM     31  C   UNL A   1      39.464  22.306  26.421  1.00  0.00     0.116 C 
BRANCH  31  32
ATOM     32  N   UNL A   1      40.720  22.116  25.725  1.00  0.00    -0.352 N 
ATOM     33  C   UNL A   1      41.917  22.770  25.700  1.00  0.00     0.251 C 
ATOM     34  H   UNL A   1      40.707  21.332  25.131  1.00  0.00     0.163 HD
ATOM     35  O   UNL A   1      42.821  22.217  25.067  1.00  0.00    -0.269 OA
BRANCH  33  36
ATOM     36  C   UNL A   1      42.161  24.111  26.287  1.00  0.00     0.039 A 
ATOM     37  C   UNL A   1      43.143  24.416  27.231  1.00  0.00     0.014 A 
ATOM     38  C   UNL A   1      41.235  25.103  25.924  1.00  0.00     0.014 A 
ATOM     39  C   UNL A   1      43.090  25.607  27.934  1.00  0.00     0.010 A 
ATOM     40  C   UNL A   1      41.202  26.313  26.594  1.00  0.00     0.010 A 
ATOM     41  C   UNL A   1      42.071  26.514  27.660  1.00  0.00    -0.014 A 
BRANCH  41  42
ATOM     42  C   UNL A   1      41.966  27.702  28.492  1.00  0.00     0.031 A 
ATOM     43  C   UNL A   1      43.111  28.653  28.360  1.00  0.00     0.074 A 
ATOM     44  C   UNL A   1      40.847  27.934  29.211  1.00  0.00     0.049 A 
ATOM     45  N   UNL A   1      43.897  29.108  29.283  1.00  0.00    -0.248 NA
ATOM     46  C   UNL A   1      43.525  29.028  26.994  1.00  0.00     0.031 C 
ATOM     47  C   UNL A   1      39.598  27.164  29.222  1.00  0.00     0.029 A 
ATOM     48  N   UNL A   1      40.545  28.996  30.002  1.00  0.00    -0.354 N 
ATOM     49  C   UNL A   1      44.774  29.985  28.643  1.00  0.00     0.074 A 
ATOM     50  C   UNL A   1      44.596  29.786  27.228  1.00  0.00     0.031 C 
ATOM     51  C   UNL A   1      38.609  27.916  29.755  1.00  0.00     0.029 A 
ATOM     52  C   UNL A   1      39.182  29.150  30.253  1.00  0.00     0.049 A 
ATOM     53  H   UNL A   1      41.228  29.604  30.367  1.00  0.00     0.167 HD
ATOM     54  C   UNL A   1      45.456  30.956  29.311  1.00  0.00     0.037 A 
ATOM     55  C   UNL A   1      38.593  30.277  30.735  1.00  0.00     0.037 A 
ATOM     56  C   UNL A   1      45.490  30.710  30.724  1.00  0.00     0.049 A 
ATOM     57  C   UNL A   1      39.672  31.065  31.396  1.00  0.00     0.074 A 
ATOM     58  C   UNL A   1      46.072  29.741  31.517  1.00  0.00     0.029 A 
ATOM     59  N   UNL A   1      44.536  31.312  31.507  1.00  0.00    -0.354 N 
ATOM     60  N   UNL A   1      40.314  30.655  32.459  1.00  0.00    -0.248 NA
ATOM     61  C   UNL A   1      40.377  32.043  30.578  1.00  0.00     0.031 C 
ATOM     62  C   UNL A   1      45.112  29.477  32.538  1.00  0.00     0.029 A 
ATOM     63  C   UNL A   1      44.039  30.351  32.353  1.00  0.00     0.049 A 
ATOM     64  H   UNL A   1      44.260  32.256  31.469  1.00  0.00     0.167 HD
ATOM     65  C   UNL A   1      41.641  30.999  32.233  1.00  0.00     0.074 A 
ATOM     66  C   UNL A   1      41.609  31.886  31.070  1.00  0.00     0.031 C 
ATOM     67  C   UNL A   1      42.669  30.315  32.817  1.00  0.00     0.037 A 
BRANCH  54  68
ATOM     68  C   UNL A   1      45.828  32.280  28.703  1.00  0.00     0.058 A 
ATOM     69  C   UNL A   1      47.176  32.676  28.621  1.00  0.00     0.135 A 
ATOM     70  C   UNL A   1      44.873  33.286  28.434  1.00  0.00     0.135 A 
ATOM     71  F   UNL A   1      48.162  31.803  28.882  1.00  0.00    -0.206 F 
ATOM     72  C   UNL A   1      47.548  33.989  28.324  1.00  0.00     0.059 A 
ATOM     73  C   UNL A   1      45.221  34.586  28.088  1.00  0.00     0.059 A 
ATOM     74  F   UNL A   1      43.560  33.066  28.581  1.00  0.00    -0.206 F 
ATOM     75  C   UNL A   1      46.560  34.939  28.067  1.00  0.00     0.060 A 
BRANCH  75  76
ATOM     76  S   UNL A   1      47.037  36.650  27.766  1.00  0.00     0.124 S 
ATOM     77  O   UNL A   1      45.918  37.132  26.963  1.00  0.00    -0.237 OA
ATOM     78  O   UNL A   1      47.125  37.182  29.123  1.00  0.00    -0.237 OA
ATOM     79  O   UNL A   1      48.311  36.529  27.062  1.00  0.00    -0.744 OA
ENDBRANCH  75  76
ENDBRANCH  54  68
BRANCH  55  80
ATOM     80  C   UNL A   1      37.332  30.900  30.236  1.00  0.00     0.058 A 
ATOM     81  C   UNL A   1      36.384  31.445  31.121  1.00  0.00     0.135 A 
ATOM     82  C   UNL A   1      37.163  31.226  28.873  1.00  0.00     0.135 A 
ATOM     83  F   UNL A   1      36.481  31.210  32.438  1.00  0.00    -0.206 F 
ATOM     84  C   UNL A   1      35.357  32.296  30.687  1.00  0.00     0.059 A 
ATOM     85  C   UNL A   1      36.146  32.064  28.418  1.00  0.00     0.059 A 
ATOM     86  F   UNL A   1      38.041  30.814  27.948  1.00  0.00    -0.206 F 
ATOM     87  C   UNL A   1      35.260  32.617  29.333  1.00  0.00     0.060 A 
BRANCH  87  88
ATOM     88  S   UNL A   1      34.046  33.845  28.789  1.00  0.00     0.124 S 
ATOM     89  O   UNL A   1      33.220  33.068  27.870  1.00  0.00    -0.237 OA
ATOM     90  O   UNL A   1      33.414  34.229  30.046  1.00  0.00    -0.237 OA
ATOM     91  O   UNL A   1      34.866  34.880  28.165  1.00  0.00    -0.744 OA
ENDBRANCH  87  88
ENDBRANCH  55  80
BRANCH  67  92
ATOM     92  C   UNL A   1      42.340  29.290  33.876  1.00  0.00     0.058 A 
ATOM     93  C   UNL A   1      42.036  27.942  33.610  1.00  0.00     0.135 A 
ATOM     94  C   UNL A   1      42.505  29.648  35.222  1.00  0.00     0.135 A 
ATOM     95  F   UNL A   1      41.964  27.490  32.350  1.00  0.00    -0.206 F 
ATOM     96  C   UNL A   1      41.865  27.004  34.633  1.00  0.00     0.059 A 
ATOM     97  C   UNL A   1      42.370  28.726  36.257  1.00  0.00     0.059 A 
ATOM     98  F   UNL A   1      42.862  30.903  35.542  1.00  0.00    -0.206 F 
ATOM     99  C   UNL A   1      42.036  27.407  35.956  1.00  0.00     0.060 A 
BRANCH  99 100
ATOM    100  S   UNL A   1      41.869  26.187  37.279  1.00  0.00     0.124 S 
ATOM    101  O   UNL A   1      40.530  26.464  37.787  1.00  0.00    -0.237 OA
ATOM    102  O   UNL A   1      42.025  24.922  36.566  1.00  0.00    -0.237 OA
ATOM    103  O   UNL A   1      42.962  26.518  38.189  1.00  0.00    -0.744 OA
ENDBRANCH  99 100
ENDBRANCH  67  92
ENDBRANCH  41  42
ENDBRANCH  33  36
ENDBRANCH  31  32
ENDBRANCH   1  31
TORSDOF 17
ENDMDL
MODEL 3
REMARK VINA RESULT:     -13.1      3.410      9.781
REMARK SMILES CC(C)n1c2c(c3ccccc31)[C@@H](c1ccccc1)N(CC(=O)NCCCCNC(=O)c1ccc(-c3c4nc(c(-c5c(F)cc(S(=O)(=O)[O-])cc5F)c5ccc([nH]5)c(-c5c(F)cc(S(=O)(=O)[O-])cc5F)c5nc(c(-c6c(F)cc(S(=O)(=O)[O-])cc6F)c6ccc3[nH]6)C=C5)C=C4)cc1)C2=O
REMARK SMILES IDX 27 1 26 2 25 3 24 4 22 5 23 6 21 8 20 9 4 10 5 11 12 12 6 13
REMARK SMILES IDX 98 14 7 15 11 16 13 17 99 18 8 19 10 20 9 21 2 22 1 23 3 24
REMARK SMILES IDX 14 25 15 26 19 27 16 28 18 29 17 30 28 31 29 32 30 33 31 35
REMARK SMILES IDX 32 36 33 37 97 38 34 39 96 40 35 41 36 42 37 43 90 44 38 45
REMARK SMILES IDX 95 46 89 47 91 48 39 49 94 50 88 51 87 52 40 54 74 55 53 56
REMARK SMILES IDX 73 57 54 58 57 59 72 60 92 61 55 62 56 63 71 65 93 66 58 67
REMARK SMILES IDX 41 68 42 69 51 70 43 71 44 72 50 73 52 74 45 75 46 76 47 77
REMARK SMILES IDX 48 78 49 79 75 80 76 81 85 82 77 83 78 84 84 85 86 86 79 87
REMARK SMILES IDX 80 88 81 89 82 90 83 91 59 92 60 93 69 94 61 95 62 96 68 97
REMARK SMILES IDX 70 98 63 99 64 100 65 101 66 102 67 103
REMARK H PARENT 24 7 29 34 91 53 57 64
REMARK Flexibility Score: inf
ROOT
ATOM      1  C   UNL A   1      33.403  34.242  28.545  1.00  0.00     0.023 C 
ENDROOT
BRANCH   1   2
ATOM      2  C   UNL A   1      34.129  33.005  28.000  1.00  0.00     0.023 C 
BRANCH   2   3
ATOM      3  C   UNL A   1      33.304  31.718  28.032  1.00  0.00     0.116 C 
BRANCH   3   4
ATOM      4  N   UNL A   1      34.060  30.579  27.558  1.00  0.00    -0.355 N 
ATOM      5  C   UNL A   1      33.636  29.581  26.728  1.00  0.00     0.239 C 
ATOM      6  O   UNL A   1      34.424  28.680  26.429  1.00  0.00    -0.273 OA
ATOM      7  H   UNL A   1      34.993  30.517  27.869  1.00  0.00     0.163 HD
BRANCH   5   8
ATOM      8  C   UNL A   1      32.195  29.582  26.201  1.00  0.00     0.220 C 
BRANCH   8   9
ATOM      9  N   UNL A   1      31.827  28.288  25.654  1.00  0.00    -0.317 N 
ATOM     10  N   UNL A   1      31.808  24.704  25.593  1.00  0.00    -0.334 N 
ATOM     11  C   UNL A   1      31.736  26.068  25.546  1.00  0.00     0.114 A 
ATOM     12  C   UNL A   1      32.184  24.264  24.318  1.00  0.00     0.049 A 
ATOM     13  C   UNL A   1      31.999  26.510  24.281  1.00  0.00     0.018 A 
ATOM     14  C   UNL A   1      31.577  27.162  26.443  1.00  0.00     0.272 C 
ATOM     15  C   UNL A   1      32.335  25.406  23.494  1.00  0.00     0.006 A 
ATOM     16  C   UNL A   1      32.439  22.989  23.779  1.00  0.00     0.027 A 
ATOM     17  C   UNL A   1      31.937  27.988  24.200  1.00  0.00     0.150 C 
ATOM     18  O   UNL A   1      31.385  27.130  27.651  1.00  0.00    -0.267 OA
ATOM     19  C   UNL A   1      32.762  25.269  22.159  1.00  0.00     0.011 A 
ATOM     20  C   UNL A   1      32.870  22.880  22.451  1.00  0.00     0.002 A 
ATOM     21  C   UNL A   1      33.034  24.001  21.651  1.00  0.00     0.001 A 
BRANCH  10  22
ATOM     22  C   UNL A   1      31.585  23.955  26.833  1.00  0.00     0.082 C 
ATOM     23  C   UNL A   1      30.274  23.160  26.769  1.00  0.00     0.031 C 
ATOM     24  C   UNL A   1      32.706  23.027  27.304  1.00  0.00     0.031 C 
ENDBRANCH  10  22
BRANCH  17  25
ATOM     25  C   UNL A   1      30.680  28.416  23.454  1.00  0.00    -0.021 A 
ATOM     26  C   UNL A   1      30.786  29.465  22.520  1.00  0.00     0.006 A 
ATOM     27  C   UNL A   1      29.399  27.871  23.666  1.00  0.00     0.006 A 
ATOM     28  C   UNL A   1      29.660  29.973  21.867  1.00  0.00     0.000 A 
ATOM     29  C   UNL A   1      28.277  28.362  22.995  1.00  0.00     0.000 A 
ATOM     30  C   UNL A   1      28.405  29.422  22.107  1.00  0.00     0.000 A 
ENDBRANCH  17  25
ENDBRANCH   8   9
ENDBRANCH   5   8
ENDBRANCH   3   4
ENDBRANCH   2   3
ENDBRANCH   1   2
BRANCH   1  31
ATOM     31  C   UNL A   1      34.089  34.880  29.752  1.00  0.00     0.116 C 
BRANCH  31  32
ATOM     32  N   UNL A   1      33.854  34.165  30.989  1.00  0.00    -0.352 N 
ATOM     33  C   UNL A   1      34.535  33.223  31.703  1.00  0.00     0.251 C 
ATOM     34  H   UNL A   1      33.004  34.419  31.416  1.00  0.00     0.163 HD
ATOM     35  O   UNL A   1      34.068  32.943  32.811  1.00  0.00    -0.269 OA
BRANCH  33  36
ATOM     36  C   UNL A   1      35.709  32.467  31.201  1.00  0.00     0.039 A 
ATOM     37  C   UNL A   1      35.758  31.087  30.997  1.00  0.00     0.014 A 
ATOM     38  C   UNL A   1      36.884  33.221  31.040  1.00  0.00     0.014 A 
ATOM     39  C   UNL A   1      36.974  30.449  30.826  1.00  0.00     0.010 A 
ATOM     40  C   UNL A   1      38.098  32.593  30.826  1.00  0.00     0.010 A 
ATOM     41  C   UNL A   1      38.143  31.203  30.818  1.00  0.00    -0.014 A 
BRANCH  41  42
ATOM     42  C   UNL A   1      39.415  30.500  30.756  1.00  0.00     0.031 A 
ATOM     43  C   UNL A   1      40.098  30.341  32.075  1.00  0.00     0.074 A 
ATOM     44  C   UNL A   1      39.834  29.951  29.596  1.00  0.00     0.049 A 
ATOM     45  N   UNL A   1      41.286  30.716  32.423  1.00  0.00    -0.248 NA
ATOM     46  C   UNL A   1      39.290  29.825  33.198  1.00  0.00     0.031 C 
ATOM     47  C   UNL A   1      39.120  29.875  28.316  1.00  0.00     0.029 A 
ATOM     48  N   UNL A   1      40.956  29.226  29.351  1.00  0.00    -0.354 N 
ATOM     49  C   UNL A   1      41.449  30.302  33.745  1.00  0.00     0.074 A 
ATOM     50  C   UNL A   1      40.150  29.895  34.213  1.00  0.00     0.031 C 
ATOM     51  C   UNL A   1      39.695  28.933  27.535  1.00  0.00     0.029 A 
ATOM     52  C   UNL A   1      40.893  28.452  28.193  1.00  0.00     0.049 A 
ATOM     53  H   UNL A   1      41.746  29.245  29.939  1.00  0.00     0.167 HD
ATOM     54  C   UNL A   1      42.675  30.139  34.316  1.00  0.00     0.037 A 
ATOM     55  C   UNL A   1      41.724  27.419  27.891  1.00  0.00     0.037 A 
ATOM     56  C   UNL A   1      43.704  30.813  33.576  1.00  0.00     0.049 A 
ATOM     57  C   UNL A   1      42.949  27.610  28.718  1.00  0.00     0.074 A 
ATOM     58  C   UNL A   1      43.989  32.139  33.316  1.00  0.00     0.029 A 
ATOM     59  N   UNL A   1      44.411  30.088  32.649  1.00  0.00    -0.354 N 
ATOM     60  N   UNL A   1      43.763  28.624  28.575  1.00  0.00    -0.248 NA
ATOM     61  C   UNL A   1      42.977  26.966  30.023  1.00  0.00     0.031 C 
ATOM     62  C   UNL A   1      44.436  32.159  31.962  1.00  0.00     0.029 A 
ATOM     63  C   UNL A   1      44.469  30.841  31.502  1.00  0.00     0.049 A 
ATOM     64  H   UNL A   1      44.804  29.195  32.782  1.00  0.00     0.167 HD
ATOM     65  C   UNL A   1      44.098  29.002  29.869  1.00  0.00     0.074 A 
ATOM     66  C   UNL A   1      43.610  27.915  30.719  1.00  0.00     0.031 C 
ATOM     67  C   UNL A   1      44.477  30.280  30.168  1.00  0.00     0.037 A 
BRANCH  54  68
ATOM     68  C   UNL A   1      42.969  29.116  35.378  1.00  0.00     0.058 A 
ATOM     69  C   UNL A   1      43.593  29.493  36.582  1.00  0.00     0.135 A 
ATOM     70  C   UNL A   1      42.890  27.727  35.135  1.00  0.00     0.135 A 
ATOM     71  F   UNL A   1      43.741  30.790  36.897  1.00  0.00    -0.206 F 
ATOM     72  C   UNL A   1      44.129  28.555  37.468  1.00  0.00     0.059 A 
ATOM     73  C   UNL A   1      43.372  26.774  36.024  1.00  0.00     0.059 A 
ATOM     74  F   UNL A   1      42.417  27.240  33.979  1.00  0.00    -0.206 F 
ATOM     75  C   UNL A   1      44.020  27.197  37.174  1.00  0.00     0.060 A 
BRANCH  75  76
ATOM     76  S   UNL A   1      44.783  25.991  38.273  1.00  0.00     0.124 S 
ATOM     77  O   UNL A   1      44.227  26.376  39.566  1.00  0.00    -0.237 OA
ATOM     78  O   UNL A   1      44.300  24.730  37.720  1.00  0.00    -0.237 OA
ATOM     79  O   UNL A   1      46.213  26.236  38.105  1.00  0.00    -0.744 OA
ENDBRANCH  75  76
ENDBRANCH  54  68
BRANCH  55  80
ATOM     80  C   UNL A   1      41.323  26.091  27.342  1.00  0.00     0.058 A 
ATOM     81  C   UNL A   1      42.154  25.383  26.456  1.00  0.00     0.135 A 
ATOM     82  C   UNL A   1      40.248  25.362  27.895  1.00  0.00     0.135 A 
ATOM     83  F   UNL A   1      43.216  25.987  25.902  1.00  0.00    -0.206 F 
ATOM     84  C   UNL A   1      41.958  24.024  26.168  1.00  0.00     0.059 A 
ATOM     85  C   UNL A   1      40.029  24.013  27.619  1.00  0.00     0.059 A 
ATOM     86  F   UNL A   1      39.427  25.915  28.799  1.00  0.00    -0.206 F 
ATOM     87  C   UNL A   1      40.902  23.341  26.773  1.00  0.00     0.060 A 
BRANCH  87  88
ATOM     88  S   UNL A   1      40.742  21.553  26.542  1.00  0.00     0.124 S 
ATOM     89  O   UNL A   1      41.898  21.250  25.706  1.00  0.00    -0.237 OA
ATOM     90  O   UNL A   1      40.799  21.061  27.914  1.00  0.00    -0.237 OA
ATOM     91  O   UNL A   1      39.445  21.410  25.885  1.00  0.00    -0.744 OA
ENDBRANCH  87  88
ENDBRANCH  55  80
BRANCH  67  92
ATOM     92  C   UNL A   1      44.718  31.242  29.030  1.00  0.00     0.058 A 
ATOM     93  C   UNL A   1      45.875  31.252  28.230  1.00  0.00     0.135 A 
ATOM     94  C   UNL A   1      43.663  32.074  28.628  1.00  0.00     0.135 A 
ATOM     95  F   UNL A   1      46.890  30.413  28.479  1.00  0.00    -0.206 F 
ATOM     96  C   UNL A   1      45.994  32.078  27.107  1.00  0.00     0.059 A 
ATOM     97  C   UNL A   1      43.745  32.882  27.496  1.00  0.00     0.059 A 
ATOM     98  F   UNL A   1      42.504  32.062  29.309  1.00  0.00    -0.206 F 
ATOM     99  C   UNL A   1      44.920  32.890  26.748  1.00  0.00     0.060 A 
BRANCH  99 100
ATOM    100  S   UNL A   1      45.048  33.918  25.267  1.00  0.00     0.124 S 
ATOM    101  O   UNL A   1      46.484  34.166  25.187  1.00  0.00    -0.237 OA
ATOM    102  O   UNL A   1      44.498  33.052  24.229  1.00  0.00    -0.237 OA
ATOM    103  O   UNL A   1      44.231  35.086  25.590  1.00  0.00    -0.744 OA
ENDBRANCH  99 100
ENDBRANCH  67  92
ENDBRANCH  41  42
ENDBRANCH  33  36
ENDBRANCH  31  32
ENDBRANCH   1  31
TORSDOF 17
ENDMDL
