MODEL 1
REMARK VINA RESULT:      -9.3      0.000      0.000
REMARK SMILES C#CC[N@H+](CC(=O)NCCCCNC(=O)c1ccc(-c2c3nc(c(-c4c(F)cc(S(=O)(=O)[O-])cc4F)c4ccc([nH]4)c(-c4c(F)cc(S(=O)(=O)[O-])cc4F)c4nc(c(-c5c(F)cc(S(=O)(=O)[O-])cc5F)c5ccc2[nH]5)C=C4)C=C3)cc1)[C@H](C)c1ccccc1[N+](=O)[O-]
REMARK SMILES IDX 10 1 9 2 8 3 6 4 7 5 5 7 4 8 3 10 2 11 1 12 82 13 83 14
REMARK SMILES IDX 84 15 85 16 89 17 86 18 88 19 87 20 90 21 91 22 92 23 11 24
REMARK SMILES IDX 12 25 13 26 14 27 15 29 16 30 17 31 81 32 18 33 80 34 19 35
REMARK SMILES IDX 20 36 21 37 74 38 22 39 79 40 73 41 75 42 23 43 78 44 72 45
REMARK SMILES IDX 71 46 24 48 58 49 37 50 57 51 38 52 41 53 56 54 76 55 39 56
REMARK SMILES IDX 40 57 55 59 77 60 42 61 25 62 26 63 35 64 27 65 28 66 34 67
REMARK SMILES IDX 36 68 29 69 30 70 31 71 32 72 33 73 59 74 60 75 69 76 61 77
REMARK SMILES IDX 62 78 68 79 70 80 63 81 64 82 65 83 66 84 67 85 43 86 44 87
REMARK SMILES IDX 53 88 45 89 46 90 52 91 54 92 47 93 48 94 49 95 50 96 51 97
REMARK H PARENT 8 6 4 9 13 28 75 47 41 58
REMARK Flexibility Score: inf
ROOT
ATOM      1  C   UNL A   1      42.542  21.879  26.710  1.00  0.00     0.023 C 
ENDROOT
BRANCH   1   2
ATOM      2  C   UNL A   1      42.312  22.473  28.112  1.00  0.00     0.116 C 
BRANCH   2   3
ATOM      3  N   UNL A   1      43.561  22.906  28.723  1.00  0.00    -0.351 N 
ATOM      4  C   UNL A   1      44.573  23.703  28.241  1.00  0.00     0.275 C 
ATOM      5  O   UNL A   1      45.590  23.814  28.931  1.00  0.00    -0.269 OA
ATOM      6  H   UNL A   1      43.705  22.572  29.637  1.00  0.00     0.163 HD
BRANCH   4   7
ATOM      7  C   UNL A   1      44.406  24.495  26.925  1.00  0.00     0.364 C 
BRANCH   7   8
ATOM      8  N   UNL A   1      45.679  24.905  26.225  1.00  0.00    -0.311 N 
ATOM      9  H   UNL A   1      46.418  25.085  26.904  1.00  0.00     0.349 HD
BRANCH   8  10
ATOM     10  C   UNL A   1      46.121  23.796  25.385  1.00  0.00     0.354 C 
BRANCH  10  11
ATOM     11  C   UNL A   1      45.272  23.100  24.416  1.00  0.00    -0.047 C 
ATOM     12  C   UNL A   1      44.747  22.439  23.559  1.00  0.00     0.010 C 
ENDBRANCH  10  11
ENDBRANCH   8  10
BRANCH   8  13
ATOM     13  C   UNL A   1      45.535  26.215  25.517  1.00  0.00     0.220 C 
ATOM     14  C   UNL A   1      46.799  26.623  24.740  1.00  0.00     0.081 C 
BRANCH  13  15
ATOM     15  C   UNL A   1      44.885  27.265  26.441  1.00  0.00     0.087 A 
ATOM     16  C   UNL A   1      45.624  27.612  27.603  1.00  0.00     0.017 A 
ATOM     17  C   UNL A   1      43.743  28.053  26.188  1.00  0.00     0.278 A 
ATOM     18  C   UNL A   1      45.315  28.744  28.369  1.00  0.00     0.001 A 
ATOM     19  C   UNL A   1      43.417  29.182  26.964  1.00  0.00     0.086 A 
ATOM     20  C   UNL A   1      44.225  29.541  28.037  1.00  0.00     0.007 A 
BRANCH  17  21
ATOM     21  N   UNL A   1      42.815  27.777  25.114  1.00  0.00     0.063 N 
ATOM     22  O   UNL A   1      42.801  26.629  24.652  1.00  0.00    -0.258 OA
ATOM     23  O   UNL A   1      42.143  28.732  24.697  1.00  0.00    -0.258 OA
ENDBRANCH  17  21
ENDBRANCH  13  15
ENDBRANCH   8  13
ENDBRANCH   7   8
ENDBRANCH   4   7
ENDBRANCH   2   3
ENDBRANCH   1   2
BRANCH   1  24
ATOM     24  C   UNL A   1      41.367  21.131  26.131  1.00  0.00     0.023 C 
BRANCH  24  25
ATOM     25  C   UNL A   1      40.080  21.460  26.837  1.00  0.00     0.116 C 
BRANCH  25  26
ATOM     26  N   UNL A   1      39.066  22.004  25.936  1.00  0.00    -0.352 N 
ATOM     27  C   UNL A   1      38.605  23.301  25.891  1.00  0.00     0.251 C 
ATOM     28  H   UNL A   1      38.670  21.375  25.291  1.00  0.00     0.163 HD
ATOM     29  O   UNL A   1      37.647  23.618  25.199  1.00  0.00    -0.269 OA
BRANCH  27  30
ATOM     30  C   UNL A   1      39.297  24.275  26.751  1.00  0.00     0.039 A 
ATOM     31  C   UNL A   1      40.149  25.215  26.173  1.00  0.00     0.014 A 
ATOM     32  C   UNL A   1      38.899  24.377  28.087  1.00  0.00     0.014 A 
ATOM     33  C   UNL A   1      40.544  26.318  26.927  1.00  0.00     0.010 A 
ATOM     34  C   UNL A   1      39.173  25.543  28.775  1.00  0.00     0.010 A 
ATOM     35  C   UNL A   1      40.018  26.516  28.214  1.00  0.00    -0.014 A 
BRANCH  35  36
ATOM     36  C   UNL A   1      40.370  27.687  29.051  1.00  0.00     0.031 A 
ATOM     37  C   UNL A   1      41.633  27.625  29.866  1.00  0.00     0.074 A 
ATOM     38  C   UNL A   1      39.532  28.738  29.159  1.00  0.00     0.049 A 
ATOM     39  N   UNL A   1      42.051  28.426  30.807  1.00  0.00    -0.248 NA
ATOM     40  C   UNL A   1      42.522  26.473  29.619  1.00  0.00     0.031 C 
ATOM     41  C   UNL A   1      38.269  28.901  28.437  1.00  0.00     0.029 A 
ATOM     42  N   UNL A   1      39.615  29.865  29.938  1.00  0.00    -0.354 N 
ATOM     43  C   UNL A   1      43.233  27.864  31.276  1.00  0.00     0.074 A 
ATOM     44  C   UNL A   1      43.423  26.614  30.577  1.00  0.00     0.031 C 
ATOM     45  C   UNL A   1      37.707  30.070  28.791  1.00  0.00     0.029 A 
ATOM     46  C   UNL A   1      38.537  30.711  29.807  1.00  0.00     0.049 A 
ATOM     47  H   UNL A   1      40.375  30.052  30.535  1.00  0.00     0.167 HD
ATOM     48  C   UNL A   1      44.103  28.363  32.182  1.00  0.00     0.037 A 
ATOM     49  C   UNL A   1      38.246  31.860  30.449  1.00  0.00     0.037 A 
ATOM     50  C   UNL A   1      43.917  29.621  32.849  1.00  0.00     0.049 A 
ATOM     51  C   UNL A   1      39.206  32.374  31.493  1.00  0.00     0.074 A 
ATOM     52  C   UNL A   1      44.753  30.240  33.761  1.00  0.00     0.029 A 
ATOM     53  N   UNL A   1      42.822  30.454  32.674  1.00  0.00    -0.354 N 
ATOM     54  N   UNL A   1      40.339  31.850  31.900  1.00  0.00    -0.248 NA
ATOM     55  C   UNL A   1      38.854  33.633  32.165  1.00  0.00     0.031 C 
ATOM     56  C   UNL A   1      44.134  31.418  34.183  1.00  0.00     0.029 A 
ATOM     57  C   UNL A   1      42.952  31.573  33.476  1.00  0.00     0.049 A 
ATOM     58  H   UNL A   1      42.066  30.276  32.069  1.00  0.00     0.167 HD
ATOM     59  C   UNL A   1      40.858  32.742  32.834  1.00  0.00     0.074 A 
ATOM     60  C   UNL A   1      39.912  33.834  32.939  1.00  0.00     0.031 C 
ATOM     61  C   UNL A   1      42.016  32.669  33.535  1.00  0.00     0.037 A 
BRANCH  48  62
ATOM     62  C   UNL A   1      45.329  27.550  32.495  1.00  0.00     0.058 A 
ATOM     63  C   UNL A   1      46.574  27.834  31.909  1.00  0.00     0.135 A 
ATOM     64  C   UNL A   1      45.264  26.491  33.414  1.00  0.00     0.135 A 
ATOM     65  F   UNL A   1      46.688  28.820  31.005  1.00  0.00    -0.206 F 
ATOM     66  C   UNL A   1      47.703  27.078  32.200  1.00  0.00     0.059 A 
ATOM     67  C   UNL A   1      46.390  25.746  33.750  1.00  0.00     0.059 A 
ATOM     68  F   UNL A   1      44.099  26.171  33.999  1.00  0.00    -0.206 F 
ATOM     69  C   UNL A   1      47.603  26.040  33.127  1.00  0.00     0.060 A 
BRANCH  69  70
ATOM     70  S   UNL A   1      49.084  25.085  33.507  1.00  0.00     0.124 S 
ATOM     71  O   UNL A   1      49.685  24.942  32.183  1.00  0.00    -0.237 OA
ATOM     72  O   UNL A   1      49.790  25.964  34.432  1.00  0.00    -0.237 OA
ATOM     73  O   UNL A   1      48.557  23.855  34.091  1.00  0.00    -0.744 OA
ENDBRANCH  69  70
ENDBRANCH  48  62
BRANCH  49  74
ATOM     74  C   UNL A   1      37.002  32.613  30.123  1.00  0.00     0.058 A 
ATOM     75  C   UNL A   1      37.014  33.646  29.172  1.00  0.00     0.135 A 
ATOM     76  C   UNL A   1      35.784  32.331  30.760  1.00  0.00     0.135 A 
ATOM     77  F   UNL A   1      38.154  33.960  28.537  1.00  0.00    -0.206 F 
ATOM     78  C   UNL A   1      35.873  34.389  28.885  1.00  0.00     0.059 A 
ATOM     79  C   UNL A   1      34.621  33.039  30.467  1.00  0.00     0.059 A 
ATOM     80  F   UNL A   1      35.710  31.343  31.667  1.00  0.00    -0.206 F 
ATOM     81  C   UNL A   1      34.680  34.076  29.537  1.00  0.00     0.060 A 
BRANCH  81  82
ATOM     82  S   UNL A   1      33.202  35.032  29.136  1.00  0.00     0.124 S 
ATOM     83  O   UNL A   1      32.549  35.125  30.437  1.00  0.00    -0.237 OA
ATOM     84  O   UNL A   1      33.772  36.271  28.617  1.00  0.00    -0.237 OA
ATOM     85  O   UNL A   1      32.521  34.201  28.148  1.00  0.00    -0.744 OA
ENDBRANCH  81  82
ENDBRANCH  49  74
BRANCH  61  86
ATOM     86  C   UNL A   1      42.388  33.829  34.416  1.00  0.00     0.058 A 
ATOM     87  C   UNL A   1      42.097  33.850  35.787  1.00  0.00     0.135 A 
ATOM     88  C   UNL A   1      43.157  34.883  33.891  1.00  0.00     0.135 A 
ATOM     89  F   UNL A   1      41.360  32.872  36.338  1.00  0.00    -0.206 F 
ATOM     90  C   UNL A   1      42.558  34.874  36.609  1.00  0.00     0.059 A 
ATOM     91  C   UNL A   1      43.654  35.898  34.698  1.00  0.00     0.059 A 
ATOM     92  F   UNL A   1      43.469  34.906  32.584  1.00  0.00    -0.206 F 
ATOM     93  C   UNL A   1      43.348  35.885  36.058  1.00  0.00     0.060 A 
BRANCH  93  94
ATOM     94  S   UNL A   1      44.013  37.156  37.154  1.00  0.00     0.124 S 
ATOM     95  O   UNL A   1      44.494  38.148  36.198  1.00  0.00    -0.237 OA
ATOM     96  O   UNL A   1      42.838  37.540  37.930  1.00  0.00    -0.237 OA
ATOM     97  O   UNL A   1      45.051  36.453  37.902  1.00  0.00    -0.744 OA
ENDBRANCH  93  94
ENDBRANCH  61  86
ENDBRANCH  35  36
ENDBRANCH  27  30
ENDBRANCH  25  26
ENDBRANCH  24  25
ENDBRANCH   1  24
TORSDOF 20
ENDMDL
MODEL 2
REMARK VINA RESULT:      -8.9      5.193     11.419
REMARK SMILES C#CC[N@H+](CC(=O)NCCCCNC(=O)c1ccc(-c2c3nc(c(-c4c(F)cc(S(=O)(=O)[O-])cc4F)c4ccc([nH]4)c(-c4c(F)cc(S(=O)(=O)[O-])cc4F)c4nc(c(-c5c(F)cc(S(=O)(=O)[O-])cc5F)c5ccc2[nH]5)C=C4)C=C3)cc1)[C@H](C)c1ccccc1[N+](=O)[O-]
REMARK SMILES IDX 10 1 9 2 8 3 6 4 7 5 5 7 4 8 3 10 2 11 1 12 82 13 83 14
REMARK SMILES IDX 84 15 85 16 89 17 86 18 88 19 87 20 90 21 91 22 92 23 11 24
REMARK SMILES IDX 12 25 13 26 14 27 15 29 16 30 17 31 81 32 18 33 80 34 19 35
REMARK SMILES IDX 20 36 21 37 74 38 22 39 79 40 73 41 75 42 23 43 78 44 72 45
REMARK SMILES IDX 71 46 24 48 58 49 37 50 57 51 38 52 41 53 56 54 76 55 39 56
REMARK SMILES IDX 40 57 55 59 77 60 42 61 25 62 26 63 35 64 27 65 28 66 34 67
REMARK SMILES IDX 36 68 29 69 30 70 31 71 32 72 33 73 59 74 60 75 69 76 61 77
REMARK SMILES IDX 62 78 68 79 70 80 63 81 64 82 65 83 66 84 67 85 43 86 44 87
REMARK SMILES IDX 53 88 45 89 46 90 52 91 54 92 47 93 48 94 49 95 50 96 51 97
REMARK H PARENT 8 6 4 9 13 28 75 47 41 58
REMARK Flexibility Score: inf
ROOT
ATOM      1  C   UNL A   1      37.462  22.873  25.544  1.00  0.00     0.023 C 
ENDROOT
BRANCH   1   2
ATOM      2  C   UNL A   1      35.929  22.857  25.409  1.00  0.00     0.116 C 
BRANCH   2   3
ATOM      3  N   UNL A   1      35.503  23.242  24.071  1.00  0.00    -0.351 N 
ATOM      4  C   UNL A   1      34.349  22.965  23.375  1.00  0.00     0.275 C 
ATOM      5  O   UNL A   1      34.295  23.318  22.195  1.00  0.00    -0.269 OA
ATOM      6  H   UNL A   1      36.152  23.794  23.580  1.00  0.00     0.163 HD
BRANCH   4   7
ATOM      7  C   UNL A   1      33.135  22.312  24.074  1.00  0.00     0.364 C 
BRANCH   7   8
ATOM      8  N   UNL A   1      32.156  23.252  24.734  1.00  0.00    -0.311 N 
ATOM      9  H   UNL A   1      31.291  23.302  24.197  1.00  0.00     0.349 HD
BRANCH   8  10
ATOM     10  C   UNL A   1      31.821  22.720  26.051  1.00  0.00     0.354 C 
BRANCH  10  11
ATOM     11  C   UNL A   1      30.528  22.902  26.714  1.00  0.00    -0.047 C 
ATOM     12  C   UNL A   1      29.455  22.848  27.255  1.00  0.00     0.010 C 
ENDBRANCH  10  11
ENDBRANCH   8  10
BRANCH   8  13
ATOM     13  C   UNL A   1      32.646  24.666  24.730  1.00  0.00     0.220 C 
ATOM     14  C   UNL A   1      33.137  25.139  26.110  1.00  0.00     0.081 C 
BRANCH  13  15
ATOM     15  C   UNL A   1      31.669  25.579  23.960  1.00  0.00     0.087 A 
ATOM     16  C   UNL A   1      30.293  25.418  24.271  1.00  0.00     0.017 A 
ATOM     17  C   UNL A   1      31.981  26.671  23.124  1.00  0.00     0.278 A 
ATOM     18  C   UNL A   1      29.329  26.359  23.883  1.00  0.00     0.001 A 
ATOM     19  C   UNL A   1      31.015  27.611  22.719  1.00  0.00     0.086 A 
ATOM     20  C   UNL A   1      29.693  27.467  23.126  1.00  0.00     0.007 A 
BRANCH  17  21
ATOM     21  N   UNL A   1      33.312  26.925  22.619  1.00  0.00     0.063 N 
ATOM     22  O   UNL A   1      33.614  26.422  21.529  1.00  0.00    -0.258 OA
ATOM     23  O   UNL A   1      34.070  27.582  23.347  1.00  0.00    -0.258 OA
ENDBRANCH  17  21
ENDBRANCH  13  15
ENDBRANCH   8  13
ENDBRANCH   7   8
ENDBRANCH   4   7
ENDBRANCH   2   3
ENDBRANCH   1   2
BRANCH   1  24
ATOM     24  C   UNL A   1      38.133  21.531  25.382  1.00  0.00     0.023 C 
BRANCH  24  25
ATOM     25  C   UNL A   1      39.424  21.445  26.152  1.00  0.00     0.116 C 
BRANCH  25  26
ATOM     26  N   UNL A   1      40.025  20.114  26.097  1.00  0.00    -0.352 N 
ATOM     27  C   UNL A   1      41.367  19.809  26.101  1.00  0.00     0.251 C 
ATOM     28  H   UNL A   1      39.403  19.353  26.052  1.00  0.00     0.163 HD
ATOM     29  O   UNL A   1      41.768  18.670  25.902  1.00  0.00    -0.269 OA
BRANCH  27  30
ATOM     30  C   UNL A   1      42.296  20.931  26.314  1.00  0.00     0.039 A 
ATOM     31  C   UNL A   1      42.697  21.705  25.226  1.00  0.00     0.014 A 
ATOM     32  C   UNL A   1      42.562  21.328  27.627  1.00  0.00     0.014 A 
ATOM     33  C   UNL A   1      43.305  22.937  25.463  1.00  0.00     0.010 A 
ATOM     34  C   UNL A   1      43.028  22.610  27.853  1.00  0.00     0.010 A 
ATOM     35  C   UNL A   1      43.427  23.419  26.776  1.00  0.00    -0.014 A 
BRANCH  35  36
ATOM     36  C   UNL A   1      44.030  24.736  27.092  1.00  0.00     0.031 A 
ATOM     37  C   UNL A   1      43.118  25.844  27.547  1.00  0.00     0.074 A 
ATOM     38  C   UNL A   1      45.341  24.966  26.882  1.00  0.00     0.049 A 
ATOM     39  N   UNL A   1      43.371  27.115  27.694  1.00  0.00    -0.248 NA
ATOM     40  C   UNL A   1      41.716  25.474  27.824  1.00  0.00     0.031 C 
ATOM     41  C   UNL A   1      46.319  23.979  26.421  1.00  0.00     0.029 A 
ATOM     42  N   UNL A   1      46.074  26.119  27.014  1.00  0.00    -0.354 N 
ATOM     43  C   UNL A   1      42.161  27.695  28.058  1.00  0.00     0.074 A 
ATOM     44  C   UNL A   1      41.158  26.656  28.027  1.00  0.00     0.031 C 
ATOM     45  C   UNL A   1      47.526  24.563  26.331  1.00  0.00     0.029 A 
ATOM     46  C   UNL A   1      47.399  25.978  26.668  1.00  0.00     0.049 A 
ATOM     47  H   UNL A   1      45.689  26.969  27.328  1.00  0.00     0.167 HD
ATOM     48  C   UNL A   1      41.913  28.973  28.421  1.00  0.00     0.037 A 
ATOM     49  C   UNL A   1      48.388  26.891  26.612  1.00  0.00     0.037 A 
ATOM     50  C   UNL A   1      42.925  29.991  28.475  1.00  0.00     0.049 A 
ATOM     51  C   UNL A   1      48.080  28.322  26.973  1.00  0.00     0.074 A 
ATOM     52  C   UNL A   1      42.792  31.312  28.862  1.00  0.00     0.029 A 
ATOM     53  N   UNL A   1      44.256  29.802  28.135  1.00  0.00    -0.354 N 
ATOM     54  N   UNL A   1      46.938  28.850  27.351  1.00  0.00    -0.248 NA
ATOM     55  C   UNL A   1      49.189  29.285  26.904  1.00  0.00     0.031 C 
ATOM     56  C   UNL A   1      44.029  31.937  28.698  1.00  0.00     0.029 A 
ATOM     57  C   UNL A   1      44.951  30.987  28.285  1.00  0.00     0.049 A 
ATOM     58  H   UNL A   1      44.647  28.951  27.832  1.00  0.00     0.167 HD
ATOM     59  C   UNL A   1      47.205  30.189  27.615  1.00  0.00     0.074 A 
ATOM     60  C   UNL A   1      48.613  30.396  27.346  1.00  0.00     0.031 C 
ATOM     61  C   UNL A   1      46.364  31.160  28.049  1.00  0.00     0.037 A 
BRANCH  48  62
ATOM     62  C   UNL A   1      40.501  29.333  28.791  1.00  0.00     0.058 A 
ATOM     63  C   UNL A   1      40.114  29.531  30.127  1.00  0.00     0.135 A 
ATOM     64  C   UNL A   1      39.528  29.511  27.795  1.00  0.00     0.135 A 
ATOM     65  F   UNL A   1      40.997  29.351  31.122  1.00  0.00    -0.206 F 
ATOM     66  C   UNL A   1      38.807  29.862  30.464  1.00  0.00     0.059 A 
ATOM     67  C   UNL A   1      38.223  29.880  28.107  1.00  0.00     0.059 A 
ATOM     68  F   UNL A   1      39.840  29.328  26.502  1.00  0.00    -0.206 F 
ATOM     69  C   UNL A   1      37.870  30.040  29.446  1.00  0.00     0.060 A 
BRANCH  69  70
ATOM     70  S   UNL A   1      36.184  30.490  29.903  1.00  0.00     0.124 S 
ATOM     71  O   UNL A   1      36.279  31.946  29.965  1.00  0.00    -0.237 OA
ATOM     72  O   UNL A   1      35.409  29.952  28.790  1.00  0.00    -0.237 OA
ATOM     73  O   UNL A   1      35.987  29.820  31.184  1.00  0.00    -0.744 OA
ENDBRANCH  69  70
ENDBRANCH  48  62
BRANCH  49  74
ATOM     74  C   UNL A   1      49.766  26.489  26.209  1.00  0.00     0.058 A 
ATOM     75  C   UNL A   1      50.644  25.902  27.135  1.00  0.00     0.135 A 
ATOM     76  C   UNL A   1      50.239  26.691  24.904  1.00  0.00     0.135 A 
ATOM     77  F   UNL A   1      50.244  25.691  28.398  1.00  0.00    -0.206 F 
ATOM     78  C   UNL A   1      51.948  25.559  26.790  1.00  0.00     0.059 A 
ATOM     79  C   UNL A   1      51.528  26.326  24.526  1.00  0.00     0.059 A 
ATOM     80  F   UNL A   1      49.437  27.233  23.973  1.00  0.00    -0.206 F 
ATOM     81  C   UNL A   1      52.380  25.774  25.481  1.00  0.00     0.060 A 
BRANCH  81  82
ATOM     82  S   UNL A   1      54.066  25.300  25.041  1.00  0.00     0.124 S 
ATOM     83  O   UNL A   1      53.963  23.845  25.004  1.00  0.00    -0.237 OA
ATOM     84  O   UNL A   1      54.241  25.962  23.752  1.00  0.00    -0.237 OA
ATOM     85  O   UNL A   1      54.866  25.848  26.133  1.00  0.00    -0.744 OA
ENDBRANCH  81  82
ENDBRANCH  49  74
BRANCH  61  86
ATOM     86  C   UNL A   1      46.938  32.516  28.351  1.00  0.00     0.058 A 
ATOM     87  C   UNL A   1      46.986  33.538  27.392  1.00  0.00     0.135 A 
ATOM     88  C   UNL A   1      47.336  32.826  29.664  1.00  0.00     0.135 A 
ATOM     89  F   UNL A   1      46.626  33.293  26.123  1.00  0.00    -0.206 F 
ATOM     90  C   UNL A   1      47.406  34.823  27.725  1.00  0.00     0.059 A 
ATOM     91  C   UNL A   1      47.728  34.109  30.025  1.00  0.00     0.059 A 
ATOM     92  F   UNL A   1      47.302  31.885  30.621  1.00  0.00    -0.206 F 
ATOM     93  C   UNL A   1      47.761  35.101  29.047  1.00  0.00     0.060 A 
BRANCH  93  94
ATOM     94  S   UNL A   1      48.217  36.794  29.480  1.00  0.00     0.124 S 
ATOM     95  O   UNL A   1      49.642  36.805  29.166  1.00  0.00    -0.237 OA
ATOM     96  O   UNL A   1      47.365  37.580  28.593  1.00  0.00    -0.237 OA
ATOM     97  O   UNL A   1      47.887  36.884  30.900  1.00  0.00    -0.744 OA
ENDBRANCH  93  94
ENDBRANCH  61  86
ENDBRANCH  35  36
ENDBRANCH  27  30
ENDBRANCH  25  26
ENDBRANCH  24  25
ENDBRANCH   1  24
TORSDOF 20
ENDMDL
MODEL 3
REMARK VINA RESULT:      -8.8      4.035     10.332
REMARK SMILES C#CC[N@H+](CC(=O)NCCCCNC(=O)c1ccc(-c2c3nc(c(-c4c(F)cc(S(=O)(=O)[O-])cc4F)c4ccc([nH]4)c(-c4c(F)cc(S(=O)(=O)[O-])cc4F)c4nc(c(-c5c(F)cc(S(=O)(=O)[O-])cc5F)c5ccc2[nH]5)C=C4)C=C3)cc1)[C@H](C)c1ccccc1[N+](=O)[O-]
REMARK SMILES IDX 10 1 9 2 8 3 6 4 7 5 5 7 4 8 3 10 2 11 1 12 82 13 83 14
REMARK SMILES IDX 84 15 85 16 89 17 86 18 88 19 87 20 90 21 91 22 92 23 11 24
REMARK SMILES IDX 12 25 13 26 14 27 15 29 16 30 17 31 81 32 18 33 80 34 19 35
REMARK SMILES IDX 20 36 21 37 74 38 22 39 79 40 73 41 75 42 23 43 78 44 72 45
REMARK SMILES IDX 71 46 24 48 58 49 37 50 57 51 38 52 41 53 56 54 76 55 39 56
REMARK SMILES IDX 40 57 55 59 77 60 42 61 25 62 26 63 35 64 27 65 28 66 34 67
REMARK SMILES IDX 36 68 29 69 30 70 31 71 32 72 33 73 59 74 60 75 69 76 61 77
REMARK SMILES IDX 62 78 68 79 70 80 63 81 64 82 65 83 66 84 67 85 43 86 44 87
REMARK SMILES IDX 53 88 45 89 46 90 52 91 54 92 47 93 48 94 49 95 50 96 51 97
REMARK H PARENT 8 6 4 9 13 28 75 47 41 58
REMARK Flexibility Score: inf
ROOT
ATOM      1  C   UNL A   1      38.079  24.086  26.418  1.00  0.00     0.023 C 
ENDROOT
BRANCH   1   2
ATOM      2  C   UNL A   1      37.781  22.728  25.755  1.00  0.00     0.116 C 
BRANCH   2   3
ATOM      3  N   UNL A   1      37.447  22.881  24.346  1.00  0.00    -0.351 N 
ATOM      4  C   UNL A   1      36.230  22.945  23.708  1.00  0.00     0.275 C 
ATOM      5  O   UNL A   1      36.231  22.954  22.474  1.00  0.00    -0.269 OA
ATOM      6  H   UNL A   1      38.224  22.949  23.747  1.00  0.00     0.163 HD
BRANCH   4   7
ATOM      7  C   UNL A   1      34.916  23.085  24.510  1.00  0.00     0.364 C 
BRANCH   7   8
ATOM      8  N   UNL A   1      33.793  23.829  23.829  1.00  0.00    -0.311 N 
ATOM      9  H   UNL A   1      34.127  24.275  22.975  1.00  0.00     0.349 HD
BRANCH   8  10
ATOM     10  C   UNL A   1      32.767  22.865  23.445  1.00  0.00     0.354 C 
BRANCH  10  11
ATOM     11  C   UNL A   1      32.542  21.582  24.113  1.00  0.00    -0.047 C 
ATOM     12  C   UNL A   1      32.256  20.637  24.801  1.00  0.00     0.010 C 
ENDBRANCH  10  11
ENDBRANCH   8  10
BRANCH   8  13
ATOM     13  C   UNL A   1      33.303  24.981  24.649  1.00  0.00     0.220 C 
ATOM     14  C   UNL A   1      33.143  24.634  26.140  1.00  0.00     0.081 C 
BRANCH  13  15
ATOM     15  C   UNL A   1      32.130  25.692  23.943  1.00  0.00     0.087 A 
ATOM     16  C   UNL A   1      30.887  25.671  24.629  1.00  0.00     0.017 A 
ATOM     17  C   UNL A   1      32.179  26.512  22.797  1.00  0.00     0.278 A 
ATOM     18  C   UNL A   1      29.825  26.510  24.268  1.00  0.00     0.001 A 
ATOM     19  C   UNL A   1      31.110  27.347  22.419  1.00  0.00     0.086 A 
ATOM     20  C   UNL A   1      29.944  27.364  23.177  1.00  0.00     0.007 A 
BRANCH  17  21
ATOM     21  N   UNL A   1      33.326  26.574  21.918  1.00  0.00     0.063 N 
ATOM     22  O   UNL A   1      33.901  27.664  21.806  1.00  0.00    -0.258 OA
ATOM     23  O   UNL A   1      33.610  25.539  21.297  1.00  0.00    -0.258 OA
ENDBRANCH  17  21
ENDBRANCH  13  15
ENDBRANCH   8  13
ENDBRANCH   7   8
ENDBRANCH   4   7
ENDBRANCH   2   3
ENDBRANCH   1   2
BRANCH   1  24
ATOM     24  C   UNL A   1      39.490  24.254  26.926  1.00  0.00     0.023 C 
BRANCH  24  25
ATOM     25  C   UNL A   1      40.133  25.512  26.409  1.00  0.00     0.116 C 
BRANCH  25  26
ATOM     26  N   UNL A   1      41.430  25.266  25.781  1.00  0.00    -0.352 N 
ATOM     27  C   UNL A   1      42.651  25.763  26.177  1.00  0.00     0.251 C 
ATOM     28  H   UNL A   1      41.430  24.680  24.991  1.00  0.00     0.163 HD
ATOM     29  O   UNL A   1      43.656  25.615  25.495  1.00  0.00    -0.269 OA
BRANCH  27  30
ATOM     30  C   UNL A   1      42.676  26.517  27.441  1.00  0.00     0.039 A 
ATOM     31  C   UNL A   1      42.883  27.895  27.412  1.00  0.00     0.014 A 
ATOM     32  C   UNL A   1      42.262  25.867  28.606  1.00  0.00     0.014 A 
ATOM     33  C   UNL A   1      42.591  28.644  28.551  1.00  0.00     0.010 A 
ATOM     34  C   UNL A   1      41.836  26.630  29.678  1.00  0.00     0.010 A 
ATOM     35  C   UNL A   1      42.019  28.023  29.673  1.00  0.00    -0.014 A 
BRANCH  35  36
ATOM     36  C   UNL A   1      41.652  28.769  30.900  1.00  0.00     0.031 A 
ATOM     37  C   UNL A   1      40.467  29.695  30.841  1.00  0.00     0.074 A 
ATOM     38  C   UNL A   1      42.416  28.699  32.008  1.00  0.00     0.049 A 
ATOM     39  N   UNL A   1      40.070  30.587  31.707  1.00  0.00    -0.248 NA
ATOM     40  C   UNL A   1      39.648  29.642  29.615  1.00  0.00     0.031 C 
ATOM     41  C   UNL A   1      43.601  27.855  32.176  1.00  0.00     0.029 A 
ATOM     42  N   UNL A   1      42.315  29.368  33.202  1.00  0.00    -0.354 N 
ATOM     43  C   UNL A   1      38.975  31.211  31.122  1.00  0.00     0.074 A 
ATOM     44  C   UNL A   1      38.821  30.658  29.796  1.00  0.00     0.031 C 
ATOM     45  C   UNL A   1      44.103  28.042  33.409  1.00  0.00     0.029 A 
ATOM     46  C   UNL A   1      43.314  29.060  34.097  1.00  0.00     0.049 A 
ATOM     47  H   UNL A   1      41.595  30.009  33.401  1.00  0.00     0.167 HD
ATOM     48  C   UNL A   1      38.148  32.138  31.655  1.00  0.00     0.037 A 
ATOM     49  C   UNL A   1      43.572  29.558  35.323  1.00  0.00     0.037 A 
ATOM     50  C   UNL A   1      38.295  32.659  32.985  1.00  0.00     0.049 A 
ATOM     51  C   UNL A   1      42.666  30.627  35.880  1.00  0.00     0.074 A 
ATOM     52  C   UNL A   1      37.494  33.577  33.640  1.00  0.00     0.029 A 
ATOM     53  N   UNL A   1      39.308  32.308  33.864  1.00  0.00    -0.354 N 
ATOM     54  N   UNL A   1      41.611  31.183  35.329  1.00  0.00    -0.248 NA
ATOM     55  C   UNL A   1      42.979  31.139  37.222  1.00  0.00     0.031 C 
ATOM     56  C   UNL A   1      38.057  33.826  34.892  1.00  0.00     0.029 A 
ATOM     57  C   UNL A   1      39.163  33.004  35.050  1.00  0.00     0.049 A 
ATOM     58  H   UNL A   1      40.024  31.658  33.673  1.00  0.00     0.167 HD
ATOM     59  C   UNL A   1      41.107  32.067  36.278  1.00  0.00     0.074 A 
ATOM     60  C   UNL A   1      41.975  31.980  37.433  1.00  0.00     0.031 C 
ATOM     61  C   UNL A   1      40.018  32.872  36.204  1.00  0.00     0.037 A 
BRANCH  48  62
ATOM     62  C   UNL A   1      37.015  32.637  30.801  1.00  0.00     0.058 A 
ATOM     63  C   UNL A   1      37.169  33.728  29.931  1.00  0.00     0.135 A 
ATOM     64  C   UNL A   1      35.766  31.998  30.834  1.00  0.00     0.135 A 
ATOM     65  F   UNL A   1      38.335  34.392  29.877  1.00  0.00    -0.206 F 
ATOM     66  C   UNL A   1      36.119  34.186  29.145  1.00  0.00     0.059 A 
ATOM     67  C   UNL A   1      34.711  32.414  30.027  1.00  0.00     0.059 A 
ATOM     68  F   UNL A   1      35.559  30.954  31.653  1.00  0.00    -0.206 F 
ATOM     69  C   UNL A   1      34.895  33.519  29.196  1.00  0.00     0.060 A 
BRANCH  69  70
ATOM     70  S   UNL A   1      33.549  34.116  28.154  1.00  0.00     0.124 S 
ATOM     71  O   UNL A   1      34.272  34.944  27.192  1.00  0.00    -0.237 OA
ATOM     72  O   UNL A   1      32.992  32.874  27.628  1.00  0.00    -0.237 OA
ATOM     73  O   UNL A   1      32.692  34.842  29.085  1.00  0.00    -0.744 OA
ENDBRANCH  69  70
ENDBRANCH  48  62
BRANCH  49  74
ATOM     74  C   UNL A   1      44.726  29.051  36.117  1.00  0.00     0.058 A 
ATOM     75  C   UNL A   1      44.578  27.958  36.987  1.00  0.00     0.135 A 
ATOM     76  C   UNL A   1      45.993  29.649  36.038  1.00  0.00     0.135 A 
ATOM     77  F   UNL A   1      43.386  27.353  37.105  1.00  0.00    -0.206 F 
ATOM     78  C   UNL A   1      45.632  27.497  37.769  1.00  0.00     0.059 A 
ATOM     79  C   UNL A   1      47.073  29.186  36.785  1.00  0.00     0.059 A 
ATOM     80  F   UNL A   1      46.197  30.687  35.210  1.00  0.00    -0.206 F 
ATOM     81  C   UNL A   1      46.878  28.117  37.659  1.00  0.00     0.060 A 
BRANCH  81  82
ATOM     82  S   UNL A   1      48.244  27.492  38.660  1.00  0.00     0.124 S 
ATOM     83  O   UNL A   1      48.141  28.325  39.853  1.00  0.00    -0.237 OA
ATOM     84  O   UNL A   1      47.881  26.088  38.827  1.00  0.00    -0.237 OA
ATOM     85  O   UNL A   1      49.415  27.734  37.822  1.00  0.00    -0.744 OA
ENDBRANCH  81  82
ENDBRANCH  49  74
BRANCH  61  86
ATOM     86  C   UNL A   1      39.636  33.665  37.422  1.00  0.00     0.058 A 
ATOM     87  C   UNL A   1      38.734  33.178  38.379  1.00  0.00     0.135 A 
ATOM     88  C   UNL A   1      40.284  34.885  37.690  1.00  0.00     0.135 A 
ATOM     89  F   UNL A   1      38.083  32.024  38.169  1.00  0.00    -0.206 F 
ATOM     90  C   UNL A   1      38.488  33.872  39.560  1.00  0.00     0.059 A 
ATOM     91  C   UNL A   1      40.078  35.577  38.876  1.00  0.00     0.059 A 
ATOM     92  F   UNL A   1      41.163  35.390  36.809  1.00  0.00    -0.206 F 
ATOM     93  C   UNL A   1      39.176  35.063  39.806  1.00  0.00     0.060 A 
BRANCH  93  94
ATOM     94  S   UNL A   1      38.913  35.902  41.382  1.00  0.00     0.124 S 
ATOM     95  O   UNL A   1      38.893  37.302  40.971  1.00  0.00    -0.237 OA
ATOM     96  O   UNL A   1      37.634  35.350  41.817  1.00  0.00    -0.237 OA
ATOM     97  O   UNL A   1      40.068  35.500  42.180  1.00  0.00    -0.744 OA
ENDBRANCH  93  94
ENDBRANCH  61  86
ENDBRANCH  35  36
ENDBRANCH  27  30
ENDBRANCH  25  26
ENDBRANCH  24  25
ENDBRANCH   1  24
TORSDOF 20
ENDMDL
