MODEL 1
REMARK VINA RESULT:     -11.6      0.000      0.000
REMARK SMILES COc1ccc(/C=C(\NC(=O)c2ccccc2Br)C(=O)NCCCCNC(=O)c2ccc(-c3c4nc(c(-c5c(F)cc(S(=O)(=O)[O-])cc5F)c5ccc([nH]5)c(-c5c(F)cc(S(=O)(=O)[O-])cc5F)c5nc(c(-c6c(F)cc(S(=O)(=O)[O-])cc6F)c6ccc3[nH]6)C=C5)C=C4)cc2)cc1
REMARK SMILES IDX 24 1 23 2 22 3 21 4 19 5 20 6 8 8 7 9 6 10 3 11 4 12 96 13
REMARK SMILES IDX 5 14 95 15 2 16 1 17 9 18 10 19 11 21 12 22 13 23 17 24
REMARK SMILES IDX 14 25 16 26 18 27 15 28 25 29 26 30 27 31 28 33 29 34 30 35
REMARK SMILES IDX 94 36 31 37 93 38 32 39 33 40 34 41 87 42 35 43 92 44 86 45
REMARK SMILES IDX 88 46 36 47 91 48 85 49 84 50 37 52 71 53 50 54 70 55 51 56
REMARK SMILES IDX 54 57 69 58 89 59 52 60 53 61 68 63 90 64 55 65 38 66 39 67
REMARK SMILES IDX 48 68 40 69 41 70 47 71 49 72 42 73 43 74 44 75 45 76 46 77
REMARK SMILES IDX 72 78 73 79 82 80 74 81 75 82 81 83 83 84 76 85 77 86 78 87
REMARK SMILES IDX 79 88 80 89 56 90 57 91 66 92 58 93 59 94 65 95 67 96 60 97
REMARK SMILES IDX 61 98 62 99 63 100 64 101
REMARK H PARENT 21 7 9 20 26 32 88 51 54 62
REMARK Flexibility Score: inf
ROOT
ATOM      1  C   UNL A   1      33.973  28.578  25.759  1.00  0.00     0.023 C 
ENDROOT
BRANCH   1   2
ATOM      2  C   UNL A   1      33.260  29.177  24.539  1.00  0.00     0.023 C 
BRANCH   2   3
ATOM      3  C   UNL A   1      31.782  28.870  24.294  1.00  0.00     0.116 C 
BRANCH   3   4
ATOM      4  N   UNL A   1      31.467  28.171  23.060  1.00  0.00    -0.351 N 
ATOM      5  C   UNL A   1      31.696  26.848  22.748  1.00  0.00     0.267 C 
ATOM      6  O   UNL A   1      31.421  26.431  21.624  1.00  0.00    -0.268 OA
ATOM      7  H   UNL A   1      31.035  28.709  22.357  1.00  0.00     0.163 HD
BRANCH   5   8
ATOM      8  C   UNL A   1      32.348  25.943  23.780  1.00  0.00     0.107 C 
ATOM      9  C   UNL A   1      33.571  25.478  23.433  1.00  0.00     0.040 C 
BRANCH   9  10
ATOM     10  C   UNL A   1      34.575  24.617  24.119  1.00  0.00    -0.023 A 
ATOM     11  C   UNL A   1      36.726  23.088  25.166  1.00  0.00     0.118 A 
ATOM     12  C   UNL A   1      36.106  24.054  25.943  1.00  0.00     0.047 A 
ATOM     13  C   UNL A   1      36.239  22.819  23.892  1.00  0.00     0.047 A 
ATOM     14  C   UNL A   1      35.061  24.825  25.416  1.00  0.00     0.012 A 
ATOM     15  C   UNL A   1      35.172  23.577  23.378  1.00  0.00     0.012 A 
BRANCH  11  16
ATOM     16  O   UNL A   1      37.782  22.431  25.735  1.00  0.00    -0.497 OA
ATOM     17  C   UNL A   1      38.014  21.151  25.149  1.00  0.00     0.278 C 
ENDBRANCH  11  16
ENDBRANCH   9  10
BRANCH   8  18
ATOM     18  N   UNL A   1      31.728  25.658  24.975  1.00  0.00    -0.317 N 
ATOM     19  C   UNL A   1      31.279  24.479  25.523  1.00  0.00     0.256 C 
ATOM     20  H   UNL A   1      31.576  26.446  25.544  1.00  0.00     0.170 HD
ATOM     21  O   UNL A   1      30.528  24.513  26.495  1.00  0.00    -0.269 OA
BRANCH  19  22
ATOM     22  C   UNL A   1      31.679  23.179  24.958  1.00  0.00     0.054 A 
ATOM     23  C   UNL A   1      31.230  22.894  23.663  1.00  0.00     0.015 A 
ATOM     24  C   UNL A   1      32.486  22.258  25.634  1.00  0.00     0.030 A 
ATOM     25  C   UNL A   1      31.714  21.775  22.990  1.00  0.00     0.001 A 
ATOM     26  C   UNL A   1      32.959  21.133  24.953  1.00  0.00     0.016 A 
ATOM     27  Br  UNL A   1      32.915  22.417  27.476  1.00  0.00    -0.050 Br
ATOM     28  C   UNL A   1      32.600  20.911  23.624  1.00  0.00     0.001 A 
ENDBRANCH  19  22
ENDBRANCH   8  18
ENDBRANCH   5   8
ENDBRANCH   3   4
ENDBRANCH   2   3
ENDBRANCH   1   2
BRANCH   1  29
ATOM     29  C   UNL A   1      33.393  28.758  27.163  1.00  0.00     0.116 C 
BRANCH  29  30
ATOM     30  N   UNL A   1      33.385  30.106  27.702  1.00  0.00    -0.352 N 
ATOM     31  C   UNL A   1      34.443  30.807  28.258  1.00  0.00     0.251 C 
ATOM     32  H   UNL A   1      32.523  30.580  27.668  1.00  0.00     0.163 HD
ATOM     33  O   UNL A   1      34.279  31.959  28.655  1.00  0.00    -0.269 OA
BRANCH  31  34
ATOM     34  C   UNL A   1      35.766  30.153  28.430  1.00  0.00     0.039 A 
ATOM     35  C   UNL A   1      36.669  30.166  27.365  1.00  0.00     0.014 A 
ATOM     36  C   UNL A   1      36.132  29.555  29.637  1.00  0.00     0.014 A 
ATOM     37  C   UNL A   1      37.971  29.684  27.548  1.00  0.00     0.010 A 
ATOM     38  C   UNL A   1      37.449  29.115  29.835  1.00  0.00     0.010 A 
ATOM     39  C   UNL A   1      38.397  29.207  28.803  1.00  0.00    -0.014 A 
BRANCH  39  40
ATOM     40  C   UNL A   1      39.838  28.900  29.048  1.00  0.00     0.031 A 
ATOM     41  C   UNL A   1      40.775  29.914  29.655  1.00  0.00     0.074 A 
ATOM     42  C   UNL A   1      40.324  27.691  28.695  1.00  0.00     0.049 A 
ATOM     43  N   UNL A   1      42.048  29.792  29.938  1.00  0.00    -0.248 NA
ATOM     44  C   UNL A   1      40.214  31.235  29.975  1.00  0.00     0.031 C 
ATOM     45  C   UNL A   1      39.548  26.624  28.055  1.00  0.00     0.029 A 
ATOM     46  N   UNL A   1      41.581  27.148  28.822  1.00  0.00    -0.354 N 
ATOM     47  C   UNL A   1      42.439  31.007  30.489  1.00  0.00     0.074 A 
ATOM     48  C   UNL A   1      41.280  31.875  30.444  1.00  0.00     0.031 C 
ATOM     49  C   UNL A   1      40.337  25.553  27.870  1.00  0.00     0.029 A 
ATOM     50  C   UNL A   1      41.683  25.860  28.345  1.00  0.00     0.049 A 
ATOM     51  H   UNL A   1      42.339  27.636  29.216  1.00  0.00     0.167 HD
ATOM     52  C   UNL A   1      43.641  31.362  31.011  1.00  0.00     0.037 A 
ATOM     53  C   UNL A   1      42.734  25.018  28.292  1.00  0.00     0.037 A 
ATOM     54  C   UNL A   1      44.802  30.508  31.059  1.00  0.00     0.049 A 
ATOM     55  C   UNL A   1      44.068  25.452  28.845  1.00  0.00     0.074 A 
ATOM     56  C   UNL A   1      46.054  30.787  31.584  1.00  0.00     0.029 A 
ATOM     57  N   UNL A   1      44.861  29.212  30.569  1.00  0.00    -0.354 N 
ATOM     58  N   UNL A   1      44.394  26.587  29.415  1.00  0.00    -0.248 NA
ATOM     59  C   UNL A   1      45.174  24.487  28.754  1.00  0.00     0.031 C 
ATOM     60  C   UNL A   1      46.878  29.675  31.381  1.00  0.00     0.029 A 
ATOM     61  C   UNL A   1      46.128  28.685  30.770  1.00  0.00     0.049 A 
ATOM     62  H   UNL A   1      44.112  28.736  30.141  1.00  0.00     0.167 HD
ATOM     63  C   UNL A   1      45.730  26.455  29.782  1.00  0.00     0.074 A 
ATOM     64  C   UNL A   1      46.149  25.129  29.382  1.00  0.00     0.031 C 
ATOM     65  C   UNL A   1      46.537  27.356  30.394  1.00  0.00     0.037 A 
BRANCH  52  66
ATOM     66  C   UNL A   1      43.765  32.736  31.613  1.00  0.00     0.058 A 
ATOM     67  C   UNL A   1      43.526  32.952  32.979  1.00  0.00     0.135 A 
ATOM     68  C   UNL A   1      44.210  33.825  30.846  1.00  0.00     0.135 A 
ATOM     69  F   UNL A   1      43.089  31.948  33.756  1.00  0.00    -0.206 F 
ATOM     70  C   UNL A   1      43.709  34.202  33.561  1.00  0.00     0.059 A 
ATOM     71  C   UNL A   1      44.426  35.078  31.412  1.00  0.00     0.059 A 
ATOM     72  F   UNL A   1      44.460  33.671  29.535  1.00  0.00    -0.206 F 
ATOM     73  C   UNL A   1      44.164  35.258  32.771  1.00  0.00     0.060 A 
BRANCH  73  74
ATOM     74  S   UNL A   1      44.424  36.865  33.551  1.00  0.00     0.124 S 
ATOM     75  O   UNL A   1      43.049  37.294  33.798  1.00  0.00    -0.237 OA
ATOM     76  O   UNL A   1      45.199  36.515  34.736  1.00  0.00    -0.237 OA
ATOM     77  O   UNL A   1      45.144  37.625  32.535  1.00  0.00    -0.744 OA
ENDBRANCH  73  74
ENDBRANCH  52  66
BRANCH  53  78
ATOM     78  C   UNL A   1      42.585  23.661  27.695  1.00  0.00     0.058 A 
ATOM     79  C   UNL A   1      42.392  22.531  28.505  1.00  0.00     0.135 A 
ATOM     80  C   UNL A   1      42.686  23.464  26.310  1.00  0.00     0.135 A 
ATOM     81  F   UNL A   1      42.295  22.668  29.836  1.00  0.00    -0.206 F 
ATOM     82  C   UNL A   1      42.349  21.249  27.968  1.00  0.00     0.059 A 
ATOM     83  C   UNL A   1      42.616  22.193  25.746  1.00  0.00     0.059 A 
ATOM     84  F   UNL A   1      42.852  24.512  25.489  1.00  0.00    -0.206 F 
ATOM     85  C   UNL A   1      42.469  21.090  26.586  1.00  0.00     0.060 A 
BRANCH  85  86
ATOM     86  S   UNL A   1      42.418  19.423  25.893  1.00  0.00     0.124 S 
ATOM     87  O   UNL A   1      43.287  19.563  24.731  1.00  0.00    -0.237 OA
ATOM     88  O   UNL A   1      42.941  18.617  26.991  1.00  0.00    -0.237 OA
ATOM     89  O   UNL A   1      41.001  19.227  25.603  1.00  0.00    -0.744 OA
ENDBRANCH  85  86
ENDBRANCH  53  78
BRANCH  65  90
ATOM     90  C   UNL A   1      47.943  26.929  30.717  1.00  0.00     0.058 A 
ATOM     91  C   UNL A   1      49.014  27.179  29.844  1.00  0.00     0.135 A 
ATOM     92  C   UNL A   1      48.231  26.296  31.938  1.00  0.00     0.135 A 
ATOM     93  F   UNL A   1      48.794  27.775  28.660  1.00  0.00    -0.206 F 
ATOM     94  C   UNL A   1      50.315  26.798  30.158  1.00  0.00     0.059 A 
ATOM     95  C   UNL A   1      49.529  25.929  32.284  1.00  0.00     0.059 A 
ATOM     96  F   UNL A   1      47.249  26.039  32.814  1.00  0.00    -0.206 F 
ATOM     97  C   UNL A   1      50.563  26.173  31.382  1.00  0.00     0.060 A 
BRANCH  97  98
ATOM     98  S   UNL A   1      52.261  25.713  31.791  1.00  0.00     0.124 S 
ATOM     99  O   UNL A   1      52.111  24.301  32.124  1.00  0.00    -0.237 OA
ATOM    100  O   UNL A   1      52.972  26.000  30.549  1.00  0.00    -0.237 OA
ATOM    101  O   UNL A   1      52.590  26.591  32.911  1.00  0.00    -0.744 OA
ENDBRANCH  97  98
ENDBRANCH  65  90
ENDBRANCH  39  40
ENDBRANCH  31  34
ENDBRANCH  29  30
ENDBRANCH   1  29
TORSDOF 18
ENDMDL
MODEL 2
REMARK VINA RESULT:     -11.6      3.099      8.443
REMARK SMILES COc1ccc(/C=C(\NC(=O)c2ccccc2Br)C(=O)NCCCCNC(=O)c2ccc(-c3c4nc(c(-c5c(F)cc(S(=O)(=O)[O-])cc5F)c5ccc([nH]5)c(-c5c(F)cc(S(=O)(=O)[O-])cc5F)c5nc(c(-c6c(F)cc(S(=O)(=O)[O-])cc6F)c6ccc3[nH]6)C=C5)C=C4)cc2)cc1
REMARK SMILES IDX 24 1 23 2 22 3 21 4 19 5 20 6 8 8 7 9 6 10 3 11 4 12 96 13
REMARK SMILES IDX 5 14 95 15 2 16 1 17 9 18 10 19 11 21 12 22 13 23 17 24
REMARK SMILES IDX 14 25 16 26 18 27 15 28 25 29 26 30 27 31 28 33 29 34 30 35
REMARK SMILES IDX 94 36 31 37 93 38 32 39 33 40 34 41 87 42 35 43 92 44 86 45
REMARK SMILES IDX 88 46 36 47 91 48 85 49 84 50 37 52 71 53 50 54 70 55 51 56
REMARK SMILES IDX 54 57 69 58 89 59 52 60 53 61 68 63 90 64 55 65 38 66 39 67
REMARK SMILES IDX 48 68 40 69 41 70 47 71 49 72 42 73 43 74 44 75 45 76 46 77
REMARK SMILES IDX 72 78 73 79 82 80 74 81 75 82 81 83 83 84 76 85 77 86 78 87
REMARK SMILES IDX 79 88 80 89 56 90 57 91 66 92 58 93 59 94 65 95 67 96 60 97
REMARK SMILES IDX 61 98 62 99 63 100 64 101
REMARK H PARENT 21 7 9 20 26 32 88 51 54 62
REMARK Flexibility Score: inf
ROOT
ATOM      1  C   UNL A   1      36.050  23.418  26.209  1.00  0.00     0.023 C 
ENDROOT
BRANCH   1   2
ATOM      2  C   UNL A   1      35.221  22.143  25.997  1.00  0.00     0.023 C 
BRANCH   2   3
ATOM      3  C   UNL A   1      34.347  22.002  24.750  1.00  0.00     0.116 C 
BRANCH   3   4
ATOM      4  N   UNL A   1      32.913  21.938  24.974  1.00  0.00    -0.351 N 
ATOM      5  C   UNL A   1      32.024  22.983  25.110  1.00  0.00     0.267 C 
ATOM      6  O   UNL A   1      30.843  22.749  25.361  1.00  0.00    -0.268 OA
ATOM      7  H   UNL A   1      32.526  21.035  25.037  1.00  0.00     0.163 HD
BRANCH   5   8
ATOM      8  C   UNL A   1      32.535  24.411  25.015  1.00  0.00     0.107 C 
ATOM      9  C   UNL A   1      32.196  25.205  26.057  1.00  0.00     0.040 C 
BRANCH   9  10
ATOM     10  C   UNL A   1      32.494  26.622  26.408  1.00  0.00    -0.023 A 
ATOM     11  C   UNL A   1      33.173  29.360  26.726  1.00  0.00     0.118 A 
ATOM     12  C   UNL A   1      31.877  28.925  26.954  1.00  0.00     0.047 A 
ATOM     13  C   UNL A   1      34.160  28.433  26.412  1.00  0.00     0.047 A 
ATOM     14  C   UNL A   1      31.538  27.579  26.773  1.00  0.00     0.012 A 
ATOM     15  C   UNL A   1      33.820  27.077  26.257  1.00  0.00     0.012 A 
BRANCH  11  16
ATOM     16  O   UNL A   1      33.401  30.702  26.860  1.00  0.00    -0.497 OA
ATOM     17  C   UNL A   1      34.467  30.993  27.763  1.00  0.00     0.278 C 
ENDBRANCH  11  16
ENDBRANCH   9  10
BRANCH   8  18
ATOM     18  N   UNL A   1      33.302  24.827  23.950  1.00  0.00    -0.317 N 
ATOM     19  C   UNL A   1      33.066  25.729  22.940  1.00  0.00     0.256 C 
ATOM     20  H   UNL A   1      34.185  24.395  23.902  1.00  0.00     0.170 HD
ATOM     21  O   UNL A   1      33.805  25.743  21.958  1.00  0.00    -0.269 OA
BRANCH  19  22
ATOM     22  C   UNL A   1      31.937  26.673  23.014  1.00  0.00     0.054 A 
ATOM     23  C   UNL A   1      30.654  26.114  23.035  1.00  0.00     0.015 A 
ATOM     24  C   UNL A   1      32.094  28.061  23.089  1.00  0.00     0.030 A 
ATOM     25  C   UNL A   1      29.548  26.921  23.290  1.00  0.00     0.001 A 
ATOM     26  C   UNL A   1      30.978  28.864  23.335  1.00  0.00     0.016 A 
ATOM     27  Br  UNL A   1      33.756  28.930  22.791  1.00  0.00    -0.050 Br
ATOM     28  C   UNL A   1      29.713  28.290  23.468  1.00  0.00     0.001 A 
ENDBRANCH  19  22
ENDBRANCH   8  18
ENDBRANCH   5   8
ENDBRANCH   3   4
ENDBRANCH   2   3
ENDBRANCH   1   2
BRANCH   1  29
ATOM     29  C   UNL A   1      37.241  23.729  25.301  1.00  0.00     0.116 C 
BRANCH  29  30
ATOM     30  N   UNL A   1      38.435  22.924  25.485  1.00  0.00    -0.352 N 
ATOM     31  C   UNL A   1      39.553  23.221  26.247  1.00  0.00     0.251 C 
ATOM     32  H   UNL A   1      38.452  22.061  25.011  1.00  0.00     0.163 HD
ATOM     33  O   UNL A   1      40.482  22.420  26.318  1.00  0.00    -0.269 OA
BRANCH  31  34
ATOM     34  C   UNL A   1      39.662  24.534  26.935  1.00  0.00     0.039 A 
ATOM     35  C   UNL A   1      39.065  24.690  28.188  1.00  0.00     0.014 A 
ATOM     36  C   UNL A   1      40.368  25.598  26.372  1.00  0.00     0.014 A 
ATOM     37  C   UNL A   1      39.274  25.866  28.920  1.00  0.00     0.010 A 
ATOM     38  C   UNL A   1      40.615  26.756  27.122  1.00  0.00     0.010 A 
ATOM     39  C   UNL A   1      40.101  26.891  28.421  1.00  0.00    -0.014 A 
BRANCH  39  40
ATOM     40  C   UNL A   1      40.493  28.040  29.292  1.00  0.00     0.031 A 
ATOM     41  C   UNL A   1      39.613  29.254  29.450  1.00  0.00     0.074 A 
ATOM     42  C   UNL A   1      41.679  28.003  29.938  1.00  0.00     0.049 A 
ATOM     43  N   UNL A   1      39.813  30.325  30.177  1.00  0.00    -0.248 NA
ATOM     44  C   UNL A   1      38.356  29.273  28.688  1.00  0.00     0.031 C 
ATOM     45  C   UNL A   1      42.658  26.915  29.845  1.00  0.00     0.029 A 
ATOM     46  N   UNL A   1      42.268  28.898  30.800  1.00  0.00    -0.354 N 
ATOM     47  C   UNL A   1      38.701  31.137  29.981  1.00  0.00     0.074 A 
ATOM     48  C   UNL A   1      37.858  30.459  29.017  1.00  0.00     0.031 C 
ATOM     49  C   UNL A   1      43.707  27.195  30.634  1.00  0.00     0.029 A 
ATOM     50  C   UNL A   1      43.499  28.493  31.268  1.00  0.00     0.049 A 
ATOM     51  H   UNL A   1      41.849  29.750  31.058  1.00  0.00     0.167 HD
ATOM     52  C   UNL A   1      38.393  32.321  30.568  1.00  0.00     0.037 A 
ATOM     53  C   UNL A   1      44.365  29.093  32.108  1.00  0.00     0.037 A 
ATOM     54  C   UNL A   1      39.225  33.006  31.527  1.00  0.00     0.049 A 
ATOM     55  C   UNL A   1      44.014  30.427  32.716  1.00  0.00     0.074 A 
ATOM     56  C   UNL A   1      38.979  34.204  32.179  1.00  0.00     0.029 A 
ATOM     57  N   UNL A   1      40.459  32.560  31.975  1.00  0.00    -0.354 N 
ATOM     58  N   UNL A   1      42.929  31.145  32.559  1.00  0.00    -0.248 NA
ATOM     59  C   UNL A   1      45.004  31.028  33.623  1.00  0.00     0.031 C 
ATOM     60  C   UNL A   1      40.077  34.500  32.994  1.00  0.00     0.029 A 
ATOM     61  C   UNL A   1      40.989  33.464  32.884  1.00  0.00     0.049 A 
ATOM     62  H   UNL A   1      40.896  31.725  31.689  1.00  0.00     0.167 HD
ATOM     63  C   UNL A   1      43.091  32.261  33.374  1.00  0.00     0.074 A 
ATOM     64  C   UNL A   1      44.372  32.119  34.033  1.00  0.00     0.031 C 
ATOM     65  C   UNL A   1      42.254  33.310  33.558  1.00  0.00     0.037 A 
BRANCH  52  66
ATOM     66  C   UNL A   1      37.073  32.954  30.219  1.00  0.00     0.058 A 
ATOM     67  C   UNL A   1      35.966  32.841  31.075  1.00  0.00     0.135 A 
ATOM     68  C   UNL A   1      36.934  33.751  29.071  1.00  0.00     0.135 A 
ATOM     69  F   UNL A   1      36.043  32.083  32.180  1.00  0.00    -0.206 F 
ATOM     70  C   UNL A   1      34.764  33.483  30.799  1.00  0.00     0.059 A 
ATOM     71  C   UNL A   1      35.748  34.424  28.788  1.00  0.00     0.059 A 
ATOM     72  F   UNL A   1      37.963  33.899  28.221  1.00  0.00    -0.206 F 
ATOM     73  C   UNL A   1      34.666  34.276  29.655  1.00  0.00     0.060 A 
BRANCH  73  74
ATOM     74  S   UNL A   1      33.106  35.124  29.330  1.00  0.00     0.124 S 
ATOM     75  O   UNL A   1      32.441  35.019  30.626  1.00  0.00    -0.237 OA
ATOM     76  O   UNL A   1      33.551  36.461  28.953  1.00  0.00    -0.237 OA
ATOM     77  O   UNL A   1      32.508  34.339  28.255  1.00  0.00    -0.744 OA
ENDBRANCH  73  74
ENDBRANCH  52  66
BRANCH  53  78
ATOM     78  C   UNL A   1      45.664  28.444  32.442  1.00  0.00     0.058 A 
ATOM     79  C   UNL A   1      46.815  28.694  31.679  1.00  0.00     0.135 A 
ATOM     80  C   UNL A   1      45.765  27.523  33.495  1.00  0.00     0.135 A 
ATOM     81  F   UNL A   1      46.768  29.562  30.657  1.00  0.00    -0.206 F 
ATOM     82  C   UNL A   1      48.009  28.021  31.919  1.00  0.00     0.059 A 
ATOM     83  C   UNL A   1      46.956  26.860  33.774  1.00  0.00     0.059 A 
ATOM     84  F   UNL A   1      44.699  27.262  34.268  1.00  0.00    -0.206 F 
ATOM     85  C   UNL A   1      48.066  27.099  32.966  1.00  0.00     0.060 A 
BRANCH  85  86
ATOM     86  S   UNL A   1      49.617  26.224  33.272  1.00  0.00     0.124 S 
ATOM     87  O   UNL A   1      50.543  26.968  32.425  1.00  0.00    -0.237 OA
ATOM     88  O   UNL A   1      49.788  26.393  34.711  1.00  0.00    -0.237 OA
ATOM     89  O   UNL A   1      49.320  24.862  32.840  1.00  0.00    -0.744 OA
ENDBRANCH  85  86
ENDBRANCH  53  78
BRANCH  65  90
ATOM     90  C   UNL A   1      42.665  34.369  34.544  1.00  0.00     0.058 A 
ATOM     91  C   UNL A   1      42.441  34.227  35.923  1.00  0.00     0.135 A 
ATOM     92  C   UNL A   1      43.333  35.526  34.107  1.00  0.00     0.135 A 
ATOM     93  F   UNL A   1      41.802  33.144  36.394  1.00  0.00    -0.206 F 
ATOM     94  C   UNL A   1      42.842  35.203  36.830  1.00  0.00     0.059 A 
ATOM     95  C   UNL A   1      43.765  36.503  35.000  1.00  0.00     0.059 A 
ATOM     96  F   UNL A   1      43.581  35.711  32.802  1.00  0.00    -0.206 F 
ATOM     97  C   UNL A   1      43.504  36.338  36.360  1.00  0.00     0.060 A 
BRANCH  97  98
ATOM     98  S   UNL A   1      44.048  37.581  37.552  1.00  0.00     0.124 S 
ATOM     99  O   UNL A   1      45.189  36.915  38.171  1.00  0.00    -0.237 OA
ATOM    100  O   UNL A   1      44.366  38.719  36.696  1.00  0.00    -0.237 OA
ATOM    101  O   UNL A   1      42.882  37.759  38.413  1.00  0.00    -0.744 OA
ENDBRANCH  97  98
ENDBRANCH  65  90
ENDBRANCH  39  40
ENDBRANCH  31  34
ENDBRANCH  29  30
ENDBRANCH   1  29
TORSDOF 18
ENDMDL
MODEL 3
REMARK VINA RESULT:     -11.6      0.909      8.089
REMARK SMILES COc1ccc(/C=C(\NC(=O)c2ccccc2Br)C(=O)NCCCCNC(=O)c2ccc(-c3c4nc(c(-c5c(F)cc(S(=O)(=O)[O-])cc5F)c5ccc([nH]5)c(-c5c(F)cc(S(=O)(=O)[O-])cc5F)c5nc(c(-c6c(F)cc(S(=O)(=O)[O-])cc6F)c6ccc3[nH]6)C=C5)C=C4)cc2)cc1
REMARK SMILES IDX 24 1 23 2 22 3 21 4 19 5 20 6 8 8 7 9 6 10 3 11 4 12 96 13
REMARK SMILES IDX 5 14 95 15 2 16 1 17 9 18 10 19 11 21 12 22 13 23 17 24
REMARK SMILES IDX 14 25 16 26 18 27 15 28 25 29 26 30 27 31 28 33 29 34 30 35
REMARK SMILES IDX 94 36 31 37 93 38 32 39 33 40 34 41 87 42 35 43 92 44 86 45
REMARK SMILES IDX 88 46 36 47 91 48 85 49 84 50 37 52 71 53 50 54 70 55 51 56
REMARK SMILES IDX 54 57 69 58 89 59 52 60 53 61 68 63 90 64 55 65 38 66 39 67
REMARK SMILES IDX 48 68 40 69 41 70 47 71 49 72 42 73 43 74 44 75 45 76 46 77
REMARK SMILES IDX 72 78 73 79 82 80 74 81 75 82 81 83 83 84 76 85 77 86 78 87
REMARK SMILES IDX 79 88 80 89 56 90 57 91 66 92 58 93 59 94 65 95 67 96 60 97
REMARK SMILES IDX 61 98 62 99 63 100 64 101
REMARK H PARENT 21 7 9 20 26 32 88 51 54 62
REMARK Flexibility Score: inf
ROOT
ATOM      1  C   UNL A   1      34.047  28.872  25.766  1.00  0.00     0.023 C 
ENDROOT
BRANCH   1   2
ATOM      2  C   UNL A   1      32.855  28.992  24.806  1.00  0.00     0.023 C 
BRANCH   2   3
ATOM      3  C   UNL A   1      31.515  28.354  25.173  1.00  0.00     0.116 C 
BRANCH   3   4
ATOM      4  N   UNL A   1      30.853  27.599  24.122  1.00  0.00    -0.351 N 
ATOM      5  C   UNL A   1      31.078  26.295  23.739  1.00  0.00     0.267 C 
ATOM      6  O   UNL A   1      30.467  25.828  22.779  1.00  0.00    -0.268 OA
ATOM      7  H   UNL A   1      30.155  28.080  23.620  1.00  0.00     0.163 HD
BRANCH   5   8
ATOM      8  C   UNL A   1      32.131  25.476  24.467  1.00  0.00     0.107 C 
ATOM      9  C   UNL A   1      33.264  25.252  23.762  1.00  0.00     0.040 C 
BRANCH   9  10
ATOM     10  C   UNL A   1      34.544  24.555  24.069  1.00  0.00    -0.023 A 
ATOM     11  C   UNL A   1      36.807  23.081  24.945  1.00  0.00     0.118 A 
ATOM     12  C   UNL A   1      36.278  22.873  23.681  1.00  0.00     0.047 A 
ATOM     13  C   UNL A   1      36.268  24.072  25.757  1.00  0.00     0.047 A 
ATOM     14  C   UNL A   1      35.146  23.583  23.260  1.00  0.00     0.012 A 
ATOM     15  C   UNL A   1      35.149  24.801  25.319  1.00  0.00     0.012 A 
BRANCH  11  16
ATOM     16  O   UNL A   1      37.869  22.296  25.300  1.00  0.00    -0.497 OA
ATOM     17  C   UNL A   1      37.655  20.915  25.010  1.00  0.00     0.278 C 
ENDBRANCH  11  16
ENDBRANCH   9  10
BRANCH   8  18
ATOM     18  N   UNL A   1      31.927  25.033  25.755  1.00  0.00    -0.317 N 
ATOM     19  C   UNL A   1      31.801  23.772  26.287  1.00  0.00     0.256 C 
ATOM     20  H   UNL A   1      31.858  25.756  26.419  1.00  0.00     0.170 HD
ATOM     21  O   UNL A   1      31.369  23.640  27.431  1.00  0.00    -0.269 OA
BRANCH  19  22
ATOM     22  C   UNL A   1      32.166  22.578  25.505  1.00  0.00     0.054 A 
ATOM     23  C   UNL A   1      31.458  22.367  24.317  1.00  0.00     0.015 A 
ATOM     24  C   UNL A   1      33.179  21.690  25.880  1.00  0.00     0.030 A 
ATOM     25  C   UNL A   1      31.866  21.372  23.432  1.00  0.00     0.001 A 
ATOM     26  C   UNL A   1      33.575  20.688  24.990  1.00  0.00     0.016 A 
ATOM     27  Br  UNL A   1      34.004  21.725  27.590  1.00  0.00    -0.050 Br
ATOM     28  C   UNL A   1      32.941  20.552  23.755  1.00  0.00     0.001 A 
ENDBRANCH  19  22
ENDBRANCH   8  18
ENDBRANCH   5   8
ENDBRANCH   3   4
ENDBRANCH   2   3
ENDBRANCH   1   2
BRANCH   1  29
ATOM     29  C   UNL A   1      33.826  28.855  27.279  1.00  0.00     0.116 C 
BRANCH  29  30
ATOM     30  N   UNL A   1      33.820  30.139  27.957  1.00  0.00    -0.352 N 
ATOM     31  C   UNL A   1      34.885  30.786  28.562  1.00  0.00     0.251 C 
ATOM     32  H   UNL A   1      32.955  30.607  27.990  1.00  0.00     0.163 HD
ATOM     33  O   UNL A   1      34.723  31.888  29.081  1.00  0.00    -0.269 OA
BRANCH  31  34
ATOM     34  C   UNL A   1      36.216  30.128  28.638  1.00  0.00     0.039 A 
ATOM     35  C   UNL A   1      37.059  30.181  27.527  1.00  0.00     0.014 A 
ATOM     36  C   UNL A   1      36.648  29.487  29.801  1.00  0.00     0.014 A 
ATOM     37  C   UNL A   1      38.370  29.695  27.621  1.00  0.00     0.010 A 
ATOM     38  C   UNL A   1      37.973  29.042  29.910  1.00  0.00     0.010 A 
ATOM     39  C   UNL A   1      38.863  29.174  28.832  1.00  0.00    -0.014 A 
BRANCH  39  40
ATOM     40  C   UNL A   1      40.316  28.861  28.987  1.00  0.00     0.031 A 
ATOM     41  C   UNL A   1      40.875  27.500  28.658  1.00  0.00     0.074 A 
ATOM     42  C   UNL A   1      41.149  29.814  29.458  1.00  0.00     0.049 A 
ATOM     43  N   UNL A   1      42.114  27.079  28.731  1.00  0.00    -0.248 NA
ATOM     44  C   UNL A   1      39.923  26.478  28.198  1.00  0.00     0.031 C 
ATOM     45  C   UNL A   1      40.744  31.164  29.863  1.00  0.00     0.029 A 
ATOM     46  N   UNL A   1      42.506  29.801  29.677  1.00  0.00    -0.354 N 
ATOM     47  C   UNL A   1      42.098  25.756  28.308  1.00  0.00     0.074 A 
ATOM     48  C   UNL A   1      40.714  25.424  28.036  1.00  0.00     0.031 C 
ATOM     49  C   UNL A   1      41.828  31.851  30.255  1.00  0.00     0.029 A 
ATOM     50  C   UNL A   1      43.003  30.990  30.163  1.00  0.00     0.049 A 
ATOM     51  H   UNL A   1      43.071  29.014  29.503  1.00  0.00     0.167 HD
ATOM     52  C   UNL A   1      43.138  24.902  28.131  1.00  0.00     0.037 A 
ATOM     53  C   UNL A   1      44.258  31.352  30.498  1.00  0.00     0.037 A 
ATOM     54  C   UNL A   1      44.519  25.221  28.400  1.00  0.00     0.049 A 
ATOM     55  C   UNL A   1      45.389  30.370  30.329  1.00  0.00     0.074 A 
ATOM     56  C   UNL A   1      45.635  24.415  28.235  1.00  0.00     0.029 A 
ATOM     57  N   UNL A   1      44.978  26.435  28.887  1.00  0.00    -0.354 N 
ATOM     58  N   UNL A   1      45.354  29.143  29.870  1.00  0.00    -0.248 NA
ATOM     59  C   UNL A   1      46.732  30.827  30.715  1.00  0.00     0.031 C 
ATOM     60  C   UNL A   1      46.763  25.129  28.653  1.00  0.00     0.029 A 
ATOM     61  C   UNL A   1      46.357  26.396  29.038  1.00  0.00     0.049 A 
ATOM     62  H   UNL A   1      44.409  27.211  29.095  1.00  0.00     0.167 HD
ATOM     63  C   UNL A   1      46.673  28.697  29.879  1.00  0.00     0.074 A 
ATOM     64  C   UNL A   1      47.482  29.788  30.376  1.00  0.00     0.031 C 
ATOM     65  C   UNL A   1      47.165  27.491  29.509  1.00  0.00     0.037 A 
BRANCH  52  66
ATOM     66  C   UNL A   1      42.836  23.532  27.587  1.00  0.00     0.058 A 
ATOM     67  C   UNL A   1      42.982  23.248  26.220  1.00  0.00     0.135 A 
ATOM     68  C   UNL A   1      42.485  22.474  28.441  1.00  0.00     0.135 A 
ATOM     69  F   UNL A   1      43.306  24.225  25.358  1.00  0.00    -0.206 F 
ATOM     70  C   UNL A   1      42.777  21.968  25.717  1.00  0.00     0.059 A 
ATOM     71  C   UNL A   1      42.300  21.179  27.964  1.00  0.00     0.059 A 
ATOM     72  F   UNL A   1      42.338  22.690  29.759  1.00  0.00    -0.206 F 
ATOM     73  C   UNL A   1      42.441  20.939  26.597  1.00  0.00     0.060 A 
BRANCH  73  74
ATOM     74  S   UNL A   1      42.207  19.278  25.929  1.00  0.00     0.124 S 
ATOM     75  O   UNL A   1      40.761  19.245  25.728  1.00  0.00    -0.237 OA
ATOM     76  O   UNL A   1      43.014  19.315  24.713  1.00  0.00    -0.237 OA
ATOM     77  O   UNL A   1      42.713  18.410  26.987  1.00  0.00    -0.744 OA
ENDBRANCH  73  74
ENDBRANCH  52  66
BRANCH  53  78
ATOM     78  C   UNL A   1      44.532  32.716  31.032  1.00  0.00     0.058 A 
ATOM     79  C   UNL A   1      44.413  32.995  32.402  1.00  0.00     0.135 A 
ATOM     80  C   UNL A   1      44.866  33.775  30.175  1.00  0.00     0.135 A 
ATOM     81  F   UNL A   1      44.089  32.016  33.260  1.00  0.00    -0.206 F 
ATOM     82  C   UNL A   1      44.570  34.284  32.900  1.00  0.00     0.059 A 
ATOM     83  C   UNL A   1      45.059  35.068  30.654  1.00  0.00     0.059 A 
ATOM     84  F   UNL A   1      45.012  33.559  28.859  1.00  0.00    -0.206 F 
ATOM     85  C   UNL A   1      44.887  35.316  32.014  1.00  0.00     0.060 A 
BRANCH  85  86
ATOM     86  S   UNL A   1      45.086  36.990  32.664  1.00  0.00     0.124 S 
ATOM     87  O   UNL A   1      46.131  36.793  33.662  1.00  0.00    -0.237 OA
ATOM     88  O   UNL A   1      45.471  37.740  31.473  1.00  0.00    -0.237 OA
ATOM     89  O   UNL A   1      43.760  37.302  33.190  1.00  0.00    -0.744 OA
ENDBRANCH  85  86
ENDBRANCH  53  78
BRANCH  65  90
ATOM     90  C   UNL A   1      48.656  27.292  29.580  1.00  0.00     0.058 A 
ATOM     91  C   UNL A   1      49.503  27.651  28.520  1.00  0.00     0.135 A 
ATOM     92  C   UNL A   1      49.249  26.775  30.744  1.00  0.00     0.135 A 
ATOM     93  F   UNL A   1      48.988  28.144  27.382  1.00  0.00    -0.206 F 
ATOM     94  C   UNL A   1      50.882  27.482  28.600  1.00  0.00     0.059 A 
ATOM     95  C   UNL A   1      50.628  26.622  30.856  1.00  0.00     0.059 A 
ATOM     96  F   UNL A   1      48.489  26.423  31.792  1.00  0.00    -0.206 F 
ATOM     97  C   UNL A   1      51.436  26.967  29.774  1.00  0.00     0.060 A 
BRANCH  97  98
ATOM     98  S   UNL A   1      53.230  26.784  29.877  1.00  0.00     0.124 S 
ATOM     99  O   UNL A   1      53.550  26.266  28.552  1.00  0.00    -0.237 OA
ATOM    100  O   UNL A   1      53.669  28.150  30.148  1.00  0.00    -0.237 OA
ATOM    101  O   UNL A   1      53.413  25.844  30.979  1.00  0.00    -0.744 OA
ENDBRANCH  97  98
ENDBRANCH  65  90
ENDBRANCH  39  40
ENDBRANCH  31  34
ENDBRANCH  29  30
ENDBRANCH   1  29
TORSDOF 18
ENDMDL
