MODEL 1
REMARK VINA RESULT:     -11.9      0.000      0.000
REMARK SMILES O=C(Cc1cccc(-c2ccn(C(F)F)c(=O)c2)c1)NCCCCNC(=O)c1ccc(-c2c3nc(c(-c4c(F)cc(S(=O)(=O)[O-])cc4F)c4ccc([nH]4)c(-c4c(F)cc(S(=O)(=O)[O-])cc4F)c4nc(c(-c5c(F)cc(S(=O)(=O)[O-])cc5F)c5ccc2[nH]5)C=C4)C=C3)cc1
REMARK SMILES IDX 22 1 21 2 20 3 1 4 2 5 3 7 4 8 5 9 19 10 6 11 8 12 7 13 9 14
REMARK SMILES IDX 10 15 18 16 11 17 16 18 12 19 17 20 13 21 14 22 15 23 23 24
REMARK SMILES IDX 24 25 25 26 26 27 27 29 28 30 29 31 93 32 30 33 92 34 31 35
REMARK SMILES IDX 32 36 33 37 86 38 34 39 91 40 85 41 87 42 35 43 90 44 84 45
REMARK SMILES IDX 83 46 36 48 70 49 49 50 69 51 50 52 53 53 68 54 88 55 51 56
REMARK SMILES IDX 52 57 67 59 89 60 54 61 37 62 38 63 47 64 39 65 40 66 46 67
REMARK SMILES IDX 48 68 41 69 42 70 43 71 44 72 45 73 71 74 72 75 81 76 73 77
REMARK SMILES IDX 74 78 80 79 82 80 75 81 76 82 77 83 78 84 79 85 55 86 56 87
REMARK SMILES IDX 65 88 57 89 58 90 64 91 66 92 59 93 60 94 61 95 62 96 63 97
REMARK H PARENT 20 6 25 28 87 47 53 58
REMARK Flexibility Score: inf
ROOT
ATOM      1  C   UNL A   1      35.823  23.942  25.490  1.00  0.00     0.023 C 
ENDROOT
BRANCH   1   2
ATOM      2  C   UNL A   1      34.891  22.978  26.217  1.00  0.00     0.116 C 
BRANCH   2   3
ATOM      3  N   UNL A   1      33.546  23.017  25.687  1.00  0.00    -0.356 N 
ATOM      4  O   UNL A   1      32.483  23.372  27.697  1.00  0.00    -0.275 OA
ATOM      5  C   UNL A   1      32.443  23.275  26.474  1.00  0.00     0.224 C 
ATOM      6  H   UNL A   1      33.412  22.854  24.725  1.00  0.00     0.163 HD
BRANCH   5   7
ATOM      7  C   UNL A   1      31.164  23.464  25.674  1.00  0.00     0.135 C 
BRANCH   7   8
ATOM      8  C   UNL A   1      31.022  24.857  25.105  1.00  0.00    -0.038 A 
ATOM      9  C   UNL A   1      30.207  25.121  23.994  1.00  0.00     0.004 A 
ATOM     10  C   UNL A   1      31.684  25.929  25.719  1.00  0.00     0.013 A 
ATOM     11  C   UNL A   1      30.085  26.416  23.489  1.00  0.00     0.001 A 
ATOM     12  C   UNL A   1      31.559  27.237  25.223  1.00  0.00    -0.018 A 
ATOM     13  C   UNL A   1      30.762  27.470  24.097  1.00  0.00     0.009 A 
BRANCH  12  14
ATOM     14  C   UNL A   1      32.275  28.336  25.893  1.00  0.00    -0.011 A 
ATOM     15  C   UNL A   1      33.565  28.149  26.528  1.00  0.00     0.027 A 
ATOM     16  C   UNL A   1      31.686  29.543  25.952  1.00  0.00     0.080 A 
ATOM     17  C   UNL A   1      34.149  29.154  27.189  1.00  0.00     0.095 A 
ATOM     18  C   UNL A   1      32.329  30.674  26.674  1.00  0.00     0.255 A 
ATOM     19  N   UNL A   1      33.548  30.395  27.273  1.00  0.00    -0.258 N 
ATOM     20  O   UNL A   1      31.751  31.757  26.709  1.00  0.00    -0.269 OA
BRANCH  19  21
ATOM     21  C   UNL A   1      34.166  31.458  28.018  1.00  0.00     0.451 C 
ATOM     22  F   UNL A   1      34.589  31.033  29.233  1.00  0.00    -0.185 F 
ATOM     23  F   UNL A   1      35.235  31.961  27.353  1.00  0.00    -0.185 F 
ENDBRANCH  19  21
ENDBRANCH  12  14
ENDBRANCH   7   8
ENDBRANCH   5   7
ENDBRANCH   2   3
ENDBRANCH   1   2
BRANCH   1  24
ATOM     24  C   UNL A   1      37.294  23.512  25.431  1.00  0.00     0.023 C 
BRANCH  24  25
ATOM     25  C   UNL A   1      38.196  24.111  26.508  1.00  0.00     0.116 C 
BRANCH  25  26
ATOM     26  N   UNL A   1      39.608  23.943  26.203  1.00  0.00    -0.352 N 
ATOM     27  C   UNL A   1      40.683  24.713  26.576  1.00  0.00     0.251 C 
ATOM     28  H   UNL A   1      39.826  23.161  25.648  1.00  0.00     0.163 HD
ATOM     29  O   UNL A   1      41.779  24.511  26.057  1.00  0.00    -0.269 OA
BRANCH  27  30
ATOM     30  C   UNL A   1      40.527  25.796  27.575  1.00  0.00     0.039 A 
ATOM     31  C   UNL A   1      39.556  25.660  28.571  1.00  0.00     0.014 A 
ATOM     32  C   UNL A   1      41.314  26.949  27.525  1.00  0.00     0.014 A 
ATOM     33  C   UNL A   1      39.424  26.645  29.555  1.00  0.00     0.010 A 
ATOM     34  C   UNL A   1      41.233  27.894  28.548  1.00  0.00     0.010 A 
ATOM     35  C   UNL A   1      40.287  27.753  29.576  1.00  0.00    -0.014 A 
BRANCH  35  36
ATOM     36  C   UNL A   1      40.223  28.762  30.669  1.00  0.00     0.031 A 
ATOM     37  C   UNL A   1      41.104  28.630  31.883  1.00  0.00     0.074 A 
ATOM     38  C   UNL A   1      39.324  29.764  30.597  1.00  0.00     0.049 A 
ATOM     39  N   UNL A   1      41.142  29.371  32.961  1.00  0.00    -0.248 NA
ATOM     40  C   UNL A   1      42.051  27.504  31.898  1.00  0.00     0.031 C 
ATOM     41  C   UNL A   1      38.383  29.979  29.497  1.00  0.00     0.029 A 
ATOM     42  N   UNL A   1      39.047  30.787  31.472  1.00  0.00    -0.354 N 
ATOM     43  C   UNL A   1      42.104  28.798  33.785  1.00  0.00     0.074 A 
ATOM     44  C   UNL A   1      42.586  27.616  33.105  1.00  0.00     0.031 C 
ATOM     45  C   UNL A   1      37.648  31.073  29.751  1.00  0.00     0.029 A 
ATOM     46  C   UNL A   1      38.033  31.615  31.050  1.00  0.00     0.049 A 
ATOM     47  H   UNL A   1      39.528  30.915  32.321  1.00  0.00     0.167 HD
ATOM     48  C   UNL A   1      42.559  29.229  34.986  1.00  0.00     0.037 A 
ATOM     49  C   UNL A   1      37.465  32.684  31.645  1.00  0.00     0.037 A 
ATOM     50  C   UNL A   1      42.086  30.417  35.651  1.00  0.00     0.049 A 
ATOM     51  C   UNL A   1      37.977  33.135  32.987  1.00  0.00     0.074 A 
ATOM     52  C   UNL A   1      42.523  30.967  36.844  1.00  0.00     0.029 A 
ATOM     53  N   UNL A   1      41.067  31.236  35.185  1.00  0.00    -0.354 N 
ATOM     54  N   UNL A   1      38.932  32.617  33.722  1.00  0.00    -0.248 NA
ATOM     55  C   UNL A   1      37.340  34.320  33.579  1.00  0.00     0.031 C 
ATOM     56  C   UNL A   1      41.731  32.085  37.128  1.00  0.00     0.029 A 
ATOM     57  C   UNL A   1      40.843  32.270  36.081  1.00  0.00     0.049 A 
ATOM     58  H   UNL A   1      40.574  31.102  34.343  1.00  0.00     0.167 HD
ATOM     59  C   UNL A   1      39.029  33.429  34.847  1.00  0.00     0.074 A 
ATOM     60  C   UNL A   1      38.045  34.479  34.690  1.00  0.00     0.031 C 
ATOM     61  C   UNL A   1      39.861  33.315  35.913  1.00  0.00     0.037 A 
BRANCH  48  62
ATOM     62  C   UNL A   1      43.626  28.411  35.664  1.00  0.00     0.058 A 
ATOM     63  C   UNL A   1      43.309  27.384  36.569  1.00  0.00     0.135 A 
ATOM     64  C   UNL A   1      44.984  28.630  35.379  1.00  0.00     0.135 A 
ATOM     65  F   UNL A   1      42.028  27.137  36.889  1.00  0.00    -0.206 F 
ATOM     66  C   UNL A   1      44.297  26.630  37.192  1.00  0.00     0.059 A 
ATOM     67  C   UNL A   1      45.989  27.866  35.965  1.00  0.00     0.059 A 
ATOM     68  F   UNL A   1      45.347  29.596  34.521  1.00  0.00    -0.206 F 
ATOM     69  C   UNL A   1      45.635  26.879  36.885  1.00  0.00     0.060 A 
BRANCH  69  70
ATOM     70  S   UNL A   1      46.904  25.892  37.705  1.00  0.00     0.124 S 
ATOM     71  O   UNL A   1      46.155  25.327  38.824  1.00  0.00    -0.237 OA
ATOM     72  O   UNL A   1      47.289  24.948  36.661  1.00  0.00    -0.237 OA
ATOM     73  O   UNL A   1      47.922  26.875  38.066  1.00  0.00    -0.744 OA
ENDBRANCH  69  70
ENDBRANCH  48  62
BRANCH  49  74
ATOM     74  C   UNL A   1      36.359  33.411  30.966  1.00  0.00     0.058 A 
ATOM     75  C   UNL A   1      35.052  33.380  31.476  1.00  0.00     0.135 A 
ATOM     76  C   UNL A   1      36.588  34.165  29.805  1.00  0.00     0.135 A 
ATOM     77  F   UNL A   1      34.780  32.666  32.580  1.00  0.00    -0.206 F 
ATOM     78  C   UNL A   1      34.009  34.058  30.853  1.00  0.00     0.059 A 
ATOM     79  C   UNL A   1      35.568  34.874  29.179  1.00  0.00     0.059 A 
ATOM     80  F   UNL A   1      37.823  34.242  29.284  1.00  0.00    -0.206 F 
ATOM     81  C   UNL A   1      34.279  34.807  29.706  1.00  0.00     0.060 A 
BRANCH  81  82
ATOM     82  S   UNL A   1      32.928  35.728  28.938  1.00  0.00     0.124 S 
ATOM     83  O   UNL A   1      32.343  34.718  28.064  1.00  0.00    -0.237 OA
ATOM     84  O   UNL A   1      32.128  36.117  30.095  1.00  0.00    -0.237 OA
ATOM     85  O   UNL A   1      33.614  36.826  28.263  1.00  0.00    -0.744 OA
ENDBRANCH  81  82
ENDBRANCH  49  74
BRANCH  61  86
ATOM     86  C   UNL A   1      39.774  34.372  36.980  1.00  0.00     0.058 A 
ATOM     87  C   UNL A   1      39.010  34.191  38.144  1.00  0.00     0.135 A 
ATOM     88  C   UNL A   1      40.509  35.563  36.860  1.00  0.00     0.135 A 
ATOM     89  F   UNL A   1      38.282  33.075  38.307  1.00  0.00    -0.206 F 
ATOM     90  C   UNL A   1      38.957  35.162  39.139  1.00  0.00     0.059 A 
ATOM     91  C   UNL A   1      40.497  36.534  37.858  1.00  0.00     0.059 A 
ATOM     92  F   UNL A   1      41.266  35.785  35.773  1.00  0.00    -0.206 F 
ATOM     93  C   UNL A   1      39.709  36.330  38.988  1.00  0.00     0.060 A 
BRANCH  93  94
ATOM     94  S   UNL A   1      39.660  37.566  40.302  1.00  0.00     0.124 S 
ATOM     95  O   UNL A   1      38.956  36.845  41.359  1.00  0.00    -0.237 OA
ATOM     96  O   UNL A   1      41.077  37.821  40.544  1.00  0.00    -0.237 OA
ATOM     97  O   UNL A   1      38.923  38.674  39.701  1.00  0.00    -0.744 OA
ENDBRANCH  93  94
ENDBRANCH  61  86
ENDBRANCH  35  36
ENDBRANCH  27  30
ENDBRANCH  25  26
ENDBRANCH  24  25
ENDBRANCH   1  24
TORSDOF 17
ENDMDL
MODEL 2
REMARK VINA RESULT:     -11.7      0.592      8.257
REMARK SMILES O=C(Cc1cccc(-c2ccn(C(F)F)c(=O)c2)c1)NCCCCNC(=O)c1ccc(-c2c3nc(c(-c4c(F)cc(S(=O)(=O)[O-])cc4F)c4ccc([nH]4)c(-c4c(F)cc(S(=O)(=O)[O-])cc4F)c4nc(c(-c5c(F)cc(S(=O)(=O)[O-])cc5F)c5ccc2[nH]5)C=C4)C=C3)cc1
REMARK SMILES IDX 22 1 21 2 20 3 1 4 2 5 3 7 4 8 5 9 19 10 6 11 8 12 7 13 9 14
REMARK SMILES IDX 10 15 18 16 11 17 16 18 12 19 17 20 13 21 14 22 15 23 23 24
REMARK SMILES IDX 24 25 25 26 26 27 27 29 28 30 29 31 93 32 30 33 92 34 31 35
REMARK SMILES IDX 32 36 33 37 86 38 34 39 91 40 85 41 87 42 35 43 90 44 84 45
REMARK SMILES IDX 83 46 36 48 70 49 49 50 69 51 50 52 53 53 68 54 88 55 51 56
REMARK SMILES IDX 52 57 67 59 89 60 54 61 37 62 38 63 47 64 39 65 40 66 46 67
REMARK SMILES IDX 48 68 41 69 42 70 43 71 44 72 45 73 71 74 72 75 81 76 73 77
REMARK SMILES IDX 74 78 80 79 82 80 75 81 76 82 77 83 78 84 79 85 55 86 56 87
REMARK SMILES IDX 65 88 57 89 58 90 64 91 66 92 59 93 60 94 61 95 62 96 63 97
REMARK H PARENT 20 6 25 28 87 47 53 58
REMARK Flexibility Score: inf
ROOT
ATOM      1  C   UNL A   1      35.928  23.760  25.855  1.00  0.00     0.023 C 
ENDROOT
BRANCH   1   2
ATOM      2  C   UNL A   1      34.983  22.856  26.641  1.00  0.00     0.116 C 
BRANCH   2   3
ATOM      3  N   UNL A   1      33.608  23.010  26.223  1.00  0.00    -0.356 N 
ATOM      4  O   UNL A   1      32.667  22.723  28.303  1.00  0.00    -0.275 OA
ATOM      5  C   UNL A   1      32.553  22.991  27.111  1.00  0.00     0.224 C 
ATOM      6  H   UNL A   1      33.416  23.136  25.264  1.00  0.00     0.163 HD
BRANCH   5   7
ATOM      7  C   UNL A   1      31.224  23.369  26.476  1.00  0.00     0.135 C 
BRANCH   7   8
ATOM      8  C   UNL A   1      31.306  24.621  25.634  1.00  0.00    -0.038 A 
ATOM      9  C   UNL A   1      30.745  24.686  24.349  1.00  0.00     0.004 A 
ATOM     10  C   UNL A   1      31.921  25.770  26.153  1.00  0.00     0.013 A 
ATOM     11  C   UNL A   1      30.826  25.854  23.591  1.00  0.00     0.001 A 
ATOM     12  C   UNL A   1      31.999  26.952  25.400  1.00  0.00    -0.018 A 
ATOM     13  C   UNL A   1      31.455  26.983  24.111  1.00  0.00     0.009 A 
BRANCH  12  14
ATOM     14  C   UNL A   1      32.657  28.137  25.979  1.00  0.00    -0.011 A 
ATOM     15  C   UNL A   1      34.014  28.099  26.488  1.00  0.00     0.027 A 
ATOM     16  C   UNL A   1      31.954  29.278  26.075  1.00  0.00     0.080 A 
ATOM     17  C   UNL A   1      34.551  29.175  27.072  1.00  0.00     0.095 A 
ATOM     18  C   UNL A   1      32.542  30.487  26.713  1.00  0.00     0.255 A 
ATOM     19  N   UNL A   1      33.835  30.350  27.194  1.00  0.00    -0.258 N 
ATOM     20  O   UNL A   1      31.861  31.506  26.785  1.00  0.00    -0.269 OA
BRANCH  19  21
ATOM     21  C   UNL A   1      34.408  31.490  27.858  1.00  0.00     0.451 C 
ATOM     22  F   UNL A   1      34.503  31.291  29.195  1.00  0.00    -0.185 F 
ATOM     23  F   UNL A   1      35.649  31.756  27.382  1.00  0.00    -0.185 F 
ENDBRANCH  19  21
ENDBRANCH  12  14
ENDBRANCH   7   8
ENDBRANCH   5   7
ENDBRANCH   2   3
ENDBRANCH   1   2
BRANCH   1  24
ATOM     24  C   UNL A   1      37.406  23.354  25.893  1.00  0.00     0.023 C 
BRANCH  24  25
ATOM     25  C   UNL A   1      38.331  24.311  26.640  1.00  0.00     0.116 C 
BRANCH  25  26
ATOM     26  N   UNL A   1      39.564  24.569  25.914  1.00  0.00    -0.352 N 
ATOM     27  C   UNL A   1      40.544  25.502  26.153  1.00  0.00     0.251 C 
ATOM     28  H   UNL A   1      39.719  23.989  25.134  1.00  0.00     0.163 HD
ATOM     29  O   UNL A   1      41.420  25.688  25.310  1.00  0.00    -0.269 OA
BRANCH  27  30
ATOM     30  C   UNL A   1      40.541  26.298  27.403  1.00  0.00     0.039 A 
ATOM     31  C   UNL A   1      41.404  27.392  27.508  1.00  0.00     0.014 A 
ATOM     32  C   UNL A   1      39.710  25.962  28.475  1.00  0.00     0.014 A 
ATOM     33  C   UNL A   1      41.383  28.188  28.658  1.00  0.00     0.010 A 
ATOM     34  C   UNL A   1      39.637  26.799  29.589  1.00  0.00     0.010 A 
ATOM     35  C   UNL A   1      40.472  27.923  29.693  1.00  0.00    -0.014 A 
BRANCH  35  36
ATOM     36  C   UNL A   1      40.370  28.815  30.880  1.00  0.00     0.031 A 
ATOM     37  C   UNL A   1      39.369  29.940  30.908  1.00  0.00     0.074 A 
ATOM     38  C   UNL A   1      41.224  28.651  31.911  1.00  0.00     0.049 A 
ATOM     39  N   UNL A   1      39.181  30.856  31.823  1.00  0.00    -0.248 NA
ATOM     40  C   UNL A   1      38.480  30.066  29.743  1.00  0.00     0.031 C 
ATOM     41  C   UNL A   1      42.269  27.628  31.989  1.00  0.00     0.029 A 
ATOM     42  N   UNL A   1      41.358  29.348  33.087  1.00  0.00    -0.354 N 
ATOM     43  C   UNL A   1      38.163  31.672  31.343  1.00  0.00     0.074 A 
ATOM     44  C   UNL A   1      37.812  31.175  30.031  1.00  0.00     0.031 C 
ATOM     45  C   UNL A   1      42.920  27.750  33.156  1.00  0.00     0.029 A 
ATOM     46  C   UNL A   1      42.372  28.884  33.893  1.00  0.00     0.049 A 
ATOM     47  H   UNL A   1      40.781  30.108  33.331  1.00  0.00     0.167 HD
ATOM     48  C   UNL A   1      37.561  32.724  31.949  1.00  0.00     0.037 A 
ATOM     49  C   UNL A   1      42.822  29.328  35.084  1.00  0.00     0.037 A 
ATOM     50  C   UNL A   1      37.904  33.205  33.263  1.00  0.00     0.049 A 
ATOM     51  C   UNL A   1      42.148  30.508  35.730  1.00  0.00     0.074 A 
ATOM     52  C   UNL A   1      37.315  34.229  33.985  1.00  0.00     0.029 A 
ATOM     53  N   UNL A   1      38.929  32.701  34.051  1.00  0.00    -0.354 N 
ATOM     54  N   UNL A   1      41.143  31.228  35.288  1.00  0.00    -0.248 NA
ATOM     55  C   UNL A   1      42.661  30.934  37.039  1.00  0.00     0.031 C 
ATOM     56  C   UNL A   1      38.018  34.381  35.184  1.00  0.00     0.029 A 
ATOM     57  C   UNL A   1      39.006  33.411  35.239  1.00  0.00     0.049 A 
ATOM     58  H   UNL A   1      39.515  31.950  33.803  1.00  0.00     0.167 HD
ATOM     59  C   UNL A   1      40.887  32.171  36.278  1.00  0.00     0.074 A 
ATOM     60  C   UNL A   1      41.833  31.924  37.346  1.00  0.00     0.031 C 
ATOM     61  C   UNL A   1      39.951  33.153  36.300  1.00  0.00     0.037 A 
BRANCH  48  62
ATOM     62  C   UNL A   1      36.465  33.431  31.195  1.00  0.00     0.058 A 
ATOM     63  C   UNL A   1      36.727  34.171  30.029  1.00  0.00     0.135 A 
ATOM     64  C   UNL A   1      35.130  33.339  31.620  1.00  0.00     0.135 A 
ATOM     65  F   UNL A   1      37.986  34.304  29.582  1.00  0.00    -0.206 F 
ATOM     66  C   UNL A   1      35.712  34.822  29.336  1.00  0.00     0.059 A 
ATOM     67  C   UNL A   1      34.094  33.954  30.924  1.00  0.00     0.059 A 
ATOM     68  F   UNL A   1      34.819  32.643  32.726  1.00  0.00    -0.206 F 
ATOM     69  C   UNL A   1      34.398  34.708  29.791  1.00  0.00     0.060 A 
BRANCH  69  70
ATOM     70  S   UNL A   1      33.095  35.562  28.880  1.00  0.00     0.124 S 
ATOM     71  O   UNL A   1      33.869  36.519  28.094  1.00  0.00    -0.237 OA
ATOM     72  O   UNL A   1      32.479  34.475  28.125  1.00  0.00    -0.237 OA
ATOM     73  O   UNL A   1      32.265  36.142  29.932  1.00  0.00    -0.744 OA
ENDBRANCH  69  70
ENDBRANCH  48  62
BRANCH  49  74
ATOM     74  C   UNL A   1      43.961  28.641  35.750  1.00  0.00     0.058 A 
ATOM     75  C   UNL A   1      43.743  27.605  36.671  1.00  0.00     0.135 A 
ATOM     76  C   UNL A   1      45.290  28.992  35.467  1.00  0.00     0.135 A 
ATOM     77  F   UNL A   1      42.490  27.237  36.981  1.00  0.00    -0.206 F 
ATOM     78  C   UNL A   1      44.799  26.951  37.298  1.00  0.00     0.059 A 
ATOM     79  C   UNL A   1      46.364  28.336  36.060  1.00  0.00     0.059 A 
ATOM     80  F   UNL A   1      45.555  29.966  34.581  1.00  0.00    -0.206 F 
ATOM     81  C   UNL A   1      46.107  27.322  36.982  1.00  0.00     0.060 A 
BRANCH  81  82
ATOM     82  S   UNL A   1      47.471  26.429  37.760  1.00  0.00     0.124 S 
ATOM     83  O   UNL A   1      47.798  25.443  36.738  1.00  0.00    -0.237 OA
ATOM     84  O   UNL A   1      48.453  27.491  37.963  1.00  0.00    -0.237 OA
ATOM     85  O   UNL A   1      46.871  25.900  38.981  1.00  0.00    -0.744 OA
ENDBRANCH  81  82
ENDBRANCH  49  74
BRANCH  61  86
ATOM     86  C   UNL A   1      39.873  34.014  37.532  1.00  0.00     0.058 A 
ATOM     87  C   UNL A   1      40.576  35.223  37.638  1.00  0.00     0.135 A 
ATOM     88  C   UNL A   1      39.039  33.646  38.602  1.00  0.00     0.135 A 
ATOM     89  F   UNL A   1      41.393  35.619  36.648  1.00  0.00    -0.206 F 
ATOM     90  C   UNL A   1      40.476  36.027  38.769  1.00  0.00     0.059 A 
ATOM     91  C   UNL A   1      38.899  34.451  39.729  1.00  0.00     0.059 A 
ATOM     92  F   UNL A   1      38.335  32.505  38.550  1.00  0.00    -0.206 F 
ATOM     93  C   UNL A   1      39.631  35.633  39.809  1.00  0.00     0.060 A 
BRANCH  93  94
ATOM     94  S   UNL A   1      39.483  36.702  41.256  1.00  0.00     0.124 S 
ATOM     95  O   UNL A   1      38.903  37.908  40.673  1.00  0.00    -0.237 OA
ATOM     96  O   UNL A   1      38.600  35.931  42.125  1.00  0.00    -0.237 OA
ATOM     97  O   UNL A   1      40.859  36.832  41.726  1.00  0.00    -0.744 OA
ENDBRANCH  93  94
ENDBRANCH  61  86
ENDBRANCH  35  36
ENDBRANCH  27  30
ENDBRANCH  25  26
ENDBRANCH  24  25
ENDBRANCH   1  24
TORSDOF 17
ENDMDL
MODEL 3
REMARK VINA RESULT:     -11.4      3.222      5.054
REMARK SMILES O=C(Cc1cccc(-c2ccn(C(F)F)c(=O)c2)c1)NCCCCNC(=O)c1ccc(-c2c3nc(c(-c4c(F)cc(S(=O)(=O)[O-])cc4F)c4ccc([nH]4)c(-c4c(F)cc(S(=O)(=O)[O-])cc4F)c4nc(c(-c5c(F)cc(S(=O)(=O)[O-])cc5F)c5ccc2[nH]5)C=C4)C=C3)cc1
REMARK SMILES IDX 22 1 21 2 20 3 1 4 2 5 3 7 4 8 5 9 19 10 6 11 8 12 7 13 9 14
REMARK SMILES IDX 10 15 18 16 11 17 16 18 12 19 17 20 13 21 14 22 15 23 23 24
REMARK SMILES IDX 24 25 25 26 26 27 27 29 28 30 29 31 93 32 30 33 92 34 31 35
REMARK SMILES IDX 32 36 33 37 86 38 34 39 91 40 85 41 87 42 35 43 90 44 84 45
REMARK SMILES IDX 83 46 36 48 70 49 49 50 69 51 50 52 53 53 68 54 88 55 51 56
REMARK SMILES IDX 52 57 67 59 89 60 54 61 37 62 38 63 47 64 39 65 40 66 46 67
REMARK SMILES IDX 48 68 41 69 42 70 43 71 44 72 45 73 71 74 72 75 81 76 73 77
REMARK SMILES IDX 74 78 80 79 82 80 75 81 76 82 77 83 78 84 79 85 55 86 56 87
REMARK SMILES IDX 65 88 57 89 58 90 64 91 66 92 59 93 60 94 61 95 62 96 63 97
REMARK H PARENT 20 6 25 28 87 47 53 58
REMARK Flexibility Score: inf
ROOT
ATOM      1  C   UNL A   1      39.688  21.876  26.127  1.00  0.00     0.023 C 
ENDROOT
BRANCH   1   2
ATOM      2  C   UNL A   1      38.538  22.827  26.445  1.00  0.00     0.116 C 
BRANCH   2   3
ATOM      3  N   UNL A   1      37.703  23.077  25.292  1.00  0.00    -0.356 N 
ATOM      4  O   UNL A   1      35.803  23.639  26.463  1.00  0.00    -0.275 OA
ATOM      5  C   UNL A   1      36.404  23.528  25.398  1.00  0.00     0.224 C 
ATOM      6  H   UNL A   1      38.077  22.921  24.394  1.00  0.00     0.163 HD
BRANCH   5   7
ATOM      7  C   UNL A   1      35.787  23.910  24.062  1.00  0.00     0.135 C 
BRANCH   7   8
ATOM      8  C   UNL A   1      34.490  23.186  23.781  1.00  0.00    -0.038 A 
ATOM      9  C   UNL A   1      33.408  23.825  23.156  1.00  0.00     0.004 A 
ATOM     10  C   UNL A   1      34.365  21.829  24.112  1.00  0.00     0.013 A 
ATOM     11  C   UNL A   1      32.222  23.136  22.900  1.00  0.00     0.001 A 
ATOM     12  C   UNL A   1      33.178  21.127  23.849  1.00  0.00    -0.018 A 
ATOM     13  C   UNL A   1      32.105  21.793  23.249  1.00  0.00     0.009 A 
BRANCH  12  14
ATOM     14  C   UNL A   1      33.084  19.703  24.216  1.00  0.00    -0.011 A 
ATOM     15  C   UNL A   1      32.784  19.268  25.567  1.00  0.00     0.027 A 
ATOM     16  C   UNL A   1      33.330  18.780  23.271  1.00  0.00     0.080 A 
ATOM     17  C   UNL A   1      32.779  17.967  25.876  1.00  0.00     0.095 A 
ATOM     18  C   UNL A   1      33.317  17.328  23.597  1.00  0.00     0.255 A 
ATOM     19  N   UNL A   1      33.046  17.007  24.919  1.00  0.00    -0.258 N 
ATOM     20  O   UNL A   1      33.553  16.520  22.704  1.00  0.00    -0.269 OA
BRANCH  19  21
ATOM     21  C   UNL A   1      33.076  15.613  25.270  1.00  0.00     0.451 C 
ATOM     22  F   UNL A   1      34.329  15.207  25.588  1.00  0.00    -0.185 F 
ATOM     23  F   UNL A   1      32.270  15.362  26.331  1.00  0.00    -0.185 F 
ENDBRANCH  19  21
ENDBRANCH  12  14
ENDBRANCH   7   8
ENDBRANCH   5   7
ENDBRANCH   2   3
ENDBRANCH   1   2
BRANCH   1  24
ATOM     24  C   UNL A   1      40.734  21.717  27.237  1.00  0.00     0.023 C 
BRANCH  24  25
ATOM     25  C   UNL A   1      41.721  22.874  27.378  1.00  0.00     0.116 C 
BRANCH  25  26
ATOM     26  N   UNL A   1      41.760  23.715  26.193  1.00  0.00    -0.352 N 
ATOM     27  C   UNL A   1      41.553  25.068  26.071  1.00  0.00     0.251 C 
ATOM     28  H   UNL A   1      41.966  23.245  25.353  1.00  0.00     0.163 HD
ATOM     29  O   UNL A   1      41.443  25.563  24.950  1.00  0.00    -0.269 OA
BRANCH  27  30
ATOM     30  C   UNL A   1      41.440  25.927  27.272  1.00  0.00     0.039 A 
ATOM     31  C   UNL A   1      42.476  26.818  27.565  1.00  0.00     0.014 A 
ATOM     32  C   UNL A   1      40.332  25.846  28.120  1.00  0.00     0.014 A 
ATOM     33  C   UNL A   1      42.368  27.674  28.666  1.00  0.00     0.010 A 
ATOM     34  C   UNL A   1      40.192  26.750  29.173  1.00  0.00     0.010 A 
ATOM     35  C   UNL A   1      41.208  27.676  29.458  1.00  0.00    -0.014 A 
BRANCH  35  36
ATOM     36  C   UNL A   1      41.037  28.646  30.575  1.00  0.00     0.031 A 
ATOM     37  C   UNL A   1      41.888  28.543  31.812  1.00  0.00     0.074 A 
ATOM     38  C   UNL A   1      40.068  29.582  30.500  1.00  0.00     0.049 A 
ATOM     39  N   UNL A   1      41.837  29.254  32.910  1.00  0.00    -0.248 NA
ATOM     40  C   UNL A   1      42.914  27.489  31.828  1.00  0.00     0.031 C 
ATOM     41  C   UNL A   1      39.148  29.759  29.376  1.00  0.00     0.029 A 
ATOM     42  N   UNL A   1      39.690  30.555  31.392  1.00  0.00    -0.354 N 
ATOM     43  C   UNL A   1      42.813  28.728  33.750  1.00  0.00     0.074 A 
ATOM     44  C   UNL A   1      43.402  27.604  33.055  1.00  0.00     0.031 C 
ATOM     45  C   UNL A   1      38.327  30.789  29.636  1.00  0.00     0.029 A 
ATOM     46  C   UNL A   1      38.631  31.320  30.961  1.00  0.00     0.049 A 
ATOM     47  H   UNL A   1      40.135  30.693  32.260  1.00  0.00     0.167 HD
ATOM     48  C   UNL A   1      43.199  29.156  34.977  1.00  0.00     0.037 A 
ATOM     49  C   UNL A   1      37.968  32.326  31.565  1.00  0.00     0.037 A 
ATOM     50  C   UNL A   1      42.619  30.287  35.657  1.00  0.00     0.049 A 
ATOM     51  C   UNL A   1      38.404  32.774  32.935  1.00  0.00     0.074 A 
ATOM     52  C   UNL A   1      42.977  30.832  36.878  1.00  0.00     0.029 A 
ATOM     53  N   UNL A   1      41.557  31.042  35.181  1.00  0.00    -0.354 N 
ATOM     54  N   UNL A   1      39.372  32.306  33.686  1.00  0.00    -0.248 NA
ATOM     55  C   UNL A   1      37.663  33.891  33.537  1.00  0.00     0.031 C 
ATOM     56  C   UNL A   1      42.098  31.881  37.166  1.00  0.00     0.029 A 
ATOM     57  C   UNL A   1      41.230  32.030  36.096  1.00  0.00     0.049 A 
ATOM     58  H   UNL A   1      41.102  30.897  34.320  1.00  0.00     0.167 HD
ATOM     59  C   UNL A   1      39.375  33.089  34.835  1.00  0.00     0.074 A 
ATOM     60  C   UNL A   1      38.320  34.069  34.675  1.00  0.00     0.031 C 
ATOM     61  C   UNL A   1      40.180  33.005  35.925  1.00  0.00     0.037 A 
BRANCH  48  62
ATOM     62  C   UNL A   1      44.302  28.398  35.666  1.00  0.00     0.058 A 
ATOM     63  C   UNL A   1      45.650  28.771  35.536  1.00  0.00     0.135 A 
ATOM     64  C   UNL A   1      44.007  27.307  36.499  1.00  0.00     0.135 A 
ATOM     65  F   UNL A   1      45.993  29.799  34.743  1.00  0.00    -0.206 F 
ATOM     66  C   UNL A   1      46.666  28.069  36.175  1.00  0.00     0.059 A 
ATOM     67  C   UNL A   1      45.004  26.609  37.175  1.00  0.00     0.059 A 
ATOM     68  F   UNL A   1      42.737  26.906  36.664  1.00  0.00    -0.206 F 
ATOM     69  C   UNL A   1      46.333  26.988  36.992  1.00  0.00     0.060 A 
BRANCH  69  70
ATOM     70  S   UNL A   1      47.665  26.087  37.812  1.00  0.00     0.124 S 
ATOM     71  O   UNL A   1      47.177  24.713  37.735  1.00  0.00    -0.237 OA
ATOM     72  O   UNL A   1      48.816  26.397  36.971  1.00  0.00    -0.237 OA
ATOM     73  O   UNL A   1      47.695  26.666  39.152  1.00  0.00    -0.744 OA
ENDBRANCH  69  70
ENDBRANCH  48  62
BRANCH  49  74
ATOM     74  C   UNL A   1      36.832  32.990  30.871  1.00  0.00     0.058 A 
ATOM     75  C   UNL A   1      35.505  32.632  31.149  1.00  0.00     0.135 A 
ATOM     76  C   UNL A   1      37.050  34.007  29.928  1.00  0.00     0.135 A 
ATOM     77  F   UNL A   1      35.245  31.660  32.036  1.00  0.00    -0.206 F 
ATOM     78  C   UNL A   1      34.433  33.247  30.509  1.00  0.00     0.059 A 
ATOM     79  C   UNL A   1      35.995  34.657  29.295  1.00  0.00     0.059 A 
ATOM     80  F   UNL A   1      38.300  34.399  29.636  1.00  0.00    -0.206 F 
ATOM     81  C   UNL A   1      34.689  34.263  29.586  1.00  0.00     0.060 A 
BRANCH  81  82
ATOM     82  S   UNL A   1      33.289  35.093  28.802  1.00  0.00     0.124 S 
ATOM     83  O   UNL A   1      32.531  35.547  29.962  1.00  0.00    -0.237 OA
ATOM     84  O   UNL A   1      33.951  36.134  28.021  1.00  0.00    -0.237 OA
ATOM     85  O   UNL A   1      32.668  34.031  28.017  1.00  0.00    -0.744 OA
ENDBRANCH  81  82
ENDBRANCH  49  74
BRANCH  61  86
ATOM     86  C   UNL A   1      39.982  34.022  37.016  1.00  0.00     0.058 A 
ATOM     87  C   UNL A   1      40.595  35.283  36.976  1.00  0.00     0.135 A 
ATOM     88  C   UNL A   1      39.121  33.747  38.093  1.00  0.00     0.135 A 
ATOM     89  F   UNL A   1      41.432  35.596  35.974  1.00  0.00    -0.206 F 
ATOM     90  C   UNL A   1      40.384  36.228  37.976  1.00  0.00     0.059 A 
ATOM     91  C   UNL A   1      38.871  34.689  39.087  1.00  0.00     0.059 A 
ATOM     92  F   UNL A   1      38.499  32.560  38.177  1.00  0.00    -0.206 F 
ATOM     93  C   UNL A   1      39.516  35.922  39.027  1.00  0.00     0.060 A 
BRANCH  93  94
ATOM     94  S   UNL A   1      39.223  37.169  40.298  1.00  0.00     0.124 S 
ATOM     95  O   UNL A   1      40.585  37.500  40.705  1.00  0.00    -0.237 OA
ATOM     96  O   UNL A   1      38.513  38.208  39.558  1.00  0.00    -0.237 OA
ATOM     97  O   UNL A   1      38.425  36.461  41.294  1.00  0.00    -0.744 OA
ENDBRANCH  93  94
ENDBRANCH  61  86
ENDBRANCH  35  36
ENDBRANCH  27  30
ENDBRANCH  25  26
ENDBRANCH  24  25
ENDBRANCH   1  24
TORSDOF 17
ENDMDL
