MODEL 1
REMARK VINA RESULT:      -9.6      0.000      0.000
REMARK SMILES CCN(CCC(=O)NCCCCNC(=O)c1ccc(-c2c3nc(c(-c4c(F)cc(S(=O)(=O)[O-])cc4F)c4ccc([nH]4)c(-c4c(F)cc(S(=O)(=O)[O-])cc4F)c4nc(c(-c5c(F)cc(S(=O)(=O)[O-])cc5F)c5ccc2[nH]5)C=C4)C=C3)cc1)C(=O)N1C[C@H](C(=O)OC)[C@@H](C)C1
REMARK SMILES IDX 9 1 8 2 6 3 7 4 5 6 4 7 3 8 2 9 1 10 82 11 83 12 84 13 85 14
REMARK SMILES IDX 93 15 86 16 91 17 92 18 87 19 88 20 89 21 90 22 10 23 11 24
REMARK SMILES IDX 12 25 13 26 14 27 15 29 16 30 17 31 81 32 18 33 80 34 19 35
REMARK SMILES IDX 20 36 21 37 74 38 22 39 79 40 73 41 75 42 23 43 78 44 72 45
REMARK SMILES IDX 71 46 24 48 58 49 37 50 57 51 38 52 41 53 56 54 76 55 39 56
REMARK SMILES IDX 40 57 55 59 77 60 42 61 25 62 26 63 35 64 27 65 28 66 34 67
REMARK SMILES IDX 36 68 29 69 30 70 31 71 32 72 33 73 59 74 60 75 69 76 61 77
REMARK SMILES IDX 62 78 68 79 70 80 63 81 64 82 65 83 66 84 67 85 43 86 44 87
REMARK SMILES IDX 53 88 45 89 46 90 52 91 54 92 47 93 48 94 49 95 50 96 51 97
REMARK H PARENT 8 5 13 28 75 47 41 58
REMARK Flexibility Score: inf
ROOT
ATOM      1  C   UNL A   1      32.671  23.161  26.044  1.00  0.00     0.116 C 
ENDROOT
BRANCH   1   2
ATOM      2  N   UNL A   1      32.609  22.491  24.759  1.00  0.00    -0.356 N 
ATOM      3  C   UNL A   1      32.291  22.987  23.529  1.00  0.00     0.221 C 
ATOM      4  O   UNL A   1      32.464  22.268  22.542  1.00  0.00    -0.275 OA
ATOM      5  H   UNL A   1      32.828  21.531  24.777  1.00  0.00     0.163 HD
BRANCH   3   6
ATOM      6  C   UNL A   1      31.725  24.376  23.363  1.00  0.00     0.121 C 
BRANCH   6   7
ATOM      7  C   UNL A   1      32.664  25.385  22.692  1.00  0.00     0.131 C 
BRANCH   7   8
ATOM      8  N   UNL A   1      32.319  26.802  22.840  1.00  0.00    -0.324 N 
BRANCH   8   9
ATOM      9  C   UNL A   1      30.935  27.098  22.379  1.00  0.00     0.118 C 
ATOM     10  C   UNL A   1      30.122  28.252  22.951  1.00  0.00     0.027 C 
ENDBRANCH   8   9
BRANCH   8  11
ATOM     11  C   UNL A   1      33.136  27.821  23.319  1.00  0.00     0.320 C 
ATOM     12  O   UNL A   1      33.789  28.515  22.531  1.00  0.00    -0.248 OA
BRANCH  11  13
ATOM     13  N   UNL A   1      33.355  28.022  24.665  1.00  0.00    -0.323 N 
ATOM     14  C   UNL A   1      33.684  27.155  25.791  1.00  0.00     0.137 C 
ATOM     15  C   UNL A   1      33.261  29.405  25.157  1.00  0.00     0.125 C 
ATOM     16  C   UNL A   1      33.236  27.911  27.035  1.00  0.00     0.123 C 
ATOM     17  C   UNL A   1      33.536  29.363  26.669  1.00  0.00     0.021 C 
ATOM     18  C   UNL A   1      34.997  29.710  26.999  1.00  0.00     0.010 C 
BRANCH  16  19
ATOM     19  C   UNL A   1      31.786  27.535  27.260  1.00  0.00     0.310 C 
ATOM     20  O   UNL A   1      31.025  28.203  27.953  1.00  0.00    -0.252 OA
BRANCH  19  21
ATOM     21  O   UNL A   1      31.510  26.291  26.797  1.00  0.00    -0.469 OA
ATOM     22  C   UNL A   1      30.283  26.180  26.081  1.00  0.00     0.282 C 
ENDBRANCH  19  21
ENDBRANCH  16  19
ENDBRANCH  11  13
ENDBRANCH   8  11
ENDBRANCH   7   8
ENDBRANCH   6   7
ENDBRANCH   3   6
ENDBRANCH   1   2
BRANCH   1  23
ATOM     23  C   UNL A   1      34.064  23.645  26.425  1.00  0.00     0.023 C 
BRANCH  23  24
ATOM     24  C   UNL A   1      35.227  22.753  26.034  1.00  0.00     0.023 C 
BRANCH  24  25
ATOM     25  C   UNL A   1      36.574  23.429  26.125  1.00  0.00     0.116 C 
BRANCH  25  26
ATOM     26  N   UNL A   1      37.679  22.479  26.187  1.00  0.00    -0.352 N 
ATOM     27  C   UNL A   1      39.007  22.700  26.450  1.00  0.00     0.251 C 
ATOM     28  H   UNL A   1      37.435  21.541  26.016  1.00  0.00     0.163 HD
ATOM     29  O   UNL A   1      39.822  21.793  26.297  1.00  0.00    -0.269 OA
BRANCH  27  30
ATOM     30  C   UNL A   1      39.443  24.039  26.889  1.00  0.00     0.039 A 
ATOM     31  C   UNL A   1      39.499  24.332  28.253  1.00  0.00     0.014 A 
ATOM     32  C   UNL A   1      39.845  24.988  25.949  1.00  0.00     0.014 A 
ATOM     33  C   UNL A   1      40.021  25.557  28.667  1.00  0.00     0.010 A 
ATOM     34  C   UNL A   1      40.497  26.135  26.366  1.00  0.00     0.010 A 
ATOM     35  C   UNL A   1      40.562  26.451  27.728  1.00  0.00    -0.014 A 
BRANCH  35  36
ATOM     36  C   UNL A   1      41.152  27.750  28.132  1.00  0.00     0.031 A 
ATOM     37  C   UNL A   1      42.643  27.949  28.028  1.00  0.00     0.074 A 
ATOM     38  C   UNL A   1      40.366  28.714  28.649  1.00  0.00     0.049 A 
ATOM     39  N   UNL A   1      43.371  28.960  28.420  1.00  0.00    -0.248 NA
ATOM     40  C   UNL A   1      43.426  26.841  27.448  1.00  0.00     0.031 C 
ATOM     41  C   UNL A   1      38.919  28.610  28.863  1.00  0.00     0.029 A 
ATOM     42  N   UNL A   1      40.673  29.974  29.098  1.00  0.00    -0.354 N 
ATOM     43  C   UNL A   1      44.688  28.605  28.148  1.00  0.00     0.074 A 
ATOM     44  C   UNL A   1      44.669  27.251  27.647  1.00  0.00     0.031 C 
ATOM     45  C   UNL A   1      38.463  29.766  29.368  1.00  0.00     0.029 A 
ATOM     46  C   UNL A   1      39.585  30.677  29.559  1.00  0.00     0.049 A 
ATOM     47  H   UNL A   1      41.587  30.339  29.092  1.00  0.00     0.167 HD
ATOM     48  C   UNL A   1      45.808  29.354  28.259  1.00  0.00     0.037 A 
ATOM     49  C   UNL A   1      39.507  31.916  30.082  1.00  0.00     0.037 A 
ATOM     50  C   UNL A   1      45.810  30.715  28.722  1.00  0.00     0.049 A 
ATOM     51  C   UNL A   1      40.766  32.734  30.193  1.00  0.00     0.074 A 
ATOM     52  C   UNL A   1      46.879  31.586  28.832  1.00  0.00     0.029 A 
ATOM     53  N   UNL A   1      44.682  31.407  29.140  1.00  0.00    -0.354 N 
ATOM     54  N   UNL A   1      41.996  32.403  29.874  1.00  0.00    -0.248 NA
ATOM     55  C   UNL A   1      40.630  34.097  30.723  1.00  0.00     0.031 C 
ATOM     56  C   UNL A   1      46.404  32.790  29.360  1.00  0.00     0.029 A 
ATOM     57  C   UNL A   1      45.032  32.690  29.523  1.00  0.00     0.049 A 
ATOM     58  H   UNL A   1      43.770  31.039  29.162  1.00  0.00     0.167 HD
ATOM     59  C   UNL A   1      42.773  33.525  30.137  1.00  0.00     0.074 A 
ATOM     60  C   UNL A   1      41.872  34.549  30.625  1.00  0.00     0.031 C 
ATOM     61  C   UNL A   1      44.111  33.696  29.992  1.00  0.00     0.037 A 
BRANCH  48  62
ATOM     62  C   UNL A   1      47.112  28.725  27.847  1.00  0.00     0.058 A 
ATOM     63  C   UNL A   1      47.576  28.796  26.523  1.00  0.00     0.135 A 
ATOM     64  C   UNL A   1      47.921  28.066  28.786  1.00  0.00     0.135 A 
ATOM     65  F   UNL A   1      46.834  29.395  25.576  1.00  0.00    -0.206 F 
ATOM     66  C   UNL A   1      48.777  28.209  26.138  1.00  0.00     0.059 A 
ATOM     67  C   UNL A   1      49.143  27.502  28.431  1.00  0.00     0.059 A 
ATOM     68  F   UNL A   1      47.526  27.963  30.066  1.00  0.00    -0.206 F 
ATOM     69  C   UNL A   1      49.556  27.567  27.101  1.00  0.00     0.060 A 
BRANCH  69  70
ATOM     70  S   UNL A   1      51.118  26.826  26.585  1.00  0.00     0.124 S 
ATOM     71  O   UNL A   1      50.703  26.058  25.414  1.00  0.00    -0.237 OA
ATOM     72  O   UNL A   1      51.943  27.999  26.312  1.00  0.00    -0.237 OA
ATOM     73  O   UNL A   1      51.519  26.036  27.744  1.00  0.00    -0.744 OA
ENDBRANCH  69  70
ENDBRANCH  48  62
BRANCH  49  74
ATOM     74  C   UNL A   1      38.195  32.460  30.526  1.00  0.00     0.058 A 
ATOM     75  C   UNL A   1      37.381  33.200  29.655  1.00  0.00     0.135 A 
ATOM     76  C   UNL A   1      37.725  32.251  31.833  1.00  0.00     0.135 A 
ATOM     77  F   UNL A   1      37.784  33.430  28.396  1.00  0.00    -0.206 F 
ATOM     78  C   UNL A   1      36.167  33.739  30.069  1.00  0.00     0.059 A 
ATOM     79  C   UNL A   1      36.501  32.753  32.263  1.00  0.00     0.059 A 
ATOM     80  F   UNL A   1      38.453  31.531  32.702  1.00  0.00    -0.206 F 
ATOM     81  C   UNL A   1      35.736  33.511  31.377  1.00  0.00     0.060 A 
BRANCH  81  82
ATOM     82  S   UNL A   1      34.148  34.195  31.897  1.00  0.00     0.124 S 
ATOM     83  O   UNL A   1      33.459  34.340  30.620  1.00  0.00    -0.237 OA
ATOM     84  O   UNL A   1      33.641  33.152  32.783  1.00  0.00    -0.237 OA
ATOM     85  O   UNL A   1      34.520  35.443  32.558  1.00  0.00    -0.744 OA
ENDBRANCH  81  82
ENDBRANCH  49  74
BRANCH  61  86
ATOM     86  C   UNL A   1      44.677  35.049  30.325  1.00  0.00     0.058 A 
ATOM     87  C   UNL A   1      44.736  36.079  29.374  1.00  0.00     0.135 A 
ATOM     88  C   UNL A   1      45.108  35.331  31.631  1.00  0.00     0.135 A 
ATOM     89  F   UNL A   1      44.339  35.858  28.111  1.00  0.00    -0.206 F 
ATOM     90  C   UNL A   1      45.228  37.338  29.701  1.00  0.00     0.059 A 
ATOM     91  C   UNL A   1      45.574  36.592  31.988  1.00  0.00     0.059 A 
ATOM     92  F   UNL A   1      45.061  34.384  32.581  1.00  0.00    -0.206 F 
ATOM     93  C   UNL A   1      45.640  37.586  31.013  1.00  0.00     0.060 A 
BRANCH  93  94
ATOM     94  S   UNL A   1      46.241  39.235  31.430  1.00  0.00     0.124 S 
ATOM     95  O   UNL A   1      47.438  39.331  30.601  1.00  0.00    -0.237 OA
ATOM     96  O   UNL A   1      45.123  40.085  31.030  1.00  0.00    -0.237 OA
ATOM     97  O   UNL A   1      46.479  39.157  32.868  1.00  0.00    -0.744 OA
ENDBRANCH  93  94
ENDBRANCH  61  86
ENDBRANCH  35  36
ENDBRANCH  27  30
ENDBRANCH  25  26
ENDBRANCH  24  25
ENDBRANCH  23  24
ENDBRANCH   1  23
TORSDOF 21
ENDMDL
MODEL 2
REMARK VINA RESULT:      -9.2      1.200      2.113
REMARK SMILES CCN(CCC(=O)NCCCCNC(=O)c1ccc(-c2c3nc(c(-c4c(F)cc(S(=O)(=O)[O-])cc4F)c4ccc([nH]4)c(-c4c(F)cc(S(=O)(=O)[O-])cc4F)c4nc(c(-c5c(F)cc(S(=O)(=O)[O-])cc5F)c5ccc2[nH]5)C=C4)C=C3)cc1)C(=O)N1C[C@H](C(=O)OC)[C@@H](C)C1
REMARK SMILES IDX 9 1 8 2 6 3 7 4 5 6 4 7 3 8 2 9 1 10 82 11 83 12 84 13 85 14
REMARK SMILES IDX 93 15 86 16 91 17 92 18 87 19 88 20 89 21 90 22 10 23 11 24
REMARK SMILES IDX 12 25 13 26 14 27 15 29 16 30 17 31 81 32 18 33 80 34 19 35
REMARK SMILES IDX 20 36 21 37 74 38 22 39 79 40 73 41 75 42 23 43 78 44 72 45
REMARK SMILES IDX 71 46 24 48 58 49 37 50 57 51 38 52 41 53 56 54 76 55 39 56
REMARK SMILES IDX 40 57 55 59 77 60 42 61 25 62 26 63 35 64 27 65 28 66 34 67
REMARK SMILES IDX 36 68 29 69 30 70 31 71 32 72 33 73 59 74 60 75 69 76 61 77
REMARK SMILES IDX 62 78 68 79 70 80 63 81 64 82 65 83 66 84 67 85 43 86 44 87
REMARK SMILES IDX 53 88 45 89 46 90 52 91 54 92 47 93 48 94 49 95 50 96 51 97
REMARK H PARENT 8 5 13 28 75 47 41 58
REMARK Flexibility Score: inf
ROOT
ATOM      1  C   UNL A   1      32.564  22.941  26.205  1.00  0.00     0.116 C 
ENDROOT
BRANCH   1   2
ATOM      2  N   UNL A   1      32.351  22.079  25.058  1.00  0.00    -0.356 N 
ATOM      3  C   UNL A   1      32.127  22.401  23.752  1.00  0.00     0.221 C 
ATOM      4  O   UNL A   1      32.139  21.497  22.912  1.00  0.00    -0.275 OA
ATOM      5  H   UNL A   1      32.371  21.114  25.251  1.00  0.00     0.163 HD
BRANCH   3   6
ATOM      6  C   UNL A   1      31.855  23.824  23.328  1.00  0.00     0.121 C 
BRANCH   6   7
ATOM      7  C   UNL A   1      32.975  24.488  22.518  1.00  0.00     0.131 C 
BRANCH   7   8
ATOM      8  N   UNL A   1      32.647  25.756  21.862  1.00  0.00    -0.324 N 
BRANCH   8   9
ATOM      9  C   UNL A   1      31.904  25.558  20.587  1.00  0.00     0.118 C 
ATOM     10  C   UNL A   1      32.608  25.534  19.237  1.00  0.00     0.027 C 
ENDBRANCH   8   9
BRANCH   8  11
ATOM     11  C   UNL A   1      32.976  27.037  22.294  1.00  0.00     0.320 C 
ATOM     12  O   UNL A   1      34.057  27.542  21.973  1.00  0.00    -0.248 OA
BRANCH  11  13
ATOM     13  N   UNL A   1      32.193  27.740  23.185  1.00  0.00    -0.323 N 
ATOM     14  C   UNL A   1      30.859  27.557  23.744  1.00  0.00     0.137 C 
ATOM     15  C   UNL A   1      32.771  28.967  23.755  1.00  0.00     0.125 C 
ATOM     16  C   UNL A   1      30.413  28.940  24.201  1.00  0.00     0.123 C 
ATOM     17  C   UNL A   1      31.714  29.562  24.702  1.00  0.00     0.021 C 
ATOM     18  C   UNL A   1      31.968  29.173  26.167  1.00  0.00     0.010 C 
BRANCH  16  19
ATOM     19  C   UNL A   1      29.746  29.588  23.005  1.00  0.00     0.310 C 
ATOM     20  O   UNL A   1      29.791  29.108  21.877  1.00  0.00    -0.252 OA
BRANCH  19  21
ATOM     21  O   UNL A   1      29.302  30.837  23.291  1.00  0.00    -0.469 OA
ATOM     22  C   UNL A   1      28.037  31.164  22.719  1.00  0.00     0.282 C 
ENDBRANCH  19  21
ENDBRANCH  16  19
ENDBRANCH  11  13
ENDBRANCH   8  11
ENDBRANCH   7   8
ENDBRANCH   6   7
ENDBRANCH   3   6
ENDBRANCH   1   2
BRANCH   1  23
ATOM     23  C   UNL A   1      33.953  23.562  26.266  1.00  0.00     0.023 C 
BRANCH  23  24
ATOM     24  C   UNL A   1      35.120  22.662  25.903  1.00  0.00     0.023 C 
BRANCH  24  25
ATOM     25  C   UNL A   1      36.473  23.298  26.115  1.00  0.00     0.116 C 
BRANCH  25  26
ATOM     26  N   UNL A   1      37.561  22.328  26.096  1.00  0.00    -0.352 N 
ATOM     27  C   UNL A   1      38.902  22.517  26.312  1.00  0.00     0.251 C 
ATOM     28  H   UNL A   1      37.294  21.402  25.900  1.00  0.00     0.163 HD
ATOM     29  O   UNL A   1      39.694  21.602  26.092  1.00  0.00    -0.269 OA
BRANCH  27  30
ATOM     30  C   UNL A   1      39.380  23.830  26.782  1.00  0.00     0.039 A 
ATOM     31  C   UNL A   1      39.526  24.060  28.151  1.00  0.00     0.014 A 
ATOM     32  C   UNL A   1      39.731  24.819  25.862  1.00  0.00     0.014 A 
ATOM     33  C   UNL A   1      40.087  25.260  28.586  1.00  0.00     0.010 A 
ATOM     34  C   UNL A   1      40.421  25.940  26.288  1.00  0.00     0.010 A 
ATOM     35  C   UNL A   1      40.577  26.192  27.656  1.00  0.00    -0.014 A 
BRANCH  35  36
ATOM     36  C   UNL A   1      41.206  27.467  28.081  1.00  0.00     0.031 A 
ATOM     37  C   UNL A   1      42.701  27.625  27.971  1.00  0.00     0.074 A 
ATOM     38  C   UNL A   1      40.450  28.443  28.619  1.00  0.00     0.049 A 
ATOM     39  N   UNL A   1      43.460  28.608  28.378  1.00  0.00    -0.248 NA
ATOM     40  C   UNL A   1      43.450  26.506  27.368  1.00  0.00     0.031 C 
ATOM     41  C   UNL A   1      39.002  28.376  28.838  1.00  0.00     0.029 A 
ATOM     42  N   UNL A   1      40.795  29.685  29.089  1.00  0.00    -0.354 N 
ATOM     43  C   UNL A   1      44.764  28.220  28.092  1.00  0.00     0.074 A 
ATOM     44  C   UNL A   1      44.704  26.877  27.567  1.00  0.00     0.031 C 
ATOM     45  C   UNL A   1      38.581  29.536  29.367  1.00  0.00     0.029 A 
ATOM     46  C   UNL A   1      39.730  30.411  29.568  1.00  0.00     0.049 A 
ATOM     47  H   UNL A   1      41.719  30.024  29.084  1.00  0.00     0.167 HD
ATOM     48  C   UNL A   1      45.906  28.935  28.211  1.00  0.00     0.037 A 
ATOM     49  C   UNL A   1      39.689  31.641  30.114  1.00  0.00     0.037 A 
ATOM     50  C   UNL A   1      45.949  30.287  28.697  1.00  0.00     0.049 A 
ATOM     51  C   UNL A   1      40.971  32.422  30.232  1.00  0.00     0.074 A 
ATOM     52  C   UNL A   1      47.043  31.125  28.818  1.00  0.00     0.029 A 
ATOM     53  N   UNL A   1      44.843  31.003  29.134  1.00  0.00    -0.354 N 
ATOM     54  N   UNL A   1      42.190  32.061  29.900  1.00  0.00    -0.248 NA
ATOM     55  C   UNL A   1      40.877  33.778  30.787  1.00  0.00     0.031 C 
ATOM     56  C   UNL A   1      46.605  32.333  29.369  1.00  0.00     0.029 A 
ATOM     57  C   UNL A   1      45.232  32.269  29.538  1.00  0.00     0.049 A 
ATOM     58  H   UNL A   1      43.921  30.661  29.154  1.00  0.00     0.167 HD
ATOM     59  C   UNL A   1      43.000  33.157  30.180  1.00  0.00     0.074 A 
ATOM     60  C   UNL A   1      42.131  34.196  30.690  1.00  0.00     0.031 C 
ATOM     61  C   UNL A   1      44.342  33.292  30.030  1.00  0.00     0.037 A 
BRANCH  48  62
ATOM     62  C   UNL A   1      47.189  28.277  27.780  1.00  0.00     0.058 A 
ATOM     63  C   UNL A   1      47.639  28.344  26.451  1.00  0.00     0.135 A 
ATOM     64  C   UNL A   1      47.993  27.593  28.706  1.00  0.00     0.135 A 
ATOM     65  F   UNL A   1      46.902  28.966  25.516  1.00  0.00    -0.206 F 
ATOM     66  C   UNL A   1      48.822  27.730  26.049  1.00  0.00     0.059 A 
ATOM     67  C   UNL A   1      49.196  27.001  28.334  1.00  0.00     0.059 A 
ATOM     68  F   UNL A   1      47.610  27.493  29.990  1.00  0.00    -0.206 F 
ATOM     69  C   UNL A   1      49.595  27.064  26.999  1.00  0.00     0.060 A 
BRANCH  69  70
ATOM     70  S   UNL A   1      51.134  26.289  26.462  1.00  0.00     0.124 S 
ATOM     71  O   UNL A   1      50.976  26.307  25.010  1.00  0.00    -0.237 OA
ATOM     72  O   UNL A   1      52.143  27.194  27.001  1.00  0.00    -0.237 OA
ATOM     73  O   UNL A   1      51.083  24.968  27.080  1.00  0.00    -0.744 OA
ENDBRANCH  69  70
ENDBRANCH  48  62
BRANCH  49  74
ATOM     74  C   UNL A   1      38.395  32.215  30.575  1.00  0.00     0.058 A 
ATOM     75  C   UNL A   1      37.958  32.052  31.898  1.00  0.00     0.135 A 
ATOM     76  C   UNL A   1      37.569  32.940  29.702  1.00  0.00     0.135 A 
ATOM     77  F   UNL A   1      38.709  31.367  32.772  1.00  0.00    -0.206 F 
ATOM     78  C   UNL A   1      36.736  32.558  32.331  1.00  0.00     0.059 A 
ATOM     79  C   UNL A   1      36.357  33.482  30.118  1.00  0.00     0.059 A 
ATOM     80  F   UNL A   1      37.949  33.145  28.430  1.00  0.00    -0.206 F 
ATOM     81  C   UNL A   1      35.942  33.272  31.432  1.00  0.00     0.060 A 
BRANCH  81  82
ATOM     82  S   UNL A   1      34.369  33.944  32.011  1.00  0.00     0.124 S 
ATOM     83  O   UNL A   1      34.813  35.065  32.830  1.00  0.00    -0.237 OA
ATOM     84  O   UNL A   1      33.705  34.291  30.758  1.00  0.00    -0.237 OA
ATOM     85  O   UNL A   1      33.774  32.827  32.739  1.00  0.00    -0.744 OA
ENDBRANCH  81  82
ENDBRANCH  49  74
BRANCH  61  86
ATOM     86  C   UNL A   1      44.947  34.621  30.384  1.00  0.00     0.058 A 
ATOM     87  C   UNL A   1      45.463  34.882  31.663  1.00  0.00     0.135 A 
ATOM     88  C   UNL A   1      45.066  35.625  29.409  1.00  0.00     0.135 A 
ATOM     89  F   UNL A   1      45.371  33.956  32.631  1.00  0.00    -0.206 F 
ATOM     90  C   UNL A   1      46.054  36.103  31.970  1.00  0.00     0.059 A 
ATOM     91  C   UNL A   1      45.680  36.841  29.686  1.00  0.00     0.059 A 
ATOM     92  F   UNL A   1      44.599  35.422  28.167  1.00  0.00    -0.206 F 
ATOM     93  C   UNL A   1      46.161  37.075  30.973  1.00  0.00     0.060 A 
BRANCH  93  94
ATOM     94  S   UNL A   1      46.963  38.640  31.378  1.00  0.00     0.124 S 
ATOM     95  O   UNL A   1      47.728  38.902  30.164  1.00  0.00    -0.237 OA
ATOM     96  O   UNL A   1      45.824  39.522  31.613  1.00  0.00    -0.237 OA
ATOM     97  O   UNL A   1      47.756  38.320  32.562  1.00  0.00    -0.744 OA
ENDBRANCH  93  94
ENDBRANCH  61  86
ENDBRANCH  35  36
ENDBRANCH  27  30
ENDBRANCH  25  26
ENDBRANCH  24  25
ENDBRANCH  23  24
ENDBRANCH   1  23
TORSDOF 21
ENDMDL
MODEL 3
REMARK VINA RESULT:      -8.1      3.860      5.951
REMARK SMILES CCN(CCC(=O)NCCCCNC(=O)c1ccc(-c2c3nc(c(-c4c(F)cc(S(=O)(=O)[O-])cc4F)c4ccc([nH]4)c(-c4c(F)cc(S(=O)(=O)[O-])cc4F)c4nc(c(-c5c(F)cc(S(=O)(=O)[O-])cc5F)c5ccc2[nH]5)C=C4)C=C3)cc1)C(=O)N1C[C@H](C(=O)OC)[C@@H](C)C1
REMARK SMILES IDX 9 1 8 2 6 3 7 4 5 6 4 7 3 8 2 9 1 10 82 11 83 12 84 13 85 14
REMARK SMILES IDX 93 15 86 16 91 17 92 18 87 19 88 20 89 21 90 22 10 23 11 24
REMARK SMILES IDX 12 25 13 26 14 27 15 29 16 30 17 31 81 32 18 33 80 34 19 35
REMARK SMILES IDX 20 36 21 37 74 38 22 39 79 40 73 41 75 42 23 43 78 44 72 45
REMARK SMILES IDX 71 46 24 48 58 49 37 50 57 51 38 52 41 53 56 54 76 55 39 56
REMARK SMILES IDX 40 57 55 59 77 60 42 61 25 62 26 63 35 64 27 65 28 66 34 67
REMARK SMILES IDX 36 68 29 69 30 70 31 71 32 72 33 73 59 74 60 75 69 76 61 77
REMARK SMILES IDX 62 78 68 79 70 80 63 81 64 82 65 83 66 84 67 85 43 86 44 87
REMARK SMILES IDX 53 88 45 89 46 90 52 91 54 92 47 93 48 94 49 95 50 96 51 97
REMARK H PARENT 8 5 13 28 75 47 41 58
REMARK Flexibility Score: inf
ROOT
ATOM      1  C   UNL A   1      39.717  27.664  28.322  1.00  0.00     0.116 C 
ENDROOT
BRANCH   1   2
ATOM      2  N   UNL A   1      39.164  28.626  29.255  1.00  0.00    -0.356 N 
ATOM      3  C   UNL A   1      37.900  29.130  29.346  1.00  0.00     0.221 C 
ATOM      4  O   UNL A   1      37.609  29.817  30.328  1.00  0.00    -0.275 OA
ATOM      5  H   UNL A   1      39.798  28.970  29.927  1.00  0.00     0.163 HD
BRANCH   3   6
ATOM      6  C   UNL A   1      36.872  28.874  28.270  1.00  0.00     0.121 C 
BRANCH   6   7
ATOM      7  C   UNL A   1      36.274  30.131  27.630  1.00  0.00     0.131 C 
BRANCH   7   8
ATOM      8  N   UNL A   1      34.812  30.234  27.628  1.00  0.00    -0.324 N 
BRANCH   8   9
ATOM      9  C   UNL A   1      34.155  28.955  27.241  1.00  0.00     0.118 C 
ATOM     10  C   UNL A   1      33.796  28.636  25.795  1.00  0.00     0.027 C 
ENDBRANCH   8   9
BRANCH   8  11
ATOM     11  C   UNL A   1      34.047  31.360  27.914  1.00  0.00     0.320 C 
ATOM     12  O   UNL A   1      32.944  31.515  27.378  1.00  0.00    -0.248 OA
BRANCH  11  13
ATOM     13  N   UNL A   1      34.521  32.398  28.688  1.00  0.00    -0.323 N 
ATOM     14  C   UNL A   1      34.400  32.769  30.093  1.00  0.00     0.137 C 
ATOM     15  C   UNL A   1      35.360  33.402  28.014  1.00  0.00     0.125 C 
ATOM     16  C   UNL A   1      34.680  34.265  30.148  1.00  0.00     0.123 C 
ATOM     17  C   UNL A   1      35.753  34.443  29.076  1.00  0.00     0.021 C 
ATOM     18  C   UNL A   1      37.149  34.173  29.661  1.00  0.00     0.010 C 
BRANCH  16  19
ATOM     19  C   UNL A   1      33.350  34.955  29.924  1.00  0.00     0.310 C 
ATOM     20  O   UNL A   1      32.532  34.570  29.095  1.00  0.00    -0.252 OA
BRANCH  19  21
ATOM     21  O   UNL A   1      33.282  36.141  30.577  1.00  0.00    -0.469 OA
ATOM     22  C   UNL A   1      32.535  36.111  31.791  1.00  0.00     0.282 C 
ENDBRANCH  19  21
ENDBRANCH  16  19
ENDBRANCH  11  13
ENDBRANCH   8  11
ENDBRANCH   7   8
ENDBRANCH   6   7
ENDBRANCH   3   6
ENDBRANCH   1   2
BRANCH   1  23
ATOM     23  C   UNL A   1      40.615  26.618  28.967  1.00  0.00     0.023 C 
BRANCH  23  24
ATOM     24  C   UNL A   1      40.907  25.371  28.153  1.00  0.00     0.023 C 
BRANCH  24  25
ATOM     25  C   UNL A   1      40.770  25.568  26.662  1.00  0.00     0.116 C 
BRANCH  25  26
ATOM     26  N   UNL A   1      41.998  25.262  25.938  1.00  0.00    -0.352 N 
ATOM     27  C   UNL A   1      43.135  26.014  25.792  1.00  0.00     0.251 C 
ATOM     28  H   UNL A   1      42.012  24.387  25.488  1.00  0.00     0.163 HD
ATOM     29  O   UNL A   1      44.009  25.657  25.004  1.00  0.00    -0.269 OA
BRANCH  27  30
ATOM     30  C   UNL A   1      43.282  27.260  26.566  1.00  0.00     0.039 A 
ATOM     31  C   UNL A   1      44.109  27.278  27.691  1.00  0.00     0.014 A 
ATOM     32  C   UNL A   1      42.637  28.425  26.148  1.00  0.00     0.014 A 
ATOM     33  C   UNL A   1      44.335  28.485  28.352  1.00  0.00     0.010 A 
ATOM     34  C   UNL A   1      42.981  29.641  26.713  1.00  0.00     0.010 A 
ATOM     35  C   UNL A   1      43.806  29.683  27.843  1.00  0.00    -0.014 A 
BRANCH  35  36
ATOM     36  C   UNL A   1      44.049  30.990  28.501  1.00  0.00     0.031 A 
ATOM     37  C   UNL A   1      45.226  31.827  28.070  1.00  0.00     0.074 A 
ATOM     38  C   UNL A   1      43.260  31.387  29.518  1.00  0.00     0.049 A 
ATOM     39  N   UNL A   1      45.677  32.943  28.578  1.00  0.00    -0.248 NA
ATOM     40  C   UNL A   1      46.034  31.316  26.947  1.00  0.00     0.031 C 
ATOM     41  C   UNL A   1      42.133  30.629  30.068  1.00  0.00     0.029 A 
ATOM     42  N   UNL A   1      43.290  32.528  30.280  1.00  0.00    -0.354 N 
ATOM     43  C   UNL A   1      46.819  33.255  27.849  1.00  0.00     0.074 A 
ATOM     44  C   UNL A   1      47.048  32.166  26.929  1.00  0.00     0.031 C 
ATOM     45  C   UNL A   1      41.561  31.339  31.053  1.00  0.00     0.029 A 
ATOM     46  C   UNL A   1      42.305  32.579  31.238  1.00  0.00     0.049 A 
ATOM     47  H   UNL A   1      43.955  33.242  30.153  1.00  0.00     0.167 HD
ATOM     48  C   UNL A   1      47.583  34.369  27.907  1.00  0.00     0.037 A 
ATOM     49  C   UNL A   1      42.038  33.520  32.164  1.00  0.00     0.037 A 
ATOM     50  C   UNL A   1      47.322  35.465  28.799  1.00  0.00     0.049 A 
ATOM     51  C   UNL A   1      42.898  34.755  32.207  1.00  0.00     0.074 A 
ATOM     52  C   UNL A   1      48.002  36.664  28.913  1.00  0.00     0.029 A 
ATOM     53  N   UNL A   1      46.290  35.498  29.726  1.00  0.00    -0.354 N 
ATOM     54  N   UNL A   1      43.940  35.061  31.468  1.00  0.00    -0.248 NA
ATOM     55  C   UNL A   1      42.545  35.779  33.199  1.00  0.00     0.031 C 
ATOM     56  C   UNL A   1      47.407  37.404  29.939  1.00  0.00     0.029 A 
ATOM     57  C   UNL A   1      46.323  36.692  30.426  1.00  0.00     0.049 A 
ATOM     58  H   UNL A   1      45.633  34.779  29.865  1.00  0.00     0.167 HD
ATOM     59  C   UNL A   1      44.347  36.323  31.887  1.00  0.00     0.074 A 
ATOM     60  C   UNL A   1      43.429  36.730  32.931  1.00  0.00     0.031 C 
ATOM     61  C   UNL A   1      45.386  37.079  31.452  1.00  0.00     0.037 A 
BRANCH  48  62
ATOM     62  C   UNL A   1      48.749  34.466  26.960  1.00  0.00     0.058 A 
ATOM     63  C   UNL A   1      48.640  35.129  25.725  1.00  0.00     0.135 A 
ATOM     64  C   UNL A   1      49.995  33.914  27.295  1.00  0.00     0.135 A 
ATOM     65  F   UNL A   1      47.466  35.657  25.341  1.00  0.00    -0.206 F 
ATOM     66  C   UNL A   1      49.714  35.213  24.845  1.00  0.00     0.059 A 
ATOM     67  C   UNL A   1      51.093  34.016  26.445  1.00  0.00     0.059 A 
ATOM     68  F   UNL A   1      50.156  33.265  28.459  1.00  0.00    -0.206 F 
ATOM     69  C   UNL A   1      50.938  34.656  25.216  1.00  0.00     0.060 A 
BRANCH  69  70
ATOM     70  S   UNL A   1      52.324  34.790  24.067  1.00  0.00     0.124 S 
ATOM     71  O   UNL A   1      53.463  34.640  24.968  1.00  0.00    -0.237 OA
ATOM     72  O   UNL A   1      52.083  33.675  23.158  1.00  0.00    -0.237 OA
ATOM     73  O   UNL A   1      52.156  36.118  23.486  1.00  0.00    -0.744 OA
ENDBRANCH  69  70
ENDBRANCH  48  62
BRANCH  49  74
ATOM     74  C   UNL A   1      40.905  33.339  33.113  1.00  0.00     0.058 A 
ATOM     75  C   UNL A   1      39.645  33.901  32.857  1.00  0.00     0.135 A 
ATOM     76  C   UNL A   1      41.058  32.597  34.295  1.00  0.00     0.135 A 
ATOM     77  F   UNL A   1      39.446  34.619  31.742  1.00  0.00    -0.206 F 
ATOM     78  C   UNL A   1      38.589  33.764  33.752  1.00  0.00     0.059 A 
ATOM     79  C   UNL A   1      40.009  32.419  35.191  1.00  0.00     0.059 A 
ATOM     80  F   UNL A   1      42.236  32.019  34.579  1.00  0.00    -0.206 F 
ATOM     81  C   UNL A   1      38.781  33.021  34.918  1.00  0.00     0.060 A 
BRANCH  81  82
ATOM     82  S   UNL A   1      37.396  32.828  36.061  1.00  0.00     0.124 S 
ATOM     83  O   UNL A   1      37.565  31.447  36.495  1.00  0.00    -0.237 OA
ATOM     84  O   UNL A   1      37.680  33.853  37.060  1.00  0.00    -0.237 OA
ATOM     85  O   UNL A   1      36.229  33.087  35.221  1.00  0.00    -0.744 OA
ENDBRANCH  81  82
ENDBRANCH  49  74
BRANCH  61  86
ATOM     86  C   UNL A   1      45.562  38.437  32.072  1.00  0.00     0.058 A 
ATOM     87  C   UNL A   1      44.895  39.567  31.576  1.00  0.00     0.135 A 
ATOM     88  C   UNL A   1      46.363  38.593  33.214  1.00  0.00     0.135 A 
ATOM     89  F   UNL A   1      44.120  39.472  30.484  1.00  0.00    -0.206 F 
ATOM     90  C   UNL A   1      45.036  40.813  32.178  1.00  0.00     0.059 A 
ATOM     91  C   UNL A   1      46.494  39.822  33.851  1.00  0.00     0.059 A 
ATOM     92  F   UNL A   1      47.014  37.540  33.735  1.00  0.00    -0.206 F 
ATOM     93  C   UNL A   1      45.835  40.929  33.318  1.00  0.00     0.060 A 
BRANCH  93  94
ATOM     94  S   UNL A   1      45.979  42.544  34.109  1.00  0.00     0.124 S 
ATOM     95  O   UNL A   1      47.150  42.354  34.957  1.00  0.00    -0.237 OA
ATOM     96  O   UNL A   1      46.160  43.436  32.967  1.00  0.00    -0.237 OA
ATOM     97  O   UNL A   1      44.710  42.691  34.817  1.00  0.00    -0.744 OA
ENDBRANCH  93  94
ENDBRANCH  61  86
ENDBRANCH  35  36
ENDBRANCH  27  30
ENDBRANCH  25  26
ENDBRANCH  24  25
ENDBRANCH  23  24
ENDBRANCH   1  23
TORSDOF 21
ENDMDL
