MODEL 1
REMARK VINA RESULT:     -12.3      0.000      0.000
REMARK SMILES O=C(CC1(NC(=O)C2(c3ccccc3)CC2)CCC1)NCCCCNC(=O)c1ccc(-c2c3nc(c(-c4c(F)cc(S(=O)(=O)[O-])cc4F)c4ccc([nH]4)c(-c4c(F)cc(S(=O)(=O)[O-])cc4F)c4nc(c(-c5c(F)cc(S(=O)(=O)[O-])cc5F)c5ccc2[nH]5)C=C4)C=C3)cc1
REMARK SMILES IDX 22 1 21 2 20 3 1 4 2 5 3 7 4 8 17 9 19 10 18 11 5 12 6 13
REMARK SMILES IDX 7 15 8 16 15 17 16 18 9 19 10 20 14 21 11 22 13 23 12 24
REMARK SMILES IDX 23 25 24 26 25 27 26 28 27 30 28 31 29 32 93 33 30 34 92 35
REMARK SMILES IDX 31 36 32 37 33 38 86 39 34 40 91 41 85 42 87 43 35 44 90 45
REMARK SMILES IDX 84 46 83 47 36 49 70 50 49 51 69 52 50 53 53 54 68 55 88 56
REMARK SMILES IDX 51 57 52 58 67 60 89 61 54 62 37 63 38 64 47 65 39 66 40 67
REMARK SMILES IDX 46 68 48 69 41 70 42 71 43 72 44 73 45 74 71 75 72 76 81 77
REMARK SMILES IDX 73 78 74 79 80 80 82 81 75 82 76 83 77 84 78 85 79 86 55 87
REMARK SMILES IDX 56 88 65 89 57 90 58 91 64 92 66 93 59 94 60 95 61 96 62 97
REMARK SMILES IDX 63 98
REMARK H PARENT 20 6 5 14 25 29 87 48 53 59
REMARK Flexibility Score: inf
ROOT
ATOM      1  C   UNL A   1      35.598  31.967  27.681  1.00  0.00     0.023 C 
ENDROOT
BRANCH   1   2
ATOM      2  C   UNL A   1      34.240  31.269  27.746  1.00  0.00     0.116 C 
BRANCH   2   3
ATOM      3  N   UNL A   1      34.128  30.149  26.824  1.00  0.00    -0.356 N 
ATOM      4  O   UNL A   1      32.162  29.639  27.375  1.00  0.00    -0.275 OA
ATOM      5  C   UNL A   1      32.842  29.684  26.292  1.00  0.00     0.222 C 
ATOM      6  H   UNL A   1      34.950  29.685  26.545  1.00  0.00     0.163 HD
BRANCH   5   7
ATOM      7  C   UNL A   1      32.250  29.104  24.294  1.00  0.00     0.128 C 
BRANCH   7   8
ATOM      8  C   UNL A   1      31.183  28.542  23.273  1.00  0.00     0.049 C 
ATOM      9  C   UNL A   1      30.049  27.497  23.542  1.00  0.00     0.029 C 
ATOM     10  C   UNL A   1      30.153  29.400  22.469  1.00  0.00     0.029 C 
ATOM     11  C   UNL A   1      29.033  28.433  22.876  1.00  0.00     0.005 C 
BRANCH   8  12
ATOM     12  N   UNL A   1      32.260  27.871  22.215  1.00  0.00    -0.349 N 
ATOM     13  C   UNL A   1      32.942  26.598  22.244  1.00  0.00     0.231 C 
ATOM     14  H   UNL A   1      32.473  28.432  21.434  1.00  0.00     0.164 HD
ATOM     15  O   UNL A   1      33.682  26.382  21.277  1.00  0.00    -0.274 OA
BRANCH  13  16
ATOM     16  C   UNL A   1      32.863  25.401  23.391  1.00  0.00     0.074 C 
ATOM     17  C   UNL A   1      34.198  24.997  24.013  1.00  0.00     0.023 C 
ATOM     18  C   UNL A   1      33.245  25.840  24.806  1.00  0.00     0.023 C 
BRANCH  16  19
ATOM     19  C   UNL A   1      31.744  24.187  23.353  1.00  0.00    -0.032 A 
ATOM     20  C   UNL A   1      30.857  24.063  24.954  1.00  0.00     0.005 A 
ATOM     21  C   UNL A   1      32.457  22.691  22.593  1.00  0.00     0.005 A 
ATOM     22  C   UNL A   1      31.040  22.563  25.929  1.00  0.00     0.000 A 
ATOM     23  C   UNL A   1      32.699  21.224  23.621  1.00  0.00     0.000 A 
ATOM     24  C   UNL A   1      32.006  21.166  25.306  1.00  0.00     0.000 A 
ENDBRANCH  16  19
ENDBRANCH  13  16
ENDBRANCH   8  12
ENDBRANCH   7   8
ENDBRANCH   5   7
ENDBRANCH   2   3
ENDBRANCH   1   2
BRANCH   1  25
ATOM     25  C   UNL A   1      35.790  33.148  28.644  1.00  0.00     0.023 C 
BRANCH  25  26
ATOM     26  C   UNL A   1      36.828  32.918  29.737  1.00  0.00     0.116 C 
BRANCH  26  27
ATOM     27  N   UNL A   1      36.372  31.930  30.699  1.00  0.00    -0.352 N 
ATOM     28  C   UNL A   1      36.836  30.653  30.901  1.00  0.00     0.251 C 
ATOM     29  H   UNL A   1      35.633  32.214  31.285  1.00  0.00     0.163 HD
ATOM     30  O   UNL A   1      36.150  29.841  31.515  1.00  0.00    -0.269 OA
BRANCH  28  31
ATOM     31  C   UNL A   1      38.160  30.257  30.371  1.00  0.00     0.039 A 
ATOM     32  C   UNL A   1      38.315  30.048  28.999  1.00  0.00     0.014 A 
ATOM     33  C   UNL A   1      39.241  30.059  31.236  1.00  0.00     0.014 A 
ATOM     34  C   UNL A   1      39.566  29.686  28.490  1.00  0.00     0.010 A 
ATOM     35  C   UNL A   1      40.503  29.772  30.719  1.00  0.00     0.010 A 
ATOM     36  C   UNL A   1      40.678  29.571  29.342  1.00  0.00    -0.014 A 
BRANCH  36  37
ATOM     37  C   UNL A   1      42.025  29.229  28.809  1.00  0.00     0.031 A 
ATOM     38  C   UNL A   1      42.321  27.829  28.338  1.00  0.00     0.074 A 
ATOM     39  C   UNL A   1      42.996  30.164  28.798  1.00  0.00     0.049 A 
ATOM     40  N   UNL A   1      43.445  27.327  27.894  1.00  0.00    -0.248 NA
ATOM     41  C   UNL A   1      41.216  26.858  28.397  1.00  0.00     0.031 C 
ATOM     42  C   UNL A   1      42.846  31.543  29.267  1.00  0.00     0.029 A 
ATOM     43  N   UNL A   1      44.304  30.095  28.384  1.00  0.00    -0.354 N 
ATOM     44  C   UNL A   1      43.186  25.986  27.632  1.00  0.00     0.074 A 
ATOM     45  C   UNL A   1      41.815  25.738  28.021  1.00  0.00     0.031 C 
ATOM     46  C   UNL A   1      44.007  32.196  29.093  1.00  0.00     0.029 A 
ATOM     47  C   UNL A   1      44.995  31.274  28.540  1.00  0.00     0.049 A 
ATOM     48  H   UNL A   1      44.708  29.279  28.013  1.00  0.00     0.167 HD
ATOM     49  C   UNL A   1      44.008  25.053  27.093  1.00  0.00     0.037 A 
ATOM     50  C   UNL A   1      46.281  31.579  28.277  1.00  0.00     0.037 A 
ATOM     51  C   UNL A   1      45.366  25.313  26.688  1.00  0.00     0.049 A 
ATOM     52  C   UNL A   1      47.180  30.520  27.694  1.00  0.00     0.074 A 
ATOM     53  C   UNL A   1      46.262  24.450  26.082  1.00  0.00     0.029 A 
ATOM     54  N   UNL A   1      46.027  26.522  26.854  1.00  0.00    -0.354 N 
ATOM     55  N   UNL A   1      46.898  29.274  27.392  1.00  0.00    -0.248 NA
ATOM     56  C   UNL A   1      48.568  30.909  27.409  1.00  0.00     0.031 C 
ATOM     57  C   UNL A   1      47.482  25.119  25.933  1.00  0.00     0.029 A 
ATOM     58  C   UNL A   1      47.328  26.419  26.387  1.00  0.00     0.049 A 
ATOM     59  H   UNL A   1      45.630  27.334  27.245  1.00  0.00     0.167 HD
ATOM     60  C   UNL A   1      48.065  28.741  26.853  1.00  0.00     0.074 A 
ATOM     61  C   UNL A   1      49.050  29.802  26.860  1.00  0.00     0.031 C 
ATOM     62  C   UNL A   1      48.298  27.487  26.392  1.00  0.00     0.037 A 
BRANCH  49  63
ATOM     63  C   UNL A   1      43.464  23.661  26.908  1.00  0.00     0.058 A 
ATOM     64  C   UNL A   1      43.107  23.167  25.642  1.00  0.00     0.135 A 
ATOM     65  C   UNL A   1      43.335  22.794  28.006  1.00  0.00     0.135 A 
ATOM     66  F   UNL A   1      43.195  23.955  24.559  1.00  0.00    -0.206 F 
ATOM     67  C   UNL A   1      42.614  21.876  25.476  1.00  0.00     0.059 A 
ATOM     68  C   UNL A   1      42.875  21.488  27.858  1.00  0.00     0.059 A 
ATOM     69  F   UNL A   1      43.660  23.211  29.239  1.00  0.00    -0.206 F 
ATOM     70  C   UNL A   1      42.504  21.043  26.590  1.00  0.00     0.060 A 
BRANCH  70  71
ATOM     71  S   UNL A   1      41.868  19.371  26.355  1.00  0.00     0.124 S 
ATOM     72  O   UNL A   1      40.428  19.610  26.318  1.00  0.00    -0.237 OA
ATOM     73  O   UNL A   1      42.476  18.982  25.087  1.00  0.00    -0.237 OA
ATOM     74  O   UNL A   1      42.354  18.652  27.528  1.00  0.00    -0.744 OA
ENDBRANCH  70  71
ENDBRANCH  49  63
BRANCH  50  75
ATOM     75  C   UNL A   1      46.793  32.949  28.547  1.00  0.00     0.058 A 
ATOM     76  C   UNL A   1      46.754  33.945  27.559  1.00  0.00     0.135 A 
ATOM     77  C   UNL A   1      47.325  33.295  29.800  1.00  0.00     0.135 A 
ATOM     78  F   UNL A   1      46.261  33.664  26.344  1.00  0.00    -0.206 F 
ATOM     79  C   UNL A   1      47.238  35.228  27.795  1.00  0.00     0.059 A 
ATOM     80  C   UNL A   1      47.789  34.578  30.070  1.00  0.00     0.059 A 
ATOM     81  F   UNL A   1      47.371  32.386  30.785  1.00  0.00    -0.206 F 
ATOM     82  C   UNL A   1      47.751  35.536  29.056  1.00  0.00     0.060 A 
BRANCH  82  83
ATOM     83  S   UNL A   1      48.338  37.216  29.366  1.00  0.00     0.124 S 
ATOM     84  O   UNL A   1      48.256  37.806  28.035  1.00  0.00    -0.237 OA
ATOM     85  O   UNL A   1      47.368  37.701  30.342  1.00  0.00    -0.237 OA
ATOM     86  O   UNL A   1      49.687  37.009  29.883  1.00  0.00    -0.744 OA
ENDBRANCH  82  83
ENDBRANCH  50  75
BRANCH  62  87
ATOM     87  C   UNL A   1      49.659  27.197  25.820  1.00  0.00     0.058 A 
ATOM     88  C   UNL A   1      50.715  26.731  26.617  1.00  0.00     0.135 A 
ATOM     89  C   UNL A   1      49.891  27.339  24.441  1.00  0.00     0.135 A 
ATOM     90  F   UNL A   1      50.550  26.584  27.941  1.00  0.00    -0.206 F 
ATOM     91  C   UNL A   1      51.962  26.439  26.073  1.00  0.00     0.059 A 
ATOM     92  C   UNL A   1      51.120  27.022  23.871  1.00  0.00     0.059 A 
ATOM     93  F   UNL A   1      48.913  27.771  23.630  1.00  0.00    -0.206 F 
ATOM     94  C   UNL A   1      52.154  26.583  24.697  1.00  0.00     0.060 A 
BRANCH  94  95
ATOM     95  S   UNL A   1      53.766  26.166  24.000  1.00  0.00     0.124 S 
ATOM     96  O   UNL A   1      53.443  26.006  22.587  1.00  0.00    -0.237 OA
ATOM     97  O   UNL A   1      54.565  27.341  24.339  1.00  0.00    -0.237 OA
ATOM     98  O   UNL A   1      54.134  24.940  24.703  1.00  0.00    -0.744 OA
ENDBRANCH  94  95
ENDBRANCH  62  87
ENDBRANCH  36  37
ENDBRANCH  28  31
ENDBRANCH  26  27
ENDBRANCH  25  26
ENDBRANCH   1  25
TORSDOF 18
ENDMDL
MODEL 2
REMARK VINA RESULT:     -12.3      0.930      8.292
REMARK SMILES O=C(CC1(NC(=O)C2(c3ccccc3)CC2)CCC1)NCCCCNC(=O)c1ccc(-c2c3nc(c(-c4c(F)cc(S(=O)(=O)[O-])cc4F)c4ccc([nH]4)c(-c4c(F)cc(S(=O)(=O)[O-])cc4F)c4nc(c(-c5c(F)cc(S(=O)(=O)[O-])cc5F)c5ccc2[nH]5)C=C4)C=C3)cc1
REMARK SMILES IDX 22 1 21 2 20 3 1 4 2 5 3 7 4 8 17 9 19 10 18 11 5 12 6 13
REMARK SMILES IDX 7 15 8 16 15 17 16 18 9 19 10 20 14 21 11 22 13 23 12 24
REMARK SMILES IDX 23 25 24 26 25 27 26 28 27 30 28 31 29 32 93 33 30 34 92 35
REMARK SMILES IDX 31 36 32 37 33 38 86 39 34 40 91 41 85 42 87 43 35 44 90 45
REMARK SMILES IDX 84 46 83 47 36 49 70 50 49 51 69 52 50 53 53 54 68 55 88 56
REMARK SMILES IDX 51 57 52 58 67 60 89 61 54 62 37 63 38 64 47 65 39 66 40 67
REMARK SMILES IDX 46 68 48 69 41 70 42 71 43 72 44 73 45 74 71 75 72 76 81 77
REMARK SMILES IDX 73 78 74 79 80 80 82 81 75 82 76 83 77 84 78 85 79 86 55 87
REMARK SMILES IDX 56 88 65 89 57 90 58 91 64 92 66 93 59 94 60 95 61 96 62 97
REMARK SMILES IDX 63 98
REMARK H PARENT 20 6 5 14 25 29 87 48 53 59
REMARK Flexibility Score: inf
ROOT
ATOM      1  C   UNL A   1      35.365  31.215  27.766  1.00  0.00     0.023 C 
ENDROOT
BRANCH   1   2
ATOM      2  C   UNL A   1      34.037  30.745  27.173  1.00  0.00     0.116 C 
BRANCH   2   3
ATOM      3  N   UNL A   1      34.198  29.726  26.146  1.00  0.00    -0.356 N 
ATOM      4  O   UNL A   1      33.256  28.196  27.241  1.00  0.00    -0.275 OA
ATOM      5  C   UNL A   1      33.295  28.577  26.020  1.00  0.00     0.222 C 
ATOM      6  H   UNL A   1      34.943  29.813  25.510  1.00  0.00     0.163 HD
BRANCH   5   7
ATOM      7  C   UNL A   1      32.377  27.667  24.285  1.00  0.00     0.128 C 
BRANCH   7   8
ATOM      8  C   UNL A   1      31.111  27.120  23.515  1.00  0.00     0.049 C 
ATOM      9  C   UNL A   1      30.204  25.901  23.895  1.00  0.00     0.029 C 
ATOM     10  C   UNL A   1      29.818  27.936  23.193  1.00  0.00     0.029 C 
ATOM     11  C   UNL A   1      28.958  26.777  23.713  1.00  0.00     0.005 C 
BRANCH   8  12
ATOM     12  N   UNL A   1      31.884  26.764  22.099  1.00  0.00    -0.349 N 
ATOM     13  C   UNL A   1      32.738  25.654  21.744  1.00  0.00     0.231 C 
ATOM     14  H   UNL A   1      31.739  27.416  21.376  1.00  0.00     0.164 HD
ATOM     15  O   UNL A   1      33.152  25.668  20.579  1.00  0.00    -0.274 OA
BRANCH  13  16
ATOM     16  C   UNL A   1      33.232  24.378  22.684  1.00  0.00     0.074 C 
ATOM     17  C   UNL A   1      32.143  23.371  23.050  1.00  0.00     0.023 C 
ATOM     18  C   UNL A   1      33.154  23.010  22.003  1.00  0.00     0.023 C 
BRANCH  16  19
ATOM     19  C   UNL A   1      34.443  24.495  23.800  1.00  0.00    -0.032 A 
ATOM     20  C   UNL A   1      35.756  23.256  23.474  1.00  0.00     0.005 A 
ATOM     21  C   UNL A   1      33.747  24.659  25.477  1.00  0.00     0.005 A 
ATOM     22  C   UNL A   1      36.055  21.973  24.699  1.00  0.00     0.000 A 
ATOM     23  C   UNL A   1      34.000  23.316  26.660  1.00  0.00     0.000 A 
ATOM     24  C   UNL A   1      35.144  21.953  26.261  1.00  0.00     0.000 A 
ENDBRANCH  16  19
ENDBRANCH  13  16
ENDBRANCH   8  12
ENDBRANCH   7   8
ENDBRANCH   5   7
ENDBRANCH   2   3
ENDBRANCH   1   2
BRANCH   1  25
ATOM     25  C   UNL A   1      35.315  32.529  28.558  1.00  0.00     0.023 C 
BRANCH  25  26
ATOM     26  C   UNL A   1      36.419  32.690  29.599  1.00  0.00     0.116 C 
BRANCH  26  27
ATOM     27  N   UNL A   1      36.142  31.903  30.787  1.00  0.00    -0.352 N 
ATOM     28  C   UNL A   1      36.769  30.761  31.223  1.00  0.00     0.251 C 
ATOM     29  H   UNL A   1      35.408  32.231  31.355  1.00  0.00     0.163 HD
ATOM     30  O   UNL A   1      36.223  30.040  32.054  1.00  0.00    -0.269 OA
BRANCH  28  31
ATOM     31  C   UNL A   1      38.100  30.399  30.686  1.00  0.00     0.039 A 
ATOM     32  C   UNL A   1      39.168  30.215  31.567  1.00  0.00     0.014 A 
ATOM     33  C   UNL A   1      38.301  30.275  29.307  1.00  0.00     0.014 A 
ATOM     34  C   UNL A   1      40.425  29.861  31.068  1.00  0.00     0.010 A 
ATOM     35  C   UNL A   1      39.534  29.849  28.818  1.00  0.00     0.010 A 
ATOM     36  C   UNL A   1      40.613  29.648  29.692  1.00  0.00    -0.014 A 
BRANCH  36  37
ATOM     37  C   UNL A   1      41.934  29.229  29.150  1.00  0.00     0.031 A 
ATOM     38  C   UNL A   1      43.052  30.230  29.016  1.00  0.00     0.074 A 
ATOM     39  C   UNL A   1      42.113  27.960  28.731  1.00  0.00     0.049 A 
ATOM     40  N   UNL A   1      44.252  30.069  28.519  1.00  0.00    -0.248 NA
ATOM     41  C   UNL A   1      42.777  31.601  29.478  1.00  0.00     0.031 C 
ATOM     42  C   UNL A   1      41.096  26.907  28.769  1.00  0.00     0.029 A 
ATOM     43  N   UNL A   1      43.210  27.341  28.184  1.00  0.00    -0.354 N 
ATOM     44  C   UNL A   1      44.868  31.313  28.598  1.00  0.00     0.074 A 
ATOM     45  C   UNL A   1      43.891  32.233  29.138  1.00  0.00     0.031 C 
ATOM     46  C   UNL A   1      41.623  25.768  28.290  1.00  0.00     0.029 A 
ATOM     47  C   UNL A   1      42.999  26.017  27.872  1.00  0.00     0.049 A 
ATOM     48  H   UNL A   1      44.066  27.801  28.029  1.00  0.00     0.167 HD
ATOM     49  C   UNL A   1      46.139  31.652  28.274  1.00  0.00     0.037 A 
ATOM     50  C   UNL A   1      43.817  25.108  27.306  1.00  0.00     0.037 A 
ATOM     51  C   UNL A   1      47.113  30.725  27.757  1.00  0.00     0.049 A 
ATOM     52  C   UNL A   1      45.220  25.514  26.940  1.00  0.00     0.074 A 
ATOM     53  C   UNL A   1      48.443  30.958  27.450  1.00  0.00     0.029 A 
ATOM     54  N   UNL A   1      46.863  29.392  27.464  1.00  0.00    -0.354 N 
ATOM     55  N   UNL A   1      45.806  26.679  27.083  1.00  0.00    -0.248 NA
ATOM     56  C   UNL A   1      46.076  24.480  26.342  1.00  0.00     0.031 C 
ATOM     57  C   UNL A   1      48.982  29.781  26.919  1.00  0.00     0.029 A 
ATOM     58  C   UNL A   1      48.007  28.797  26.954  1.00  0.00     0.049 A 
ATOM     59  H   UNL A   1      46.002  28.935  27.599  1.00  0.00     0.167 HD
ATOM     60  C   UNL A   1      47.107  26.510  26.622  1.00  0.00     0.074 A 
ATOM     61  C   UNL A   1      47.226  25.127  26.207  1.00  0.00     0.031 C 
ATOM     62  C   UNL A   1      48.114  27.416  26.551  1.00  0.00     0.037 A 
BRANCH  49  63
ATOM     63  C   UNL A   1      46.555  33.087  28.469  1.00  0.00     0.058 A 
ATOM     64  C   UNL A   1      46.423  34.041  27.447  1.00  0.00     0.135 A 
ATOM     65  C   UNL A   1      47.053  33.523  29.708  1.00  0.00     0.135 A 
ATOM     66  F   UNL A   1      45.966  33.679  26.238  1.00  0.00    -0.206 F 
ATOM     67  C   UNL A   1      46.799  35.368  27.636  1.00  0.00     0.059 A 
ATOM     68  C   UNL A   1      47.405  34.852  29.930  1.00  0.00     0.059 A 
ATOM     69  F   UNL A   1      47.201  32.655  30.721  1.00  0.00    -0.206 F 
ATOM     70  C   UNL A   1      47.287  35.764  28.882  1.00  0.00     0.060 A 
BRANCH  70  71
ATOM     71  S   UNL A   1      47.764  37.489  29.111  1.00  0.00     0.124 S 
ATOM     72  O   UNL A   1      46.472  38.116  29.374  1.00  0.00    -0.237 OA
ATOM     73  O   UNL A   1      48.674  37.413  30.249  1.00  0.00    -0.237 OA
ATOM     74  O   UNL A   1      48.384  37.843  27.837  1.00  0.00    -0.744 OA
ENDBRANCH  70  71
ENDBRANCH  49  63
BRANCH  50  75
ATOM     75  C   UNL A   1      43.335  23.721  27.065  1.00  0.00     0.058 A 
ATOM     76  C   UNL A   1      42.943  23.302  25.785  1.00  0.00     0.135 A 
ATOM     77  C   UNL A   1      43.264  22.783  28.108  1.00  0.00     0.135 A 
ATOM     78  F   UNL A   1      42.985  24.162  24.756  1.00  0.00    -0.206 F 
ATOM     79  C   UNL A   1      42.481  22.011  25.549  1.00  0.00     0.059 A 
ATOM     80  C   UNL A   1      42.834  21.479  27.892  1.00  0.00     0.059 A 
ATOM     81  F   UNL A   1      43.644  23.127  29.348  1.00  0.00    -0.206 F 
ATOM     82  C   UNL A   1      42.433  21.105  26.609  1.00  0.00     0.060 A 
BRANCH  82  83
ATOM     83  S   UNL A   1      41.874  19.419  26.283  1.00  0.00     0.124 S 
ATOM     84  O   UNL A   1      42.564  19.117  25.034  1.00  0.00    -0.237 OA
ATOM     85  O   UNL A   1      42.348  18.707  27.465  1.00  0.00    -0.237 OA
ATOM     86  O   UNL A   1      40.424  19.561  26.185  1.00  0.00    -0.744 OA
ENDBRANCH  82  83
ENDBRANCH  50  75
BRANCH  62  87
ATOM     87  C   UNL A   1      49.447  26.938  26.041  1.00  0.00     0.058 A 
ATOM     88  C   UNL A   1      49.838  27.117  24.705  1.00  0.00     0.135 A 
ATOM     89  C   UNL A   1      50.367  26.339  26.918  1.00  0.00     0.135 A 
ATOM     90  F   UNL A   1      48.995  27.677  23.823  1.00  0.00    -0.206 F 
ATOM     91  C   UNL A   1      51.084  26.696  24.250  1.00  0.00     0.059 A 
ATOM     92  C   UNL A   1      51.630  25.941  26.493  1.00  0.00     0.059 A 
ATOM     93  F   UNL A   1      50.049  26.153  28.209  1.00  0.00    -0.206 F 
ATOM     94  C   UNL A   1      51.975  26.113  25.153  1.00  0.00     0.060 A 
BRANCH  94  95
ATOM     95  S   UNL A   1      53.602  25.606  24.556  1.00  0.00     0.124 S 
ATOM     96  O   UNL A   1      53.539  26.007  23.155  1.00  0.00    -0.237 OA
ATOM     97  O   UNL A   1      54.500  26.387  25.400  1.00  0.00    -0.237 OA
ATOM     98  O   UNL A   1      53.618  24.166  24.797  1.00  0.00    -0.744 OA
ENDBRANCH  94  95
ENDBRANCH  62  87
ENDBRANCH  36  37
ENDBRANCH  28  31
ENDBRANCH  26  27
ENDBRANCH  25  26
ENDBRANCH   1  25
TORSDOF 18
ENDMDL
MODEL 3
REMARK VINA RESULT:     -12.1      6.528     11.810
REMARK SMILES O=C(CC1(NC(=O)C2(c3ccccc3)CC2)CCC1)NCCCCNC(=O)c1ccc(-c2c3nc(c(-c4c(F)cc(S(=O)(=O)[O-])cc4F)c4ccc([nH]4)c(-c4c(F)cc(S(=O)(=O)[O-])cc4F)c4nc(c(-c5c(F)cc(S(=O)(=O)[O-])cc5F)c5ccc2[nH]5)C=C4)C=C3)cc1
REMARK SMILES IDX 22 1 21 2 20 3 1 4 2 5 3 7 4 8 17 9 19 10 18 11 5 12 6 13
REMARK SMILES IDX 7 15 8 16 15 17 16 18 9 19 10 20 14 21 11 22 13 23 12 24
REMARK SMILES IDX 23 25 24 26 25 27 26 28 27 30 28 31 29 32 93 33 30 34 92 35
REMARK SMILES IDX 31 36 32 37 33 38 86 39 34 40 91 41 85 42 87 43 35 44 90 45
REMARK SMILES IDX 84 46 83 47 36 49 70 50 49 51 69 52 50 53 53 54 68 55 88 56
REMARK SMILES IDX 51 57 52 58 67 60 89 61 54 62 37 63 38 64 47 65 39 66 40 67
REMARK SMILES IDX 46 68 48 69 41 70 42 71 43 72 44 73 45 74 71 75 72 76 81 77
REMARK SMILES IDX 73 78 74 79 80 80 82 81 75 82 76 83 77 84 78 85 79 86 55 87
REMARK SMILES IDX 56 88 65 89 57 90 58 91 64 92 66 93 59 94 60 95 61 96 62 97
REMARK SMILES IDX 63 98
REMARK H PARENT 20 6 5 14 25 29 87 48 53 59
REMARK Flexibility Score: inf
ROOT
ATOM      1  C   UNL A   1      40.029  21.375  26.866  1.00  0.00     0.023 C 
ENDROOT
BRANCH   1   2
ATOM      2  C   UNL A   1      39.040  21.649  25.732  1.00  0.00     0.116 C 
BRANCH   2   3
ATOM      3  N   UNL A   1      37.766  22.174  26.199  1.00  0.00    -0.356 N 
ATOM      4  O   UNL A   1      38.232  24.189  25.810  1.00  0.00    -0.275 OA
ATOM      5  C   UNL A   1      37.201  23.436  25.711  1.00  0.00     0.222 C 
ATOM      6  H   UNL A   1      37.262  21.659  26.869  1.00  0.00     0.163 HD
BRANCH   5   7
ATOM      7  C   UNL A   1      35.190  23.964  25.112  1.00  0.00     0.128 C 
BRANCH   7   8
ATOM      8  C   UNL A   1      33.687  23.579  24.816  1.00  0.00     0.049 C 
ATOM      9  C   UNL A   1      33.119  22.192  24.362  1.00  0.00     0.029 C 
ATOM     10  C   UNL A   1      32.502  23.692  25.828  1.00  0.00     0.029 C 
ATOM     11  C   UNL A   1      32.057  22.269  25.467  1.00  0.00     0.005 C 
BRANCH   8  12
ATOM     12  N   UNL A   1      33.447  24.659  23.589  1.00  0.00    -0.349 N 
ATOM     13  C   UNL A   1      33.128  26.067  23.622  1.00  0.00     0.231 C 
ATOM     14  H   UNL A   1      33.535  24.280  22.685  1.00  0.00     0.164 HD
ATOM     15  O   UNL A   1      33.029  26.604  22.512  1.00  0.00    -0.274 OA
BRANCH  13  16
ATOM     16  C   UNL A   1      32.880  27.048  24.938  1.00  0.00     0.074 C 
ATOM     17  C   UNL A   1      33.827  26.823  26.115  1.00  0.00     0.023 C 
ATOM     18  C   UNL A   1      34.020  28.024  25.237  1.00  0.00     0.023 C 
BRANCH  16  19
ATOM     19  C   UNL A   1      31.391  27.616  25.372  1.00  0.00    -0.032 A 
ATOM     20  C   UNL A   1      30.097  26.348  25.083  1.00  0.00     0.005 A 
ATOM     21  C   UNL A   1      31.154  29.313  24.751  1.00  0.00     0.005 A 
ATOM     22  C   UNL A   1      28.812  26.688  23.871  1.00  0.00     0.000 A 
ATOM     23  C   UNL A   1      29.905  29.606  23.476  1.00  0.00     0.000 A 
ATOM     24  C   UNL A   1      28.741  28.281  23.017  1.00  0.00     0.000 A 
ENDBRANCH  16  19
ENDBRANCH  13  16
ENDBRANCH   8  12
ENDBRANCH   7   8
ENDBRANCH   5   7
ENDBRANCH   2   3
ENDBRANCH   1   2
BRANCH   1  25
ATOM     25  C   UNL A   1      40.405  22.585  27.731  1.00  0.00     0.023 C 
BRANCH  25  26
ATOM     26  C   UNL A   1      41.827  23.100  27.527  1.00  0.00     0.116 C 
BRANCH  26  27
ATOM     27  N   UNL A   1      41.930  23.901  26.321  1.00  0.00    -0.352 N 
ATOM     28  C   UNL A   1      41.594  25.220  26.137  1.00  0.00     0.251 C 
ATOM     29  H   UNL A   1      42.290  23.437  25.530  1.00  0.00     0.163 HD
ATOM     30  O   UNL A   1      41.434  25.660  25.002  1.00  0.00    -0.269 OA
BRANCH  28  31
ATOM     31  C   UNL A   1      41.418  26.107  27.310  1.00  0.00     0.039 A 
ATOM     32  C   UNL A   1      42.454  26.969  27.677  1.00  0.00     0.014 A 
ATOM     33  C   UNL A   1      40.243  26.062  28.066  1.00  0.00     0.014 A 
ATOM     34  C   UNL A   1      42.291  27.818  28.776  1.00  0.00     0.010 A 
ATOM     35  C   UNL A   1      40.054  26.961  29.113  1.00  0.00     0.010 A 
ATOM     36  C   UNL A   1      41.080  27.842  29.487  1.00  0.00    -0.014 A 
BRANCH  36  37
ATOM     37  C   UNL A   1      40.876  28.771  30.631  1.00  0.00     0.031 A 
ATOM     38  C   UNL A   1      41.701  28.626  31.884  1.00  0.00     0.074 A 
ATOM     39  C   UNL A   1      39.913  29.713  30.564  1.00  0.00     0.049 A 
ATOM     40  N   UNL A   1      41.632  29.302  33.002  1.00  0.00    -0.248 NA
ATOM     41  C   UNL A   1      42.720  27.563  31.890  1.00  0.00     0.031 C 
ATOM     42  C   UNL A   1      39.020  29.927  29.424  1.00  0.00     0.029 A 
ATOM     43  N   UNL A   1      39.520  30.661  31.476  1.00  0.00    -0.354 N 
ATOM     44  C   UNL A   1      42.587  28.743  33.844  1.00  0.00     0.074 A 
ATOM     45  C   UNL A   1      43.182  27.634  33.130  1.00  0.00     0.031 C 
ATOM     46  C   UNL A   1      38.200  30.957  29.695  1.00  0.00     0.029 A 
ATOM     47  C   UNL A   1      38.479  31.448  31.041  1.00  0.00     0.049 A 
ATOM     48  H   UNL A   1      39.941  30.766  32.359  1.00  0.00     0.167 HD
ATOM     49  C   UNL A   1      42.953  29.132  35.090  1.00  0.00     0.037 A 
ATOM     50  C   UNL A   1      37.816  32.447  31.656  1.00  0.00     0.037 A 
ATOM     51  C   UNL A   1      42.370  30.251  35.787  1.00  0.00     0.049 A 
ATOM     52  C   UNL A   1      38.230  32.851  33.047  1.00  0.00     0.074 A 
ATOM     53  C   UNL A   1      42.708  30.760  37.028  1.00  0.00     0.029 A 
ATOM     54  N   UNL A   1      41.325  31.028  35.308  1.00  0.00    -0.354 N 
ATOM     55  N   UNL A   1      39.180  32.353  33.802  1.00  0.00    -0.248 NA
ATOM     56  C   UNL A   1      37.488  33.958  33.666  1.00  0.00     0.031 C 
ATOM     57  C   UNL A   1      41.832  31.809  37.325  1.00  0.00     0.029 A 
ATOM     58  C   UNL A   1      40.988  31.996  36.242  1.00  0.00     0.049 A 
ATOM     59  H   UNL A   1      40.888  30.911  34.434  1.00  0.00     0.167 HD
ATOM     60  C   UNL A   1      39.169  33.105  34.973  1.00  0.00     0.074 A 
ATOM     61  C   UNL A   1      38.127  34.099  34.819  1.00  0.00     0.031 C 
ATOM     62  C   UNL A   1      39.952  32.985  36.073  1.00  0.00     0.037 A 
BRANCH  49  63
ATOM     63  C   UNL A   1      44.033  28.346  35.783  1.00  0.00     0.058 A 
ATOM     64  C   UNL A   1      45.394  28.660  35.628  1.00  0.00     0.135 A 
ATOM     65  C   UNL A   1      43.703  27.288  36.647  1.00  0.00     0.135 A 
ATOM     66  F   UNL A   1      45.770  29.650  34.804  1.00  0.00    -0.206 F 
ATOM     67  C   UNL A   1      46.388  27.935  36.279  1.00  0.00     0.059 A 
ATOM     68  C   UNL A   1      44.680  26.571  37.334  1.00  0.00     0.059 A 
ATOM     69  F   UNL A   1      42.420  26.943  36.834  1.00  0.00    -0.206 F 
ATOM     70  C   UNL A   1      46.020  26.893  37.132  1.00  0.00     0.060 A 
BRANCH  70  71
ATOM     71  S   UNL A   1      47.323  25.969  37.972  1.00  0.00     0.124 S 
ATOM     72  O   UNL A   1      46.863  26.014  39.358  1.00  0.00    -0.237 OA
ATOM     73  O   UNL A   1      47.248  24.665  37.323  1.00  0.00    -0.237 OA
ATOM     74  O   UNL A   1      48.528  26.742  37.687  1.00  0.00    -0.744 OA
ENDBRANCH  70  71
ENDBRANCH  49  63
BRANCH  50  75
ATOM     75  C   UNL A   1      36.705  33.146  30.957  1.00  0.00     0.058 A 
ATOM     76  C   UNL A   1      36.960  34.074  29.936  1.00  0.00     0.135 A 
ATOM     77  C   UNL A   1      35.363  32.896  31.290  1.00  0.00     0.135 A 
ATOM     78  F   UNL A   1      38.224  34.353  29.586  1.00  0.00    -0.206 F 
ATOM     79  C   UNL A   1      35.930  34.742  29.282  1.00  0.00     0.059 A 
ATOM     80  C   UNL A   1      34.315  33.529  30.631  1.00  0.00     0.059 A 
ATOM     81  F   UNL A   1      35.062  32.006  32.247  1.00  0.00    -0.206 F 
ATOM     82  C   UNL A   1      34.609  34.460  29.635  1.00  0.00     0.060 A 
BRANCH  82  83
ATOM     83  S   UNL A   1      33.278  35.300  28.749  1.00  0.00     0.124 S 
ATOM     84  O   UNL A   1      32.677  34.198  28.007  1.00  0.00    -0.237 OA
ATOM     85  O   UNL A   1      32.481  35.845  29.843  1.00  0.00    -0.237 OA
ATOM     86  O   UNL A   1      33.986  36.292  27.944  1.00  0.00    -0.744 OA
ENDBRANCH  82  83
ENDBRANCH  50  75
BRANCH  62  87
ATOM     87  C   UNL A   1      39.743  33.975  37.188  1.00  0.00     0.058 A 
ATOM     88  C   UNL A   1      38.881  33.712  38.262  1.00  0.00     0.135 A 
ATOM     89  C   UNL A   1      40.461  35.183  37.205  1.00  0.00     0.135 A 
ATOM     90  F   UNL A   1      38.166  32.576  38.293  1.00  0.00    -0.206 F 
ATOM     91  C   UNL A   1      38.716  34.622  39.302  1.00  0.00     0.059 A 
ATOM     92  C   UNL A   1      40.337  36.092  38.250  1.00  0.00     0.059 A 
ATOM     93  F   UNL A   1      41.309  35.482  36.208  1.00  0.00    -0.206 F 
ATOM     94  C   UNL A   1      39.452  35.808  39.290  1.00  0.00     0.060 A 
BRANCH  94  95
ATOM     95  S   UNL A   1      39.256  36.962  40.664  1.00  0.00     0.124 S 
ATOM     96  O   UNL A   1      38.730  36.090  41.708  1.00  0.00    -0.237 OA
ATOM     97  O   UNL A   1      40.620  37.442  40.864  1.00  0.00    -0.237 OA
ATOM     98  O   UNL A   1      38.318  37.953  40.144  1.00  0.00    -0.744 OA
ENDBRANCH  94  95
ENDBRANCH  62  87
ENDBRANCH  36  37
ENDBRANCH  28  31
ENDBRANCH  26  27
ENDBRANCH  25  26
ENDBRANCH   1  25
TORSDOF 18
ENDMDL
