MODEL 1
REMARK VINA RESULT:      -9.0      0.000      0.000
REMARK SMILES CC(C)Cc1ccc([C@@H]2CC[NH2+][C@H]2C(=O)NCCCCNC(=O)c2ccc(-c3c4nc(c(-c5c(F)cc(S(=O)(=O)[O-])cc5F)c5ccc([nH]5)c(-c5c(F)cc(S(=O)(=O)[O-])cc5F)c5nc(c(-c6c(F)cc(S(=O)(=O)[O-])cc6F)c6ccc3[nH]6)C=C5)C=C4)cc2)cc1
REMARK SMILES IDX 18 1 17 2 16 3 14 4 15 5 13 7 9 8 10 9 11 10 12 11 8 14 5 15
REMARK SMILES IDX 6 16 91 17 7 18 90 19 4 20 2 21 1 22 3 23 19 24 20 25 21 26
REMARK SMILES IDX 22 27 23 29 24 30 25 31 89 32 26 33 88 34 27 35 28 36 29 37
REMARK SMILES IDX 82 38 30 39 87 40 81 41 83 42 31 43 86 44 80 45 79 46 32 48
REMARK SMILES IDX 66 49 45 50 65 51 46 52 49 53 64 54 84 55 47 56 48 57 63 59
REMARK SMILES IDX 85 60 50 61 33 62 34 63 43 64 35 65 36 66 42 67 44 68 37 69
REMARK SMILES IDX 38 70 39 71 40 72 41 73 67 74 68 75 77 76 69 77 70 78 76 79
REMARK SMILES IDX 78 80 71 81 72 82 73 83 74 84 75 85 51 86 52 87 61 88 53 89
REMARK SMILES IDX 54 90 60 91 62 92 55 93 56 94 57 95 58 96 59 97
REMARK H PARENT 16 6 12 12 12 13 21 28 83 47 49 58
REMARK Flexibility Score: inf
ROOT
ATOM      1  C   UNL A   1      35.807  33.338  30.200  1.00  0.00     0.023 C 
ENDROOT
BRANCH   1   2
ATOM      2  C   UNL A   1      36.299  32.878  31.570  1.00  0.00     0.116 C 
BRANCH   2   3
ATOM      3  N   UNL A   1      37.508  33.568  31.974  1.00  0.00    -0.351 N 
ATOM      4  C   UNL A   1      38.556  33.192  32.763  1.00  0.00     0.278 C 
ATOM      5  O   UNL A   1      39.420  34.049  32.973  1.00  0.00    -0.268 OA
ATOM      6  H   UNL A   1      37.588  34.478  31.610  1.00  0.00     0.163 HD
BRANCH   4   7
ATOM      7  C   UNL A   1      38.685  31.785  33.389  1.00  0.00     0.280 C 
ATOM      8  C   UNL A   1      40.005  31.563  34.141  1.00  0.00     0.093 C 
ATOM      9  C   UNL A   1      39.590  31.356  35.598  1.00  0.00     0.076 C 
ATOM     10  C   UNL A   1      38.121  30.969  35.555  1.00  0.00     0.262 C 
ATOM     11  N   UNL A   1      37.558  31.477  34.307  1.00  0.00    -0.335 N 
ATOM     12  H   UNL A   1      37.019  32.324  34.489  1.00  0.00     0.346 HD
ATOM     13  H   UNL A   1      36.938  30.783  33.888  1.00  0.00     0.346 HD
BRANCH   8  14
ATOM     14  C   UNL A   1      40.798  30.377  33.612  1.00  0.00    -0.038 A 
ATOM     15  C   UNL A   1      42.291  28.184  32.630  1.00  0.00    -0.048 A 
ATOM     16  C   UNL A   1      42.935  29.287  33.204  1.00  0.00     0.004 A 
ATOM     17  C   UNL A   1      40.895  28.178  32.580  1.00  0.00     0.004 A 
ATOM     18  C   UNL A   1      42.197  30.373  33.690  1.00  0.00     0.004 A 
ATOM     19  C   UNL A   1      40.161  29.267  33.043  1.00  0.00     0.004 A 
BRANCH  15  20
ATOM     20  C   UNL A   1      43.088  27.021  32.087  1.00  0.00     0.038 C 
BRANCH  20  21
ATOM     21  C   UNL A   1      44.048  26.376  33.110  1.00  0.00    -0.013 C 
ATOM     22  C   UNL A   1      43.322  25.969  34.396  1.00  0.00     0.008 C 
ATOM     23  C   UNL A   1      44.739  25.161  32.491  1.00  0.00     0.008 C 
ENDBRANCH  20  21
ENDBRANCH  15  20
ENDBRANCH   8  14
ENDBRANCH   4   7
ENDBRANCH   2   3
ENDBRANCH   1   2
BRANCH   1  24
ATOM     24  C   UNL A   1      34.488  32.709  29.754  1.00  0.00     0.023 C 
BRANCH  24  25
ATOM     25  C   UNL A   1      34.385  32.406  28.261  1.00  0.00     0.116 C 
BRANCH  25  26
ATOM     26  N   UNL A   1      33.800  31.106  27.965  1.00  0.00    -0.352 N 
ATOM     27  C   UNL A   1      34.434  29.887  27.922  1.00  0.00     0.251 C 
ATOM     28  H   UNL A   1      32.834  31.099  27.774  1.00  0.00     0.163 HD
ATOM     29  O   UNL A   1      33.826  28.878  27.576  1.00  0.00    -0.269 OA
BRANCH  27  30
ATOM     30  C   UNL A   1      35.871  29.824  28.251  1.00  0.00     0.039 A 
ATOM     31  C   UNL A   1      36.251  29.461  29.545  1.00  0.00     0.014 A 
ATOM     32  C   UNL A   1      36.830  30.039  27.259  1.00  0.00     0.014 A 
ATOM     33  C   UNL A   1      37.599  29.234  29.825  1.00  0.00     0.010 A 
ATOM     34  C   UNL A   1      38.165  29.754  27.524  1.00  0.00     0.010 A 
ATOM     35  C   UNL A   1      38.559  29.337  28.806  1.00  0.00    -0.014 A 
BRANCH  35  36
ATOM     36  C   UNL A   1      39.982  28.993  29.045  1.00  0.00     0.031 A 
ATOM     37  C   UNL A   1      40.931  30.042  29.550  1.00  0.00     0.074 A 
ATOM     38  C   UNL A   1      40.434  27.767  28.715  1.00  0.00     0.049 A 
ATOM     39  N   UNL A   1      42.227  29.975  29.708  1.00  0.00    -0.248 NA
ATOM     40  C   UNL A   1      40.348  31.349  29.895  1.00  0.00     0.031 C 
ATOM     41  C   UNL A   1      39.619  26.683  28.163  1.00  0.00     0.029 A 
ATOM     42  N   UNL A   1      41.697  27.233  28.777  1.00  0.00    -0.354 N 
ATOM     43  C   UNL A   1      42.620  31.233  30.144  1.00  0.00     0.074 A 
ATOM     44  C   UNL A   1      41.429  32.056  30.192  1.00  0.00     0.031 C 
ATOM     45  C   UNL A   1      40.399  25.611  27.948  1.00  0.00     0.029 A 
ATOM     46  C   UNL A   1      41.773  25.940  28.314  1.00  0.00     0.049 A 
ATOM     47  H   UNL A   1      42.474  27.728  29.121  1.00  0.00     0.167 HD
ATOM     48  C   UNL A   1      43.857  31.659  30.490  1.00  0.00     0.037 A 
ATOM     49  C   UNL A   1      42.832  25.119  28.189  1.00  0.00     0.037 A 
ATOM     50  C   UNL A   1      45.030  30.825  30.480  1.00  0.00     0.049 A 
ATOM     51  C   UNL A   1      44.191  25.603  28.612  1.00  0.00     0.074 A 
ATOM     52  C   UNL A   1      46.316  31.143  30.878  1.00  0.00     0.029 A 
ATOM     53  N   UNL A   1      45.057  29.507  30.051  1.00  0.00    -0.354 N 
ATOM     54  N   UNL A   1      44.535  26.780  29.078  1.00  0.00    -0.248 NA
ATOM     55  C   UNL A   1      45.304  24.651  28.497  1.00  0.00     0.031 C 
ATOM     56  C   UNL A   1      47.127  30.022  30.667  1.00  0.00     0.029 A 
ATOM     57  C   UNL A   1      46.340  28.998  30.167  1.00  0.00     0.049 A 
ATOM     58  H   UNL A   1      44.279  29.005  29.715  1.00  0.00     0.167 HD
ATOM     59  C   UNL A   1      45.900  26.702  29.331  1.00  0.00     0.074 A 
ATOM     60  C   UNL A   1      46.317  25.362  28.975  1.00  0.00     0.031 C 
ATOM     61  C   UNL A   1      46.731  27.656  29.817  1.00  0.00     0.037 A 
BRANCH  48  62
ATOM     62  C   UNL A   1      44.000  33.092  30.920  1.00  0.00     0.058 A 
ATOM     63  C   UNL A   1      44.166  33.439  32.270  1.00  0.00     0.135 A 
ATOM     64  C   UNL A   1      43.992  34.126  29.971  1.00  0.00     0.135 A 
ATOM     65  F   UNL A   1      44.164  32.489  33.218  1.00  0.00    -0.206 F 
ATOM     66  C   UNL A   1      44.287  34.766  32.668  1.00  0.00     0.059 A 
ATOM     67  C   UNL A   1      44.136  35.459  30.345  1.00  0.00     0.059 A 
ATOM     68  F   UNL A   1      43.834  33.847  28.668  1.00  0.00    -0.206 F 
ATOM     69  C   UNL A   1      44.266  35.769  31.698  1.00  0.00     0.060 A 
BRANCH  69  70
ATOM     70  S   UNL A   1      44.419  37.488  32.228  1.00  0.00     0.124 S 
ATOM     71  O   UNL A   1      44.133  38.201  30.987  1.00  0.00    -0.237 OA
ATOM     72  O   UNL A   1      43.397  37.590  33.266  1.00  0.00    -0.237 OA
ATOM     73  O   UNL A   1      45.797  37.575  32.701  1.00  0.00    -0.744 OA
ENDBRANCH  69  70
ENDBRANCH  48  62
BRANCH  49  74
ATOM     74  C   UNL A   1      42.643  23.743  27.662  1.00  0.00     0.058 A 
ATOM     75  C   UNL A   1      42.688  23.489  26.284  1.00  0.00     0.135 A 
ATOM     76  C   UNL A   1      42.437  22.653  28.523  1.00  0.00     0.135 A 
ATOM     77  F   UNL A   1      42.878  24.501  25.423  1.00  0.00    -0.206 F 
ATOM     78  C   UNL A   1      42.526  22.206  25.773  1.00  0.00     0.059 A 
ATOM     79  C   UNL A   1      42.291  21.358  28.038  1.00  0.00     0.059 A 
ATOM     80  F   UNL A   1      42.403  22.843  29.851  1.00  0.00    -0.206 F 
ATOM     81  C   UNL A   1      42.329  21.146  26.660  1.00  0.00     0.060 A 
BRANCH  81  82
ATOM     82  S   UNL A   1      42.177  19.473  25.993  1.00  0.00     0.124 S 
ATOM     83  O   UNL A   1      40.762  19.423  25.647  1.00  0.00    -0.237 OA
ATOM     84  O   UNL A   1      43.110  19.503  24.870  1.00  0.00    -0.237 OA
ATOM     85  O   UNL A   1      42.587  18.631  27.112  1.00  0.00    -0.744 OA
ENDBRANCH  81  82
ENDBRANCH  49  74
BRANCH  61  86
ATOM     86  C   UNL A   1      48.170  27.280  30.020  1.00  0.00     0.058 A 
ATOM     87  C   UNL A   1      49.142  27.544  29.045  1.00  0.00     0.135 A 
ATOM     88  C   UNL A   1      48.591  26.711  31.234  1.00  0.00     0.135 A 
ATOM     89  F   UNL A   1      48.787  28.080  27.866  1.00  0.00    -0.206 F 
ATOM     90  C   UNL A   1      50.484  27.248  29.260  1.00  0.00     0.059 A 
ATOM     91  C   UNL A   1      49.930  26.425  31.477  1.00  0.00     0.059 A 
ATOM     92  F   UNL A   1      47.698  26.447  32.201  1.00  0.00    -0.206 F 
ATOM     93  C   UNL A   1      50.868  26.691  30.481  1.00  0.00     0.060 A 
BRANCH  93  94
ATOM     94  S   UNL A   1      52.619  26.358  30.771  1.00  0.00     0.124 S 
ATOM     95  O   UNL A   1      53.115  26.187  29.409  1.00  0.00    -0.237 OA
ATOM     96  O   UNL A   1      53.060  27.569  31.458  1.00  0.00    -0.237 OA
ATOM     97  O   UNL A   1      52.603  25.151  31.592  1.00  0.00    -0.744 OA
ENDBRANCH  93  94
ENDBRANCH  61  86
ENDBRANCH  35  36
ENDBRANCH  27  30
ENDBRANCH  25  26
ENDBRANCH  24  25
ENDBRANCH   1  24
TORSDOF 17
ENDMDL
MODEL 2
REMARK VINA RESULT:      -8.9      3.854      6.889
REMARK SMILES CC(C)Cc1ccc([C@@H]2CC[NH2+][C@H]2C(=O)NCCCCNC(=O)c2ccc(-c3c4nc(c(-c5c(F)cc(S(=O)(=O)[O-])cc5F)c5ccc([nH]5)c(-c5c(F)cc(S(=O)(=O)[O-])cc5F)c5nc(c(-c6c(F)cc(S(=O)(=O)[O-])cc6F)c6ccc3[nH]6)C=C5)C=C4)cc2)cc1
REMARK SMILES IDX 18 1 17 2 16 3 14 4 15 5 13 7 9 8 10 9 11 10 12 11 8 14 5 15
REMARK SMILES IDX 6 16 91 17 7 18 90 19 4 20 2 21 1 22 3 23 19 24 20 25 21 26
REMARK SMILES IDX 22 27 23 29 24 30 25 31 89 32 26 33 88 34 27 35 28 36 29 37
REMARK SMILES IDX 82 38 30 39 87 40 81 41 83 42 31 43 86 44 80 45 79 46 32 48
REMARK SMILES IDX 66 49 45 50 65 51 46 52 49 53 64 54 84 55 47 56 48 57 63 59
REMARK SMILES IDX 85 60 50 61 33 62 34 63 43 64 35 65 36 66 42 67 44 68 37 69
REMARK SMILES IDX 38 70 39 71 40 72 41 73 67 74 68 75 77 76 69 77 70 78 76 79
REMARK SMILES IDX 78 80 71 81 72 82 73 83 74 84 75 85 51 86 52 87 61 88 53 89
REMARK SMILES IDX 54 90 60 91 62 92 55 93 56 94 57 95 58 96 59 97
REMARK H PARENT 16 6 12 12 12 13 21 28 83 47 49 58
REMARK Flexibility Score: inf
ROOT
ATOM      1  C   UNL A   1      33.417  27.984  24.754  1.00  0.00     0.023 C 
ENDROOT
BRANCH   1   2
ATOM      2  C   UNL A   1      32.506  27.940  23.529  1.00  0.00     0.116 C 
BRANCH   2   3
ATOM      3  N   UNL A   1      33.052  27.109  22.475  1.00  0.00    -0.351 N 
ATOM      4  C   UNL A   1      32.892  25.787  22.177  1.00  0.00     0.278 C 
ATOM      5  O   UNL A   1      33.558  25.352  21.232  1.00  0.00    -0.268 OA
ATOM      6  H   UNL A   1      33.649  27.588  21.858  1.00  0.00     0.163 HD
BRANCH   4   7
ATOM      7  C   UNL A   1      31.948  24.848  22.963  1.00  0.00     0.280 C 
ATOM      8  C   UNL A   1      32.544  24.338  24.283  1.00  0.00     0.093 C 
ATOM      9  C   UNL A   1      31.641  24.928  25.367  1.00  0.00     0.076 C 
ATOM     10  C   UNL A   1      30.344  25.296  24.667  1.00  0.00     0.262 C 
ATOM     11  N   UNL A   1      30.638  25.486  23.249  1.00  0.00    -0.335 N 
ATOM     12  H   UNL A   1      30.684  26.483  23.035  1.00  0.00     0.346 HD
ATOM     13  H   UNL A   1      29.905  25.067  22.675  1.00  0.00     0.346 HD
BRANCH   8  14
ATOM     14  C   UNL A   1      32.596  22.819  24.364  1.00  0.00    -0.038 A 
ATOM     15  C   UNL A   1      32.704  19.998  24.534  1.00  0.00    -0.048 A 
ATOM     16  C   UNL A   1      33.014  20.793  25.644  1.00  0.00     0.004 A 
ATOM     17  C   UNL A   1      32.312  20.628  23.350  1.00  0.00     0.004 A 
ATOM     18  C   UNL A   1      32.962  22.189  25.561  1.00  0.00     0.004 A 
ATOM     19  C   UNL A   1      32.279  22.017  23.260  1.00  0.00     0.004 A 
BRANCH  15  20
ATOM     20  C   UNL A   1      32.780  18.491  24.617  1.00  0.00     0.038 C 
BRANCH  20  21
ATOM     21  C   UNL A   1      33.960  17.872  23.836  1.00  0.00    -0.013 C 
ATOM     22  C   UNL A   1      35.281  18.003  24.598  1.00  0.00     0.008 C 
ATOM     23  C   UNL A   1      33.675  16.401  23.531  1.00  0.00     0.008 C 
ENDBRANCH  20  21
ENDBRANCH  15  20
ENDBRANCH   8  14
ENDBRANCH   4   7
ENDBRANCH   2   3
ENDBRANCH   1   2
BRANCH   1  24
ATOM     24  C   UNL A   1      32.693  28.229  26.077  1.00  0.00     0.023 C 
BRANCH  24  25
ATOM     25  C   UNL A   1      33.598  28.545  27.264  1.00  0.00     0.116 C 
BRANCH  25  26
ATOM     26  N   UNL A   1      33.541  29.935  27.693  1.00  0.00    -0.352 N 
ATOM     27  C   UNL A   1      34.545  30.686  28.257  1.00  0.00     0.251 C 
ATOM     28  H   UNL A   1      32.678  30.393  27.563  1.00  0.00     0.163 HD
ATOM     29  O   UNL A   1      34.328  31.829  28.647  1.00  0.00    -0.269 OA
BRANCH  27  30
ATOM     30  C   UNL A   1      35.876  30.072  28.430  1.00  0.00     0.039 A 
ATOM     31  C   UNL A   1      36.764  30.074  27.352  1.00  0.00     0.014 A 
ATOM     32  C   UNL A   1      36.266  29.577  29.677  1.00  0.00     0.014 A 
ATOM     33  C   UNL A   1      38.080  29.651  27.548  1.00  0.00     0.010 A 
ATOM     34  C   UNL A   1      37.591  29.213  29.884  1.00  0.00     0.010 A 
ATOM     35  C   UNL A   1      38.513  29.259  28.825  1.00  0.00    -0.014 A 
BRANCH  35  36
ATOM     36  C   UNL A   1      39.931  28.912  29.088  1.00  0.00     0.031 A 
ATOM     37  C   UNL A   1      40.868  29.955  29.628  1.00  0.00     0.074 A 
ATOM     38  C   UNL A   1      40.390  27.691  28.751  1.00  0.00     0.049 A 
ATOM     39  N   UNL A   1      42.161  29.886  29.811  1.00  0.00    -0.248 NA
ATOM     40  C   UNL A   1      40.278  31.256  29.979  1.00  0.00     0.031 C 
ATOM     41  C   UNL A   1      39.587  26.614  28.168  1.00  0.00     0.029 A 
ATOM     42  N   UNL A   1      41.652  27.157  28.833  1.00  0.00    -0.354 N 
ATOM     43  C   UNL A   1      42.544  31.138  30.272  1.00  0.00     0.074 A 
ATOM     44  C   UNL A   1      41.352  31.960  30.307  1.00  0.00     0.031 C 
ATOM     45  C   UNL A   1      40.372  25.546  27.954  1.00  0.00     0.029 A 
ATOM     46  C   UNL A   1      41.738  25.871  28.354  1.00  0.00     0.049 A 
ATOM     47  H   UNL A   1      42.422  27.647  29.199  1.00  0.00     0.167 HD
ATOM     48  C   UNL A   1      43.773  31.560  30.650  1.00  0.00     0.037 A 
ATOM     49  C   UNL A   1      42.800  25.051  28.239  1.00  0.00     0.037 A 
ATOM     50  C   UNL A   1      44.947  30.727  30.652  1.00  0.00     0.049 A 
ATOM     51  C   UNL A   1      44.150  25.530  28.697  1.00  0.00     0.074 A 
ATOM     52  C   UNL A   1      46.224  31.040  31.081  1.00  0.00     0.029 A 
ATOM     53  N   UNL A   1      44.983  29.414  30.206  1.00  0.00    -0.354 N 
ATOM     54  N   UNL A   1      44.484  26.700  29.186  1.00  0.00    -0.248 NA
ATOM     55  C   UNL A   1      45.266  24.580  28.592  1.00  0.00     0.031 C 
ATOM     56  C   UNL A   1      47.040  29.922  30.872  1.00  0.00     0.029 A 
ATOM     57  C   UNL A   1      46.264  28.904  30.341  1.00  0.00     0.049 A 
ATOM     58  H   UNL A   1      44.213  28.917  29.847  1.00  0.00     0.167 HD
ATOM     59  C   UNL A   1      45.843  26.620  29.466  1.00  0.00     0.074 A 
ATOM     60  C   UNL A   1      46.268  25.284  29.101  1.00  0.00     0.031 C 
ATOM     61  C   UNL A   1      46.664  27.567  29.982  1.00  0.00     0.037 A 
BRANCH  48  62
ATOM     62  C   UNL A   1      43.907  32.986  31.102  1.00  0.00     0.058 A 
ATOM     63  C   UNL A   1      44.061  34.035  30.182  1.00  0.00     0.135 A 
ATOM     64  C   UNL A   1      43.860  33.310  32.467  1.00  0.00     0.135 A 
ATOM     65  F   UNL A   1      44.129  33.777  28.867  1.00  0.00    -0.206 F 
ATOM     66  C   UNL A   1      44.196  35.354  30.602  1.00  0.00     0.059 A 
ATOM     67  C   UNL A   1      43.969  34.626  32.908  1.00  0.00     0.059 A 
ATOM     68  F   UNL A   1      43.716  32.344  33.387  1.00  0.00    -0.206 F 
ATOM     69  C   UNL A   1      44.153  35.639  31.968  1.00  0.00     0.060 A 
BRANCH  69  70
ATOM     70  S   UNL A   1      44.335  37.354  32.499  1.00  0.00     0.124 S 
ATOM     71  O   UNL A   1      43.237  37.479  33.453  1.00  0.00    -0.237 OA
ATOM     72  O   UNL A   1      45.677  37.367  33.074  1.00  0.00    -0.237 OA
ATOM     73  O   UNL A   1      44.182  38.110  31.261  1.00  0.00    -0.744 OA
ENDBRANCH  69  70
ENDBRANCH  48  62
BRANCH  49  74
ATOM     74  C   UNL A   1      42.623  23.682  27.690  1.00  0.00     0.058 A 
ATOM     75  C   UNL A   1      42.667  23.452  26.308  1.00  0.00     0.135 A 
ATOM     76  C   UNL A   1      42.429  22.577  28.533  1.00  0.00     0.135 A 
ATOM     77  F   UNL A   1      42.845  24.479  25.464  1.00  0.00    -0.206 F 
ATOM     78  C   UNL A   1      42.516  22.176  25.776  1.00  0.00     0.059 A 
ATOM     79  C   UNL A   1      42.295  21.288  28.027  1.00  0.00     0.059 A 
ATOM     80  F   UNL A   1      42.397  22.744  29.864  1.00  0.00    -0.206 F 
ATOM     81  C   UNL A   1      42.331  21.099  26.645  1.00  0.00     0.060 A 
BRANCH  81  82
ATOM     82  S   UNL A   1      42.194  19.437  25.951  1.00  0.00     0.124 S 
ATOM     83  O   UNL A   1      43.043  19.542  24.770  1.00  0.00    -0.237 OA
ATOM     84  O   UNL A   1      42.706  18.605  27.036  1.00  0.00    -0.237 OA
ATOM     85  O   UNL A   1      40.764  19.302  25.692  1.00  0.00    -0.744 OA
ENDBRANCH  81  82
ENDBRANCH  49  74
BRANCH  61  86
ATOM     86  C   UNL A   1      48.098  27.189  30.210  1.00  0.00     0.058 A 
ATOM     87  C   UNL A   1      49.093  27.482  29.265  1.00  0.00     0.135 A 
ATOM     88  C   UNL A   1      48.491  26.588  31.417  1.00  0.00     0.135 A 
ATOM     89  F   UNL A   1      48.765  28.049  28.093  1.00  0.00    -0.206 F 
ATOM     90  C   UNL A   1      50.430  27.183  29.505  1.00  0.00     0.059 A 
ATOM     91  C   UNL A   1      49.824  26.298  31.684  1.00  0.00     0.059 A 
ATOM     92  F   UNL A   1      47.576  26.295  32.355  1.00  0.00    -0.206 F 
ATOM     93  C   UNL A   1      50.786  26.593  30.719  1.00  0.00     0.060 A 
BRANCH  93  94
ATOM     94  S   UNL A   1      52.530  26.257  31.043  1.00  0.00     0.124 S 
ATOM     95  O   UNL A   1      52.911  27.421  31.837  1.00  0.00    -0.237 OA
ATOM     96  O   UNL A   1      52.478  24.988  31.764  1.00  0.00    -0.237 OA
ATOM     97  O   UNL A   1      53.115  26.186  29.707  1.00  0.00    -0.744 OA
ENDBRANCH  93  94
ENDBRANCH  61  86
ENDBRANCH  35  36
ENDBRANCH  27  30
ENDBRANCH  25  26
ENDBRANCH  24  25
ENDBRANCH   1  24
TORSDOF 17
ENDMDL
MODEL 3
REMARK VINA RESULT:      -8.8      3.514      6.339
REMARK SMILES CC(C)Cc1ccc([C@@H]2CC[NH2+][C@H]2C(=O)NCCCCNC(=O)c2ccc(-c3c4nc(c(-c5c(F)cc(S(=O)(=O)[O-])cc5F)c5ccc([nH]5)c(-c5c(F)cc(S(=O)(=O)[O-])cc5F)c5nc(c(-c6c(F)cc(S(=O)(=O)[O-])cc6F)c6ccc3[nH]6)C=C5)C=C4)cc2)cc1
REMARK SMILES IDX 18 1 17 2 16 3 14 4 15 5 13 7 9 8 10 9 11 10 12 11 8 14 5 15
REMARK SMILES IDX 6 16 91 17 7 18 90 19 4 20 2 21 1 22 3 23 19 24 20 25 21 26
REMARK SMILES IDX 22 27 23 29 24 30 25 31 89 32 26 33 88 34 27 35 28 36 29 37
REMARK SMILES IDX 82 38 30 39 87 40 81 41 83 42 31 43 86 44 80 45 79 46 32 48
REMARK SMILES IDX 66 49 45 50 65 51 46 52 49 53 64 54 84 55 47 56 48 57 63 59
REMARK SMILES IDX 85 60 50 61 33 62 34 63 43 64 35 65 36 66 42 67 44 68 37 69
REMARK SMILES IDX 38 70 39 71 40 72 41 73 67 74 68 75 77 76 69 77 70 78 76 79
REMARK SMILES IDX 78 80 71 81 72 82 73 83 74 84 75 85 51 86 52 87 61 88 53 89
REMARK SMILES IDX 54 90 60 91 62 92 55 93 56 94 57 95 58 96 59 97
REMARK H PARENT 16 6 12 12 12 13 21 28 83 47 49 58
REMARK Flexibility Score: inf
ROOT
ATOM      1  C   UNL A   1      33.759  29.541  26.980  1.00  0.00     0.023 C 
ENDROOT
BRANCH   1   2
ATOM      2  C   UNL A   1      33.571  29.380  25.474  1.00  0.00     0.116 C 
BRANCH   2   3
ATOM      3  N   UNL A   1      32.266  29.832  25.036  1.00  0.00    -0.351 N 
ATOM      4  C   UNL A   1      31.219  29.178  24.454  1.00  0.00     0.278 C 
ATOM      5  O   UNL A   1      30.248  29.871  24.134  1.00  0.00    -0.268 OA
ATOM      6  H   UNL A   1      32.104  30.790  25.187  1.00  0.00     0.163 HD
BRANCH   4   7
ATOM      7  C   UNL A   1      31.215  27.657  24.182  1.00  0.00     0.280 C 
ATOM      8  C   UNL A   1      31.093  26.802  25.452  1.00  0.00     0.093 C 
ATOM      9  C   UNL A   1      29.754  26.078  25.303  1.00  0.00     0.076 C 
ATOM     10  C   UNL A   1      29.422  26.129  23.822  1.00  0.00     0.262 C 
ATOM     11  N   UNL A   1      30.136  27.262  23.239  1.00  0.00    -0.335 N 
ATOM     12  H   UNL A   1      29.493  28.043  23.102  1.00  0.00     0.346 HD
ATOM     13  H   UNL A   1      30.531  27.006  22.334  1.00  0.00     0.346 HD
BRANCH   8  14
ATOM     14  C   UNL A   1      32.243  25.822  25.622  1.00  0.00    -0.038 A 
ATOM     15  C   UNL A   1      34.394  24.008  25.921  1.00  0.00    -0.048 A 
ATOM     16  C   UNL A   1      34.542  25.173  25.158  1.00  0.00     0.004 A 
ATOM     17  C   UNL A   1      33.170  23.777  26.555  1.00  0.00     0.004 A 
ATOM     18  C   UNL A   1      33.478  26.070  25.009  1.00  0.00     0.004 A 
ATOM     19  C   UNL A   1      32.105  24.658  26.390  1.00  0.00     0.004 A 
BRANCH  15  20
ATOM     20  C   UNL A   1      35.535  23.028  26.065  1.00  0.00     0.038 C 
BRANCH  20  21
ATOM     21  C   UNL A   1      36.776  23.370  25.213  1.00  0.00    -0.013 C 
ATOM     22  C   UNL A   1      37.934  23.888  26.071  1.00  0.00     0.008 C 
ATOM     23  C   UNL A   1      37.222  22.144  24.416  1.00  0.00     0.008 C 
ENDBRANCH  20  21
ENDBRANCH  15  20
ENDBRANCH   8  14
ENDBRANCH   4   7
ENDBRANCH   2   3
ENDBRANCH   1   2
BRANCH   1  24
ATOM     24  C   UNL A   1      35.188  29.315  27.472  1.00  0.00     0.023 C 
BRANCH  24  25
ATOM     25  C   UNL A   1      35.808  30.488  28.225  1.00  0.00     0.116 C 
BRANCH  25  26
ATOM     26  N   UNL A   1      35.602  30.437  29.666  1.00  0.00    -0.352 N 
ATOM     27  C   UNL A   1      36.544  30.232  30.645  1.00  0.00     0.251 C 
ATOM     28  H   UNL A   1      34.676  30.567  29.975  1.00  0.00     0.163 HD
ATOM     29  O   UNL A   1      36.210  30.131  31.823  1.00  0.00    -0.269 OA
BRANCH  27  30
ATOM     30  C   UNL A   1      37.957  30.084  30.249  1.00  0.00     0.039 A 
ATOM     31  C   UNL A   1      38.906  29.793  31.231  1.00  0.00     0.014 A 
ATOM     32  C   UNL A   1      38.321  30.149  28.901  1.00  0.00     0.014 A 
ATOM     33  C   UNL A   1      40.214  29.485  30.851  1.00  0.00     0.010 A 
ATOM     34  C   UNL A   1      39.607  29.784  28.521  1.00  0.00     0.010 A 
ATOM     35  C   UNL A   1      40.561  29.437  29.491  1.00  0.00    -0.014 A 
BRANCH  35  36
ATOM     36  C   UNL A   1      41.910  29.004  29.052  1.00  0.00     0.031 A 
ATOM     37  C   UNL A   1      43.024  30.007  28.960  1.00  0.00     0.074 A 
ATOM     38  C   UNL A   1      42.101  27.733  28.646  1.00  0.00     0.049 A 
ATOM     39  N   UNL A   1      44.234  29.854  28.487  1.00  0.00    -0.248 NA
ATOM     40  C   UNL A   1      42.729  31.368  29.435  1.00  0.00     0.031 C 
ATOM     41  C   UNL A   1      41.080  26.683  28.637  1.00  0.00     0.029 A 
ATOM     42  N   UNL A   1      43.218  27.113  28.143  1.00  0.00    -0.354 N 
ATOM     43  C   UNL A   1      44.835  31.102  28.582  1.00  0.00     0.074 A 
ATOM     44  C   UNL A   1      43.846  32.010  29.124  1.00  0.00     0.031 C 
ATOM     45  C   UNL A   1      41.620  25.548  28.163  1.00  0.00     0.029 A 
ATOM     46  C   UNL A   1      43.013  25.797  27.805  1.00  0.00     0.049 A 
ATOM     47  H   UNL A   1      44.083  27.568  28.035  1.00  0.00     0.167 HD
ATOM     48  C   UNL A   1      46.103  31.455  28.263  1.00  0.00     0.037 A 
ATOM     49  C   UNL A   1      43.850  24.896  27.257  1.00  0.00     0.037 A 
ATOM     50  C   UNL A   1      47.094  30.540  27.763  1.00  0.00     0.049 A 
ATOM     51  C   UNL A   1      45.263  25.302  26.943  1.00  0.00     0.074 A 
ATOM     52  C   UNL A   1      48.425  30.785  27.475  1.00  0.00     0.029 A 
ATOM     53  N   UNL A   1      46.862  29.202  27.480  1.00  0.00    -0.354 N 
ATOM     54  N   UNL A   1      45.833  26.473  27.093  1.00  0.00    -0.248 NA
ATOM     55  C   UNL A   1      46.147  24.267  26.389  1.00  0.00     0.031 C 
ATOM     56  C   UNL A   1      48.992  29.599  26.995  1.00  0.00     0.029 A 
ATOM     57  C   UNL A   1      48.022  28.609  27.012  1.00  0.00     0.049 A 
ATOM     58  H   UNL A   1      46.000  28.741  27.595  1.00  0.00     0.167 HD
ATOM     59  C   UNL A   1      47.149  26.311  26.673  1.00  0.00     0.074 A 
ATOM     60  C   UNL A   1      47.292  24.927  26.270  1.00  0.00     0.031 C 
ATOM     61  C   UNL A   1      48.147  27.226  26.627  1.00  0.00     0.037 A 
BRANCH  48  62
ATOM     62  C   UNL A   1      46.490  32.894  28.457  1.00  0.00     0.058 A 
ATOM     63  C   UNL A   1      47.011  33.355  29.676  1.00  0.00     0.135 A 
ATOM     64  C   UNL A   1      46.356  33.817  27.407  1.00  0.00     0.135 A 
ATOM     65  F   UNL A   1      47.142  32.517  30.716  1.00  0.00    -0.206 F 
ATOM     66  C   UNL A   1      47.358  34.690  29.858  1.00  0.00     0.059 A 
ATOM     67  C   UNL A   1      46.720  35.151  27.560  1.00  0.00     0.059 A 
ATOM     68  F   UNL A   1      45.861  33.427  26.223  1.00  0.00    -0.206 F 
ATOM     69  C   UNL A   1      47.204  35.581  28.795  1.00  0.00     0.060 A 
BRANCH  69  70
ATOM     70  S   UNL A   1      47.653  37.312  29.047  1.00  0.00     0.124 S 
ATOM     71  O   UNL A   1      46.437  37.841  29.657  1.00  0.00    -0.237 OA
ATOM     72  O   UNL A   1      48.812  37.212  29.929  1.00  0.00    -0.237 OA
ATOM     73  O   UNL A   1      47.938  37.787  27.697  1.00  0.00    -0.744 OA
ENDBRANCH  69  70
ENDBRANCH  48  62
BRANCH  49  74
ATOM     74  C   UNL A   1      43.379  23.511  26.996  1.00  0.00     0.058 A 
ATOM     75  C   UNL A   1      43.075  23.091  25.693  1.00  0.00     0.135 A 
ATOM     76  C   UNL A   1      43.245  22.576  28.034  1.00  0.00     0.135 A 
ATOM     77  F   UNL A   1      43.183  23.951  24.670  1.00  0.00    -0.206 F 
ATOM     78  C   UNL A   1      42.645  21.795  25.427  1.00  0.00     0.059 A 
ATOM     79  C   UNL A   1      42.836  21.270  27.792  1.00  0.00     0.059 A 
ATOM     80  F   UNL A   1      43.541  22.927  29.296  1.00  0.00    -0.206 F 
ATOM     81  C   UNL A   1      42.529  20.891  26.485  1.00  0.00     0.060 A 
BRANCH  81  82
ATOM     82  S   UNL A   1      42.026  19.193  26.125  1.00  0.00     0.124 S 
ATOM     83  O   UNL A   1      40.595  19.354  25.894  1.00  0.00    -0.237 OA
ATOM     84  O   UNL A   1      42.832  18.875  24.949  1.00  0.00    -0.237 OA
ATOM     85  O   UNL A   1      42.395  18.472  27.339  1.00  0.00    -0.744 OA
ENDBRANCH  81  82
ENDBRANCH  49  74
BRANCH  61  86
ATOM     86  C   UNL A   1      49.491  26.759  26.151  1.00  0.00     0.058 A 
ATOM     87  C   UNL A   1      49.878  26.882  24.809  1.00  0.00     0.135 A 
ATOM     88  C   UNL A   1      50.428  26.244  27.063  1.00  0.00     0.135 A 
ATOM     89  F   UNL A   1      49.014  27.360  23.899  1.00  0.00    -0.206 F 
ATOM     90  C   UNL A   1      51.146  26.502  24.382  1.00  0.00     0.059 A 
ATOM     91  C   UNL A   1      51.707  25.877  26.661  1.00  0.00     0.059 A 
ATOM     92  F   UNL A   1      50.107  26.115  28.360  1.00  0.00    -0.206 F 
ATOM     93  C   UNL A   1      52.055  26.002  25.317  1.00  0.00     0.060 A 
BRANCH  93  94
ATOM     94  S   UNL A   1      53.716  25.561  24.764  1.00  0.00     0.124 S 
ATOM     95  O   UNL A   1      54.539  26.118  25.833  1.00  0.00    -0.237 OA
ATOM     96  O   UNL A   1      53.652  24.103  24.707  1.00  0.00    -0.237 OA
ATOM     97  O   UNL A   1      53.830  26.227  23.470  1.00  0.00    -0.744 OA
ENDBRANCH  93  94
ENDBRANCH  61  86
ENDBRANCH  35  36
ENDBRANCH  27  30
ENDBRANCH  25  26
ENDBRANCH  24  25
ENDBRANCH   1  24
TORSDOF 17
ENDMDL
