MODEL 1
REMARK VINA RESULT:     -12.1      0.000      0.000
REMARK SMILES CC1=C(CC(=O)NCCCCNC(=O)c2ccc(-c3c4nc(c(-c5c(F)cc(S(=O)(=O)[O-])cc5F)c5ccc([nH]5)c(-c5c(F)cc(S(=O)(=O)[O-])cc5F)c5nc(c(-c6c(F)cc(S(=O)(=O)[O-])cc6F)c6ccc3[nH]6)C=C5)C=C4)cc2)c2cc(F)ccc2/C1=C\c1ccc([S@@+](C)[O-])cc1
REMARK SMILES IDX 9 1 8 2 7 3 5 4 6 5 4 7 3 8 1 9 2 10 88 11 81 12 87 13 89 14
REMARK SMILES IDX 82 15 86 16 83 17 85 18 84 19 90 20 91 21 98 22 92 23 97 24
REMARK SMILES IDX 93 25 94 26 95 27 96 28 10 29 11 30 12 31 13 32 14 34 15 35
REMARK SMILES IDX 16 36 80 37 17 38 79 39 18 40 19 41 20 42 73 43 21 44 78 45
REMARK SMILES IDX 72 46 74 47 22 48 77 49 71 50 70 51 23 53 57 54 36 55 56 56
REMARK SMILES IDX 37 57 40 58 55 59 75 60 38 61 39 62 54 64 76 65 41 66 24 67
REMARK SMILES IDX 25 68 34 69 26 70 27 71 33 72 35 73 28 74 29 75 30 76 31 77
REMARK SMILES IDX 32 78 58 79 59 80 68 81 60 82 61 83 67 84 69 85 62 86 63 87
REMARK SMILES IDX 64 88 65 89 66 90 42 91 43 92 52 93 44 94 45 95 51 96 53 97
REMARK SMILES IDX 46 98 47 99 48 100 49 101 50 102
REMARK H PARENT 7 6 12 33 74 52 40 63
REMARK Flexibility Score: inf
ROOT
ATOM      1  C   UNL A   1      35.595  21.780  26.109  1.00  0.00     0.023 C 
ENDROOT
BRANCH   1   2
ATOM      2  C   UNL A   1      35.177  20.835  24.981  1.00  0.00     0.116 C 
BRANCH   2   3
ATOM      3  N   UNL A   1      34.087  19.965  25.366  1.00  0.00    -0.356 N 
ATOM      4  C   UNL A   1      32.832  19.879  24.838  1.00  0.00     0.224 C 
ATOM      5  O   UNL A   1      32.045  19.062  25.323  1.00  0.00    -0.275 OA
ATOM      6  H   UNL A   1      34.276  19.351  26.112  1.00  0.00     0.163 HD
BRANCH   4   7
ATOM      7  C   UNL A   1      32.428  20.744  23.645  1.00  0.00     0.136 C 
BRANCH   7   8
ATOM      8  C   UNL A   1      32.470  22.212  23.922  1.00  0.00    -0.027 C 
ATOM      9  C   UNL A   1      34.048  23.056  22.092  1.00  0.00     0.045 C 
ATOM     10  C   UNL A   1      33.163  23.188  23.287  1.00  0.00    -0.039 C 
ATOM     11  C   UNL A   1      32.936  24.477  23.966  1.00  0.00    -0.014 C 
ATOM     12  C   UNL A   1      31.674  22.846  24.989  1.00  0.00    -0.011 A 
ATOM     13  C   UNL A   1      31.911  24.234  25.000  1.00  0.00    -0.010 A 
ATOM     14  C   UNL A   1      33.622  25.608  23.706  1.00  0.00     0.017 C 
ATOM     15  C   UNL A   1      30.777  22.274  25.883  1.00  0.00     0.048 A 
ATOM     16  C   UNL A   1      31.207  25.061  25.867  1.00  0.00     0.012 A 
ATOM     17  C   UNL A   1      30.116  23.108  26.780  1.00  0.00     0.123 A 
ATOM     18  C   UNL A   1      30.315  24.488  26.774  1.00  0.00     0.040 A 
ATOM     19  F   UNL A   1      29.252  22.579  27.656  1.00  0.00    -0.207 F 
BRANCH  14  20
ATOM     20  C   UNL A   1      33.464  26.879  24.416  1.00  0.00    -0.025 A 
ATOM     21  C   UNL A   1      34.069  27.093  25.661  1.00  0.00     0.013 A 
ATOM     22  C   UNL A   1      32.608  27.849  23.892  1.00  0.00     0.013 A 
ATOM     23  C   UNL A   1      33.718  28.208  26.431  1.00  0.00     0.061 A 
ATOM     24  C   UNL A   1      32.276  28.973  24.653  1.00  0.00     0.061 A 
ATOM     25  C   UNL A   1      32.796  29.142  25.943  1.00  0.00     0.152 A 
BRANCH  25  26
ATOM     26  S   UNL A   1      32.127  30.448  27.004  1.00  0.00    -0.018 S 
ATOM     27  C   UNL A   1      33.660  31.209  27.569  1.00  0.00     0.346 C 
ATOM     28  O   UNL A   1      31.394  31.472  26.063  1.00  0.00    -0.612 OA
ENDBRANCH  25  26
ENDBRANCH  14  20
ENDBRANCH   7   8
ENDBRANCH   4   7
ENDBRANCH   2   3
ENDBRANCH   1   2
BRANCH   1  29
ATOM     29  C   UNL A   1      35.735  23.248  25.707  1.00  0.00     0.023 C 
BRANCH  29  30
ATOM     30  C   UNL A   1      37.051  23.620  25.037  1.00  0.00     0.116 C 
BRANCH  30  31
ATOM     31  N   UNL A   1      38.141  22.700  25.332  1.00  0.00    -0.352 N 
ATOM     32  C   UNL A   1      39.253  22.923  26.111  1.00  0.00     0.251 C 
ATOM     33  H   UNL A   1      38.074  21.807  24.922  1.00  0.00     0.163 HD
ATOM     34  O   UNL A   1      40.133  22.074  26.198  1.00  0.00    -0.269 OA
BRANCH  32  35
ATOM     35  C   UNL A   1      39.395  24.226  26.798  1.00  0.00     0.039 A 
ATOM     36  C   UNL A   1      40.096  25.270  26.193  1.00  0.00     0.014 A 
ATOM     37  C   UNL A   1      38.891  24.371  28.094  1.00  0.00     0.014 A 
ATOM     38  C   UNL A   1      40.445  26.388  26.944  1.00  0.00     0.010 A 
ATOM     39  C   UNL A   1      39.179  25.527  28.822  1.00  0.00     0.010 A 
ATOM     40  C   UNL A   1      40.008  26.519  28.273  1.00  0.00    -0.014 A 
BRANCH  40  41
ATOM     41  C   UNL A   1      40.463  27.686  29.074  1.00  0.00     0.031 A 
ATOM     42  C   UNL A   1      41.878  27.756  29.588  1.00  0.00     0.074 A 
ATOM     43  C   UNL A   1      39.622  28.719  29.270  1.00  0.00     0.049 A 
ATOM     44  N   UNL A   1      42.457  28.708  30.275  1.00  0.00    -0.248 NA
ATOM     45  C   UNL A   1      42.756  26.611  29.297  1.00  0.00     0.031 C 
ATOM     46  C   UNL A   1      38.235  28.775  28.804  1.00  0.00     0.029 A 
ATOM     47  N   UNL A   1      39.817  29.930  29.880  1.00  0.00    -0.354 N 
ATOM     48  C   UNL A   1      43.756  28.273  30.511  1.00  0.00     0.074 A 
ATOM     49  C   UNL A   1      43.876  26.959  29.917  1.00  0.00     0.031 C 
ATOM     50  C   UNL A   1      37.724  29.981  29.092  1.00  0.00     0.029 A 
ATOM     51  C   UNL A   1      38.725  30.762  29.812  1.00  0.00     0.049 A 
ATOM     52  H   UNL A   1      40.659  30.182  30.326  1.00  0.00     0.167 HD
ATOM     53  C   UNL A   1      44.761  28.915  31.155  1.00  0.00     0.037 A 
ATOM     54  C   UNL A   1      38.545  32.012  30.278  1.00  0.00     0.037 A 
ATOM     55  C   UNL A   1      44.650  30.234  31.720  1.00  0.00     0.049 A 
ATOM     56  C   UNL A   1      39.665  32.690  31.012  1.00  0.00     0.074 A 
ATOM     57  C   UNL A   1      45.616  30.971  32.383  1.00  0.00     0.029 A 
ATOM     58  N   UNL A   1      43.506  31.018  31.683  1.00  0.00    -0.354 N 
ATOM     59  N   UNL A   1      40.879  32.252  31.245  1.00  0.00    -0.248 NA
ATOM     60  C   UNL A   1      39.388  34.024  31.561  1.00  0.00     0.031 C 
ATOM     61  C   UNL A   1      45.049  32.190  32.771  1.00  0.00     0.029 A 
ATOM     62  C   UNL A   1      43.739  32.224  32.323  1.00  0.00     0.049 A 
ATOM     63  H   UNL A   1      42.655  30.756  31.265  1.00  0.00     0.167 HD
ATOM     64  C   UNL A   1      41.511  33.257  31.968  1.00  0.00     0.074 A 
ATOM     65  C   UNL A   1      40.552  34.334  32.116  1.00  0.00     0.031 C 
ATOM     66  C   UNL A   1      42.769  33.281  32.470  1.00  0.00     0.037 A 
BRANCH  53  67
ATOM     67  C   UNL A   1      46.074  28.197  31.289  1.00  0.00     0.058 A 
ATOM     68  C   UNL A   1      46.326  27.320  32.355  1.00  0.00     0.135 A 
ATOM     69  C   UNL A   1      47.075  28.353  30.317  1.00  0.00     0.135 A 
ATOM     70  F   UNL A   1      45.409  27.148  33.320  1.00  0.00    -0.206 F 
ATOM     71  C   UNL A   1      47.533  26.634  32.462  1.00  0.00     0.059 A 
ATOM     72  C   UNL A   1      48.283  27.663  30.393  1.00  0.00     0.059 A 
ATOM     73  F   UNL A   1      46.886  29.181  29.278  1.00  0.00    -0.206 F 
ATOM     74  C   UNL A   1      48.506  26.814  31.477  1.00  0.00     0.060 A 
BRANCH  74  75
ATOM     75  S   UNL A   1      50.066  25.918  31.631  1.00  0.00     0.124 S 
ATOM     76  O   UNL A   1      50.055  25.105  30.419  1.00  0.00    -0.237 OA
ATOM     77  O   UNL A   1      51.047  26.998  31.660  1.00  0.00    -0.237 OA
ATOM     78  O   UNL A   1      49.913  25.181  32.881  1.00  0.00    -0.744 OA
ENDBRANCH  74  75
ENDBRANCH  53  67
BRANCH  54  79
ATOM     79  C   UNL A   1      37.247  32.696  30.056  1.00  0.00     0.058 A 
ATOM     80  C   UNL A   1      36.179  32.516  30.946  1.00  0.00     0.135 A 
ATOM     81  C   UNL A   1      37.067  33.581  28.983  1.00  0.00     0.135 A 
ATOM     82  F   UNL A   1      36.304  31.675  31.984  1.00  0.00    -0.206 F 
ATOM     83  C   UNL A   1      34.976  33.194  30.782  1.00  0.00     0.059 A 
ATOM     84  C   UNL A   1      35.881  34.286  28.809  1.00  0.00     0.059 A 
ATOM     85  F   UNL A   1      38.067  33.794  28.113  1.00  0.00    -0.206 F 
ATOM     86  C   UNL A   1      34.840  34.083  29.714  1.00  0.00     0.060 A 
BRANCH  86  87
ATOM     87  S   UNL A   1      33.305  35.023  29.556  1.00  0.00     0.124 S 
ATOM     88  O   UNL A   1      32.736  34.881  30.891  1.00  0.00    -0.237 OA
ATOM     89  O   UNL A   1      33.793  36.353  29.206  1.00  0.00    -0.237 OA
ATOM     90  O   UNL A   1      32.595  34.325  28.488  1.00  0.00    -0.744 OA
ENDBRANCH  86  87
ENDBRANCH  54  79
BRANCH  66  91
ATOM     91  C   UNL A   1      43.182  34.506  33.232  1.00  0.00     0.058 A 
ATOM     92  C   UNL A   1      43.766  35.604  32.583  1.00  0.00     0.135 A 
ATOM     93  C   UNL A   1      42.939  34.606  34.611  1.00  0.00     0.135 A 
ATOM     94  F   UNL A   1      44.023  35.551  31.266  1.00  0.00    -0.206 F 
ATOM     95  C   UNL A   1      44.107  36.758  33.277  1.00  0.00     0.059 A 
ATOM     96  C   UNL A   1      43.257  35.760  35.323  1.00  0.00     0.059 A 
ATOM     97  F   UNL A   1      42.376  33.585  35.276  1.00  0.00    -0.206 F 
ATOM     98  C   UNL A   1      43.847  36.827  34.648  1.00  0.00     0.060 A 
BRANCH  98  99
ATOM     99  S   UNL A   1      44.259  38.348  35.530  1.00  0.00     0.124 S 
ATOM    100  O   UNL A   1      43.704  38.080  36.852  1.00  0.00    -0.237 OA
ATOM    101  O   UNL A   1      45.716  38.374  35.447  1.00  0.00    -0.237 OA
ATOM    102  O   UNL A   1      43.576  39.382  34.757  1.00  0.00    -0.744 OA
ENDBRANCH  98  99
ENDBRANCH  66  91
ENDBRANCH  40  41
ENDBRANCH  32  35
ENDBRANCH  30  31
ENDBRANCH  29  30
ENDBRANCH   1  29
TORSDOF 17
ENDMDL
MODEL 2
REMARK VINA RESULT:     -12.1      3.293      9.432
REMARK SMILES CC1=C(CC(=O)NCCCCNC(=O)c2ccc(-c3c4nc(c(-c5c(F)cc(S(=O)(=O)[O-])cc5F)c5ccc([nH]5)c(-c5c(F)cc(S(=O)(=O)[O-])cc5F)c5nc(c(-c6c(F)cc(S(=O)(=O)[O-])cc6F)c6ccc3[nH]6)C=C5)C=C4)cc2)c2cc(F)ccc2/C1=C\c1ccc([S@@+](C)[O-])cc1
REMARK SMILES IDX 9 1 8 2 7 3 5 4 6 5 4 7 3 8 1 9 2 10 88 11 81 12 87 13 89 14
REMARK SMILES IDX 82 15 86 16 83 17 85 18 84 19 90 20 91 21 98 22 92 23 97 24
REMARK SMILES IDX 93 25 94 26 95 27 96 28 10 29 11 30 12 31 13 32 14 34 15 35
REMARK SMILES IDX 16 36 80 37 17 38 79 39 18 40 19 41 20 42 73 43 21 44 78 45
REMARK SMILES IDX 72 46 74 47 22 48 77 49 71 50 70 51 23 53 57 54 36 55 56 56
REMARK SMILES IDX 37 57 40 58 55 59 75 60 38 61 39 62 54 64 76 65 41 66 24 67
REMARK SMILES IDX 25 68 34 69 26 70 27 71 33 72 35 73 28 74 29 75 30 76 31 77
REMARK SMILES IDX 32 78 58 79 59 80 68 81 60 82 61 83 67 84 69 85 62 86 63 87
REMARK SMILES IDX 64 88 65 89 66 90 42 91 43 92 52 93 44 94 45 95 51 96 53 97
REMARK SMILES IDX 46 98 47 99 48 100 49 101 50 102
REMARK H PARENT 7 6 12 33 74 52 40 63
REMARK Flexibility Score: inf
ROOT
ATOM      1  C   UNL A   1      33.104  29.370  24.898  1.00  0.00     0.023 C 
ENDROOT
BRANCH   1   2
ATOM      2  C   UNL A   1      31.576  29.424  24.907  1.00  0.00     0.116 C 
BRANCH   2   3
ATOM      3  N   UNL A   1      31.023  29.625  23.584  1.00  0.00    -0.356 N 
ATOM      4  C   UNL A   1      30.187  28.816  22.873  1.00  0.00     0.224 C 
ATOM      5  O   UNL A   1      29.835  29.179  21.747  1.00  0.00    -0.275 OA
ATOM      6  H   UNL A   1      31.288  30.461  23.136  1.00  0.00     0.163 HD
BRANCH   4   7
ATOM      7  C   UNL A   1      29.664  27.514  23.476  1.00  0.00     0.136 C 
BRANCH   7   8
ATOM      8  C   UNL A   1      30.733  26.509  23.761  1.00  0.00    -0.027 C 
ATOM      9  C   UNL A   1      30.465  26.144  26.280  1.00  0.00     0.045 C 
ATOM     10  C   UNL A   1      31.089  25.942  24.939  1.00  0.00    -0.039 C 
ATOM     11  C   UNL A   1      32.249  25.056  24.730  1.00  0.00    -0.014 C 
ATOM     12  C   UNL A   1      31.588  25.932  22.707  1.00  0.00    -0.011 A 
ATOM     13  C   UNL A   1      32.487  25.009  23.274  1.00  0.00    -0.010 A 
ATOM     14  C   UNL A   1      32.965  24.490  25.722  1.00  0.00     0.017 C 
ATOM     15  C   UNL A   1      31.580  26.162  21.337  1.00  0.00     0.048 A 
ATOM     16  C   UNL A   1      33.342  24.271  22.465  1.00  0.00     0.012 A 
ATOM     17  C   UNL A   1      32.477  25.452  20.543  1.00  0.00     0.123 A 
ATOM     18  C   UNL A   1      33.345  24.509  21.090  1.00  0.00     0.040 A 
ATOM     19  F   UNL A   1      32.492  25.662  19.220  1.00  0.00    -0.207 F 
BRANCH  14  20
ATOM     20  C   UNL A   1      34.163  23.666  25.542  1.00  0.00    -0.025 A 
ATOM     21  C   UNL A   1      34.083  22.269  25.516  1.00  0.00     0.013 A 
ATOM     22  C   UNL A   1      35.414  24.284  25.505  1.00  0.00     0.013 A 
ATOM     23  C   UNL A   1      35.249  21.496  25.584  1.00  0.00     0.061 A 
ATOM     24  C   UNL A   1      36.577  23.511  25.550  1.00  0.00     0.061 A 
ATOM     25  C   UNL A   1      36.504  22.114  25.630  1.00  0.00     0.152 A 
BRANCH  25  26
ATOM     26  S   UNL A   1      38.008  21.168  25.976  1.00  0.00    -0.018 S 
ATOM     27  C   UNL A   1      37.856  19.872  24.731  1.00  0.00     0.346 C 
ATOM     28  O   UNL A   1      39.225  22.080  25.581  1.00  0.00    -0.612 OA
ENDBRANCH  25  26
ENDBRANCH  14  20
ENDBRANCH   7   8
ENDBRANCH   4   7
ENDBRANCH   2   3
ENDBRANCH   1   2
BRANCH   1  29
ATOM     29  C   UNL A   1      33.720  28.293  25.791  1.00  0.00     0.023 C 
BRANCH  29  30
ATOM     30  C   UNL A   1      33.545  28.508  27.288  1.00  0.00     0.116 C 
BRANCH  30  31
ATOM     31  N   UNL A   1      33.538  29.909  27.685  1.00  0.00    -0.352 N 
ATOM     32  C   UNL A   1      34.583  30.658  28.175  1.00  0.00     0.251 C 
ATOM     33  H   UNL A   1      32.677  30.378  27.590  1.00  0.00     0.163 HD
ATOM     34  O   UNL A   1      34.400  31.812  28.547  1.00  0.00    -0.269 OA
BRANCH  32  35
ATOM     35  C   UNL A   1      35.917  30.030  28.297  1.00  0.00     0.039 A 
ATOM     36  C   UNL A   1      36.318  29.452  29.502  1.00  0.00     0.014 A 
ATOM     37  C   UNL A   1      36.802  30.098  27.217  1.00  0.00     0.014 A 
ATOM     38  C   UNL A   1      37.652  29.103  29.685  1.00  0.00     0.010 A 
ATOM     39  C   UNL A   1      38.124  29.677  27.380  1.00  0.00     0.010 A 
ATOM     40  C   UNL A   1      38.574  29.230  28.632  1.00  0.00    -0.014 A 
BRANCH  40  41
ATOM     41  C   UNL A   1      40.007  28.924  28.882  1.00  0.00     0.031 A 
ATOM     42  C   UNL A   1      40.875  29.895  29.641  1.00  0.00     0.074 A 
ATOM     43  C   UNL A   1      40.504  27.735  28.494  1.00  0.00     0.049 A 
ATOM     44  N   UNL A   1      42.135  29.781  29.978  1.00  0.00    -0.248 NA
ATOM     45  C   UNL A   1      40.254  31.156  30.076  1.00  0.00     0.031 C 
ATOM     46  C   UNL A   1      39.755  26.706  27.770  1.00  0.00     0.029 A 
ATOM     47  N   UNL A   1      41.741  27.177  28.681  1.00  0.00    -0.354 N 
ATOM     48  C   UNL A   1      42.460  30.955  30.647  1.00  0.00     0.074 A 
ATOM     49  C   UNL A   1      41.273  31.783  30.647  1.00  0.00     0.031 C 
ATOM     50  C   UNL A   1      40.529  25.620  27.627  1.00  0.00     0.029 A 
ATOM     51  C   UNL A   1      41.844  25.894  28.198  1.00  0.00     0.049 A 
ATOM     52  H   UNL A   1      42.487  27.648  29.119  1.00  0.00     0.167 HD
ATOM     53  C   UNL A   1      43.636  31.308  31.219  1.00  0.00     0.037 A 
ATOM     54  C   UNL A   1      42.880  25.035  28.207  1.00  0.00     0.037 A 
ATOM     55  C   UNL A   1      44.809  30.472  31.243  1.00  0.00     0.049 A 
ATOM     56  C   UNL A   1      44.182  25.460  28.822  1.00  0.00     0.074 A 
ATOM     57  C   UNL A   1      46.044  30.738  31.807  1.00  0.00     0.029 A 
ATOM     58  N   UNL A   1      44.890  29.204  30.687  1.00  0.00    -0.354 N 
ATOM     59  N   UNL A   1      44.475  26.584  29.429  1.00  0.00    -0.248 NA
ATOM     60  C   UNL A   1      45.298  24.508  28.739  1.00  0.00     0.031 C 
ATOM     61  C   UNL A   1      46.882  29.643  31.568  1.00  0.00     0.029 A 
ATOM     62  C   UNL A   1      46.157  28.682  30.883  1.00  0.00     0.049 A 
ATOM     63  H   UNL A   1      44.155  28.744  30.222  1.00  0.00     0.167 HD
ATOM     64  C   UNL A   1      45.809  26.476  29.801  1.00  0.00     0.074 A 
ATOM     65  C   UNL A   1      46.260  25.168  29.370  1.00  0.00     0.031 C 
ATOM     66  C   UNL A   1      46.592  27.382  30.437  1.00  0.00     0.037 A 
BRANCH  53  67
ATOM     67  C   UNL A   1      43.721  32.663  31.864  1.00  0.00     0.058 A 
ATOM     68  C   UNL A   1      43.994  33.817  31.115  1.00  0.00     0.135 A 
ATOM     69  C   UNL A   1      43.481  32.814  33.239  1.00  0.00     0.135 A 
ATOM     70  F   UNL A   1      44.248  33.725  29.800  1.00  0.00    -0.206 F 
ATOM     71  C   UNL A   1      44.044  35.074  31.710  1.00  0.00     0.059 A 
ATOM     72  C   UNL A   1      43.507  34.064  33.852  1.00  0.00     0.059 A 
ATOM     73  F   UNL A   1      43.217  31.741  34.001  1.00  0.00    -0.206 F 
ATOM     74  C   UNL A   1      43.801  35.187  33.080  1.00  0.00     0.060 A 
BRANCH  74  75
ATOM     75  S   UNL A   1      43.870  36.825  33.837  1.00  0.00     0.124 S 
ATOM     76  O   UNL A   1      44.347  37.639  32.723  1.00  0.00    -0.237 OA
ATOM     77  O   UNL A   1      42.484  37.047  34.234  1.00  0.00    -0.237 OA
ATOM     78  O   UNL A   1      44.814  36.652  34.936  1.00  0.00    -0.744 OA
ENDBRANCH  74  75
ENDBRANCH  53  67
BRANCH  54  79
ATOM     79  C   UNL A   1      42.716  23.684  27.613  1.00  0.00     0.058 A 
ATOM     80  C   UNL A   1      42.938  23.468  26.247  1.00  0.00     0.135 A 
ATOM     81  C   UNL A   1      42.386  22.576  28.409  1.00  0.00     0.135 A 
ATOM     82  F   UNL A   1      43.250  24.499  25.446  1.00  0.00    -0.206 F 
ATOM     83  C   UNL A   1      42.843  22.199  25.687  1.00  0.00     0.059 A 
ATOM     84  C   UNL A   1      42.305  21.295  27.878  1.00  0.00     0.059 A 
ATOM     85  F   UNL A   1      42.177  22.734  29.726  1.00  0.00    -0.206 F 
ATOM     86  C   UNL A   1      42.533  21.117  26.513  1.00  0.00     0.060 A 
BRANCH  86  87
ATOM     87  S   UNL A   1      42.494  19.459  25.796  1.00  0.00     0.124 S 
ATOM     88  O   UNL A   1      42.948  18.644  26.917  1.00  0.00    -0.237 OA
ATOM     89  O   UNL A   1      41.089  19.316  25.429  1.00  0.00    -0.237 OA
ATOM     90  O   UNL A   1      43.419  19.560  24.671  1.00  0.00    -0.744 OA
ENDBRANCH  86  87
ENDBRANCH  54  79
BRANCH  66  91
ATOM     91  C   UNL A   1      48.018  26.995  30.698  1.00  0.00     0.058 A 
ATOM     92  C   UNL A   1      49.036  27.312  29.787  1.00  0.00     0.135 A 
ATOM     93  C   UNL A   1      48.378  26.354  31.894  1.00  0.00     0.135 A 
ATOM     94  F   UNL A   1      48.739  27.919  28.626  1.00  0.00    -0.206 F 
ATOM     95  C   UNL A   1      50.364  26.996  30.046  1.00  0.00     0.059 A 
ATOM     96  C   UNL A   1      49.704  26.044  32.182  1.00  0.00     0.059 A 
ATOM     97  F   UNL A   1      47.440  26.035  32.800  1.00  0.00    -0.206 F 
ATOM     98  C   UNL A   1      50.689  26.363  31.248  1.00  0.00     0.060 A 
BRANCH  98  99
ATOM     99  S   UNL A   1      52.423  25.994  31.590  1.00  0.00     0.124 S 
ATOM    100  O   UNL A   1      52.731  26.969  32.630  1.00  0.00    -0.237 OA
ATOM    101  O   UNL A   1      52.368  24.601  32.022  1.00  0.00    -0.237 OA
ATOM    102  O   UNL A   1      53.076  26.219  30.303  1.00  0.00    -0.744 OA
ENDBRANCH  98  99
ENDBRANCH  66  91
ENDBRANCH  40  41
ENDBRANCH  32  35
ENDBRANCH  30  31
ENDBRANCH  29  30
ENDBRANCH   1  29
TORSDOF 17
ENDMDL
MODEL 3
REMARK VINA RESULT:     -12.1      3.492      8.601
REMARK SMILES CC1=C(CC(=O)NCCCCNC(=O)c2ccc(-c3c4nc(c(-c5c(F)cc(S(=O)(=O)[O-])cc5F)c5ccc([nH]5)c(-c5c(F)cc(S(=O)(=O)[O-])cc5F)c5nc(c(-c6c(F)cc(S(=O)(=O)[O-])cc6F)c6ccc3[nH]6)C=C5)C=C4)cc2)c2cc(F)ccc2/C1=C\c1ccc([S@@+](C)[O-])cc1
REMARK SMILES IDX 9 1 8 2 7 3 5 4 6 5 4 7 3 8 1 9 2 10 88 11 81 12 87 13 89 14
REMARK SMILES IDX 82 15 86 16 83 17 85 18 84 19 90 20 91 21 98 22 92 23 97 24
REMARK SMILES IDX 93 25 94 26 95 27 96 28 10 29 11 30 12 31 13 32 14 34 15 35
REMARK SMILES IDX 16 36 80 37 17 38 79 39 18 40 19 41 20 42 73 43 21 44 78 45
REMARK SMILES IDX 72 46 74 47 22 48 77 49 71 50 70 51 23 53 57 54 36 55 56 56
REMARK SMILES IDX 37 57 40 58 55 59 75 60 38 61 39 62 54 64 76 65 41 66 24 67
REMARK SMILES IDX 25 68 34 69 26 70 27 71 33 72 35 73 28 74 29 75 30 76 31 77
REMARK SMILES IDX 32 78 58 79 59 80 68 81 60 82 61 83 67 84 69 85 62 86 63 87
REMARK SMILES IDX 64 88 65 89 66 90 42 91 43 92 52 93 44 94 45 95 51 96 53 97
REMARK SMILES IDX 46 98 47 99 48 100 49 101 50 102
REMARK H PARENT 7 6 12 33 74 52 40 63
REMARK Flexibility Score: inf
ROOT
ATOM      1  C   UNL A   1      32.490  28.834  25.104  1.00  0.00     0.023 C 
ENDROOT
BRANCH   1   2
ATOM      2  C   UNL A   1      31.088  29.425  24.944  1.00  0.00     0.116 C 
BRANCH   2   3
ATOM      3  N   UNL A   1      30.703  29.564  23.555  1.00  0.00    -0.356 N 
ATOM      4  C   UNL A   1      29.965  28.717  22.782  1.00  0.00     0.224 C 
ATOM      5  O   UNL A   1      29.754  29.028  21.606  1.00  0.00    -0.275 OA
ATOM      6  H   UNL A   1      31.018  30.383  23.108  1.00  0.00     0.163 HD
BRANCH   4   7
ATOM      7  C   UNL A   1      29.378  27.436  23.372  1.00  0.00     0.136 C 
BRANCH   7   8
ATOM      8  C   UNL A   1      30.406  26.420  23.752  1.00  0.00    -0.027 C 
ATOM      9  C   UNL A   1      29.809  25.946  26.196  1.00  0.00     0.045 C 
ATOM     10  C   UNL A   1      30.606  25.802  24.942  1.00  0.00    -0.039 C 
ATOM     11  C   UNL A   1      31.789  24.927  24.850  1.00  0.00    -0.014 C 
ATOM     12  C   UNL A   1      31.396  25.890  22.797  1.00  0.00    -0.011 A 
ATOM     13  C   UNL A   1      32.218  24.943  23.437  1.00  0.00    -0.010 A 
ATOM     14  C   UNL A   1      32.371  24.319  25.902  1.00  0.00     0.017 C 
ATOM     15  C   UNL A   1      31.568  26.179  21.449  1.00  0.00     0.048 A 
ATOM     16  C   UNL A   1      33.176  24.241  22.718  1.00  0.00     0.012 A 
ATOM     17  C   UNL A   1      32.565  25.504  20.751  1.00  0.00     0.123 A 
ATOM     18  C   UNL A   1      33.359  24.538  21.366  1.00  0.00     0.040 A 
ATOM     19  F   UNL A   1      32.754  25.771  19.452  1.00  0.00    -0.207 F 
BRANCH  14  20
ATOM     20  C   UNL A   1      33.587  23.504  25.846  1.00  0.00    -0.025 A 
ATOM     21  C   UNL A   1      34.853  24.080  26.006  1.00  0.00     0.013 A 
ATOM     22  C   UNL A   1      33.484  22.150  25.519  1.00  0.00     0.013 A 
ATOM     23  C   UNL A   1      36.004  23.339  25.714  1.00  0.00     0.061 A 
ATOM     24  C   UNL A   1      34.636  21.406  25.250  1.00  0.00     0.061 A 
ATOM     25  C   UNL A   1      35.901  22.004  25.306  1.00  0.00     0.152 A 
BRANCH  25  26
ATOM     26  S   UNL A   1      37.337  21.098  24.676  1.00  0.00    -0.018 S 
ATOM     27  C   UNL A   1      38.619  21.744  25.766  1.00  0.00     0.346 C 
ATOM     28  O   UNL A   1      37.115  19.583  25.032  1.00  0.00    -0.612 OA
ENDBRANCH  25  26
ENDBRANCH  14  20
ENDBRANCH   7   8
ENDBRANCH   4   7
ENDBRANCH   2   3
ENDBRANCH   1   2
BRANCH   1  29
ATOM     29  C   UNL A   1      32.789  28.236  26.477  1.00  0.00     0.023 C 
BRANCH  29  30
ATOM     30  C   UNL A   1      34.108  28.667  27.105  1.00  0.00     0.116 C 
BRANCH  30  31
ATOM     31  N   UNL A   1      34.042  29.954  27.784  1.00  0.00    -0.352 N 
ATOM     32  C   UNL A   1      35.037  30.594  28.488  1.00  0.00     0.251 C 
ATOM     33  H   UNL A   1      33.178  30.424  27.734  1.00  0.00     0.163 HD
ATOM     34  O   UNL A   1      34.804  31.642  29.081  1.00  0.00    -0.269 OA
BRANCH  32  35
ATOM     35  C   UNL A   1      36.375  29.967  28.564  1.00  0.00     0.039 A 
ATOM     36  C   UNL A   1      36.804  29.358  29.744  1.00  0.00     0.014 A 
ATOM     37  C   UNL A   1      37.236  30.068  27.467  1.00  0.00     0.014 A 
ATOM     38  C   UNL A   1      38.143  29.009  29.887  1.00  0.00     0.010 A 
ATOM     39  C   UNL A   1      38.563  29.647  27.589  1.00  0.00     0.010 A 
ATOM     40  C   UNL A   1      39.041  29.169  28.819  1.00  0.00    -0.014 A 
BRANCH  40  41
ATOM     41  C   UNL A   1      40.480  28.861  29.029  1.00  0.00     0.031 A 
ATOM     42  C   UNL A   1      41.042  27.520  28.634  1.00  0.00     0.074 A 
ATOM     43  C   UNL A   1      41.297  29.821  29.502  1.00  0.00     0.049 A 
ATOM     44  N   UNL A   1      42.276  27.089  28.714  1.00  0.00    -0.248 NA
ATOM     45  C   UNL A   1      40.101  26.534  28.079  1.00  0.00     0.031 C 
ATOM     46  C   UNL A   1      40.872  31.165  29.900  1.00  0.00     0.029 A 
ATOM     47  N   UNL A   1      42.653  29.829  29.698  1.00  0.00    -0.354 N 
ATOM     48  C   UNL A   1      42.257  25.783  28.238  1.00  0.00     0.074 A 
ATOM     49  C   UNL A   1      40.884  25.480  27.894  1.00  0.00     0.031 C 
ATOM     50  C   UNL A   1      41.954  31.885  30.236  1.00  0.00     0.029 A 
ATOM     51  C   UNL A   1      43.139  31.040  30.131  1.00  0.00     0.049 A 
ATOM     52  H   UNL A   1      43.226  29.043  29.544  1.00  0.00     0.167 HD
ATOM     53  C   UNL A   1      43.290  24.919  28.091  1.00  0.00     0.037 A 
ATOM     54  C   UNL A   1      44.396  31.428  30.416  1.00  0.00     0.037 A 
ATOM     55  C   UNL A   1      44.659  25.231  28.407  1.00  0.00     0.049 A 
ATOM     56  C   UNL A   1      45.519  30.443  30.272  1.00  0.00     0.074 A 
ATOM     57  C   UNL A   1      45.777  24.424  28.282  1.00  0.00     0.029 A 
ATOM     58  N   UNL A   1      45.100  26.449  28.902  1.00  0.00    -0.354 N 
ATOM     59  N   UNL A   1      45.477  29.205  29.842  1.00  0.00    -0.248 NA
ATOM     60  C   UNL A   1      46.859  30.900  30.666  1.00  0.00     0.031 C 
ATOM     61  C   UNL A   1      46.890  25.145  28.728  1.00  0.00     0.029 A 
ATOM     62  C   UNL A   1      46.470  26.411  29.101  1.00  0.00     0.049 A 
ATOM     63  H   UNL A   1      44.524  27.225  29.086  1.00  0.00     0.167 HD
ATOM     64  C   UNL A   1      46.782  28.735  29.913  1.00  0.00     0.074 A 
ATOM     65  C   UNL A   1      47.595  29.828  30.408  1.00  0.00     0.031 C 
ATOM     66  C   UNL A   1      47.262  27.506  29.605  1.00  0.00     0.037 A 
BRANCH  53  67
ATOM     67  C   UNL A   1      42.981  23.544  27.569  1.00  0.00     0.058 A 
ATOM     68  C   UNL A   1      43.039  23.249  26.199  1.00  0.00     0.135 A 
ATOM     69  C   UNL A   1      42.669  22.499  28.453  1.00  0.00     0.135 A 
ATOM     70  F   UNL A   1      43.315  24.215  25.310  1.00  0.00    -0.206 F 
ATOM     71  C   UNL A   1      42.780  21.967  25.720  1.00  0.00     0.059 A 
ATOM     72  C   UNL A   1      42.425  21.205  27.999  1.00  0.00     0.059 A 
ATOM     73  F   UNL A   1      42.599  22.728  29.774  1.00  0.00    -0.206 F 
ATOM     74  C   UNL A   1      42.472  20.952  26.628  1.00  0.00     0.060 A 
BRANCH  74  75
ATOM     75  S   UNL A   1      42.138  19.296  25.991  1.00  0.00     0.124 S 
ATOM     76  O   UNL A   1      42.572  18.463  27.108  1.00  0.00    -0.237 OA
ATOM     77  O   UNL A   1      40.699  19.335  25.753  1.00  0.00    -0.237 OA
ATOM     78  O   UNL A   1      42.967  19.219  24.793  1.00  0.00    -0.744 OA
ENDBRANCH  74  75
ENDBRANCH  53  67
BRANCH  54  79
ATOM     79  C   UNL A   1      44.648  32.820  30.865  1.00  0.00     0.058 A 
ATOM     80  C   UNL A   1      44.888  33.841  29.936  1.00  0.00     0.135 A 
ATOM     81  C   UNL A   1      44.599  33.165  32.224  1.00  0.00     0.135 A 
ATOM     82  F   UNL A   1      44.949  33.557  28.626  1.00  0.00    -0.206 F 
ATOM     83  C   UNL A   1      45.070  35.160  30.338  1.00  0.00     0.059 A 
ATOM     84  C   UNL A   1      44.757  34.479  32.649  1.00  0.00     0.059 A 
ATOM     85  F   UNL A   1      44.358  32.222  33.148  1.00  0.00    -0.206 F 
ATOM     86  C   UNL A   1      44.994  35.470  31.697  1.00  0.00     0.060 A 
BRANCH  86  87
ATOM     87  S   UNL A   1      45.148  37.197  32.205  1.00  0.00     0.124 S 
ATOM     88  O   UNL A   1      46.460  37.200  32.840  1.00  0.00    -0.237 OA
ATOM     89  O   UNL A   1      45.052  37.902  30.931  1.00  0.00    -0.237 OA
ATOM     90  O   UNL A   1      44.010  37.384  33.101  1.00  0.00    -0.744 OA
ENDBRANCH  86  87
ENDBRANCH  54  79
BRANCH  66  91
ATOM     91  C   UNL A   1      48.732  27.273  29.798  1.00  0.00     0.058 A 
ATOM     92  C   UNL A   1      49.659  27.618  28.804  1.00  0.00     0.135 A 
ATOM     93  C   UNL A   1      49.221  26.755  31.007  1.00  0.00     0.135 A 
ATOM     94  F   UNL A   1      49.237  28.111  27.628  1.00  0.00    -0.206 F 
ATOM     95  C   UNL A   1      51.025  27.447  28.997  1.00  0.00     0.059 A 
ATOM     96  C   UNL A   1      50.586  26.592  31.229  1.00  0.00     0.059 A 
ATOM     97  F   UNL A   1      48.373  26.416  31.991  1.00  0.00    -0.206 F 
ATOM     98  C   UNL A   1      51.479  26.934  30.215  1.00  0.00     0.060 A 
BRANCH  98  99
ATOM     99  S   UNL A   1      53.258  26.754  30.467  1.00  0.00     0.124 S 
ATOM    100  O   UNL A   1      53.648  28.122  30.792  1.00  0.00    -0.237 OA
ATOM    101  O   UNL A   1      53.324  25.797  31.566  1.00  0.00    -0.237 OA
ATOM    102  O   UNL A   1      53.732  26.254  29.179  1.00  0.00    -0.744 OA
ENDBRANCH  98  99
ENDBRANCH  66  91
ENDBRANCH  40  41
ENDBRANCH  32  35
ENDBRANCH  30  31
ENDBRANCH  29  30
ENDBRANCH   1  29
TORSDOF 17
ENDMDL
