MODEL 1
REMARK VINA RESULT:     -11.2      0.000      0.000
REMARK SMILES COc1ccc(-c2sc(C(=O)NCCCCNC(=O)c3ccc(-c4c5nc(c(-c6c(F)cc(S(=O)(=O)[O-])cc6F)c6ccc([nH]6)c(-c6c(F)cc(S(=O)(=O)[O-])cc6F)c6nc(c(-c7c(F)cc(S(=O)(=O)[O-])cc7F)c7ccc4[nH]7)C=C6)C=C5)cc3)cc2C)c(OC)c1
REMARK SMILES IDX 15 1 14 2 13 3 12 4 10 5 11 6 9 8 7 9 8 10 87 11 86 12 88 13
REMARK SMILES IDX 6 14 3 15 4 16 92 17 5 18 89 19 2 20 1 21 90 22 91 23 16 24
REMARK SMILES IDX 17 25 18 26 19 28 20 29 21 30 85 31 22 32 84 33 23 34 24 35
REMARK SMILES IDX 25 36 78 37 26 38 83 39 77 40 79 41 27 42 82 43 76 44 75 45
REMARK SMILES IDX 28 47 62 48 41 49 61 50 42 51 45 52 60 53 80 54 43 55 44 56
REMARK SMILES IDX 59 58 81 59 46 60 29 61 30 62 39 63 31 64 32 65 38 66 40 67
REMARK SMILES IDX 33 68 34 69 35 70 36 71 37 72 63 73 64 74 73 75 65 76 66 77
REMARK SMILES IDX 72 78 74 79 67 80 68 81 69 82 70 83 71 84 47 85 48 86 57 87
REMARK SMILES IDX 49 88 50 89 56 90 58 91 51 92 52 93 53 94 54 95 55 96
REMARK H PARENT 12 7 17 27 79 46 45 57
REMARK Flexibility Score: inf
ROOT
ATOM      1  C   UNL A   1      33.498  28.305  25.770  1.00  0.00     0.023 C 
ENDROOT
BRANCH   1   2
ATOM      2  C   UNL A   1      32.963  29.519  24.999  1.00  0.00     0.023 C 
BRANCH   2   3
ATOM      3  C   UNL A   1      31.438  29.611  24.961  1.00  0.00     0.116 C 
BRANCH   3   4
ATOM      4  N   UNL A   1      30.911  29.121  23.701  1.00  0.00    -0.351 N 
ATOM      5  C   UNL A   1      30.754  27.864  23.168  1.00  0.00     0.261 C 
ATOM      6  O   UNL A   1      30.201  27.843  22.063  1.00  0.00    -0.268 OA
ATOM      7  H   UNL A   1      30.600  29.839  23.103  1.00  0.00     0.163 HD
BRANCH   5   8
ATOM      8  C   UNL A   1      31.154  26.625  23.828  1.00  0.00     0.093 A 
ATOM      9  C   UNL A   1      32.230  24.557  24.696  1.00  0.00     0.042 A 
ATOM     10  S   UNL A   1      32.497  25.664  23.422  1.00  0.00    -0.130 S 
ATOM     11  C   UNL A   1      31.041  24.815  25.355  1.00  0.00    -0.031 A 
ATOM     12  C   UNL A   1      30.435  26.011  24.844  1.00  0.00     0.029 A 
ATOM     13  C   UNL A   1      30.438  23.992  26.445  1.00  0.00     0.046 C 
BRANCH   9  14
ATOM     14  C   UNL A   1      33.222  23.494  24.896  1.00  0.00     0.034 A 
ATOM     15  C   UNL A   1      35.231  21.562  25.227  1.00  0.00     0.122 A 
ATOM     16  C   UNL A   1      35.327  22.789  25.882  1.00  0.00     0.047 A 
ATOM     17  C   UNL A   1      34.110  21.281  24.440  1.00  0.00     0.093 A 
ATOM     18  C   UNL A   1      34.334  23.752  25.713  1.00  0.00     0.017 A 
ATOM     19  C   UNL A   1      33.097  22.237  24.273  1.00  0.00     0.131 A 
BRANCH  15  20
ATOM     20  O   UNL A   1      36.275  20.705  25.455  1.00  0.00    -0.497 OA
ATOM     21  C   UNL A   1      37.485  21.002  24.769  1.00  0.00     0.278 C 
ENDBRANCH  15  20
BRANCH  19  22
ATOM     22  O   UNL A   1      31.966  22.045  23.521  1.00  0.00    -0.496 OA
ATOM     23  C   UNL A   1      32.053  21.196  22.388  1.00  0.00     0.278 C 
ENDBRANCH  19  22
ENDBRANCH   9  14
ENDBRANCH   5   8
ENDBRANCH   3   4
ENDBRANCH   2   3
ENDBRANCH   1   2
BRANCH   1  24
ATOM     24  C   UNL A   1      33.630  28.493  27.280  1.00  0.00     0.116 C 
BRANCH  24  25
ATOM     25  N   UNL A   1      33.532  29.882  27.702  1.00  0.00    -0.352 N 
ATOM     26  C   UNL A   1      34.496  30.671  28.282  1.00  0.00     0.251 C 
ATOM     27  H   UNL A   1      32.659  30.313  27.554  1.00  0.00     0.163 HD
ATOM     28  O   UNL A   1      34.218  31.801  28.671  1.00  0.00    -0.269 OA
BRANCH  26  29
ATOM     29  C   UNL A   1      35.859  30.130  28.469  1.00  0.00     0.039 A 
ATOM     30  C   UNL A   1      36.753  30.175  27.395  1.00  0.00     0.014 A 
ATOM     31  C   UNL A   1      36.262  29.617  29.705  1.00  0.00     0.014 A 
ATOM     32  C   UNL A   1      38.075  29.768  27.584  1.00  0.00     0.010 A 
ATOM     33  C   UNL A   1      37.594  29.272  29.906  1.00  0.00     0.010 A 
ATOM     34  C   UNL A   1      38.516  29.351  28.850  1.00  0.00    -0.014 A 
BRANCH  34  35
ATOM     35  C   UNL A   1      39.940  29.007  29.095  1.00  0.00     0.031 A 
ATOM     36  C   UNL A   1      40.882  30.040  29.645  1.00  0.00     0.074 A 
ATOM     37  C   UNL A   1      40.396  27.785  28.754  1.00  0.00     0.049 A 
ATOM     38  N   UNL A   1      42.171  29.957  29.850  1.00  0.00    -0.248 NA
ATOM     39  C   UNL A   1      40.303  31.351  29.987  1.00  0.00     0.031 C 
ATOM     40  C   UNL A   1      39.589  26.713  28.166  1.00  0.00     0.029 A 
ATOM     41  N   UNL A   1      41.653  27.241  28.842  1.00  0.00    -0.354 N 
ATOM     42  C   UNL A   1      42.561  31.202  30.329  1.00  0.00     0.074 A 
ATOM     43  C   UNL A   1      41.380  32.038  30.339  1.00  0.00     0.031 C 
ATOM     44  C   UNL A   1      40.366  25.636  27.964  1.00  0.00     0.029 A 
ATOM     45  C   UNL A   1      41.731  25.949  28.376  1.00  0.00     0.049 A 
ATOM     46  H   UNL A   1      42.426  27.730  29.204  1.00  0.00     0.167 HD
ATOM     47  C   UNL A   1      43.785  31.603  30.746  1.00  0.00     0.037 A 
ATOM     48  C   UNL A   1      42.784  25.115  28.285  1.00  0.00     0.037 A 
ATOM     49  C   UNL A   1      44.950  30.757  30.759  1.00  0.00     0.049 A 
ATOM     50  C   UNL A   1      44.132  25.583  28.761  1.00  0.00     0.074 A 
ATOM     51  C   UNL A   1      46.225  31.055  31.208  1.00  0.00     0.029 A 
ATOM     52  N   UNL A   1      44.982  29.446  30.307  1.00  0.00    -0.354 N 
ATOM     53  N   UNL A   1      44.472  26.746  29.262  1.00  0.00    -0.248 NA
ATOM     54  C   UNL A   1      45.241  24.622  28.667  1.00  0.00     0.031 C 
ATOM     55  C   UNL A   1      47.036  29.934  31.000  1.00  0.00     0.029 A 
ATOM     56  C   UNL A   1      46.257  28.925  30.457  1.00  0.00     0.049 A 
ATOM     57  H   UNL A   1      44.212  28.958  29.935  1.00  0.00     0.167 HD
ATOM     58  C   UNL A   1      45.825  26.650  29.567  1.00  0.00     0.074 A 
ATOM     59  C   UNL A   1      46.240  25.310  29.203  1.00  0.00     0.031 C 
ATOM     60  C   UNL A   1      46.648  27.584  30.101  1.00  0.00     0.037 A 
BRANCH  47  61
ATOM     61  C   UNL A   1      43.923  33.019  31.232  1.00  0.00     0.058 A 
ATOM     62  C   UNL A   1      43.714  33.354  32.579  1.00  0.00     0.135 A 
ATOM     63  C   UNL A   1      44.299  34.046  30.352  1.00  0.00     0.135 A 
ATOM     64  F   UNL A   1      43.338  32.413  33.460  1.00  0.00    -0.206 F 
ATOM     65  C   UNL A   1      43.842  34.663  33.032  1.00  0.00     0.059 A 
ATOM     66  C   UNL A   1      44.458  35.359  30.788  1.00  0.00     0.059 A 
ATOM     67  F   UNL A   1      44.511  33.781  29.053  1.00  0.00    -0.206 F 
ATOM     68  C   UNL A   1      44.213  35.659  32.127  1.00  0.00     0.060 A 
BRANCH  68  69
ATOM     69  S   UNL A   1      44.378  37.352  32.730  1.00  0.00     0.124 S 
ATOM     70  O   UNL A   1      45.767  37.366  33.177  1.00  0.00    -0.237 OA
ATOM     71  O   UNL A   1      44.090  38.141  31.536  1.00  0.00    -0.237 OA
ATOM     72  O   UNL A   1      43.376  37.436  33.788  1.00  0.00    -0.744 OA
ENDBRANCH  68  69
ENDBRANCH  47  61
BRANCH  48  73
ATOM     73  C   UNL A   1      42.602  23.741  27.747  1.00  0.00     0.058 A 
ATOM     74  C   UNL A   1      42.636  23.500  26.367  1.00  0.00     0.135 A 
ATOM     75  C   UNL A   1      42.395  22.644  28.598  1.00  0.00     0.135 A 
ATOM     76  F   UNL A   1      42.826  24.519  25.514  1.00  0.00    -0.206 F 
ATOM     77  C   UNL A   1      42.453  22.225  25.844  1.00  0.00     0.059 A 
ATOM     78  C   UNL A   1      42.233  21.355  28.100  1.00  0.00     0.059 A 
ATOM     79  F   UNL A   1      42.372  22.819  29.928  1.00  0.00    -0.206 F 
ATOM     80  C   UNL A   1      42.251  21.157  26.720  1.00  0.00     0.060 A 
BRANCH  80  81
ATOM     81  S   UNL A   1      42.054  19.497  26.034  1.00  0.00     0.124 S 
ATOM     82  O   UNL A   1      42.553  18.670  27.126  1.00  0.00    -0.237 OA
ATOM     83  O   UNL A   1      40.618  19.434  25.788  1.00  0.00    -0.237 OA
ATOM     84  O   UNL A   1      42.886  19.532  24.836  1.00  0.00    -0.744 OA
ENDBRANCH  80  81
ENDBRANCH  48  73
BRANCH  60  85
ATOM     85  C   UNL A   1      48.073  27.182  30.360  1.00  0.00     0.058 A 
ATOM     86  C   UNL A   1      49.074  27.355  29.392  1.00  0.00     0.135 A 
ATOM     87  C   UNL A   1      48.448  26.665  31.610  1.00  0.00     0.135 A 
ATOM     88  F   UNL A   1      48.765  27.837  28.178  1.00  0.00    -0.206 F 
ATOM     89  C   UNL A   1      50.397  27.010  29.649  1.00  0.00     0.059 A 
ATOM     90  C   UNL A   1      49.769  26.337  31.897  1.00  0.00     0.059 A 
ATOM     91  F   UNL A   1      47.529  26.490  32.572  1.00  0.00    -0.206 F 
ATOM     92  C   UNL A   1      50.735  26.503  30.905  1.00  0.00     0.060 A 
BRANCH  92  93
ATOM     93  S   UNL A   1      52.461  26.095  31.240  1.00  0.00     0.124 S 
ATOM     94  O   UNL A   1      52.835  27.148  32.178  1.00  0.00    -0.237 OA
ATOM     95  O   UNL A   1      52.363  24.751  31.802  1.00  0.00    -0.237 OA
ATOM     96  O   UNL A   1      53.090  26.172  29.924  1.00  0.00    -0.744 OA
ENDBRANCH  92  93
ENDBRANCH  60  85
ENDBRANCH  34  35
ENDBRANCH  26  29
ENDBRANCH  24  25
ENDBRANCH   1  24
TORSDOF 17
ENDMDL
MODEL 2
REMARK VINA RESULT:     -11.1      1.126      2.152
REMARK SMILES COc1ccc(-c2sc(C(=O)NCCCCNC(=O)c3ccc(-c4c5nc(c(-c6c(F)cc(S(=O)(=O)[O-])cc6F)c6ccc([nH]6)c(-c6c(F)cc(S(=O)(=O)[O-])cc6F)c6nc(c(-c7c(F)cc(S(=O)(=O)[O-])cc7F)c7ccc4[nH]7)C=C6)C=C5)cc3)cc2C)c(OC)c1
REMARK SMILES IDX 15 1 14 2 13 3 12 4 10 5 11 6 9 8 7 9 8 10 87 11 86 12 88 13
REMARK SMILES IDX 6 14 3 15 4 16 92 17 5 18 89 19 2 20 1 21 90 22 91 23 16 24
REMARK SMILES IDX 17 25 18 26 19 28 20 29 21 30 85 31 22 32 84 33 23 34 24 35
REMARK SMILES IDX 25 36 78 37 26 38 83 39 77 40 79 41 27 42 82 43 76 44 75 45
REMARK SMILES IDX 28 47 62 48 41 49 61 50 42 51 45 52 60 53 80 54 43 55 44 56
REMARK SMILES IDX 59 58 81 59 46 60 29 61 30 62 39 63 31 64 32 65 38 66 40 67
REMARK SMILES IDX 33 68 34 69 35 70 36 71 37 72 63 73 64 74 73 75 65 76 66 77
REMARK SMILES IDX 72 78 74 79 67 80 68 81 69 82 70 83 71 84 47 85 48 86 57 87
REMARK SMILES IDX 49 88 50 89 56 90 58 91 51 92 52 93 53 94 54 95 55 96
REMARK H PARENT 12 7 17 27 79 46 45 57
REMARK Flexibility Score: inf
ROOT
ATOM      1  C   UNL A   1      33.914  28.246  25.777  1.00  0.00     0.023 C 
ENDROOT
BRANCH   1   2
ATOM      2  C   UNL A   1      32.939  28.889  24.782  1.00  0.00     0.023 C 
BRANCH   2   3
ATOM      3  C   UNL A   1      32.059  27.889  24.034  1.00  0.00     0.116 C 
BRANCH   3   4
ATOM      4  N   UNL A   1      32.690  27.446  22.805  1.00  0.00    -0.351 N 
ATOM      5  C   UNL A   1      33.243  26.252  22.405  1.00  0.00     0.261 C 
ATOM      6  O   UNL A   1      33.640  26.241  21.234  1.00  0.00    -0.268 OA
ATOM      7  H   UNL A   1      32.730  28.145  22.113  1.00  0.00     0.163 HD
BRANCH   5   8
ATOM      8  C   UNL A   1      33.340  25.059  23.239  1.00  0.00     0.093 A 
ATOM      9  C   UNL A   1      33.486  22.792  24.251  1.00  0.00     0.042 A 
ATOM     10  S   UNL A   1      33.118  23.454  22.720  1.00  0.00    -0.130 S 
ATOM     11  C   UNL A   1      33.638  23.776  25.211  1.00  0.00    -0.031 A 
ATOM     12  C   UNL A   1      33.554  25.077  24.610  1.00  0.00     0.029 A 
ATOM     13  C   UNL A   1      33.859  23.561  26.672  1.00  0.00     0.046 C 
BRANCH   9  14
ATOM     14  C   UNL A   1      33.548  21.329  24.366  1.00  0.00     0.034 A 
ATOM     15  C   UNL A   1      33.557  18.542  24.702  1.00  0.00     0.122 A 
ATOM     16  C   UNL A   1      32.366  19.207  24.415  1.00  0.00     0.047 A 
ATOM     17  C   UNL A   1      34.754  19.263  24.779  1.00  0.00     0.093 A 
ATOM     18  C   UNL A   1      32.358  20.592  24.255  1.00  0.00     0.017 A 
ATOM     19  C   UNL A   1      34.761  20.655  24.606  1.00  0.00     0.131 A 
BRANCH  15  20
ATOM     20  O   UNL A   1      33.437  17.188  24.856  1.00  0.00    -0.497 OA
ATOM     21  C   UNL A   1      34.508  16.405  24.341  1.00  0.00     0.278 C 
ENDBRANCH  15  20
BRANCH  19  22
ATOM     22  O   UNL A   1      35.886  21.439  24.664  1.00  0.00    -0.496 OA
ATOM     23  C   UNL A   1      37.121  20.811  24.968  1.00  0.00     0.278 C 
ENDBRANCH  19  22
ENDBRANCH   9  14
ENDBRANCH   5   8
ENDBRANCH   3   4
ENDBRANCH   2   3
ENDBRANCH   1   2
BRANCH   1  24
ATOM     24  C   UNL A   1      33.576  28.453  27.252  1.00  0.00     0.116 C 
BRANCH  24  25
ATOM     25  N   UNL A   1      33.480  29.853  27.635  1.00  0.00    -0.352 N 
ATOM     26  C   UNL A   1      34.443  30.656  28.197  1.00  0.00     0.251 C 
ATOM     27  H   UNL A   1      32.609  30.283  27.470  1.00  0.00     0.163 HD
ATOM     28  O   UNL A   1      34.166  31.797  28.554  1.00  0.00    -0.269 OA
BRANCH  26  29
ATOM     29  C   UNL A   1      35.803  30.117  28.406  1.00  0.00     0.039 A 
ATOM     30  C   UNL A   1      36.703  30.130  27.336  1.00  0.00     0.014 A 
ATOM     31  C   UNL A   1      36.199  29.637  29.657  1.00  0.00     0.014 A 
ATOM     32  C   UNL A   1      38.023  29.725  27.542  1.00  0.00     0.010 A 
ATOM     33  C   UNL A   1      37.530  29.294  29.875  1.00  0.00     0.010 A 
ATOM     34  C   UNL A   1      38.457  29.342  28.822  1.00  0.00    -0.014 A 
BRANCH  34  35
ATOM     35  C   UNL A   1      39.879  29.001  29.083  1.00  0.00     0.031 A 
ATOM     36  C   UNL A   1      40.809  30.033  29.658  1.00  0.00     0.074 A 
ATOM     37  C   UNL A   1      40.345  27.784  28.736  1.00  0.00     0.049 A 
ATOM     38  N   UNL A   1      42.095  29.952  29.880  1.00  0.00    -0.248 NA
ATOM     39  C   UNL A   1      40.219  31.337  30.004  1.00  0.00     0.031 C 
ATOM     40  C   UNL A   1      39.550  26.715  28.126  1.00  0.00     0.029 A 
ATOM     41  N   UNL A   1      41.603  27.245  28.836  1.00  0.00    -0.354 N 
ATOM     42  C   UNL A   1      42.472  31.194  30.378  1.00  0.00     0.074 A 
ATOM     43  C   UNL A   1      41.288  32.025  30.379  1.00  0.00     0.031 C 
ATOM     44  C   UNL A   1      40.335  25.644  27.924  1.00  0.00     0.029 A 
ATOM     45  C   UNL A   1      41.693  25.959  28.358  1.00  0.00     0.049 A 
ATOM     46  H   UNL A   1      42.368  27.734  29.215  1.00  0.00     0.167 HD
ATOM     47  C   UNL A   1      43.689  31.595  30.816  1.00  0.00     0.037 A 
ATOM     48  C   UNL A   1      42.750  25.129  28.274  1.00  0.00     0.037 A 
ATOM     49  C   UNL A   1      44.857  30.755  30.837  1.00  0.00     0.049 A 
ATOM     50  C   UNL A   1      44.090  25.598  28.774  1.00  0.00     0.074 A 
ATOM     51  C   UNL A   1      46.124  31.053  31.307  1.00  0.00     0.029 A 
ATOM     52  N   UNL A   1      44.901  29.448  30.372  1.00  0.00    -0.354 N 
ATOM     53  N   UNL A   1      44.417  26.758  29.292  1.00  0.00    -0.248 NA
ATOM     54  C   UNL A   1      45.204  24.643  28.685  1.00  0.00     0.031 C 
ATOM     55  C   UNL A   1      46.943  29.937  31.099  1.00  0.00     0.029 A 
ATOM     56  C   UNL A   1      46.176  28.931  30.534  1.00  0.00     0.049 A 
ATOM     57  H   UNL A   1      44.138  28.961  29.984  1.00  0.00     0.167 HD
ATOM     58  C   UNL A   1      45.766  26.663  29.615  1.00  0.00     0.074 A 
ATOM     59  C   UNL A   1      46.192  25.329  29.243  1.00  0.00     0.031 C 
ATOM     60  C   UNL A   1      46.578  27.595  30.170  1.00  0.00     0.037 A 
BRANCH  47  61
ATOM     61  C   UNL A   1      43.814  33.007  31.318  1.00  0.00     0.058 A 
ATOM     62  C   UNL A   1      44.214  34.053  30.470  1.00  0.00     0.135 A 
ATOM     63  C   UNL A   1      43.504  33.325  32.649  1.00  0.00     0.135 A 
ATOM     64  F   UNL A   1      44.539  33.801  29.192  1.00  0.00    -0.206 F 
ATOM     65  C   UNL A   1      44.330  35.359  30.932  1.00  0.00     0.059 A 
ATOM     66  C   UNL A   1      43.587  34.631  33.126  1.00  0.00     0.059 A 
ATOM     67  F   UNL A   1      43.117  32.364  33.503  1.00  0.00    -0.206 F 
ATOM     68  C   UNL A   1      44.016  35.638  32.263  1.00  0.00     0.060 A 
BRANCH  68  69
ATOM     69  S   UNL A   1      44.169  37.339  32.847  1.00  0.00     0.124 S 
ATOM     70  O   UNL A   1      43.252  37.340  33.983  1.00  0.00    -0.237 OA
ATOM     71  O   UNL A   1      45.587  37.432  33.177  1.00  0.00    -0.237 OA
ATOM     72  O   UNL A   1      43.744  38.132  31.697  1.00  0.00    -0.744 OA
ENDBRANCH  68  69
ENDBRANCH  47  61
BRANCH  48  73
ATOM     73  C   UNL A   1      42.582  23.761  27.720  1.00  0.00     0.058 A 
ATOM     74  C   UNL A   1      42.362  22.665  28.566  1.00  0.00     0.135 A 
ATOM     75  C   UNL A   1      42.632  23.520  26.338  1.00  0.00     0.135 A 
ATOM     76  F   UNL A   1      42.312  22.845  29.895  1.00  0.00    -0.206 F 
ATOM     77  C   UNL A   1      42.218  21.375  28.067  1.00  0.00     0.059 A 
ATOM     78  C   UNL A   1      42.466  22.243  25.813  1.00  0.00     0.059 A 
ATOM     79  F   UNL A   1      42.822  24.539  25.484  1.00  0.00    -0.206 F 
ATOM     80  C   UNL A   1      42.272  21.173  26.687  1.00  0.00     0.060 A 
BRANCH  80  81
ATOM     81  S   UNL A   1      42.043  19.501  26.044  1.00  0.00     0.124 S 
ATOM     82  O   UNL A   1      42.448  18.691  27.187  1.00  0.00    -0.237 OA
ATOM     83  O   UNL A   1      40.620  19.486  25.723  1.00  0.00    -0.237 OA
ATOM     84  O   UNL A   1      42.938  19.461  24.892  1.00  0.00    -0.744 OA
ENDBRANCH  80  81
ENDBRANCH  48  73
BRANCH  60  85
ATOM     85  C   UNL A   1      48.000  27.197  30.445  1.00  0.00     0.058 A 
ATOM     86  C   UNL A   1      49.027  27.447  29.522  1.00  0.00     0.135 A 
ATOM     87  C   UNL A   1      48.346  26.603  31.670  1.00  0.00     0.135 A 
ATOM     88  F   UNL A   1      48.746  28.005  28.334  1.00  0.00    -0.206 F 
ATOM     89  C   UNL A   1      50.347  27.104  29.795  1.00  0.00     0.059 A 
ATOM     90  C   UNL A   1      49.664  26.275  31.974  1.00  0.00     0.059 A 
ATOM     91  F   UNL A   1      47.402  26.352  32.590  1.00  0.00    -0.206 F 
ATOM     92  C   UNL A   1      50.656  26.519  31.025  1.00  0.00     0.060 A 
BRANCH  92  93
ATOM     93  S   UNL A   1      52.377  26.113  31.385  1.00  0.00     0.124 S 
ATOM     94  O   UNL A   1      52.982  26.198  30.060  1.00  0.00    -0.237 OA
ATOM     95  O   UNL A   1      52.758  27.164  32.324  1.00  0.00    -0.237 OA
ATOM     96  O   UNL A   1      52.298  24.771  31.954  1.00  0.00    -0.744 OA
ENDBRANCH  92  93
ENDBRANCH  60  85
ENDBRANCH  34  35
ENDBRANCH  26  29
ENDBRANCH  24  25
ENDBRANCH   1  24
TORSDOF 17
ENDMDL
MODEL 3
REMARK VINA RESULT:     -11.0      2.704      3.524
REMARK SMILES COc1ccc(-c2sc(C(=O)NCCCCNC(=O)c3ccc(-c4c5nc(c(-c6c(F)cc(S(=O)(=O)[O-])cc6F)c6ccc([nH]6)c(-c6c(F)cc(S(=O)(=O)[O-])cc6F)c6nc(c(-c7c(F)cc(S(=O)(=O)[O-])cc7F)c7ccc4[nH]7)C=C6)C=C5)cc3)cc2C)c(OC)c1
REMARK SMILES IDX 15 1 14 2 13 3 12 4 10 5 11 6 9 8 7 9 8 10 87 11 86 12 88 13
REMARK SMILES IDX 6 14 3 15 4 16 92 17 5 18 89 19 2 20 1 21 90 22 91 23 16 24
REMARK SMILES IDX 17 25 18 26 19 28 20 29 21 30 85 31 22 32 84 33 23 34 24 35
REMARK SMILES IDX 25 36 78 37 26 38 83 39 77 40 79 41 27 42 82 43 76 44 75 45
REMARK SMILES IDX 28 47 62 48 41 49 61 50 42 51 45 52 60 53 80 54 43 55 44 56
REMARK SMILES IDX 59 58 81 59 46 60 29 61 30 62 39 63 31 64 32 65 38 66 40 67
REMARK SMILES IDX 33 68 34 69 35 70 36 71 37 72 63 73 64 74 73 75 65 76 66 77
REMARK SMILES IDX 72 78 74 79 67 80 68 81 69 82 70 83 71 84 47 85 48 86 57 87
REMARK SMILES IDX 49 88 50 89 56 90 58 91 51 92 52 93 53 94 54 95 55 96
REMARK H PARENT 12 7 17 27 79 46 45 57
REMARK Flexibility Score: inf
ROOT
ATOM      1  C   UNL A   1      34.259  29.149  27.047  1.00  0.00     0.023 C 
ENDROOT
BRANCH   1   2
ATOM      2  C   UNL A   1      33.473  30.440  26.779  1.00  0.00     0.023 C 
BRANCH   2   3
ATOM      3  C   UNL A   1      31.958  30.251  26.733  1.00  0.00     0.116 C 
BRANCH   3   4
ATOM      4  N   UNL A   1      31.480  30.141  25.367  1.00  0.00    -0.351 N 
ATOM      5  C   UNL A   1      31.429  29.105  24.465  1.00  0.00     0.261 C 
ATOM      6  O   UNL A   1      30.886  29.389  23.392  1.00  0.00    -0.268 OA
ATOM      7  H   UNL A   1      31.118  30.985  25.013  1.00  0.00     0.163 HD
BRANCH   5   8
ATOM      8  C   UNL A   1      31.922  27.755  24.720  1.00  0.00     0.093 A 
ATOM      9  C   UNL A   1      33.140  25.594  24.905  1.00  0.00     0.042 A 
ATOM     10  S   UNL A   1      33.284  27.035  23.999  1.00  0.00    -0.130 S 
ATOM     11  C   UNL A   1      31.979  25.578  25.658  1.00  0.00    -0.031 A 
ATOM     12  C   UNL A   1      31.290  26.832  25.542  1.00  0.00     0.029 A 
ATOM     13  C   UNL A   1      31.477  24.442  26.485  1.00  0.00     0.046 C 
BRANCH   9  14
ATOM     14  C   UNL A   1      34.190  24.581  24.748  1.00  0.00     0.034 A 
ATOM     15  C   UNL A   1      36.303  22.761  24.426  1.00  0.00     0.122 A 
ATOM     16  C   UNL A   1      36.367  23.737  25.419  1.00  0.00     0.047 A 
ATOM     17  C   UNL A   1      35.165  22.665  23.619  1.00  0.00     0.093 A 
ATOM     18  C   UNL A   1      35.321  24.646  25.576  1.00  0.00     0.017 A 
ATOM     19  C   UNL A   1      34.100  23.565  23.776  1.00  0.00     0.131 A 
BRANCH  15  20
ATOM     20  O   UNL A   1      37.395  21.939  24.356  1.00  0.00    -0.497 OA
ATOM     21  C   UNL A   1      38.190  21.858  25.534  1.00  0.00     0.278 C 
ENDBRANCH  15  20
BRANCH  19  22
ATOM     22  O   UNL A   1      32.949  23.543  23.030  1.00  0.00    -0.496 OA
ATOM     23  C   UNL A   1      32.367  22.283  22.738  1.00  0.00     0.278 C 
ENDBRANCH  19  22
ENDBRANCH   9  14
ENDBRANCH   5   8
ENDBRANCH   3   4
ENDBRANCH   2   3
ENDBRANCH   1   2
BRANCH   1  24
ATOM     24  C   UNL A   1      35.587  29.330  27.780  1.00  0.00     0.116 C 
BRANCH  24  25
ATOM     25  N   UNL A   1      35.432  29.716  29.175  1.00  0.00    -0.352 N 
ATOM     26  C   UNL A   1      36.403  29.852  30.138  1.00  0.00     0.251 C 
ATOM     27  H   UNL A   1      34.511  29.903  29.467  1.00  0.00     0.163 HD
ATOM     28  O   UNL A   1      36.090  30.090  31.301  1.00  0.00    -0.269 OA
BRANCH  26  29
ATOM     29  C   UNL A   1      37.822  29.669  29.768  1.00  0.00     0.039 A 
ATOM     30  C   UNL A   1      38.723  29.246  30.749  1.00  0.00     0.014 A 
ATOM     31  C   UNL A   1      38.252  29.877  28.455  1.00  0.00     0.014 A 
ATOM     32  C   UNL A   1      40.043  28.964  30.395  1.00  0.00     0.010 A 
ATOM     33  C   UNL A   1      39.552  29.537  28.093  1.00  0.00     0.010 A 
ATOM     34  C   UNL A   1      40.458  29.069  29.058  1.00  0.00    -0.014 A 
BRANCH  34  35
ATOM     35  C   UNL A   1      41.831  28.682  28.644  1.00  0.00     0.031 A 
ATOM     36  C   UNL A   1      42.918  29.717  28.573  1.00  0.00     0.074 A 
ATOM     37  C   UNL A   1      42.077  27.411  28.267  1.00  0.00     0.049 A 
ATOM     38  N   UNL A   1      44.152  29.592  28.159  1.00  0.00    -0.248 NA
ATOM     39  C   UNL A   1      42.564  31.082  28.998  1.00  0.00     0.031 C 
ATOM     40  C   UNL A   1      41.092  26.327  28.247  1.00  0.00     0.029 A 
ATOM     41  N   UNL A   1      43.230  26.818  27.816  1.00  0.00    -0.354 N 
ATOM     42  C   UNL A   1      44.718  30.857  28.259  1.00  0.00     0.074 A 
ATOM     43  C   UNL A   1      43.677  31.747  28.728  1.00  0.00     0.031 C 
ATOM     44  C   UNL A   1      41.686  25.199  27.826  1.00  0.00     0.029 A 
ATOM     45  C   UNL A   1      43.084  25.484  27.514  1.00  0.00     0.049 A 
ATOM     46  H   UNL A   1      44.081  27.302  27.719  1.00  0.00     0.167 HD
ATOM     47  C   UNL A   1      45.993  31.237  28.008  1.00  0.00     0.037 A 
ATOM     48  C   UNL A   1      43.973  24.594  27.034  1.00  0.00     0.037 A 
ATOM     49  C   UNL A   1      47.030  30.341  27.568  1.00  0.00     0.049 A 
ATOM     50  C   UNL A   1      45.386  25.040  26.769  1.00  0.00     0.074 A 
ATOM     51  C   UNL A   1      48.365  30.619  27.333  1.00  0.00     0.029 A 
ATOM     52  N   UNL A   1      46.850  28.991  27.301  1.00  0.00    -0.354 N 
ATOM     53  N   UNL A   1      45.917  26.230  26.921  1.00  0.00    -0.248 NA
ATOM     54  C   UNL A   1      46.323  24.022  26.273  1.00  0.00     0.031 C 
ATOM     55  C   UNL A   1      48.987  29.444  26.895  1.00  0.00     0.029 A 
ATOM     56  C   UNL A   1      48.047  28.425  26.894  1.00  0.00     0.049 A 
ATOM     57  H   UNL A   1      45.997  28.508  27.389  1.00  0.00     0.167 HD
ATOM     58  C   UNL A   1      47.255  26.097  26.566  1.00  0.00     0.074 A 
ATOM     59  C   UNL A   1      47.454  24.710  26.201  1.00  0.00     0.031 C 
ATOM     60  C   UNL A   1      48.229  27.038  26.546  1.00  0.00     0.037 A 
BRANCH  47  61
ATOM     61  C   UNL A   1      46.339  32.686  28.213  1.00  0.00     0.058 A 
ATOM     62  C   UNL A   1      46.195  33.626  27.180  1.00  0.00     0.135 A 
ATOM     63  C   UNL A   1      46.789  33.146  29.460  1.00  0.00     0.135 A 
ATOM     64  F   UNL A   1      45.783  33.236  25.963  1.00  0.00    -0.206 F 
ATOM     65  C   UNL A   1      46.513  34.967  27.368  1.00  0.00     0.059 A 
ATOM     66  C   UNL A   1      47.089  34.488  29.678  1.00  0.00     0.059 A 
ATOM     67  F   UNL A   1      46.945  32.290  30.482  1.00  0.00    -0.206 F 
ATOM     68  C   UNL A   1      46.962  35.388  28.621  1.00  0.00     0.060 A 
BRANCH  68  69
ATOM     69  S   UNL A   1      47.368  37.132  28.849  1.00  0.00     0.124 S 
ATOM     70  O   UNL A   1      47.346  37.617  27.473  1.00  0.00    -0.237 OA
ATOM     71  O   UNL A   1      46.280  37.598  29.703  1.00  0.00    -0.237 OA
ATOM     72  O   UNL A   1      48.683  37.094  29.481  1.00  0.00    -0.744 OA
ENDBRANCH  68  69
ENDBRANCH  47  61
BRANCH  48  73
ATOM     73  C   UNL A   1      43.564  23.185  26.799  1.00  0.00     0.058 A 
ATOM     74  C   UNL A   1      43.332  22.315  27.874  1.00  0.00     0.135 A 
ATOM     75  C   UNL A   1      43.393  22.680  25.501  1.00  0.00     0.135 A 
ATOM     76  F   UNL A   1      43.488  22.752  29.134  1.00  0.00    -0.206 F 
ATOM     77  C   UNL A   1      42.963  20.990  27.673  1.00  0.00     0.059 A 
ATOM     78  C   UNL A   1      43.002  21.364  25.275  1.00  0.00     0.059 A 
ATOM     79  F   UNL A   1      43.586  23.477  24.438  1.00  0.00    -0.206 F 
ATOM     80  C   UNL A   1      42.802  20.522  26.368  1.00  0.00     0.060 A 
BRANCH  80  81
ATOM     81  S   UNL A   1      42.283  18.810  26.118  1.00  0.00     0.124 S 
ATOM     82  O   UNL A   1      43.207  18.375  25.077  1.00  0.00    -0.237 OA
ATOM     83  O   UNL A   1      42.490  18.229  27.440  1.00  0.00    -0.237 OA
ATOM     84  O   UNL A   1      40.888  18.941  25.710  1.00  0.00    -0.744 OA
ENDBRANCH  80  81
ENDBRANCH  48  73
BRANCH  60  85
ATOM     85  C   UNL A   1      49.609  26.595  26.152  1.00  0.00     0.058 A 
ATOM     86  C   UNL A   1      50.096  26.776  24.848  1.00  0.00     0.135 A 
ATOM     87  C   UNL A   1      50.472  26.028  27.104  1.00  0.00     0.135 A 
ATOM     88  F   UNL A   1      49.308  27.305  23.900  1.00  0.00    -0.206 F 
ATOM     89  C   UNL A   1      51.386  26.391  24.497  1.00  0.00     0.059 A 
ATOM     90  C   UNL A   1      51.774  25.660  26.781  1.00  0.00     0.059 A 
ATOM     91  F   UNL A   1      50.057  25.844  28.367  1.00  0.00    -0.206 F 
ATOM     92  C   UNL A   1      52.219  25.835  25.471  1.00  0.00     0.060 A 
BRANCH  92  93
ATOM     93  S   UNL A   1      53.903  25.376  25.013  1.00  0.00     0.124 S 
ATOM     94  O   UNL A   1      54.665  25.886  26.147  1.00  0.00    -0.237 OA
ATOM     95  O   UNL A   1      53.815  23.922  24.910  1.00  0.00    -0.237 OA
ATOM     96  O   UNL A   1      54.114  26.075  23.748  1.00  0.00    -0.744 OA
ENDBRANCH  92  93
ENDBRANCH  60  85
ENDBRANCH  34  35
ENDBRANCH  26  29
ENDBRANCH  24  25
ENDBRANCH   1  24
TORSDOF 17
ENDMDL
