MODEL 1
REMARK VINA RESULT:     -11.0      0.000      0.000
REMARK SMILES CCC[C@@]1(C(=O)N[C@@](C)(C(=O)NCCCCNC(=O)c2ccc(-c3c4nc(c(-c5c(F)cc(S(=O)(=O)[O-])cc5F)c5ccc([nH]5)c(-c5c(F)cc(S(=O)(=O)[O-])cc5F)c5nc(c(-c6c(F)cc(S(=O)(=O)[O-])cc6F)c6ccc3[nH]6)C=C5)C=C4)cc2)C(F)(F)F)CC[NH2+]C1
REMARK SMILES IDX 14 1 13 2 12 3 10 4 11 5 8 7 9 8 7 9 5 10 6 11 4 13 90 14
REMARK SMILES IDX 93 15 91 16 92 17 3 20 2 21 1 22 86 23 87 24 88 25 89 26
REMARK SMILES IDX 15 27 16 28 17 29 18 30 19 32 20 33 21 34 85 35 22 36 84 37
REMARK SMILES IDX 23 38 24 39 25 40 78 41 26 42 83 43 77 44 79 45 27 46 82 47
REMARK SMILES IDX 76 48 75 49 28 51 62 52 41 53 61 54 42 55 45 56 60 57 80 58
REMARK SMILES IDX 43 59 44 60 59 62 81 63 46 64 29 65 30 66 39 67 31 68 32 69
REMARK SMILES IDX 38 70 40 71 33 72 34 73 35 74 36 75 37 76 63 77 64 78 73 79
REMARK SMILES IDX 65 80 66 81 72 82 74 83 67 84 68 85 69 86 70 87 71 88 47 89
REMARK SMILES IDX 48 90 57 91 49 92 50 93 56 94 58 95 51 96 52 97 53 98 54 99
REMARK SMILES IDX 55 100
REMARK H PARENT 12 6 7 12 92 18 92 19 17 31 79 50 45 61
REMARK Flexibility Score: inf
ROOT
ATOM      1  C   UNL A   1      32.445  28.647  24.933  1.00  0.00     0.023 C 
ENDROOT
BRANCH   1   2
ATOM      2  C   UNL A   1      31.841  27.512  24.107  1.00  0.00     0.116 C 
BRANCH   2   3
ATOM      3  N   UNL A   1      32.775  27.029  23.105  1.00  0.00    -0.354 N 
ATOM      4  C   UNL A   1      33.144  25.801  22.649  1.00  0.00     0.254 C 
ATOM      5  O   UNL A   1      34.043  25.831  21.804  1.00  0.00    -0.272 OA
ATOM      6  H   UNL A   1      33.251  27.759  22.649  1.00  0.00     0.163 HD
BRANCH   4   7
ATOM      7  C   UNL A   1      32.565  24.472  23.189  1.00  0.00     0.212 C 
ATOM      8  C   UNL A   1      31.034  24.406  23.036  1.00  0.00     0.056 C 
BRANCH   7   9
ATOM      9  N   UNL A   1      32.948  24.469  24.648  1.00  0.00    -0.334 N 
ATOM     10  C   UNL A   1      33.147  23.557  25.630  1.00  0.00     0.233 C 
ATOM     11  O   UNL A   1      32.463  23.787  26.638  1.00  0.00    -0.274 OA
ATOM     12  H   UNL A   1      33.093  25.384  24.980  1.00  0.00     0.164 HD
BRANCH  10  13
ATOM     13  C   UNL A   1      34.339  22.564  25.710  1.00  0.00     0.103 C 
ATOM     14  C   UNL A   1      34.242  21.257  24.934  1.00  0.00     0.084 C 
ATOM     15  C   UNL A   1      34.340  21.937  27.139  1.00  0.00     0.277 C 
ATOM     16  C   UNL A   1      33.187  20.475  25.684  1.00  0.00     0.261 C 
ATOM     17  N   UNL A   1      33.524  20.700  27.089  1.00  0.00    -0.345 N 
ATOM     18  H   UNL A   1      34.059  19.912  27.454  1.00  0.00     0.346 HD
ATOM     19  H   UNL A   1      32.683  20.792  27.659  1.00  0.00     0.346 HD
BRANCH  13  20
ATOM     20  C   UNL A   1      35.715  23.259  25.451  1.00  0.00     0.023 C 
BRANCH  20  21
ATOM     21  C   UNL A   1      37.022  22.518  25.761  1.00  0.00    -0.002 C 
ATOM     22  C   UNL A   1      38.206  23.449  25.995  1.00  0.00     0.004 C 
ENDBRANCH  20  21
ENDBRANCH  13  20
ENDBRANCH  10  13
ENDBRANCH   7   9
BRANCH   7  23
ATOM     23  C   UNL A   1      33.136  23.403  22.240  1.00  0.00     0.420 C 
ATOM     24  F   UNL A   1      32.980  23.707  20.934  1.00  0.00    -0.168 F 
ATOM     25  F   UNL A   1      34.466  23.231  22.470  1.00  0.00    -0.168 F 
ATOM     26  F   UNL A   1      32.591  22.180  22.453  1.00  0.00    -0.168 F 
ENDBRANCH   7  23
ENDBRANCH   4   7
ENDBRANCH   2   3
ENDBRANCH   1   2
BRANCH   1  27
ATOM     27  C   UNL A   1      33.707  28.287  25.721  1.00  0.00     0.023 C 
BRANCH  27  28
ATOM     28  C   UNL A   1      33.618  28.485  27.230  1.00  0.00     0.116 C 
BRANCH  28  29
ATOM     29  N   UNL A   1      33.536  29.885  27.612  1.00  0.00    -0.352 N 
ATOM     30  C   UNL A   1      34.499  30.679  28.190  1.00  0.00     0.251 C 
ATOM     31  H   UNL A   1      32.673  30.326  27.431  1.00  0.00     0.163 HD
ATOM     32  O   UNL A   1      34.222  31.811  28.561  1.00  0.00    -0.269 OA
BRANCH  30  33
ATOM     33  C   UNL A   1      35.858  30.132  28.387  1.00  0.00     0.039 A 
ATOM     34  C   UNL A   1      36.759  30.165  27.321  1.00  0.00     0.014 A 
ATOM     35  C   UNL A   1      36.249  29.634  29.633  1.00  0.00     0.014 A 
ATOM     36  C   UNL A   1      38.078  29.758  27.525  1.00  0.00     0.010 A 
ATOM     37  C   UNL A   1      37.581  29.300  29.851  1.00  0.00     0.010 A 
ATOM     38  C   UNL A   1      38.510  29.357  28.799  1.00  0.00    -0.014 A 
BRANCH  38  39
ATOM     39  C   UNL A   1      39.927  28.994  29.054  1.00  0.00     0.031 A 
ATOM     40  C   UNL A   1      40.863  29.999  29.666  1.00  0.00     0.074 A 
ATOM     41  C   UNL A   1      40.384  27.784  28.674  1.00  0.00     0.049 A 
ATOM     42  N   UNL A   1      42.140  29.888  29.925  1.00  0.00    -0.248 NA
ATOM     43  C   UNL A   1      40.293  31.312  30.005  1.00  0.00     0.031 C 
ATOM     44  C   UNL A   1      39.583  26.741  28.029  1.00  0.00     0.029 A 
ATOM     45  N   UNL A   1      41.635  27.229  28.772  1.00  0.00    -0.354 N 
ATOM     46  C   UNL A   1      42.531  31.119  30.436  1.00  0.00     0.074 A 
ATOM     47  C   UNL A   1      41.368  31.979  30.398  1.00  0.00     0.031 C 
ATOM     48  C   UNL A   1      40.353  25.660  27.826  1.00  0.00     0.029 A 
ATOM     49  C   UNL A   1      41.707  25.944  28.289  1.00  0.00     0.049 A 
ATOM     50  H   UNL A   1      42.407  27.705  29.154  1.00  0.00     0.167 HD
ATOM     51  C   UNL A   1      43.741  31.495  30.914  1.00  0.00     0.037 A 
ATOM     52  C   UNL A   1      42.748  25.090  28.229  1.00  0.00     0.037 A 
ATOM     53  C   UNL A   1      44.887  30.624  30.970  1.00  0.00     0.049 A 
ATOM     54  C   UNL A   1      44.086  25.529  28.758  1.00  0.00     0.074 A 
ATOM     55  C   UNL A   1      46.138  30.880  31.502  1.00  0.00     0.029 A 
ATOM     56  N   UNL A   1      44.923  29.331  30.467  1.00  0.00    -0.354 N 
ATOM     57  N   UNL A   1      44.422  26.672  29.307  1.00  0.00    -0.248 NA
ATOM     58  C   UNL A   1      45.187  24.561  28.661  1.00  0.00     0.031 C 
ATOM     59  C   UNL A   1      46.946  29.759  31.276  1.00  0.00     0.029 A 
ATOM     60  C   UNL A   1      46.183  28.786  30.650  1.00  0.00     0.049 A 
ATOM     61  H   UNL A   1      44.164  28.869  30.043  1.00  0.00     0.167 HD
ATOM     62  C   UNL A   1      45.764  26.551  29.649  1.00  0.00     0.074 A 
ATOM     63  C   UNL A   1      46.176  25.220  29.250  1.00  0.00     0.031 C 
ATOM     64  C   UNL A   1      46.578  27.457  30.246  1.00  0.00     0.037 A 
BRANCH  51  65
ATOM     65  C   UNL A   1      43.881  32.911  31.403  1.00  0.00     0.058 A 
ATOM     66  C   UNL A   1      43.588  33.271  32.728  1.00  0.00     0.135 A 
ATOM     67  C   UNL A   1      44.298  33.928  30.528  1.00  0.00     0.135 A 
ATOM     68  F   UNL A   1      43.172  32.343  33.604  1.00  0.00    -0.206 F 
ATOM     69  C   UNL A   1      43.647  34.594  33.154  1.00  0.00     0.059 A 
ATOM     70  C   UNL A   1      44.398  35.254  30.942  1.00  0.00     0.059 A 
ATOM     71  F   UNL A   1      44.598  33.642  29.251  1.00  0.00    -0.206 F 
ATOM     72  C   UNL A   1      44.045  35.580  32.250  1.00  0.00     0.060 A 
BRANCH  72  73
ATOM     73  S   UNL A   1      44.075  37.298  32.803  1.00  0.00     0.124 S 
ATOM     74  O   UNL A   1      43.862  38.010  31.547  1.00  0.00    -0.237 OA
ATOM     75  O   UNL A   1      42.967  37.342  33.752  1.00  0.00    -0.237 OA
ATOM     76  O   UNL A   1      45.404  37.443  33.389  1.00  0.00    -0.744 OA
ENDBRANCH  72  73
ENDBRANCH  51  65
BRANCH  52  77
ATOM     77  C   UNL A   1      42.548  23.716  27.698  1.00  0.00     0.058 A 
ATOM     78  C   UNL A   1      42.566  23.476  26.317  1.00  0.00     0.135 A 
ATOM     79  C   UNL A   1      42.375  22.615  28.551  1.00  0.00     0.135 A 
ATOM     80  F   UNL A   1      42.721  24.499  25.461  1.00  0.00    -0.206 F 
ATOM     81  C   UNL A   1      42.416  22.196  25.797  1.00  0.00     0.059 A 
ATOM     82  C   UNL A   1      42.245  21.320  28.055  1.00  0.00     0.059 A 
ATOM     83  F   UNL A   1      42.366  22.790  29.882  1.00  0.00    -0.206 F 
ATOM     84  C   UNL A   1      42.263  21.122  26.675  1.00  0.00     0.060 A 
BRANCH  84  85
ATOM     85  S   UNL A   1      42.143  19.456  25.988  1.00  0.00     0.124 S 
ATOM     86  O   UNL A   1      42.664  18.647  27.084  1.00  0.00    -0.237 OA
ATOM     87  O   UNL A   1      40.712  19.335  25.729  1.00  0.00    -0.237 OA
ATOM     88  O   UNL A   1      42.984  19.523  24.796  1.00  0.00    -0.744 OA
ENDBRANCH  84  85
ENDBRANCH  52  77
BRANCH  64  89
ATOM     89  C   UNL A   1      47.992  27.032  30.534  1.00  0.00     0.058 A 
ATOM     90  C   UNL A   1      49.051  27.361  29.675  1.00  0.00     0.135 A 
ATOM     91  C   UNL A   1      48.295  26.328  31.711  1.00  0.00     0.135 A 
ATOM     92  F   UNL A   1      48.815  28.025  28.534  1.00  0.00    -0.206 F 
ATOM     93  C   UNL A   1      50.361  26.990  29.964  1.00  0.00     0.059 A 
ATOM     94  C   UNL A   1      49.600  25.971  32.033  1.00  0.00     0.059 A 
ATOM     95  F   UNL A   1      47.318  25.997  32.571  1.00  0.00    -0.206 F 
ATOM     96  C   UNL A   1      50.625  26.298  31.147  1.00  0.00     0.060 A 
BRANCH  96  97
ATOM     97  S   UNL A   1      52.334  25.855  31.529  1.00  0.00     0.124 S 
ATOM     98  O   UNL A   1      52.952  25.901  30.208  1.00  0.00    -0.237 OA
ATOM     99  O   UNL A   1      52.732  26.913  32.452  1.00  0.00    -0.237 OA
ATOM    100  O   UNL A   1      52.216  24.526  32.123  1.00  0.00    -0.744 OA
ENDBRANCH  96  97
ENDBRANCH  64  89
ENDBRANCH  38  39
ENDBRANCH  30  33
ENDBRANCH  28  29
ENDBRANCH  27  28
ENDBRANCH   1  27
TORSDOF 19
ENDMDL
MODEL 2
REMARK VINA RESULT:     -10.9      4.651     10.451
REMARK SMILES CCC[C@@]1(C(=O)N[C@@](C)(C(=O)NCCCCNC(=O)c2ccc(-c3c4nc(c(-c5c(F)cc(S(=O)(=O)[O-])cc5F)c5ccc([nH]5)c(-c5c(F)cc(S(=O)(=O)[O-])cc5F)c5nc(c(-c6c(F)cc(S(=O)(=O)[O-])cc6F)c6ccc3[nH]6)C=C5)C=C4)cc2)C(F)(F)F)CC[NH2+]C1
REMARK SMILES IDX 14 1 13 2 12 3 10 4 11 5 8 7 9 8 7 9 5 10 6 11 4 13 90 14
REMARK SMILES IDX 93 15 91 16 92 17 3 20 2 21 1 22 86 23 87 24 88 25 89 26
REMARK SMILES IDX 15 27 16 28 17 29 18 30 19 32 20 33 21 34 85 35 22 36 84 37
REMARK SMILES IDX 23 38 24 39 25 40 78 41 26 42 83 43 77 44 79 45 27 46 82 47
REMARK SMILES IDX 76 48 75 49 28 51 62 52 41 53 61 54 42 55 45 56 60 57 80 58
REMARK SMILES IDX 43 59 44 60 59 62 81 63 46 64 29 65 30 66 39 67 31 68 32 69
REMARK SMILES IDX 38 70 40 71 33 72 34 73 35 74 36 75 37 76 63 77 64 78 73 79
REMARK SMILES IDX 65 80 66 81 72 82 74 83 67 84 68 85 69 86 70 87 71 88 47 89
REMARK SMILES IDX 48 90 57 91 49 92 50 93 56 94 58 95 51 96 52 97 53 98 54 99
REMARK SMILES IDX 55 100
REMARK H PARENT 12 6 7 12 92 18 92 19 17 31 79 50 45 61
REMARK Flexibility Score: inf
ROOT
ATOM      1  C   UNL A   1      35.993  22.939  26.122  1.00  0.00     0.023 C 
ENDROOT
BRANCH   1   2
ATOM      2  C   UNL A   1      34.761  23.522  25.430  1.00  0.00     0.116 C 
BRANCH   2   3
ATOM      3  N   UNL A   1      33.623  23.578  26.332  1.00  0.00    -0.354 N 
ATOM      4  C   UNL A   1      32.418  24.210  26.318  1.00  0.00     0.254 C 
ATOM      5  O   UNL A   1      31.749  24.033  27.340  1.00  0.00    -0.272 OA
ATOM      6  H   UNL A   1      33.754  23.033  27.140  1.00  0.00     0.163 HD
BRANCH   4   7
ATOM      7  C   UNL A   1      31.947  25.140  25.175  1.00  0.00     0.212 C 
ATOM      8  C   UNL A   1      33.129  25.712  24.372  1.00  0.00     0.056 C 
BRANCH   7   9
ATOM      9  N   UNL A   1      31.207  26.248  25.882  1.00  0.00    -0.334 N 
ATOM     10  C   UNL A   1      31.508  27.392  26.543  1.00  0.00     0.233 C 
ATOM     11  O   UNL A   1      31.015  27.427  27.680  1.00  0.00    -0.274 OA
ATOM     12  H   UNL A   1      30.234  26.099  25.857  1.00  0.00     0.164 HD
BRANCH  10  13
ATOM     13  C   UNL A   1      32.054  28.692  25.892  1.00  0.00     0.103 C 
ATOM     14  C   UNL A   1      33.541  28.766  25.565  1.00  0.00     0.084 C 
ATOM     15  C   UNL A   1      32.045  29.809  26.981  1.00  0.00     0.277 C 
ATOM     16  C   UNL A   1      34.200  28.844  26.923  1.00  0.00     0.261 C 
ATOM     17  N   UNL A   1      33.362  29.789  27.660  1.00  0.00    -0.345 N 
ATOM     18  H   UNL A   1      33.780  30.720  27.642  1.00  0.00     0.346 HD
ATOM     19  H   UNL A   1      33.267  29.512  28.638  1.00  0.00     0.346 HD
BRANCH  13  20
ATOM     20  C   UNL A   1      31.197  29.155  24.669  1.00  0.00     0.023 C 
BRANCH  20  21
ATOM     21  C   UNL A   1      31.650  28.823  23.242  1.00  0.00    -0.002 C 
ATOM     22  C   UNL A   1      30.693  27.895  22.502  1.00  0.00     0.004 C 
ENDBRANCH  20  21
ENDBRANCH  13  20
ENDBRANCH  10  13
ENDBRANCH   7   9
BRANCH   7  23
ATOM     23  C   UNL A   1      31.194  24.200  24.216  1.00  0.00     0.420 C 
ATOM     24  F   UNL A   1      30.255  24.826  23.477  1.00  0.00    -0.168 F 
ATOM     25  F   UNL A   1      32.067  23.603  23.359  1.00  0.00    -0.168 F 
ATOM     26  F   UNL A   1      30.596  23.170  24.866  1.00  0.00    -0.168 F 
ENDBRANCH   7  23
ENDBRANCH   4   7
ENDBRANCH   2   3
ENDBRANCH   1   2
BRANCH   1  27
ATOM     27  C   UNL A   1      37.339  23.337  25.510  1.00  0.00     0.023 C 
BRANCH  27  28
ATOM     28  C   UNL A   1      38.258  24.149  26.416  1.00  0.00     0.116 C 
BRANCH  28  29
ATOM     29  N   UNL A   1      39.666  23.939  26.125  1.00  0.00    -0.352 N 
ATOM     30  C   UNL A   1      40.753  24.663  26.560  1.00  0.00     0.251 C 
ATOM     31  H   UNL A   1      39.871  23.175  25.538  1.00  0.00     0.163 HD
ATOM     32  O   UNL A   1      41.868  24.424  26.118  1.00  0.00    -0.269 OA
BRANCH  30  33
ATOM     33  C   UNL A   1      40.547  25.752  27.537  1.00  0.00     0.039 A 
ATOM     34  C   UNL A   1      39.571  25.597  28.523  1.00  0.00     0.014 A 
ATOM     35  C   UNL A   1      41.347  26.897  27.503  1.00  0.00     0.014 A 
ATOM     36  C   UNL A   1      39.443  26.566  29.520  1.00  0.00     0.010 A 
ATOM     37  C   UNL A   1      41.267  27.821  28.539  1.00  0.00     0.010 A 
ATOM     38  C   UNL A   1      40.313  27.667  29.558  1.00  0.00    -0.014 A 
BRANCH  38  39
ATOM     39  C   UNL A   1      40.244  28.667  30.653  1.00  0.00     0.031 A 
ATOM     40  C   UNL A   1      41.158  28.546  31.841  1.00  0.00     0.074 A 
ATOM     41  C   UNL A   1      39.315  29.642  30.608  1.00  0.00     0.049 A 
ATOM     42  N   UNL A   1      41.219  29.291  32.915  1.00  0.00    -0.248 NA
ATOM     43  C   UNL A   1      42.107  27.423  31.834  1.00  0.00     0.031 C 
ATOM     44  C   UNL A   1      38.343  29.835  29.529  1.00  0.00     0.029 A 
ATOM     45  N   UNL A   1      39.035  30.654  31.492  1.00  0.00    -0.354 N 
ATOM     46  C   UNL A   1      42.197  28.715  33.718  1.00  0.00     0.074 A 
ATOM     47  C   UNL A   1      42.661  27.529  33.033  1.00  0.00     0.031 C 
ATOM     48  C   UNL A   1      37.600  30.922  29.797  1.00  0.00     0.029 A 
ATOM     49  C   UNL A   1      38.016  31.479  31.081  1.00  0.00     0.049 A 
ATOM     50  H   UNL A   1      39.519  30.776  32.340  1.00  0.00     0.167 HD
ATOM     51  C   UNL A   1      42.680  29.147  34.908  1.00  0.00     0.037 A 
ATOM     52  C   UNL A   1      37.479  32.566  31.670  1.00  0.00     0.037 A 
ATOM     53  C   UNL A   1      42.228  30.342  35.571  1.00  0.00     0.049 A 
ATOM     54  C   UNL A   1      38.025  33.024  32.995  1.00  0.00     0.074 A 
ATOM     55  C   UNL A   1      42.701  30.910  36.741  1.00  0.00     0.029 A 
ATOM     56  N   UNL A   1      41.191  31.151  35.126  1.00  0.00    -0.354 N 
ATOM     57  N   UNL A   1      39.000  32.512  33.707  1.00  0.00    -0.248 NA
ATOM     58  C   UNL A   1      37.398  34.208  33.596  1.00  0.00     0.031 C 
ATOM     59  C   UNL A   1      41.917  32.033  37.030  1.00  0.00     0.029 A 
ATOM     60  C   UNL A   1      40.989  32.196  36.013  1.00  0.00     0.049 A 
ATOM     61  H   UNL A   1      40.675  31.003  34.301  1.00  0.00     0.167 HD
ATOM     62  C   UNL A   1      39.125  33.329  34.825  1.00  0.00     0.074 A 
ATOM     63  C   UNL A   1      38.128  34.372  34.691  1.00  0.00     0.031 C 
ATOM     64  C   UNL A   1      39.991  33.228  35.864  1.00  0.00     0.037 A 
BRANCH  51  65
ATOM     65  C   UNL A   1      43.744  28.309  35.564  1.00  0.00     0.058 A 
ATOM     66  C   UNL A   1      45.107  28.476  35.269  1.00  0.00     0.135 A 
ATOM     67  C   UNL A   1      43.395  27.314  36.491  1.00  0.00     0.135 A 
ATOM     68  F   UNL A   1      45.497  29.404  34.381  1.00  0.00    -0.206 F 
ATOM     69  C   UNL A   1      46.079  27.650  35.823  1.00  0.00     0.059 A 
ATOM     70  C   UNL A   1      44.354  26.497  37.084  1.00  0.00     0.059 A 
ATOM     71  F   UNL A   1      42.108  27.112  36.817  1.00  0.00    -0.206 F 
ATOM     72  C   UNL A   1      45.692  26.657  36.723  1.00  0.00     0.060 A 
BRANCH  72  73
ATOM     73  S   UNL A   1      46.957  25.563  37.401  1.00  0.00     0.124 S 
ATOM     74  O   UNL A   1      46.419  24.250  37.058  1.00  0.00    -0.237 OA
ATOM     75  O   UNL A   1      48.150  25.969  36.664  1.00  0.00    -0.237 OA
ATOM     76  O   UNL A   1      46.961  25.888  38.824  1.00  0.00    -0.744 OA
ENDBRANCH  72  73
ENDBRANCH  51  65
BRANCH  52  77
ATOM     77  C   UNL A   1      36.402  33.325  30.981  1.00  0.00     0.058 A 
ATOM     78  C   UNL A   1      35.074  33.234  31.421  1.00  0.00     0.135 A 
ATOM     79  C   UNL A   1      36.678  34.181  29.904  1.00  0.00     0.135 A 
ATOM     80  F   UNL A   1      34.760  32.422  32.443  1.00  0.00    -0.206 F 
ATOM     81  C   UNL A   1      34.054  33.960  30.816  1.00  0.00     0.059 A 
ATOM     82  C   UNL A   1      35.678  34.935  29.297  1.00  0.00     0.059 A 
ATOM     83  F   UNL A   1      37.936  34.315  29.456  1.00  0.00    -0.206 F 
ATOM     84  C   UNL A   1      34.368  34.815  29.759  1.00  0.00     0.060 A 
BRANCH  84  85
ATOM     85  S   UNL A   1      33.046  35.808  29.030  1.00  0.00     0.124 S 
ATOM     86  O   UNL A   1      32.359  34.822  28.204  1.00  0.00    -0.237 OA
ATOM     87  O   UNL A   1      32.322  36.266  30.212  1.00  0.00    -0.237 OA
ATOM     88  O   UNL A   1      33.769  36.848  28.305  1.00  0.00    -0.744 OA
ENDBRANCH  84  85
ENDBRANCH  52  77
BRANCH  64  89
ATOM     89  C   UNL A   1      39.923  34.290  36.927  1.00  0.00     0.058 A 
ATOM     90  C   UNL A   1      40.638  35.492  36.817  1.00  0.00     0.135 A 
ATOM     91  C   UNL A   1      39.089  34.122  38.044  1.00  0.00     0.135 A 
ATOM     92  F   UNL A   1      41.455  35.700  35.773  1.00  0.00    -0.206 F 
ATOM     93  C   UNL A   1      40.546  36.483  37.790  1.00  0.00     0.059 A 
ATOM     94  C   UNL A   1      38.960  35.110  39.015  1.00  0.00     0.059 A 
ATOM     95  F   UNL A   1      38.376  32.994  38.192  1.00  0.00    -0.206 F 
ATOM     96  C   UNL A   1      39.702  36.283  38.883  1.00  0.00     0.060 A 
BRANCH  96  97
ATOM     97  S   UNL A   1      39.561  37.592  40.120  1.00  0.00     0.124 S 
ATOM     98  O   UNL A   1      38.196  38.058  39.901  1.00  0.00    -0.237 OA
ATOM     99  O   UNL A   1      39.793  36.870  41.367  1.00  0.00    -0.237 OA
ATOM    100  O   UNL A   1      40.614  38.531  39.742  1.00  0.00    -0.744 OA
ENDBRANCH  96  97
ENDBRANCH  64  89
ENDBRANCH  38  39
ENDBRANCH  30  33
ENDBRANCH  28  29
ENDBRANCH  27  28
ENDBRANCH   1  27
TORSDOF 19
ENDMDL
MODEL 3
REMARK VINA RESULT:     -10.8      2.820      9.268
REMARK SMILES CCC[C@@]1(C(=O)N[C@@](C)(C(=O)NCCCCNC(=O)c2ccc(-c3c4nc(c(-c5c(F)cc(S(=O)(=O)[O-])cc5F)c5ccc([nH]5)c(-c5c(F)cc(S(=O)(=O)[O-])cc5F)c5nc(c(-c6c(F)cc(S(=O)(=O)[O-])cc6F)c6ccc3[nH]6)C=C5)C=C4)cc2)C(F)(F)F)CC[NH2+]C1
REMARK SMILES IDX 14 1 13 2 12 3 10 4 11 5 8 7 9 8 7 9 5 10 6 11 4 13 90 14
REMARK SMILES IDX 93 15 91 16 92 17 3 20 2 21 1 22 86 23 87 24 88 25 89 26
REMARK SMILES IDX 15 27 16 28 17 29 18 30 19 32 20 33 21 34 85 35 22 36 84 37
REMARK SMILES IDX 23 38 24 39 25 40 78 41 26 42 83 43 77 44 79 45 27 46 82 47
REMARK SMILES IDX 76 48 75 49 28 51 62 52 41 53 61 54 42 55 45 56 60 57 80 58
REMARK SMILES IDX 43 59 44 60 59 62 81 63 46 64 29 65 30 66 39 67 31 68 32 69
REMARK SMILES IDX 38 70 40 71 33 72 34 73 35 74 36 75 37 76 63 77 64 78 73 79
REMARK SMILES IDX 65 80 66 81 72 82 74 83 67 84 68 85 69 86 70 87 71 88 47 89
REMARK SMILES IDX 48 90 57 91 49 92 50 93 56 94 58 95 51 96 52 97 53 98 54 99
REMARK SMILES IDX 55 100
REMARK H PARENT 12 6 7 12 92 18 92 19 17 31 79 50 45 61
REMARK Flexibility Score: inf
ROOT
ATOM      1  C   UNL A   1      34.994  22.366  25.919  1.00  0.00     0.023 C 
ENDROOT
BRANCH   1   2
ATOM      2  C   UNL A   1      33.684  22.673  25.195  1.00  0.00     0.116 C 
BRANCH   2   3
ATOM      3  N   UNL A   1      32.637  23.052  26.127  1.00  0.00    -0.354 N 
ATOM      4  C   UNL A   1      31.856  24.154  26.299  1.00  0.00     0.254 C 
ATOM      5  O   UNL A   1      31.110  24.089  27.280  1.00  0.00    -0.272 OA
ATOM      6  H   UNL A   1      32.447  22.349  26.788  1.00  0.00     0.163 HD
BRANCH   4   7
ATOM      7  C   UNL A   1      31.942  25.416  25.410  1.00  0.00     0.212 C 
ATOM      8  C   UNL A   1      33.394  25.754  25.025  1.00  0.00     0.056 C 
BRANCH   7   9
ATOM      9  N   UNL A   1      31.358  26.511  26.267  1.00  0.00    -0.334 N 
ATOM     10  C   UNL A   1      31.758  27.696  26.790  1.00  0.00     0.233 C 
ATOM     11  O   UNL A   1      31.594  27.750  28.018  1.00  0.00    -0.274 OA
ATOM     12  H   UNL A   1      30.426  26.310  26.514  1.00  0.00     0.164 HD
BRANCH  10  13
ATOM     13  C   UNL A   1      32.023  28.995  25.983  1.00  0.00     0.103 C 
ATOM     14  C   UNL A   1      33.457  29.311  25.575  1.00  0.00     0.084 C 
ATOM     15  C   UNL A   1      31.832  30.204  26.950  1.00  0.00     0.277 C 
ATOM     16  C   UNL A   1      34.130  29.661  26.883  1.00  0.00     0.261 C 
ATOM     17  N   UNL A   1      33.147  30.507  27.560  1.00  0.00    -0.345 N 
ATOM     18  H   UNL A   1      33.379  31.492  27.426  1.00  0.00     0.346 HD
ATOM     19  H   UNL A   1      33.137  30.327  28.565  1.00  0.00     0.346 HD
BRANCH  13  20
ATOM     20  C   UNL A   1      31.056  29.151  24.764  1.00  0.00     0.023 C 
BRANCH  20  21
ATOM     21  C   UNL A   1      31.607  29.101  23.333  1.00  0.00    -0.002 C 
ATOM     22  C   UNL A   1      30.533  29.267  22.264  1.00  0.00     0.004 C 
ENDBRANCH  20  21
ENDBRANCH  13  20
ENDBRANCH  10  13
ENDBRANCH   7   9
BRANCH   7  23
ATOM     23  C   UNL A   1      31.240  25.001  24.104  1.00  0.00     0.420 C 
ATOM     24  F   UNL A   1      30.452  25.967  23.588  1.00  0.00    -0.168 F 
ATOM     25  F   UNL A   1      32.161  24.668  23.159  1.00  0.00    -0.168 F 
ATOM     26  F   UNL A   1      30.486  23.884  24.256  1.00  0.00    -0.168 F 
ENDBRANCH   7  23
ENDBRANCH   4   7
ENDBRANCH   2   3
ENDBRANCH   1   2
BRANCH   1  27
ATOM     27  C   UNL A   1      35.880  23.579  26.217  1.00  0.00     0.023 C 
BRANCH  27  28
ATOM     28  C   UNL A   1      37.041  23.796  25.253  1.00  0.00     0.116 C 
BRANCH  28  29
ATOM     29  N   UNL A   1      38.127  22.852  25.456  1.00  0.00    -0.352 N 
ATOM     30  C   UNL A   1      39.322  23.040  26.111  1.00  0.00     0.251 C 
ATOM     31  H   UNL A   1      37.989  21.955  25.073  1.00  0.00     0.163 HD
ATOM     32  O   UNL A   1      40.183  22.172  26.083  1.00  0.00    -0.269 OA
BRANCH  30  33
ATOM     33  C   UNL A   1      39.562  24.317  26.816  1.00  0.00     0.039 A 
ATOM     34  C   UNL A   1      39.063  24.477  28.110  1.00  0.00     0.014 A 
ATOM     35  C   UNL A   1      40.315  25.329  26.215  1.00  0.00     0.014 A 
ATOM     36  C   UNL A   1      39.378  25.630  28.829  1.00  0.00     0.010 A 
ATOM     37  C   UNL A   1      40.689  26.442  26.961  1.00  0.00     0.010 A 
ATOM     38  C   UNL A   1      40.223  26.606  28.275  1.00  0.00    -0.014 A 
BRANCH  38  39
ATOM     39  C   UNL A   1      40.633  27.802  29.053  1.00  0.00     0.031 A 
ATOM     40  C   UNL A   1      41.985  27.847  29.709  1.00  0.00     0.074 A 
ATOM     41  C   UNL A   1      39.762  28.818  29.222  1.00  0.00     0.049 A 
ATOM     42  N   UNL A   1      42.507  28.780  30.463  1.00  0.00    -0.248 NA
ATOM     43  C   UNL A   1      42.853  26.676  29.515  1.00  0.00     0.031 C 
ATOM     44  C   UNL A   1      38.405  28.869  28.673  1.00  0.00     0.029 A 
ATOM     45  N   UNL A   1      39.888  30.000  29.906  1.00  0.00    -0.354 N 
ATOM     46  C   UNL A   1      43.753  28.301  30.849  1.00  0.00     0.074 A 
ATOM     47  C   UNL A   1      43.884  26.972  30.292  1.00  0.00     0.031 C 
ATOM     48  C   UNL A   1      37.840  30.040  29.009  1.00  0.00     0.029 A 
ATOM     49  C   UNL A   1      38.777  30.804  29.828  1.00  0.00     0.049 A 
ATOM     50  H   UNL A   1      40.699  30.249  30.406  1.00  0.00     0.167 HD
ATOM     51  C   UNL A   1      44.710  28.918  31.582  1.00  0.00     0.037 A 
ATOM     52  C   UNL A   1      38.539  32.022  30.354  1.00  0.00     0.037 A 
ATOM     53  C   UNL A   1      44.579  30.250  32.112  1.00  0.00     0.049 A 
ATOM     54  C   UNL A   1      39.613  32.687  31.172  1.00  0.00     0.074 A 
ATOM     55  C   UNL A   1      45.516  30.998  32.805  1.00  0.00     0.029 A 
ATOM     56  N   UNL A   1      43.437  31.032  32.015  1.00  0.00    -0.354 N 
ATOM     57  N   UNL A   1      40.814  32.252  31.466  1.00  0.00    -0.248 NA
ATOM     58  C   UNL A   1      39.298  34.010  31.727  1.00  0.00     0.031 C 
ATOM     59  C   UNL A   1      44.922  32.212  33.170  1.00  0.00     0.029 A 
ATOM     60  C   UNL A   1      43.633  32.243  32.660  1.00  0.00     0.049 A 
ATOM     61  H   UNL A   1      42.608  30.766  31.556  1.00  0.00     0.167 HD
ATOM     62  C   UNL A   1      41.411  33.260  32.216  1.00  0.00     0.074 A 
ATOM     63  C   UNL A   1      40.439  34.329  32.323  1.00  0.00     0.031 C 
ATOM     64  C   UNL A   1      42.654  33.299  32.759  1.00  0.00     0.037 A 
BRANCH  51  65
ATOM     65  C   UNL A   1      45.972  28.147  31.857  1.00  0.00     0.058 A 
ATOM     66  C   UNL A   1      46.095  27.297  32.968  1.00  0.00     0.135 A 
ATOM     67  C   UNL A   1      47.082  28.271  31.005  1.00  0.00     0.135 A 
ATOM     68  F   UNL A   1      45.070  27.150  33.823  1.00  0.00    -0.206 F 
ATOM     69  C   UNL A   1      47.289  26.644  33.258  1.00  0.00     0.059 A 
ATOM     70  C   UNL A   1      48.276  27.601  31.257  1.00  0.00     0.059 A 
ATOM     71  F   UNL A   1      47.021  29.065  29.924  1.00  0.00    -0.206 F 
ATOM     72  C   UNL A   1      48.378  26.810  32.401  1.00  0.00     0.060 A 
BRANCH  72  73
ATOM     73  S   UNL A   1      49.933  25.993  32.812  1.00  0.00     0.124 S 
ATOM     74  O   UNL A   1      49.681  24.635  32.340  1.00  0.00    -0.237 OA
ATOM     75  O   UNL A   1      50.905  26.761  32.039  1.00  0.00    -0.237 OA
ATOM     76  O   UNL A   1      50.026  26.147  34.261  1.00  0.00    -0.744 OA
ENDBRANCH  72  73
ENDBRANCH  51  65
BRANCH  52  77
ATOM     77  C   UNL A   1      37.252  32.711  30.073  1.00  0.00     0.058 A 
ATOM     78  C   UNL A   1      37.175  33.698  29.079  1.00  0.00     0.135 A 
ATOM     79  C   UNL A   1      36.073  32.376  30.756  1.00  0.00     0.135 A 
ATOM     80  F   UNL A   1      38.278  34.058  28.405  1.00  0.00    -0.206 F 
ATOM     81  C   UNL A   1      35.976  34.333  28.774  1.00  0.00     0.059 A 
ATOM     82  C   UNL A   1      34.857  32.982  30.452  1.00  0.00     0.059 A 
ATOM     83  F   UNL A   1      36.092  31.427  31.704  1.00  0.00    -0.206 F 
ATOM     84  C   UNL A   1      34.820  33.962  29.461  1.00  0.00     0.060 A 
BRANCH  84  85
ATOM     85  S   UNL A   1      33.256  34.742  29.004  1.00  0.00     0.124 S 
ATOM     86  O   UNL A   1      33.712  36.004  28.433  1.00  0.00    -0.237 OA
ATOM     87  O   UNL A   1      32.699  33.778  28.060  1.00  0.00    -0.237 OA
ATOM     88  O   UNL A   1      32.547  34.843  30.276  1.00  0.00    -0.744 OA
ENDBRANCH  84  85
ENDBRANCH  52  77
BRANCH  64  89
ATOM     89  C   UNL A   1      43.048  34.550  33.494  1.00  0.00     0.058 A 
ATOM     90  C   UNL A   1      42.942  34.651  34.889  1.00  0.00     0.135 A 
ATOM     91  C   UNL A   1      43.586  35.643  32.795  1.00  0.00     0.135 A 
ATOM     92  F   UNL A   1      42.427  33.638  35.603  1.00  0.00    -0.206 F 
ATOM     93  C   UNL A   1      43.338  35.801  35.565  1.00  0.00     0.059 A 
ATOM     94  C   UNL A   1      44.013  36.791  33.453  1.00  0.00     0.059 A 
ATOM     95  F   UNL A   1      43.717  35.593  31.460  1.00  0.00    -0.206 F 
ATOM     96  C   UNL A   1      43.875  36.865  34.838  1.00  0.00     0.060 A 
BRANCH  96  97
ATOM     97  S   UNL A   1      44.419  38.338  35.731  1.00  0.00     0.124 S 
ATOM     98  O   UNL A   1      43.771  38.153  37.025  1.00  0.00    -0.237 OA
ATOM     99  O   UNL A   1      45.871  38.190  35.721  1.00  0.00    -0.237 OA
ATOM    100  O   UNL A   1      43.902  39.436  34.920  1.00  0.00    -0.744 OA
ENDBRANCH  96  97
ENDBRANCH  64  89
ENDBRANCH  38  39
ENDBRANCH  30  33
ENDBRANCH  28  29
ENDBRANCH  27  28
ENDBRANCH   1  27
TORSDOF 19
ENDMDL
