MODEL 1
REMARK VINA RESULT:     -10.7      0.000      0.000
REMARK SMILES CCC[C@]1(C(=O)NCCCCNC(=O)c2ccc(-c3c4nc(c(-c5c(F)cc(S(=O)(=O)[O-])cc5F)c5ccc([nH]5)c(-c5c(F)cc(S(=O)(=O)[O-])cc5F)c5nc(c(-c6c(F)cc(S(=O)(=O)[O-])cc6F)c6ccc3[nH]6)C=C5)C=C4)cc2)CCN(c2cncc(C(=O)OC)n2)C1
REMARK SMILES IDX 9 1 8 2 7 3 5 4 6 5 4 7 81 8 94 9 82 10 83 11 3 12 2 13 1 14
REMARK SMILES IDX 84 15 85 16 93 17 86 18 88 19 87 20 89 21 90 22 91 23 92 24
REMARK SMILES IDX 10 25 11 26 12 27 13 28 14 30 15 31 16 32 80 33 17 34 79 35
REMARK SMILES IDX 18 36 19 37 20 38 73 39 21 40 78 41 72 42 74 43 22 44 77 45
REMARK SMILES IDX 71 46 70 47 23 49 57 50 36 51 56 52 37 53 40 54 55 55 75 56
REMARK SMILES IDX 38 57 39 58 54 60 76 61 41 62 24 63 25 64 34 65 26 66 27 67
REMARK SMILES IDX 33 68 35 69 28 70 29 71 30 72 31 73 32 74 58 75 59 76 68 77
REMARK SMILES IDX 60 78 61 79 67 80 69 81 62 82 63 83 64 84 65 85 66 86 42 87
REMARK SMILES IDX 43 88 52 89 44 90 45 91 51 92 53 93 46 94 47 95 48 96 49 97
REMARK SMILES IDX 50 98
REMARK H PARENT 7 6 12 29 74 48 40 59
REMARK Flexibility Score: inf
ROOT
ATOM      1  C   UNL A   1      31.736  28.126  25.823  1.00  0.00     0.023 C 
ENDROOT
BRANCH   1   2
ATOM      2  C   UNL A   1      30.981  26.796  25.776  1.00  0.00     0.116 C 
BRANCH   2   3
ATOM      3  N   UNL A   1      31.557  25.846  26.701  1.00  0.00    -0.356 N 
ATOM      4  C   UNL A   1      31.847  24.543  26.451  1.00  0.00     0.228 C 
ATOM      5  O   UNL A   1      31.400  23.733  27.269  1.00  0.00    -0.274 OA
ATOM      6  H   UNL A   1      31.759  26.177  27.607  1.00  0.00     0.163 HD
BRANCH   4   7
ATOM      7  C   UNL A   1      32.606  24.065  25.201  1.00  0.00     0.068 C 
ATOM      8  C   UNL A   1      34.104  24.424  25.386  1.00  0.00     0.040 C 
ATOM      9  C   UNL A   1      32.593  22.537  24.924  1.00  0.00     0.135 C 
ATOM     10  C   UNL A   1      34.898  23.163  25.071  1.00  0.00     0.119 C 
ATOM     11  N   UNL A   1      33.940  22.099  25.281  1.00  0.00    -0.354 N 
BRANCH   7  12
ATOM     12  C   UNL A   1      32.039  24.840  23.970  1.00  0.00     0.018 C 
BRANCH  12  13
ATOM     13  C   UNL A   1      32.997  25.059  22.782  1.00  0.00    -0.002 C 
ATOM     14  C   UNL A   1      33.210  26.515  22.379  1.00  0.00     0.004 C 
ENDBRANCH  12  13
ENDBRANCH   7  12
BRANCH  11  15
ATOM     15  C   UNL A   1      34.384  20.807  25.091  1.00  0.00     0.148 A 
ATOM     16  C   UNL A   1      35.769  20.568  25.076  1.00  0.00     0.157 A 
ATOM     17  N   UNL A   1      33.519  19.797  24.843  1.00  0.00    -0.221 NA
ATOM     18  N   UNL A   1      36.341  19.363  24.842  1.00  0.00    -0.258 NA
ATOM     19  C   UNL A   1      34.087  18.578  24.583  1.00  0.00     0.169 A 
ATOM     20  C   UNL A   1      35.462  18.370  24.593  1.00  0.00     0.147 A 
BRANCH  19  21
ATOM     21  C   UNL A   1      33.242  17.412  24.213  1.00  0.00     0.358 C 
ATOM     22  O   UNL A   1      33.182  16.971  23.075  1.00  0.00    -0.244 OA
BRANCH  21  23
ATOM     23  O   UNL A   1      32.528  16.944  25.271  1.00  0.00    -0.464 OA
ATOM     24  C   UNL A   1      32.434  15.519  25.300  1.00  0.00     0.282 C 
ENDBRANCH  21  23
ENDBRANCH  19  21
ENDBRANCH  11  15
ENDBRANCH   4   7
ENDBRANCH   2   3
ENDBRANCH   1   2
BRANCH   1  25
ATOM     25  C   UNL A   1      33.259  27.988  25.788  1.00  0.00     0.023 C 
BRANCH  25  26
ATOM     26  C   UNL A   1      33.955  28.309  27.103  1.00  0.00     0.116 C 
BRANCH  26  27
ATOM     27  N   UNL A   1      33.837  29.712  27.469  1.00  0.00    -0.352 N 
ATOM     28  C   UNL A   1      34.747  30.518  28.106  1.00  0.00     0.251 C 
ATOM     29  H   UNL A   1      32.985  30.143  27.227  1.00  0.00     0.163 HD
ATOM     30  O   UNL A   1      34.418  31.638  28.482  1.00  0.00    -0.269 OA
BRANCH  28  31
ATOM     31  C   UNL A   1      36.110  30.011  28.358  1.00  0.00     0.039 A 
ATOM     32  C   UNL A   1      37.065  30.109  27.345  1.00  0.00     0.014 A 
ATOM     33  C   UNL A   1      36.449  29.467  29.601  1.00  0.00     0.014 A 
ATOM     34  C   UNL A   1      38.379  29.717  27.600  1.00  0.00     0.010 A 
ATOM     35  C   UNL A   1      37.776  29.158  29.879  1.00  0.00     0.010 A 
ATOM     36  C   UNL A   1      38.753  29.272  28.880  1.00  0.00    -0.014 A 
BRANCH  36  37
ATOM     37  C   UNL A   1      40.162  28.921  29.189  1.00  0.00     0.031 A 
ATOM     38  C   UNL A   1      41.057  29.925  29.862  1.00  0.00     0.074 A 
ATOM     39  C   UNL A   1      40.647  27.722  28.812  1.00  0.00     0.049 A 
ATOM     40  N   UNL A   1      42.325  29.825  30.169  1.00  0.00    -0.248 NA
ATOM     41  C   UNL A   1      40.459  31.224  30.213  1.00  0.00     0.031 C 
ATOM     42  C   UNL A   1      39.888  26.687  28.103  1.00  0.00     0.029 A 
ATOM     43  N   UNL A   1      41.894  27.170  28.963  1.00  0.00    -0.354 N 
ATOM     44  C   UNL A   1      42.676  31.044  30.736  1.00  0.00     0.074 A 
ATOM     45  C   UNL A   1      41.505  31.891  30.673  1.00  0.00     0.031 C 
ATOM     46  C   UNL A   1      40.677  25.618  27.908  1.00  0.00     0.029 A 
ATOM     47  C   UNL A   1      42.007  25.905  28.437  1.00  0.00     0.049 A 
ATOM     48  H   UNL A   1      42.638  27.637  29.407  1.00  0.00     0.167 HD
ATOM     49  C   UNL A   1      43.858  31.416  31.282  1.00  0.00     0.037 A 
ATOM     50  C   UNL A   1      43.064  25.072  28.381  1.00  0.00     0.037 A 
ATOM     51  C   UNL A   1      45.011  30.557  31.357  1.00  0.00     0.049 A 
ATOM     52  C   UNL A   1      44.369  25.509  28.989  1.00  0.00     0.074 A 
ATOM     53  C   UNL A   1      46.239  30.814  31.941  1.00  0.00     0.029 A 
ATOM     54  N   UNL A   1      45.082  29.275  30.828  1.00  0.00    -0.354 N 
ATOM     55  N   UNL A   1      44.664  26.640  29.585  1.00  0.00    -0.248 NA
ATOM     56  C   UNL A   1      45.485  24.555  28.925  1.00  0.00     0.031 C 
ATOM     57  C   UNL A   1      47.069  29.712  31.717  1.00  0.00     0.029 A 
ATOM     58  C   UNL A   1      46.341  28.741  31.050  1.00  0.00     0.049 A 
ATOM     59  H   UNL A   1      44.347  28.815  30.363  1.00  0.00     0.167 HD
ATOM     60  C   UNL A   1      45.988  26.523  29.993  1.00  0.00     0.074 A 
ATOM     61  C   UNL A   1      46.432  25.204  29.588  1.00  0.00     0.031 C 
ATOM     62  C   UNL A   1      46.766  27.423  30.645  1.00  0.00     0.037 A 
BRANCH  49  63
ATOM     63  C   UNL A   1      43.963  32.808  31.844  1.00  0.00     0.058 A 
ATOM     64  C   UNL A   1      44.314  33.906  31.041  1.00  0.00     0.135 A 
ATOM     65  C   UNL A   1      43.675  33.056  33.196  1.00  0.00     0.135 A 
ATOM     66  F   UNL A   1      44.617  33.726  29.744  1.00  0.00    -0.206 F 
ATOM     67  C   UNL A   1      44.407  35.191  31.563  1.00  0.00     0.059 A 
ATOM     68  C   UNL A   1      43.729  34.339  33.733  1.00  0.00     0.059 A 
ATOM     69  F   UNL A   1      43.336  32.045  34.012  1.00  0.00    -0.206 F 
ATOM     70  C   UNL A   1      44.110  35.398  32.910  1.00  0.00     0.060 A 
BRANCH  70  71
ATOM     71  S   UNL A   1      44.225  37.075  33.569  1.00  0.00     0.124 S 
ATOM     72  O   UNL A   1      44.937  36.847  34.823  1.00  0.00    -0.237 OA
ATOM     73  O   UNL A   1      44.981  37.766  32.529  1.00  0.00    -0.237 OA
ATOM     74  O   UNL A   1      42.831  37.485  33.704  1.00  0.00    -0.744 OA
ENDBRANCH  70  71
ENDBRANCH  49  63
BRANCH  50  75
ATOM     75  C   UNL A   1      42.925  23.734  27.745  1.00  0.00     0.058 A 
ATOM     76  C   UNL A   1      42.440  22.634  28.468  1.00  0.00     0.135 A 
ATOM     77  C   UNL A   1      43.263  23.528  26.398  1.00  0.00     0.135 A 
ATOM     78  F   UNL A   1      42.107  22.777  29.761  1.00  0.00    -0.206 F 
ATOM     79  C   UNL A   1      42.314  21.376  27.889  1.00  0.00     0.059 A 
ATOM     80  C   UNL A   1      43.119  22.286  25.787  1.00  0.00     0.059 A 
ATOM     81  F   UNL A   1      43.716  24.550  25.654  1.00  0.00    -0.206 F 
ATOM     82  C   UNL A   1      42.654  21.213  26.545  1.00  0.00     0.060 A 
BRANCH  82  83
ATOM     83  S   UNL A   1      42.444  19.585  25.792  1.00  0.00     0.124 S 
ATOM     84  O   UNL A   1      42.869  18.704  26.874  1.00  0.00    -0.237 OA
ATOM     85  O   UNL A   1      41.019  19.574  25.480  1.00  0.00    -0.237 OA
ATOM     86  O   UNL A   1      43.331  19.634  24.633  1.00  0.00    -0.744 OA
ENDBRANCH  82  83
ENDBRANCH  50  75
BRANCH  62  87
ATOM     87  C   UNL A   1      48.166  27.002  31.001  1.00  0.00     0.058 A 
ATOM     88  C   UNL A   1      48.441  26.231  32.141  1.00  0.00     0.135 A 
ATOM     89  C   UNL A   1      49.240  27.332  30.158  1.00  0.00     0.135 A 
ATOM     90  F   UNL A   1      47.452  25.892  32.983  1.00  0.00    -0.206 F 
ATOM     91  C   UNL A   1      49.736  25.825  32.447  1.00  0.00     0.059 A 
ATOM     92  C   UNL A   1      50.537  26.911  30.428  1.00  0.00     0.059 A 
ATOM     93  F   UNL A   1      49.031  28.058  29.049  1.00  0.00    -0.206 F 
ATOM     94  C   UNL A   1      50.778  26.167  31.583  1.00  0.00     0.060 A 
BRANCH  94  95
ATOM     95  S   UNL A   1      52.448  25.607  31.976  1.00  0.00     0.124 S 
ATOM     96  O   UNL A   1      52.795  26.479  33.094  1.00  0.00    -0.237 OA
ATOM     97  O   UNL A   1      52.234  24.202  32.310  1.00  0.00    -0.237 OA
ATOM     98  O   UNL A   1      53.188  25.846  30.741  1.00  0.00    -0.744 OA
ENDBRANCH  94  95
ENDBRANCH  62  87
ENDBRANCH  36  37
ENDBRANCH  28  31
ENDBRANCH  26  27
ENDBRANCH  25  26
ENDBRANCH   1  25
TORSDOF 19
ENDMDL
MODEL 2
REMARK VINA RESULT:     -10.5      2.697      3.338
REMARK SMILES CCC[C@]1(C(=O)NCCCCNC(=O)c2ccc(-c3c4nc(c(-c5c(F)cc(S(=O)(=O)[O-])cc5F)c5ccc([nH]5)c(-c5c(F)cc(S(=O)(=O)[O-])cc5F)c5nc(c(-c6c(F)cc(S(=O)(=O)[O-])cc6F)c6ccc3[nH]6)C=C5)C=C4)cc2)CCN(c2cncc(C(=O)OC)n2)C1
REMARK SMILES IDX 9 1 8 2 7 3 5 4 6 5 4 7 81 8 94 9 82 10 83 11 3 12 2 13 1 14
REMARK SMILES IDX 84 15 85 16 93 17 86 18 88 19 87 20 89 21 90 22 91 23 92 24
REMARK SMILES IDX 10 25 11 26 12 27 13 28 14 30 15 31 16 32 80 33 17 34 79 35
REMARK SMILES IDX 18 36 19 37 20 38 73 39 21 40 78 41 72 42 74 43 22 44 77 45
REMARK SMILES IDX 71 46 70 47 23 49 57 50 36 51 56 52 37 53 40 54 55 55 75 56
REMARK SMILES IDX 38 57 39 58 54 60 76 61 41 62 24 63 25 64 34 65 26 66 27 67
REMARK SMILES IDX 33 68 35 69 28 70 29 71 30 72 31 73 32 74 58 75 59 76 68 77
REMARK SMILES IDX 60 78 61 79 67 80 69 81 62 82 63 83 64 84 65 85 66 86 42 87
REMARK SMILES IDX 43 88 52 89 44 90 45 91 51 92 53 93 46 94 47 95 48 96 49 97
REMARK SMILES IDX 50 98
REMARK H PARENT 7 6 12 29 74 48 40 59
REMARK Flexibility Score: inf
ROOT
ATOM      1  C   UNL A   1      32.775  28.325  27.080  1.00  0.00     0.023 C 
ENDROOT
BRANCH   1   2
ATOM      2  C   UNL A   1      32.815  27.099  26.165  1.00  0.00     0.116 C 
BRANCH   2   3
ATOM      3  N   UNL A   1      32.103  25.991  26.761  1.00  0.00    -0.356 N 
ATOM      4  C   UNL A   1      31.311  25.095  26.116  1.00  0.00     0.228 C 
ATOM      5  O   UNL A   1      30.188  24.933  26.603  1.00  0.00    -0.274 OA
ATOM      6  H   UNL A   1      32.201  25.873  27.733  1.00  0.00     0.163 HD
BRANCH   4   7
ATOM      7  C   UNL A   1      31.721  24.375  24.820  1.00  0.00     0.068 C 
ATOM      8  C   UNL A   1      33.165  24.820  24.463  1.00  0.00     0.040 C 
ATOM      9  C   UNL A   1      31.784  22.824  24.878  1.00  0.00     0.135 C 
ATOM     10  C   UNL A   1      33.957  23.549  24.186  1.00  0.00     0.119 C 
ATOM     11  N   UNL A   1      33.215  22.527  24.890  1.00  0.00    -0.354 N 
BRANCH   7  12
ATOM     12  C   UNL A   1      30.747  24.832  23.689  1.00  0.00     0.018 C 
BRANCH  12  13
ATOM     13  C   UNL A   1      30.963  26.245  23.111  1.00  0.00    -0.002 C 
ATOM     14  C   UNL A   1      31.403  26.290  21.651  1.00  0.00     0.004 C 
ENDBRANCH  12  13
ENDBRANCH   7  12
BRANCH  11  15
ATOM     15  C   UNL A   1      33.714  21.242  24.842  1.00  0.00     0.148 A 
ATOM     16  C   UNL A   1      35.093  21.050  25.029  1.00  0.00     0.157 A 
ATOM     17  N   UNL A   1      32.918  20.190  24.542  1.00  0.00    -0.221 NA
ATOM     18  N   UNL A   1      35.724  19.853  24.949  1.00  0.00    -0.258 NA
ATOM     19  C   UNL A   1      33.548  18.979  24.436  1.00  0.00     0.169 A 
ATOM     20  C   UNL A   1      34.912  18.818  24.645  1.00  0.00     0.147 A 
BRANCH  19  21
ATOM     21  C   UNL A   1      32.792  17.765  24.028  1.00  0.00     0.358 C 
ATOM     22  O   UNL A   1      32.832  17.309  22.895  1.00  0.00    -0.244 OA
BRANCH  21  23
ATOM     23  O   UNL A   1      32.033  17.272  25.042  1.00  0.00    -0.464 OA
ATOM     24  C   UNL A   1      32.495  16.011  25.529  1.00  0.00     0.282 C 
ENDBRANCH  21  23
ENDBRANCH  19  21
ENDBRANCH  11  15
ENDBRANCH   4   7
ENDBRANCH   2   3
ENDBRANCH   1   2
BRANCH   1  25
ATOM     25  C   UNL A   1      33.879  29.349  26.811  1.00  0.00     0.023 C 
BRANCH  25  26
ATOM     26  C   UNL A   1      35.129  29.172  27.660  1.00  0.00     0.116 C 
BRANCH  26  27
ATOM     27  N   UNL A   1      35.190  30.114  28.767  1.00  0.00    -0.352 N 
ATOM     28  C   UNL A   1      36.252  30.425  29.579  1.00  0.00     0.251 C 
ATOM     29  H   UNL A   1      34.353  30.595  28.961  1.00  0.00     0.163 HD
ATOM     30  O   UNL A   1      36.081  31.127  30.570  1.00  0.00    -0.269 OA
BRANCH  28  31
ATOM     31  C   UNL A   1      37.587  29.883  29.262  1.00  0.00     0.039 A 
ATOM     32  C   UNL A   1      38.008  29.860  27.931  1.00  0.00     0.014 A 
ATOM     33  C   UNL A   1      38.429  29.424  30.280  1.00  0.00     0.014 A 
ATOM     34  C   UNL A   1      39.302  29.435  27.629  1.00  0.00     0.010 A 
ATOM     35  C   UNL A   1      39.744  29.083  29.984  1.00  0.00     0.010 A 
ATOM     36  C   UNL A   1      40.192  29.077  28.655  1.00  0.00    -0.014 A 
BRANCH  36  37
ATOM     37  C   UNL A   1      41.594  28.692  28.356  1.00  0.00     0.031 A 
ATOM     38  C   UNL A   1      42.676  29.737  28.350  1.00  0.00     0.074 A 
ATOM     39  C   UNL A   1      41.880  27.415  28.035  1.00  0.00     0.049 A 
ATOM     40  N   UNL A   1      43.947  29.608  28.065  1.00  0.00    -0.248 NA
ATOM     41  C   UNL A   1      42.276  31.115  28.680  1.00  0.00     0.031 C 
ATOM     42  C   UNL A   1      40.904  26.324  27.954  1.00  0.00     0.029 A 
ATOM     43  N   UNL A   1      43.071  26.816  27.709  1.00  0.00    -0.354 N 
ATOM     44  C   UNL A   1      44.491  30.882  28.170  1.00  0.00     0.074 A 
ATOM     45  C   UNL A   1      43.402  31.782  28.484  1.00  0.00     0.031 C 
ATOM     46  C   UNL A   1      41.540  25.187  27.630  1.00  0.00     0.029 A 
ATOM     47  C   UNL A   1      42.959  25.473  27.437  1.00  0.00     0.049 A 
ATOM     48  H   UNL A   1      43.925  27.303  27.671  1.00  0.00     0.167 HD
ATOM     49  C   UNL A   1      45.783  31.265  28.044  1.00  0.00     0.037 A 
ATOM     50  C   UNL A   1      43.892  24.574  27.069  1.00  0.00     0.037 A 
ATOM     51  C   UNL A   1      46.862  30.357  27.751  1.00  0.00     0.049 A 
ATOM     52  C   UNL A   1      45.321  25.023  26.929  1.00  0.00     0.074 A 
ATOM     53  C   UNL A   1      48.215  30.631  27.659  1.00  0.00     0.029 A 
ATOM     54  N   UNL A   1      46.712  29.000  27.500  1.00  0.00    -0.354 N 
ATOM     55  N   UNL A   1      45.830  26.220  27.102  1.00  0.00    -0.248 NA
ATOM     56  C   UNL A   1      46.305  24.000  26.550  1.00  0.00     0.031 C 
ATOM     57  C   UNL A   1      48.876  29.453  27.297  1.00  0.00     0.029 A 
ATOM     58  C   UNL A   1      47.945  28.430  27.227  1.00  0.00     0.049 A 
ATOM     59  H   UNL A   1      45.856  28.515  27.513  1.00  0.00     0.167 HD
ATOM     60  C   UNL A   1      47.197  26.088  26.883  1.00  0.00     0.074 A 
ATOM     61  C   UNL A   1      47.436  24.691  26.579  1.00  0.00     0.031 C 
ATOM     62  C   UNL A   1      48.167  27.035  26.931  1.00  0.00     0.037 A 
BRANCH  49  63
ATOM     63  C   UNL A   1      46.103  32.724  28.223  1.00  0.00     0.058 A 
ATOM     64  C   UNL A   1      45.992  33.642  27.166  1.00  0.00     0.135 A 
ATOM     65  C   UNL A   1      46.492  33.221  29.478  1.00  0.00     0.135 A 
ATOM     66  F   UNL A   1      45.641  33.221  25.939  1.00  0.00    -0.206 F 
ATOM     67  C   UNL A   1      46.285  34.991  27.337  1.00  0.00     0.059 A 
ATOM     68  C   UNL A   1      46.758  34.572  29.680  1.00  0.00     0.059 A 
ATOM     69  F   UNL A   1      46.617  32.390  30.525  1.00  0.00    -0.206 F 
ATOM     70  C   UNL A   1      46.665  35.446  28.599  1.00  0.00     0.060 A 
BRANCH  70  71
ATOM     71  S   UNL A   1      47.032  37.202  28.805  1.00  0.00     0.124 S 
ATOM     72  O   UNL A   1      46.368  37.491  30.073  1.00  0.00    -0.237 OA
ATOM     73  O   UNL A   1      48.491  37.213  28.837  1.00  0.00    -0.237 OA
ATOM     74  O   UNL A   1      46.428  37.817  27.626  1.00  0.00    -0.744 OA
ENDBRANCH  70  71
ENDBRANCH  49  63
BRANCH  50  75
ATOM     75  C   UNL A   1      43.507  23.156  26.830  1.00  0.00     0.058 A 
ATOM     76  C   UNL A   1      43.485  22.621  25.533  1.00  0.00     0.135 A 
ATOM     77  C   UNL A   1      43.166  22.304  27.892  1.00  0.00     0.135 A 
ATOM     78  F   UNL A   1      43.797  23.395  24.483  1.00  0.00    -0.206 F 
ATOM     79  C   UNL A   1      43.118  21.300  25.294  1.00  0.00     0.059 A 
ATOM     80  C   UNL A   1      42.825  20.971  27.682  1.00  0.00     0.059 A 
ATOM     81  F   UNL A   1      43.189  22.760  29.154  1.00  0.00    -0.206 F 
ATOM     82  C   UNL A   1      42.792  20.482  26.377  1.00  0.00     0.060 A 
BRANCH  82  83
ATOM     83  S   UNL A   1      42.361  18.757  26.058  1.00  0.00     0.124 S 
ATOM     84  O   UNL A   1      43.294  18.415  24.991  1.00  0.00    -0.237 OA
ATOM     85  O   UNL A   1      42.615  18.135  27.353  1.00  0.00    -0.237 OA
ATOM     86  O   UNL A   1      40.956  18.829  25.670  1.00  0.00    -0.744 OA
ENDBRANCH  82  83
ENDBRANCH  50  75
BRANCH  62  87
ATOM     87  C   UNL A   1      49.584  26.591  26.689  1.00  0.00     0.058 A 
ATOM     88  C   UNL A   1      50.390  26.089  27.723  1.00  0.00     0.135 A 
ATOM     89  C   UNL A   1      50.124  26.620  25.393  1.00  0.00     0.135 A 
ATOM     90  F   UNL A   1      49.926  26.043  28.981  1.00  0.00    -0.206 F 
ATOM     91  C   UNL A   1      51.691  25.656  27.484  1.00  0.00     0.059 A 
ATOM     92  C   UNL A   1      51.410  26.164  25.126  1.00  0.00     0.059 A 
ATOM     93  F   UNL A   1      49.393  27.081  24.366  1.00  0.00    -0.206 F 
ATOM     94  C   UNL A   1      52.191  25.695  26.181  1.00  0.00     0.060 A 
BRANCH  94  95
ATOM     95  S   UNL A   1      53.869  25.101  25.881  1.00  0.00     0.124 S 
ATOM     96  O   UNL A   1      54.502  25.344  27.174  1.00  0.00    -0.237 OA
ATOM     97  O   UNL A   1      53.646  23.701  25.537  1.00  0.00    -0.237 OA
ATOM     98  O   UNL A   1      54.338  25.943  24.785  1.00  0.00    -0.744 OA
ENDBRANCH  94  95
ENDBRANCH  62  87
ENDBRANCH  36  37
ENDBRANCH  28  31
ENDBRANCH  26  27
ENDBRANCH  25  26
ENDBRANCH   1  25
TORSDOF 19
ENDMDL
MODEL 3
REMARK VINA RESULT:     -10.3      3.155      4.351
REMARK SMILES CCC[C@]1(C(=O)NCCCCNC(=O)c2ccc(-c3c4nc(c(-c5c(F)cc(S(=O)(=O)[O-])cc5F)c5ccc([nH]5)c(-c5c(F)cc(S(=O)(=O)[O-])cc5F)c5nc(c(-c6c(F)cc(S(=O)(=O)[O-])cc6F)c6ccc3[nH]6)C=C5)C=C4)cc2)CCN(c2cncc(C(=O)OC)n2)C1
REMARK SMILES IDX 9 1 8 2 7 3 5 4 6 5 4 7 81 8 94 9 82 10 83 11 3 12 2 13 1 14
REMARK SMILES IDX 84 15 85 16 93 17 86 18 88 19 87 20 89 21 90 22 91 23 92 24
REMARK SMILES IDX 10 25 11 26 12 27 13 28 14 30 15 31 16 32 80 33 17 34 79 35
REMARK SMILES IDX 18 36 19 37 20 38 73 39 21 40 78 41 72 42 74 43 22 44 77 45
REMARK SMILES IDX 71 46 70 47 23 49 57 50 36 51 56 52 37 53 40 54 55 55 75 56
REMARK SMILES IDX 38 57 39 58 54 60 76 61 41 62 24 63 25 64 34 65 26 66 27 67
REMARK SMILES IDX 33 68 35 69 28 70 29 71 30 72 31 73 32 74 58 75 59 76 68 77
REMARK SMILES IDX 60 78 61 79 67 80 69 81 62 82 63 83 64 84 65 85 66 86 42 87
REMARK SMILES IDX 43 88 52 89 44 90 45 91 51 92 53 93 46 94 47 95 48 96 49 97
REMARK SMILES IDX 50 98
REMARK H PARENT 7 6 12 29 74 48 40 59
REMARK Flexibility Score: inf
ROOT
ATOM      1  C   UNL A   1      34.022  30.122  27.196  1.00  0.00     0.023 C 
ENDROOT
BRANCH   1   2
ATOM      2  C   UNL A   1      33.685  28.996  26.217  1.00  0.00     0.116 C 
BRANCH   2   3
ATOM      3  N   UNL A   1      33.597  29.500  24.865  1.00  0.00    -0.356 N 
ATOM      4  C   UNL A   1      33.386  28.770  23.739  1.00  0.00     0.228 C 
ATOM      5  O   UNL A   1      34.190  28.967  22.822  1.00  0.00    -0.274 OA
ATOM      6  H   UNL A   1      33.700  30.472  24.748  1.00  0.00     0.163 HD
BRANCH   4   7
ATOM      7  C   UNL A   1      32.287  27.703  23.610  1.00  0.00     0.068 C 
ATOM      8  C   UNL A   1      32.209  27.276  22.120  1.00  0.00     0.040 C 
ATOM      9  C   UNL A   1      32.509  26.379  24.392  1.00  0.00     0.135 C 
ATOM     10  C   UNL A   1      32.236  25.754  22.099  1.00  0.00     0.119 C 
ATOM     11  N   UNL A   1      32.859  25.409  23.358  1.00  0.00    -0.354 N 
BRANCH   7  12
ATOM     12  C   UNL A   1      30.933  28.355  24.030  1.00  0.00     0.018 C 
BRANCH  12  13
ATOM     13  C   UNL A   1      29.644  27.622  23.607  1.00  0.00    -0.002 C 
ATOM     14  C   UNL A   1      28.520  28.522  23.101  1.00  0.00     0.004 C 
ENDBRANCH  12  13
ENDBRANCH   7  12
BRANCH  11  15
ATOM     15  C   UNL A   1      33.046  24.068  23.621  1.00  0.00     0.148 A 
ATOM     16  C   UNL A   1      32.167  23.140  23.037  1.00  0.00     0.157 A 
ATOM     17  N   UNL A   1      34.001  23.647  24.482  1.00  0.00    -0.221 NA
ATOM     18  N   UNL A   1      32.198  21.804  23.255  1.00  0.00    -0.258 NA
ATOM     19  C   UNL A   1      34.028  22.300  24.728  1.00  0.00     0.169 A 
ATOM     20  C   UNL A   1      33.155  21.406  24.120  1.00  0.00     0.147 A 
BRANCH  19  21
ATOM     21  C   UNL A   1      34.977  21.731  25.721  1.00  0.00     0.358 C 
ATOM     22  O   UNL A   1      35.765  20.837  25.448  1.00  0.00    -0.244 OA
BRANCH  21  23
ATOM     23  O   UNL A   1      34.823  22.287  26.951  1.00  0.00    -0.464 OA
ATOM     24  C   UNL A   1      33.852  21.615  27.756  1.00  0.00     0.282 C 
ENDBRANCH  21  23
ENDBRANCH  19  21
ENDBRANCH  11  15
ENDBRANCH   4   7
ENDBRANCH   2   3
ENDBRANCH   1   2
BRANCH   1  25
ATOM     25  C   UNL A   1      35.475  30.129  27.673  1.00  0.00     0.023 C 
BRANCH  25  26
ATOM     26  C   UNL A   1      35.691  29.538  29.059  1.00  0.00     0.116 C 
BRANCH  26  27
ATOM     27  N   UNL A   1      35.681  30.548  30.105  1.00  0.00    -0.352 N 
ATOM     28  C   UNL A   1      36.736  31.083  30.801  1.00  0.00     0.251 C 
ATOM     29  H   UNL A   1      34.793  30.897  30.349  1.00  0.00     0.163 HD
ATOM     30  O   UNL A   1      36.530  31.811  31.765  1.00  0.00    -0.269 OA
BRANCH  28  31
ATOM     31  C   UNL A   1      38.115  30.747  30.393  1.00  0.00     0.039 A 
ATOM     32  C   UNL A   1      38.938  30.069  31.294  1.00  0.00     0.014 A 
ATOM     33  C   UNL A   1      38.580  31.076  29.117  1.00  0.00     0.014 A 
ATOM     34  C   UNL A   1      40.211  29.666  30.889  1.00  0.00     0.010 A 
ATOM     35  C   UNL A   1      39.813  30.598  28.688  1.00  0.00     0.010 A 
ATOM     36  C   UNL A   1      40.645  29.895  29.572  1.00  0.00    -0.014 A 
BRANCH  36  37
ATOM     37  C   UNL A   1      41.967  29.408  29.104  1.00  0.00     0.031 A 
ATOM     38  C   UNL A   1      43.133  30.355  29.026  1.00  0.00     0.074 A 
ATOM     39  C   UNL A   1      42.099  28.131  28.694  1.00  0.00     0.049 A 
ATOM     40  N   UNL A   1      44.349  30.133  28.597  1.00  0.00    -0.248 NA
ATOM     41  C   UNL A   1      42.897  31.742  29.461  1.00  0.00     0.031 C 
ATOM     42  C   UNL A   1      41.024  27.134  28.672  1.00  0.00     0.029 A 
ATOM     43  N   UNL A   1      43.189  27.451  28.212  1.00  0.00    -0.354 N 
ATOM     44  C   UNL A   1      45.015  31.349  28.700  1.00  0.00     0.074 A 
ATOM     45  C   UNL A   1      44.053  32.319  29.173  1.00  0.00     0.031 C 
ATOM     46  C   UNL A   1      41.516  25.967  28.228  1.00  0.00     0.029 A 
ATOM     47  C   UNL A   1      42.927  26.140  27.894  1.00  0.00     0.049 A 
ATOM     48  H   UNL A   1      44.076  27.865  28.103  1.00  0.00     0.167 HD
ATOM     49  C   UNL A   1      46.317  31.625  28.450  1.00  0.00     0.037 A 
ATOM     50  C   UNL A   1      43.729  25.186  27.384  1.00  0.00     0.037 A 
ATOM     51  C   UNL A   1      47.272  30.645  27.999  1.00  0.00     0.049 A 
ATOM     52  C   UNL A   1      45.171  25.518  27.108  1.00  0.00     0.074 A 
ATOM     53  C   UNL A   1      48.627  30.807  27.771  1.00  0.00     0.029 A 
ATOM     54  N   UNL A   1      46.972  29.322  27.704  1.00  0.00    -0.354 N 
ATOM     55  N   UNL A   1      45.803  26.655  27.279  1.00  0.00    -0.248 NA
ATOM     56  C   UNL A   1      46.012  24.436  26.576  1.00  0.00     0.031 C 
ATOM     57  C   UNL A   1      49.135  29.599  27.285  1.00  0.00     0.029 A 
ATOM     58  C   UNL A   1      48.112  28.664  27.271  1.00  0.00     0.049 A 
ATOM     59  H   UNL A   1      46.082  28.912  27.789  1.00  0.00     0.167 HD
ATOM     60  C   UNL A   1      47.121  26.418  26.905  1.00  0.00     0.074 A 
ATOM     61  C   UNL A   1      47.198  25.025  26.513  1.00  0.00     0.031 C 
ATOM     62  C   UNL A   1      48.173  27.274  26.889  1.00  0.00     0.037 A 
BRANCH  49  63
ATOM     63  C   UNL A   1      46.786  33.039  28.660  1.00  0.00     0.058 A 
ATOM     64  C   UNL A   1      47.262  33.484  29.905  1.00  0.00     0.135 A 
ATOM     65  C   UNL A   1      46.795  33.954  27.595  1.00  0.00     0.135 A 
ATOM     66  F   UNL A   1      47.261  32.657  30.964  1.00  0.00    -0.206 F 
ATOM     67  C   UNL A   1      47.699  34.791  30.095  1.00  0.00     0.059 A 
ATOM     68  C   UNL A   1      47.259  35.258  27.754  1.00  0.00     0.059 A 
ATOM     69  F   UNL A   1      46.351  33.586  26.383  1.00  0.00    -0.206 F 
ATOM     70  C   UNL A   1      47.695  35.669  29.012  1.00  0.00     0.060 A 
BRANCH  70  71
ATOM     71  S   UNL A   1      48.275  37.359  29.273  1.00  0.00     0.124 S 
ATOM     72  O   UNL A   1      48.328  37.863  27.904  1.00  0.00    -0.237 OA
ATOM     73  O   UNL A   1      47.223  37.921  30.115  1.00  0.00    -0.237 OA
ATOM     74  O   UNL A   1      49.568  37.179  29.927  1.00  0.00    -0.744 OA
ENDBRANCH  70  71
ENDBRANCH  49  63
BRANCH  50  75
ATOM     75  C   UNL A   1      43.194  23.822  27.124  1.00  0.00     0.058 A 
ATOM     76  C   UNL A   1      43.146  22.856  28.140  1.00  0.00     0.135 A 
ATOM     77  C   UNL A   1      42.707  23.459  25.858  1.00  0.00     0.135 A 
ATOM     78  F   UNL A   1      43.604  23.151  29.367  1.00  0.00    -0.206 F 
ATOM     79  C   UNL A   1      42.657  21.575  27.908  1.00  0.00     0.059 A 
ATOM     80  C   UNL A   1      42.186  22.193  25.608  1.00  0.00     0.059 A 
ATOM     81  F   UNL A   1      42.713  24.350  24.854  1.00  0.00    -0.206 F 
ATOM     82  C   UNL A   1      42.176  21.254  26.637  1.00  0.00     0.060 A 
BRANCH  82  83
ATOM     83  S   UNL A   1      41.502  19.601  26.360  1.00  0.00     0.124 S 
ATOM     84  O   UNL A   1      42.339  19.123  25.266  1.00  0.00    -0.237 OA
ATOM     85  O   UNL A   1      41.715  18.963  27.655  1.00  0.00    -0.237 OA
ATOM     86  O   UNL A   1      40.106  19.861  26.020  1.00  0.00    -0.744 OA
ENDBRANCH  82  83
ENDBRANCH  50  75
BRANCH  62  87
ATOM     87  C   UNL A   1      49.510  26.724  26.473  1.00  0.00     0.058 A 
ATOM     88  C   UNL A   1      49.990  26.855  25.160  1.00  0.00     0.135 A 
ATOM     89  C   UNL A   1      50.346  26.103  27.416  1.00  0.00     0.135 A 
ATOM     90  F   UNL A   1      49.230  27.435  24.217  1.00  0.00    -0.206 F 
ATOM     91  C   UNL A   1      51.238  26.365  24.791  1.00  0.00     0.059 A 
ATOM     92  C   UNL A   1      51.610  25.634  27.077  1.00  0.00     0.059 A 
ATOM     93  F   UNL A   1      49.941  25.961  28.688  1.00  0.00    -0.206 F 
ATOM     94  C   UNL A   1      52.043  25.758  25.757  1.00  0.00     0.060 A 
BRANCH  94  95
ATOM     95  S   UNL A   1      53.674  25.156  25.271  1.00  0.00     0.124 S 
ATOM     96  O   UNL A   1      53.789  25.683  23.915  1.00  0.00    -0.237 OA
ATOM     97  O   UNL A   1      54.543  25.774  26.268  1.00  0.00    -0.237 OA
ATOM     98  O   UNL A   1      53.546  23.706  25.372  1.00  0.00    -0.744 OA
ENDBRANCH  94  95
ENDBRANCH  62  87
ENDBRANCH  36  37
ENDBRANCH  28  31
ENDBRANCH  26  27
ENDBRANCH  25  26
ENDBRANCH   1  25
TORSDOF 19
ENDMDL
