MODEL 1
REMARK VINA RESULT:     -11.7      0.000      0.000
REMARK SMILES CCOc1cc(C(=O)NCCCCNC(=O)c2ccc(-c3c4nc(c(-c5c(F)cc(S(=O)(=O)[O-])cc5F)c5ccc([nH]5)c(-c5c(F)cc(S(=O)(=O)[O-])cc5F)c5nc(c(-c6c(F)cc(S(=O)(=O)[O-])cc6F)c6ccc3[nH]6)C=C5)C=C4)cc2)ccc1OCc1ccc(Cl)c(Cl)c1
REMARK SMILES IDX 11 1 10 2 9 3 7 4 8 5 6 7 4 8 5 9 85 10 84 11 83 12 3 13
REMARK SMILES IDX 2 14 1 15 86 16 87 17 88 18 89 19 95 20 90 21 93 22 91 23
REMARK SMILES IDX 94 24 92 25 12 26 13 27 14 28 15 29 16 31 17 32 18 33 82 34
REMARK SMILES IDX 19 35 81 36 20 37 21 38 22 39 75 40 23 41 80 42 74 43 76 44
REMARK SMILES IDX 24 45 79 46 73 47 72 48 25 50 59 51 38 52 58 53 39 54 42 55
REMARK SMILES IDX 57 56 77 57 40 58 41 59 56 61 78 62 43 63 26 64 27 65 36 66
REMARK SMILES IDX 28 67 29 68 35 69 37 70 30 71 31 72 32 73 33 74 34 75 60 76
REMARK SMILES IDX 61 77 70 78 62 79 63 80 69 81 71 82 64 83 65 84 66 85 67 86
REMARK SMILES IDX 68 87 44 88 45 89 54 90 46 91 47 92 53 93 55 94 48 95 49 96
REMARK SMILES IDX 50 97 51 98 52 99
REMARK H PARENT 9 6 14 30 76 49 42 60
REMARK Flexibility Score: inf
ROOT
ATOM      1  C   UNL A   1      39.543  21.805  26.082  1.00  0.00     0.023 C 
ENDROOT
BRANCH   1   2
ATOM      2  C   UNL A   1      38.191  22.430  25.770  1.00  0.00     0.116 C 
BRANCH   2   3
ATOM      3  N   UNL A   1      37.067  21.500  25.826  1.00  0.00    -0.352 N 
ATOM      4  C   UNL A   1      35.727  21.724  25.576  1.00  0.00     0.251 C 
ATOM      5  O   UNL A   1      34.899  20.830  25.736  1.00  0.00    -0.269 OA
ATOM      6  H   UNL A   1      37.298  20.577  26.081  1.00  0.00     0.163 HD
BRANCH   4   7
ATOM      7  C   UNL A   1      35.271  23.061  25.126  1.00  0.00     0.043 A 
ATOM      8  C   UNL A   1      34.417  24.508  23.386  1.00  0.00     0.161 A 
ATOM      9  C   UNL A   1      35.007  23.299  23.764  1.00  0.00     0.064 A 
ATOM     10  C   UNL A   1      34.073  25.437  24.376  1.00  0.00     0.161 A 
ATOM     11  C   UNL A   1      34.387  25.220  25.716  1.00  0.00     0.051 A 
ATOM     12  C   UNL A   1      35.059  24.065  26.077  1.00  0.00     0.018 A 
BRANCH   8  13
ATOM     13  O   UNL A   1      34.078  24.769  22.085  1.00  0.00    -0.490 OA
BRANCH  13  14
ATOM     14  C   UNL A   1      32.687  24.578  21.791  1.00  0.00     0.226 C 
ATOM     15  C   UNL A   1      32.169  25.797  21.034  1.00  0.00     0.049 C 
ENDBRANCH  13  14
ENDBRANCH   8  13
BRANCH  10  16
ATOM     16  O   UNL A   1      33.395  26.578  24.114  1.00  0.00    -0.485 OA
BRANCH  16  17
ATOM     17  C   UNL A   1      32.187  26.812  24.839  1.00  0.00     0.265 C 
BRANCH  17  18
ATOM     18  C   UNL A   1      30.804  27.150  24.266  1.00  0.00    -0.009 A 
ATOM     19  C   UNL A   1      29.671  26.327  24.252  1.00  0.00     0.009 A 
ATOM     20  C   UNL A   1      30.623  28.477  23.833  1.00  0.00     0.029 A 
ATOM     21  C   UNL A   1      28.414  26.797  23.852  1.00  0.00     0.022 A 
ATOM     22  C   UNL A   1      29.371  28.959  23.429  1.00  0.00     0.060 A 
ATOM     23  C   UNL A   1      28.258  28.119  23.450  1.00  0.00     0.059 A 
ATOM     24  Cl  UNL A   1      29.270  30.614  22.946  1.00  0.00    -0.083 Cl
ATOM     25  Cl  UNL A   1      26.673  28.650  23.026  1.00  0.00    -0.083 Cl
ENDBRANCH  17  18
ENDBRANCH  16  17
ENDBRANCH  10  16
ENDBRANCH   4   7
ENDBRANCH   2   3
ENDBRANCH   1   2
BRANCH   1  26
ATOM     26  C   UNL A   1      40.187  22.243  27.391  1.00  0.00     0.023 C 
BRANCH  26  27
ATOM     27  C   UNL A   1      41.499  23.011  27.261  1.00  0.00     0.116 C 
BRANCH  27  28
ATOM     28  N   UNL A   1      41.551  23.901  26.110  1.00  0.00    -0.352 N 
ATOM     29  C   UNL A   1      41.476  25.277  26.060  1.00  0.00     0.251 C 
ATOM     30  H   UNL A   1      41.656  23.456  25.239  1.00  0.00     0.163 HD
ATOM     31  O   UNL A   1      41.444  25.846  24.973  1.00  0.00    -0.269 OA
BRANCH  29  32
ATOM     32  C   UNL A   1      41.392  26.061  27.313  1.00  0.00     0.039 A 
ATOM     33  C   UNL A   1      42.460  26.892  27.664  1.00  0.00     0.014 A 
ATOM     34  C   UNL A   1      40.256  26.005  28.123  1.00  0.00     0.014 A 
ATOM     35  C   UNL A   1      42.347  27.733  28.775  1.00  0.00     0.010 A 
ATOM     36  C   UNL A   1      40.110  26.907  29.173  1.00  0.00     0.010 A 
ATOM     37  C   UNL A   1      41.151  27.784  29.511  1.00  0.00    -0.014 A 
BRANCH  37  38
ATOM     38  C   UNL A   1      40.967  28.752  30.626  1.00  0.00     0.031 A 
ATOM     39  C   UNL A   1      41.806  28.643  31.872  1.00  0.00     0.074 A 
ATOM     40  C   UNL A   1      39.994  29.685  30.549  1.00  0.00     0.049 A 
ATOM     41  N   UNL A   1      41.746  29.346  32.973  1.00  0.00    -0.248 NA
ATOM     42  C   UNL A   1      42.829  27.585  31.893  1.00  0.00     0.031 C 
ATOM     43  C   UNL A   1      39.074  29.857  29.423  1.00  0.00     0.029 A 
ATOM     44  N   UNL A   1      39.609  30.657  31.439  1.00  0.00    -0.354 N 
ATOM     45  C   UNL A   1      42.707  28.809  33.821  1.00  0.00     0.074 A 
ATOM     46  C   UNL A   1      43.296  27.683  33.129  1.00  0.00     0.031 C 
ATOM     47  C   UNL A   1      38.251  30.887  29.679  1.00  0.00     0.029 A 
ATOM     48  C   UNL A   1      38.553  31.422  31.002  1.00  0.00     0.049 A 
ATOM     49  H   UNL A   1      40.048  30.792  32.311  1.00  0.00     0.167 HD
ATOM     50  C   UNL A   1      43.083  29.229  35.052  1.00  0.00     0.037 A 
ATOM     51  C   UNL A   1      37.897  32.436  31.601  1.00  0.00     0.037 A 
ATOM     52  C   UNL A   1      42.510  30.366  35.726  1.00  0.00     0.049 A 
ATOM     53  C   UNL A   1      38.336  32.888  32.967  1.00  0.00     0.074 A 
ATOM     54  C   UNL A   1      42.866  30.910  36.947  1.00  0.00     0.029 A 
ATOM     55  N   UNL A   1      41.461  31.131  35.238  1.00  0.00    -0.354 N 
ATOM     56  N   UNL A   1      39.295  32.412  33.725  1.00  0.00    -0.248 NA
ATOM     57  C   UNL A   1      37.609  34.021  33.559  1.00  0.00     0.031 C 
ATOM     58  C   UNL A   1      42.000  31.973  37.222  1.00  0.00     0.029 A 
ATOM     59  C   UNL A   1      41.141  32.129  36.145  1.00  0.00     0.049 A 
ATOM     60  H   UNL A   1      41.010  30.987  34.376  1.00  0.00     0.167 HD
ATOM     61  C   UNL A   1      39.307  33.204  34.868  1.00  0.00     0.074 A 
ATOM     62  C   UNL A   1      38.268  34.198  34.696  1.00  0.00     0.031 C 
ATOM     63  C   UNL A   1      40.108  33.117  35.959  1.00  0.00     0.037 A 
BRANCH  50  64
ATOM     64  C   UNL A   1      44.170  28.458  35.752  1.00  0.00     0.058 A 
ATOM     65  C   UNL A   1      45.528  28.767  35.572  1.00  0.00     0.135 A 
ATOM     66  C   UNL A   1      43.851  27.421  36.645  1.00  0.00     0.135 A 
ATOM     67  F   UNL A   1      45.894  29.738  34.720  1.00  0.00    -0.206 F 
ATOM     68  C   UNL A   1      46.531  28.056  36.224  1.00  0.00     0.059 A 
ATOM     69  C   UNL A   1      44.835  26.717  37.333  1.00  0.00     0.059 A 
ATOM     70  F   UNL A   1      42.570  27.082  36.856  1.00  0.00    -0.206 F 
ATOM     71  C   UNL A   1      46.174  27.033  37.104  1.00  0.00     0.060 A 
BRANCH  71  72
ATOM     72  S   UNL A   1      47.487  26.127  37.948  1.00  0.00     0.124 S 
ATOM     73  O   UNL A   1      47.203  24.755  37.537  1.00  0.00    -0.237 OA
ATOM     74  O   UNL A   1      48.692  26.722  37.379  1.00  0.00    -0.237 OA
ATOM     75  O   UNL A   1      47.251  26.420  39.358  1.00  0.00    -0.744 OA
ENDBRANCH  71  72
ENDBRANCH  50  64
BRANCH  51  76
ATOM     76  C   UNL A   1      36.768  33.108  30.900  1.00  0.00     0.058 A 
ATOM     77  C   UNL A   1      35.440  32.902  31.303  1.00  0.00     0.135 A 
ATOM     78  C   UNL A   1      36.994  33.977  29.820  1.00  0.00     0.135 A 
ATOM     79  F   UNL A   1      35.171  32.075  32.324  1.00  0.00    -0.206 F 
ATOM     80  C   UNL A   1      34.375  33.518  30.653  1.00  0.00     0.059 A 
ATOM     81  C   UNL A   1      35.948  34.626  29.171  1.00  0.00     0.059 A 
ATOM     82  F   UNL A   1      38.247  34.221  29.405  1.00  0.00    -0.206 F 
ATOM     83  C   UNL A   1      34.641  34.382  29.589  1.00  0.00     0.060 A 
BRANCH  83  84
ATOM     84  S   UNL A   1      33.254  35.214  28.784  1.00  0.00     0.124 S 
ATOM     85  O   UNL A   1      32.519  35.736  29.930  1.00  0.00    -0.237 OA
ATOM     86  O   UNL A   1      33.932  36.205  27.954  1.00  0.00    -0.237 OA
ATOM     87  O   UNL A   1      32.597  34.137  28.049  1.00  0.00    -0.744 OA
ENDBRANCH  83  84
ENDBRANCH  51  76
BRANCH  63  88
ATOM     88  C   UNL A   1      39.922  34.147  37.040  1.00  0.00     0.058 A 
ATOM     89  C   UNL A   1      40.610  35.371  37.025  1.00  0.00     0.135 A 
ATOM     90  C   UNL A   1      39.003  33.927  38.080  1.00  0.00     0.135 A 
ATOM     91  F   UNL A   1      41.503  35.632  36.057  1.00  0.00    -0.206 F 
ATOM     92  C   UNL A   1      40.415  36.327  38.017  1.00  0.00     0.059 A 
ATOM     93  C   UNL A   1      38.769  34.881  39.064  1.00  0.00     0.059 A 
ATOM     94  F   UNL A   1      38.309  32.779  38.135  1.00  0.00    -0.206 F 
ATOM     95  C   UNL A   1      39.491  36.073  39.033  1.00  0.00     0.060 A 
BRANCH  95  96
ATOM     96  S   UNL A   1      39.226  37.332  40.298  1.00  0.00     0.124 S 
ATOM     97  O   UNL A   1      38.300  38.235  39.625  1.00  0.00    -0.237 OA
ATOM     98  O   UNL A   1      38.666  36.554  41.400  1.00  0.00    -0.237 OA
ATOM     99  O   UNL A   1      40.564  37.865  40.533  1.00  0.00    -0.744 OA
ENDBRANCH  95  96
ENDBRANCH  63  88
ENDBRANCH  37  38
ENDBRANCH  29  32
ENDBRANCH  27  28
ENDBRANCH  26  27
ENDBRANCH   1  26
TORSDOF 19
ENDMDL
MODEL 2
REMARK VINA RESULT:     -11.6      3.205      4.242
REMARK SMILES CCOc1cc(C(=O)NCCCCNC(=O)c2ccc(-c3c4nc(c(-c5c(F)cc(S(=O)(=O)[O-])cc5F)c5ccc([nH]5)c(-c5c(F)cc(S(=O)(=O)[O-])cc5F)c5nc(c(-c6c(F)cc(S(=O)(=O)[O-])cc6F)c6ccc3[nH]6)C=C5)C=C4)cc2)ccc1OCc1ccc(Cl)c(Cl)c1
REMARK SMILES IDX 11 1 10 2 9 3 7 4 8 5 6 7 4 8 5 9 85 10 84 11 83 12 3 13
REMARK SMILES IDX 2 14 1 15 86 16 87 17 88 18 89 19 95 20 90 21 93 22 91 23
REMARK SMILES IDX 94 24 92 25 12 26 13 27 14 28 15 29 16 31 17 32 18 33 82 34
REMARK SMILES IDX 19 35 81 36 20 37 21 38 22 39 75 40 23 41 80 42 74 43 76 44
REMARK SMILES IDX 24 45 79 46 73 47 72 48 25 50 59 51 38 52 58 53 39 54 42 55
REMARK SMILES IDX 57 56 77 57 40 58 41 59 56 61 78 62 43 63 26 64 27 65 36 66
REMARK SMILES IDX 28 67 29 68 35 69 37 70 30 71 31 72 32 73 33 74 34 75 60 76
REMARK SMILES IDX 61 77 70 78 62 79 63 80 69 81 71 82 64 83 65 84 66 85 67 86
REMARK SMILES IDX 68 87 44 88 45 89 54 90 46 91 47 92 53 93 55 94 48 95 49 96
REMARK SMILES IDX 50 97 51 98 52 99
REMARK H PARENT 9 6 14 30 76 49 42 60
REMARK Flexibility Score: inf
ROOT
ATOM      1  C   UNL A   1      35.690  21.710  24.418  1.00  0.00     0.023 C 
ENDROOT
BRANCH   1   2
ATOM      2  C   UNL A   1      35.070  21.339  25.758  1.00  0.00     0.116 C 
BRANCH   2   3
ATOM      3  N   UNL A   1      34.167  20.193  25.709  1.00  0.00    -0.352 N 
ATOM      4  C   UNL A   1      32.890  20.100  25.190  1.00  0.00     0.251 C 
ATOM      5  O   UNL A   1      32.242  19.061  25.294  1.00  0.00    -0.269 OA
ATOM      6  H   UNL A   1      34.520  19.363  26.106  1.00  0.00     0.163 HD
BRANCH   4   7
ATOM      7  C   UNL A   1      32.279  21.269  24.514  1.00  0.00     0.043 A 
ATOM      8  C   UNL A   1      31.124  23.392  24.632  1.00  0.00     0.161 A 
ATOM      9  C   UNL A   1      31.544  22.213  25.256  1.00  0.00     0.064 A 
ATOM     10  C   UNL A   1      31.475  23.617  23.295  1.00  0.00     0.161 A 
ATOM     11  C   UNL A   1      32.154  22.655  22.551  1.00  0.00     0.051 A 
ATOM     12  C   UNL A   1      32.485  21.448  23.142  1.00  0.00     0.018 A 
BRANCH   8  13
ATOM     13  O   UNL A   1      30.462  24.374  25.319  1.00  0.00    -0.490 OA
BRANCH  13  14
ATOM     14  C   UNL A   1      31.198  24.914  26.427  1.00  0.00     0.226 C 
ATOM     15  C   UNL A   1      30.727  26.341  26.685  1.00  0.00     0.049 C 
ENDBRANCH  13  14
ENDBRANCH   8  13
BRANCH  10  16
ATOM     16  O   UNL A   1      31.213  24.775  22.649  1.00  0.00    -0.485 OA
BRANCH  16  17
ATOM     17  C   UNL A   1      32.214  25.794  22.683  1.00  0.00     0.265 C 
BRANCH  17  18
ATOM     18  C   UNL A   1      32.153  27.140  23.417  1.00  0.00    -0.009 A 
ATOM     19  C   UNL A   1      31.136  28.101  23.338  1.00  0.00     0.009 A 
ATOM     20  C   UNL A   1      33.161  27.368  24.372  1.00  0.00     0.029 A 
ATOM     21  C   UNL A   1      31.103  29.220  24.178  1.00  0.00     0.022 A 
ATOM     22  C   UNL A   1      33.140  28.486  25.218  1.00  0.00     0.060 A 
ATOM     23  C   UNL A   1      32.100  29.410  25.129  1.00  0.00     0.059 A 
ATOM     24  Cl  UNL A   1      34.418  28.641  26.369  1.00  0.00    -0.083 Cl
ATOM     25  Cl  UNL A   1      31.968  30.778  26.171  1.00  0.00    -0.083 Cl
ENDBRANCH  17  18
ENDBRANCH  16  17
ENDBRANCH  10  16
ENDBRANCH   4   7
ENDBRANCH   2   3
ENDBRANCH   1   2
BRANCH   1  26
ATOM     26  C   UNL A   1      36.006  23.187  24.223  1.00  0.00     0.023 C 
BRANCH  26  27
ATOM     27  C   UNL A   1      37.080  23.764  25.138  1.00  0.00     0.116 C 
BRANCH  27  28
ATOM     28  N   UNL A   1      38.155  22.831  25.449  1.00  0.00    -0.352 N 
ATOM     29  C   UNL A   1      39.303  23.028  26.186  1.00  0.00     0.251 C 
ATOM     30  H   UNL A   1      38.045  21.926  25.078  1.00  0.00     0.163 HD
ATOM     31  O   UNL A   1      40.143  22.135  26.256  1.00  0.00    -0.269 OA
BRANCH  29  32
ATOM     32  C   UNL A   1      39.541  24.327  26.856  1.00  0.00     0.039 A 
ATOM     33  C   UNL A   1      39.063  24.515  28.156  1.00  0.00     0.014 A 
ATOM     34  C   UNL A   1      40.257  25.343  26.221  1.00  0.00     0.014 A 
ATOM     35  C   UNL A   1      39.385  25.685  28.849  1.00  0.00     0.010 A 
ATOM     36  C   UNL A   1      40.653  26.465  26.944  1.00  0.00     0.010 A 
ATOM     37  C   UNL A   1      40.226  26.650  28.267  1.00  0.00    -0.014 A 
BRANCH  37  38
ATOM     38  C   UNL A   1      40.675  27.848  29.026  1.00  0.00     0.031 A 
ATOM     39  C   UNL A   1      42.037  27.871  29.668  1.00  0.00     0.074 A 
ATOM     40  C   UNL A   1      39.831  28.886  29.201  1.00  0.00     0.049 A 
ATOM     41  N   UNL A   1      42.579  28.792  30.424  1.00  0.00    -0.248 NA
ATOM     42  C   UNL A   1      42.893  26.693  29.456  1.00  0.00     0.031 C 
ATOM     43  C   UNL A   1      38.463  28.961  28.681  1.00  0.00     0.029 A 
ATOM     44  N   UNL A   1      39.993  30.073  29.872  1.00  0.00    -0.354 N 
ATOM     45  C   UNL A   1      43.826  28.299  30.789  1.00  0.00     0.074 A 
ATOM     46  C   UNL A   1      43.938  26.974  30.221  1.00  0.00     0.031 C 
ATOM     47  C   UNL A   1      37.922  30.140  29.030  1.00  0.00     0.029 A 
ATOM     48  C   UNL A   1      38.884  30.887  29.834  1.00  0.00     0.049 A 
ATOM     49  H   UNL A   1      40.825  30.317  30.339  1.00  0.00     0.167 HD
ATOM     50  C   UNL A   1      44.799  28.904  31.511  1.00  0.00     0.037 A 
ATOM     51  C   UNL A   1      38.664  32.095  30.389  1.00  0.00     0.037 A 
ATOM     52  C   UNL A   1      44.692  30.234  32.053  1.00  0.00     0.049 A 
ATOM     53  C   UNL A   1      39.762  32.750  31.182  1.00  0.00     0.074 A 
ATOM     54  C   UNL A   1      45.647  30.960  32.744  1.00  0.00     0.029 A 
ATOM     55  N   UNL A   1      43.564  31.036  31.970  1.00  0.00    -0.354 N 
ATOM     56  N   UNL A   1      40.963  32.297  31.457  1.00  0.00    -0.248 NA
ATOM     57  C   UNL A   1      39.481  34.083  31.735  1.00  0.00     0.031 C 
ATOM     58  C   UNL A   1      45.080  32.181  33.121  1.00  0.00     0.029 A 
ATOM     59  C   UNL A   1      43.791  32.241  32.616  1.00  0.00     0.049 A 
ATOM     60  H   UNL A   1      42.726  30.787  31.518  1.00  0.00     0.167 HD
ATOM     61  C   UNL A   1      41.590  33.301  32.188  1.00  0.00     0.074 A 
ATOM     62  C   UNL A   1      40.640  34.389  32.301  1.00  0.00     0.031 C 
ATOM     63  C   UNL A   1      42.839  33.319  32.716  1.00  0.00     0.037 A 
BRANCH  50  64
ATOM     64  C   UNL A   1      46.071  28.135  31.752  1.00  0.00     0.058 A 
ATOM     65  C   UNL A   1      46.251  27.345  32.899  1.00  0.00     0.135 A 
ATOM     66  C   UNL A   1      47.110  28.157  30.806  1.00  0.00     0.135 A 
ATOM     67  F   UNL A   1      45.298  27.297  33.844  1.00  0.00    -0.206 F 
ATOM     68  C   UNL A   1      47.424  26.630  33.116  1.00  0.00     0.059 A 
ATOM     69  C   UNL A   1      48.280  27.425  30.987  1.00  0.00     0.059 A 
ATOM     70  F   UNL A   1      46.994  28.895  29.691  1.00  0.00    -0.206 F 
ATOM     71  C   UNL A   1      48.434  26.676  32.153  1.00  0.00     0.060 A 
BRANCH  71  72
ATOM     72  S   UNL A   1      49.947  25.737  32.448  1.00  0.00     0.124 S 
ATOM     73  O   UNL A   1      50.717  26.674  33.259  1.00  0.00    -0.237 OA
ATOM     74  O   UNL A   1      49.450  24.556  33.145  1.00  0.00    -0.237 OA
ATOM     75  O   UNL A   1      50.466  25.497  31.105  1.00  0.00    -0.744 OA
ENDBRANCH  71  72
ENDBRANCH  50  64
BRANCH  51  76
ATOM     76  C   UNL A   1      37.354  32.776  30.193  1.00  0.00     0.058 A 
ATOM     77  C   UNL A   1      36.281  32.546  31.067  1.00  0.00     0.135 A 
ATOM     78  C   UNL A   1      37.151  33.676  29.135  1.00  0.00     0.135 A 
ATOM     79  F   UNL A   1      36.421  31.688  32.089  1.00  0.00    -0.206 F 
ATOM     80  C   UNL A   1      35.049  33.169  30.891  1.00  0.00     0.059 A 
ATOM     81  C   UNL A   1      35.937  34.333  28.954  1.00  0.00     0.059 A 
ATOM     82  F   UNL A   1      38.150  33.944  28.279  1.00  0.00    -0.206 F 
ATOM     83  C   UNL A   1      34.889  34.064  29.833  1.00  0.00     0.060 A 
BRANCH  83  84
ATOM     84  S   UNL A   1      33.300  34.905  29.644  1.00  0.00     0.124 S 
ATOM     85  O   UNL A   1      32.622  34.041  28.685  1.00  0.00    -0.237 OA
ATOM     86  O   UNL A   1      32.779  34.881  31.008  1.00  0.00    -0.237 OA
ATOM     87  O   UNL A   1      33.677  36.226  29.149  1.00  0.00    -0.744 OA
ENDBRANCH  83  84
ENDBRANCH  51  76
BRANCH  63  88
ATOM     88  C   UNL A   1      43.271  34.571  33.431  1.00  0.00     0.058 A 
ATOM     89  C   UNL A   1      43.847  35.655  32.748  1.00  0.00     0.135 A 
ATOM     90  C   UNL A   1      43.060  34.706  34.813  1.00  0.00     0.135 A 
ATOM     91  F   UNL A   1      44.075  35.577  31.428  1.00  0.00    -0.206 F 
ATOM     92  C   UNL A   1      44.223  36.816  33.415  1.00  0.00     0.059 A 
ATOM     93  C   UNL A   1      43.400  35.870  35.495  1.00  0.00     0.059 A 
ATOM     94  F   UNL A   1      42.502  33.706  35.513  1.00  0.00    -0.206 F 
ATOM     95  C   UNL A   1      43.994  36.915  34.790  1.00  0.00     0.060 A 
BRANCH  95  96
ATOM     96  S   UNL A   1      44.462  38.438  35.638  1.00  0.00     0.124 S 
ATOM     97  O   UNL A   1      43.859  38.239  36.952  1.00  0.00    -0.237 OA
ATOM     98  O   UNL A   1      45.920  38.384  35.595  1.00  0.00    -0.237 OA
ATOM     99  O   UNL A   1      43.855  39.484  34.820  1.00  0.00    -0.744 OA
ENDBRANCH  95  96
ENDBRANCH  63  88
ENDBRANCH  37  38
ENDBRANCH  29  32
ENDBRANCH  27  28
ENDBRANCH  26  27
ENDBRANCH   1  26
TORSDOF 19
ENDMDL
MODEL 3
REMARK VINA RESULT:     -11.6      5.002      6.492
REMARK SMILES CCOc1cc(C(=O)NCCCCNC(=O)c2ccc(-c3c4nc(c(-c5c(F)cc(S(=O)(=O)[O-])cc5F)c5ccc([nH]5)c(-c5c(F)cc(S(=O)(=O)[O-])cc5F)c5nc(c(-c6c(F)cc(S(=O)(=O)[O-])cc6F)c6ccc3[nH]6)C=C5)C=C4)cc2)ccc1OCc1ccc(Cl)c(Cl)c1
REMARK SMILES IDX 11 1 10 2 9 3 7 4 8 5 6 7 4 8 5 9 85 10 84 11 83 12 3 13
REMARK SMILES IDX 2 14 1 15 86 16 87 17 88 18 89 19 95 20 90 21 93 22 91 23
REMARK SMILES IDX 94 24 92 25 12 26 13 27 14 28 15 29 16 31 17 32 18 33 82 34
REMARK SMILES IDX 19 35 81 36 20 37 21 38 22 39 75 40 23 41 80 42 74 43 76 44
REMARK SMILES IDX 24 45 79 46 73 47 72 48 25 50 59 51 38 52 58 53 39 54 42 55
REMARK SMILES IDX 57 56 77 57 40 58 41 59 56 61 78 62 43 63 26 64 27 65 36 66
REMARK SMILES IDX 28 67 29 68 35 69 37 70 30 71 31 72 32 73 33 74 34 75 60 76
REMARK SMILES IDX 61 77 70 78 62 79 63 80 69 81 71 82 64 83 65 84 66 85 67 86
REMARK SMILES IDX 68 87 44 88 45 89 54 90 46 91 47 92 53 93 55 94 48 95 49 96
REMARK SMILES IDX 50 97 51 98 52 99
REMARK H PARENT 9 6 14 30 76 49 42 60
REMARK Flexibility Score: inf
ROOT
ATOM      1  C   UNL A   1      34.939  21.277  25.937  1.00  0.00     0.023 C 
ENDROOT
BRANCH   1   2
ATOM      2  C   UNL A   1      33.505  20.844  25.669  1.00  0.00     0.116 C 
BRANCH   2   3
ATOM      3  N   UNL A   1      33.157  20.746  24.254  1.00  0.00    -0.352 N 
ATOM      4  C   UNL A   1      32.599  21.694  23.419  1.00  0.00     0.251 C 
ATOM      5  O   UNL A   1      32.310  21.417  22.257  1.00  0.00    -0.269 OA
ATOM      6  H   UNL A   1      33.347  19.876  23.834  1.00  0.00     0.163 HD
BRANCH   4   7
ATOM      7  C   UNL A   1      32.325  23.060  23.927  1.00  0.00     0.043 A 
ATOM      8  C   UNL A   1      32.907  25.405  24.052  1.00  0.00     0.161 A 
ATOM      9  C   UNL A   1      33.258  24.094  23.719  1.00  0.00     0.064 A 
ATOM     10  C   UNL A   1      31.624  25.660  24.553  1.00  0.00     0.161 A 
ATOM     11  C   UNL A   1      30.726  24.626  24.809  1.00  0.00     0.051 A 
ATOM     12  C   UNL A   1      31.110  23.319  24.569  1.00  0.00     0.018 A 
BRANCH   8  13
ATOM     13  O   UNL A   1      33.747  26.460  23.813  1.00  0.00    -0.490 OA
BRANCH  13  14
ATOM     14  C   UNL A   1      33.581  27.061  22.520  1.00  0.00     0.226 C 
ATOM     15  C   UNL A   1      33.491  28.575  22.686  1.00  0.00     0.049 C 
ENDBRANCH  13  14
ENDBRANCH   8  13
BRANCH  10  16
ATOM     16  O   UNL A   1      31.159  26.908  24.791  1.00  0.00    -0.485 OA
BRANCH  16  17
ATOM     17  C   UNL A   1      31.248  27.404  26.128  1.00  0.00     0.265 C 
BRANCH  17  18
ATOM     18  C   UNL A   1      32.201  28.481  26.663  1.00  0.00    -0.009 A 
ATOM     19  C   UNL A   1      33.552  28.324  27.000  1.00  0.00     0.009 A 
ATOM     20  C   UNL A   1      31.695  29.794  26.689  1.00  0.00     0.029 A 
ATOM     21  C   UNL A   1      34.370  29.413  27.322  1.00  0.00     0.022 A 
ATOM     22  C   UNL A   1      32.504  30.893  27.012  1.00  0.00     0.060 A 
ATOM     23  C   UNL A   1      33.851  30.702  27.319  1.00  0.00     0.059 A 
ATOM     24  Cl  UNL A   1      31.775  32.457  26.982  1.00  0.00    -0.083 Cl
ATOM     25  Cl  UNL A   1      34.927  32.004  27.667  1.00  0.00    -0.083 Cl
ENDBRANCH  17  18
ENDBRANCH  16  17
ENDBRANCH  10  16
ENDBRANCH   4   7
ENDBRANCH   2   3
ENDBRANCH   1   2
BRANCH   1  26
ATOM     26  C   UNL A   1      35.125  22.734  26.341  1.00  0.00     0.023 C 
BRANCH  26  27
ATOM     27  C   UNL A   1      36.467  23.358  25.977  1.00  0.00     0.116 C 
BRANCH  27  28
ATOM     28  N   UNL A   1      37.586  22.427  26.030  1.00  0.00    -0.352 N 
ATOM     29  C   UNL A   1      38.908  22.659  26.344  1.00  0.00     0.251 C 
ATOM     30  H   UNL A   1      37.366  21.494  25.810  1.00  0.00     0.163 HD
ATOM     31  O   UNL A   1      39.727  21.751  26.240  1.00  0.00    -0.269 OA
BRANCH  29  32
ATOM     32  C   UNL A   1      39.343  24.010  26.765  1.00  0.00     0.039 A 
ATOM     33  C   UNL A   1      39.256  24.360  28.116  1.00  0.00     0.014 A 
ATOM     34  C   UNL A   1      39.866  24.918  25.841  1.00  0.00     0.014 A 
ATOM     35  C   UNL A   1      39.778  25.581  28.550  1.00  0.00     0.010 A 
ATOM     36  C   UNL A   1      40.466  26.092  26.289  1.00  0.00     0.010 A 
ATOM     37  C   UNL A   1      40.433  26.437  27.648  1.00  0.00    -0.014 A 
BRANCH  37  38
ATOM     38  C   UNL A   1      41.095  27.688  28.107  1.00  0.00     0.031 A 
ATOM     39  C   UNL A   1      42.593  27.826  28.024  1.00  0.00     0.074 A 
ATOM     40  C   UNL A   1      40.358  28.671  28.665  1.00  0.00     0.049 A 
ATOM     41  N   UNL A   1      43.356  28.807  28.435  1.00  0.00    -0.248 NA
ATOM     42  C   UNL A   1      43.333  26.703  27.427  1.00  0.00     0.031 C 
ATOM     43  C   UNL A   1      38.907  28.634  28.858  1.00  0.00     0.029 A 
ATOM     44  N   UNL A   1      40.728  29.887  29.184  1.00  0.00    -0.354 N 
ATOM     45  C   UNL A   1      44.661  28.413  28.162  1.00  0.00     0.074 A 
ATOM     46  C   UNL A   1      44.591  27.080  27.604  1.00  0.00     0.031 C 
ATOM     47  C   UNL A   1      38.508  29.784  29.427  1.00  0.00     0.029 A 
ATOM     48  C   UNL A   1      39.676  30.622  29.679  1.00  0.00     0.049 A 
ATOM     49  H   UNL A   1      41.661  30.204  29.200  1.00  0.00     0.167 HD
ATOM     50  C   UNL A   1      45.810  29.108  28.336  1.00  0.00     0.037 A 
ATOM     51  C   UNL A   1      39.653  31.829  30.277  1.00  0.00     0.037 A 
ATOM     52  C   UNL A   1      45.872  30.444  28.869  1.00  0.00     0.049 A 
ATOM     53  C   UNL A   1      40.943  32.584  30.455  1.00  0.00     0.074 A 
ATOM     54  C   UNL A   1      46.982  31.257  29.025  1.00  0.00     0.029 A 
ATOM     55  N   UNL A   1      44.782  31.163  29.335  1.00  0.00    -0.354 N 
ATOM     56  N   UNL A   1      42.161  32.225  30.125  1.00  0.00    -0.248 NA
ATOM     57  C   UNL A   1      40.857  33.912  31.080  1.00  0.00     0.031 C 
ATOM     58  C   UNL A   1      46.570  32.447  29.632  1.00  0.00     0.029 A 
ATOM     59  C   UNL A   1      45.195  32.402  29.800  1.00  0.00     0.049 A 
ATOM     60  H   UNL A   1      43.852  30.842  29.335  1.00  0.00     0.167 HD
ATOM     61  C   UNL A   1      42.981  33.292  30.473  1.00  0.00     0.074 A 
ATOM     62  C   UNL A   1      42.118  34.316  31.028  1.00  0.00     0.031 C 
ATOM     63  C   UNL A   1      44.326  33.414  30.344  1.00  0.00     0.037 A 
BRANCH  50  64
ATOM     64  C   UNL A   1      47.099  28.436  27.941  1.00  0.00     0.058 A 
ATOM     65  C   UNL A   1      47.852  27.684  28.858  1.00  0.00     0.135 A 
ATOM     66  C   UNL A   1      47.569  28.512  26.619  1.00  0.00     0.135 A 
ATOM     67  F   UNL A   1      47.459  27.589  30.138  1.00  0.00    -0.206 F 
ATOM     68  C   UNL A   1      49.039  27.060  28.488  1.00  0.00     0.059 A 
ATOM     69  C   UNL A   1      48.737  27.869  26.219  1.00  0.00     0.059 A 
ATOM     70  F   UNL A   1      46.890  29.216  25.700  1.00  0.00    -0.206 F 
ATOM     71  C   UNL A   1      49.473  27.158  27.165  1.00  0.00     0.060 A 
BRANCH  71  72
ATOM     72  S   UNL A   1      51.011  26.335  26.702  1.00  0.00     0.124 S 
ATOM     73  O   UNL A   1      51.048  26.578  25.263  1.00  0.00    -0.237 OA
ATOM     74  O   UNL A   1      52.002  27.058  27.492  1.00  0.00    -0.237 OA
ATOM     75  O   UNL A   1      50.788  24.948  27.097  1.00  0.00    -0.744 OA
ENDBRANCH  71  72
ENDBRANCH  50  64
BRANCH  51  76
ATOM     76  C   UNL A   1      38.360  32.411  30.729  1.00  0.00     0.058 A 
ATOM     77  C   UNL A   1      37.894  32.213  32.038  1.00  0.00     0.135 A 
ATOM     78  C   UNL A   1      37.566  33.185  29.867  1.00  0.00     0.135 A 
ATOM     79  F   UNL A   1      38.612  31.474  32.898  1.00  0.00    -0.206 F 
ATOM     80  C   UNL A   1      36.684  32.744  32.472  1.00  0.00     0.059 A 
ATOM     81  C   UNL A   1      36.365  33.751  30.286  1.00  0.00     0.059 A 
ATOM     82  F   UNL A   1      37.973  33.420  28.610  1.00  0.00    -0.206 F 
ATOM     83  C   UNL A   1      35.928  33.515  31.588  1.00  0.00     0.060 A 
BRANCH  83  84
ATOM     84  S   UNL A   1      34.382  34.241  32.179  1.00  0.00     0.124 S 
ATOM     85  O   UNL A   1      33.802  33.132  32.925  1.00  0.00    -0.237 OA
ATOM     86  O   UNL A   1      34.859  35.368  32.975  1.00  0.00    -0.237 OA
ATOM     87  O   UNL A   1      33.690  34.604  30.945  1.00  0.00    -0.744 OA
ENDBRANCH  83  84
ENDBRANCH  51  76
BRANCH  63  88
ATOM     88  C   UNL A   1      44.948  34.716  30.773  1.00  0.00     0.058 A 
ATOM     89  C   UNL A   1      45.438  34.911  32.075  1.00  0.00     0.135 A 
ATOM     90  C   UNL A   1      45.102  35.766  29.852  1.00  0.00     0.135 A 
ATOM     91  F   UNL A   1      45.312  33.942  32.996  1.00  0.00    -0.206 F 
ATOM     92  C   UNL A   1      46.031  36.110  32.455  1.00  0.00     0.059 A 
ATOM     93  C   UNL A   1      45.721  36.961  30.202  1.00  0.00     0.059 A 
ATOM     94  F   UNL A   1      44.663  35.628  28.591  1.00  0.00    -0.206 F 
ATOM     95  C   UNL A   1      46.170  37.130  31.511  1.00  0.00     0.060 A 
BRANCH  95  96
ATOM     96  S   UNL A   1      46.967  38.670  32.010  1.00  0.00     0.124 S 
ATOM     97  O   UNL A   1      45.843  39.415  32.568  1.00  0.00    -0.237 OA
ATOM     98  O   UNL A   1      47.962  38.208  32.974  1.00  0.00    -0.237 OA
ATOM     99  O   UNL A   1      47.509  39.194  30.760  1.00  0.00    -0.744 OA
ENDBRANCH  95  96
ENDBRANCH  63  88
ENDBRANCH  37  38
ENDBRANCH  29  32
ENDBRANCH  27  28
ENDBRANCH  26  27
ENDBRANCH   1  26
TORSDOF 19
ENDMDL
