MODEL 1
REMARK VINA RESULT:     -11.3      0.000      0.000
REMARK SMILES C[C@@H](C(=O)NCCCCNC(=O)c1ccc(-c2c3nc(c(-c4c(F)cc(S(=O)(=O)[O-])cc4F)c4ccc([nH]4)c(-c4c(F)cc(S(=O)(=O)[O-])cc4F)c4nc(c(-c5c(F)cc(S(=O)(=O)[O-])cc5F)c5ccc2[nH]5)C=C4)C=C3)cc1)c1ccc(-c2ccccc2)c(F)c1
REMARK SMILES IDX 8 1 7 2 6 3 5 4 3 5 4 6 2 8 1 9 79 10 80 11 91 12 81 13
REMARK SMILES IDX 89 14 82 15 90 16 83 17 84 18 88 19 85 20 87 21 86 22 9 23
REMARK SMILES IDX 10 24 11 25 12 27 13 28 14 29 78 30 15 31 77 32 16 33 17 34
REMARK SMILES IDX 18 35 71 36 19 37 76 38 70 39 72 40 20 41 75 42 69 43 68 44
REMARK SMILES IDX 21 46 55 47 34 48 54 49 35 50 38 51 53 52 73 53 36 54 37 55
REMARK SMILES IDX 52 57 74 58 39 59 22 60 23 61 32 62 24 63 25 64 31 65 33 66
REMARK SMILES IDX 26 67 27 68 28 69 29 70 30 71 56 72 57 73 66 74 58 75 59 76
REMARK SMILES IDX 65 77 67 78 60 79 61 80 62 81 63 82 64 83 40 84 41 85 50 86
REMARK SMILES IDX 42 87 43 88 49 89 51 90 44 91 45 92 46 93 47 94 48 95
REMARK H PARENT 5 7 10 26 72 45 38 56
REMARK Flexibility Score: inf
ROOT
ATOM      1  C   UNL A   1      33.603  27.602  26.402  1.00  0.00     0.023 C 
ENDROOT
BRANCH   1   2
ATOM      2  C   UNL A   1      32.229  27.838  27.033  1.00  0.00     0.023 C 
BRANCH   2   3
ATOM      3  C   UNL A   1      31.046  27.359  26.189  1.00  0.00     0.116 C 
BRANCH   3   4
ATOM      4  N   UNL A   1      30.560  26.075  26.653  1.00  0.00    -0.356 N 
ATOM      5  C   UNL A   1      30.621  24.847  26.061  1.00  0.00     0.227 C 
ATOM      6  O   UNL A   1      30.036  23.923  26.631  1.00  0.00    -0.274 OA
ATOM      7  H   UNL A   1      30.115  26.092  27.531  1.00  0.00     0.163 HD
BRANCH   5   8
ATOM      8  C   UNL A   1      31.432  24.650  24.769  1.00  0.00     0.105 C 
ATOM      9  C   UNL A   1      30.770  23.644  23.819  1.00  0.00     0.023 C 
BRANCH   8  10
ATOM     10  C   UNL A   1      32.881  24.268  25.069  1.00  0.00    -0.033 A 
ATOM     11  C   UNL A   1      33.867  24.433  24.084  1.00  0.00     0.005 A 
ATOM     12  C   UNL A   1      33.275  23.778  26.321  1.00  0.00     0.044 A 
ATOM     13  C   UNL A   1      35.198  24.077  24.333  1.00  0.00     0.012 A 
ATOM     14  C   UNL A   1      34.599  23.412  26.556  1.00  0.00     0.131 A 
ATOM     15  C   UNL A   1      35.585  23.542  25.572  1.00  0.00     0.017 A 
ATOM     16  F   UNL A   1      34.909  22.917  27.765  1.00  0.00    -0.206 F 
BRANCH  15  17
ATOM     17  C   UNL A   1      36.971  23.125  25.823  1.00  0.00    -0.015 A 
ATOM     18  C   UNL A   1      37.892  23.992  26.431  1.00  0.00     0.009 A 
ATOM     19  C   UNL A   1      37.407  21.837  25.468  1.00  0.00     0.009 A 
ATOM     20  C   UNL A   1      39.205  23.582  26.682  1.00  0.00     0.001 A 
ATOM     21  C   UNL A   1      38.719  21.427  25.714  1.00  0.00     0.001 A 
ATOM     22  C   UNL A   1      39.617  22.300  26.323  1.00  0.00     0.000 A 
ENDBRANCH  15  17
ENDBRANCH   8  10
ENDBRANCH   5   8
ENDBRANCH   3   4
ENDBRANCH   2   3
ENDBRANCH   1   2
BRANCH   1  23
ATOM     23  C   UNL A   1      34.196  28.799  25.668  1.00  0.00     0.116 C 
BRANCH  23  24
ATOM     24  N   UNL A   1      33.805  30.073  26.251  1.00  0.00    -0.352 N 
ATOM     25  C   UNL A   1      34.369  30.743  27.309  1.00  0.00     0.251 C 
ATOM     26  H   UNL A   1      33.032  30.513  25.830  1.00  0.00     0.163 HD
ATOM     27  O   UNL A   1      33.830  31.753  27.751  1.00  0.00    -0.269 OA
BRANCH  25  28
ATOM     28  C   UNL A   1      35.604  30.221  27.931  1.00  0.00     0.039 A 
ATOM     29  C   UNL A   1      36.828  30.455  27.299  1.00  0.00     0.014 A 
ATOM     30  C   UNL A   1      35.558  29.526  29.142  1.00  0.00     0.014 A 
ATOM     31  C   UNL A   1      38.013  30.052  27.918  1.00  0.00     0.010 A 
ATOM     32  C   UNL A   1      36.743  29.186  29.790  1.00  0.00     0.010 A 
ATOM     33  C   UNL A   1      37.982  29.447  29.186  1.00  0.00    -0.014 A 
BRANCH  33  34
ATOM     34  C   UNL A   1      39.234  29.088  29.900  1.00  0.00     0.031 A 
ATOM     35  C   UNL A   1      39.646  29.851  31.129  1.00  0.00     0.074 A 
ATOM     36  C   UNL A   1      40.032  28.122  29.402  1.00  0.00     0.049 A 
ATOM     37  N   UNL A   1      40.737  29.739  31.842  1.00  0.00    -0.248 NA
ATOM     38  C   UNL A   1      38.725  30.897  31.602  1.00  0.00     0.031 C 
ATOM     39  C   UNL A   1      39.764  27.345  28.190  1.00  0.00     0.029 A 
ATOM     40  N   UNL A   1      41.236  27.638  29.846  1.00  0.00    -0.354 N 
ATOM     41  C   UNL A   1      40.641  30.705  32.836  1.00  0.00     0.074 A 
ATOM     42  C   UNL A   1      39.410  31.429  32.604  1.00  0.00     0.031 C 
ATOM     43  C   UNL A   1      40.764  26.470  27.999  1.00  0.00     0.029 A 
ATOM     44  C   UNL A   1      41.760  26.647  29.050  1.00  0.00     0.049 A 
ATOM     45  H   UNL A   1      41.684  27.970  30.658  1.00  0.00     0.167 HD
ATOM     46  C   UNL A   1      41.490  30.953  33.862  1.00  0.00     0.037 A 
ATOM     47  C   UNL A   1      42.917  25.962  29.152  1.00  0.00     0.037 A 
ATOM     48  C   UNL A   1      42.700  30.212  34.104  1.00  0.00     0.049 A 
ATOM     49  C   UNL A   1      43.841  26.251  30.304  1.00  0.00     0.074 A 
ATOM     50  C   UNL A   1      43.598  30.346  35.149  1.00  0.00     0.029 A 
ATOM     51  N   UNL A   1      43.184  29.198  33.290  1.00  0.00    -0.354 N 
ATOM     52  N   UNL A   1      43.704  27.128  31.270  1.00  0.00    -0.248 NA
ATOM     53  C   UNL A   1      45.074  25.456  30.382  1.00  0.00     0.031 C 
ATOM     54  C   UNL A   1      44.644  29.440  34.946  1.00  0.00     0.029 A 
ATOM     55  C   UNL A   1      44.376  28.709  33.800  1.00  0.00     0.049 A 
ATOM     56  H   UNL A   1      42.746  28.873  32.471  1.00  0.00     0.167 HD
ATOM     57  C   UNL A   1      44.818  26.971  32.086  1.00  0.00     0.074 A 
ATOM     58  C   UNL A   1      45.615  25.909  31.505  1.00  0.00     0.031 C 
ATOM     59  C   UNL A   1      45.152  27.645  33.215  1.00  0.00     0.037 A 
BRANCH  46  60
ATOM     60  C   UNL A   1      41.135  32.069  34.807  1.00  0.00     0.058 A 
ATOM     61  C   UNL A   1      40.325  31.848  35.932  1.00  0.00     0.135 A 
ATOM     62  C   UNL A   1      41.633  33.365  34.602  1.00  0.00     0.135 A 
ATOM     63  F   UNL A   1      39.810  30.631  36.167  1.00  0.00    -0.206 F 
ATOM     64  C   UNL A   1      39.997  32.880  36.806  1.00  0.00     0.059 A 
ATOM     65  C   UNL A   1      41.340  34.407  35.478  1.00  0.00     0.059 A 
ATOM     66  F   UNL A   1      42.411  33.632  33.542  1.00  0.00    -0.206 F 
ATOM     67  C   UNL A   1      40.508  34.158  36.569  1.00  0.00     0.060 A 
BRANCH  67  68
ATOM     68  S   UNL A   1      40.073  35.485  37.712  1.00  0.00     0.124 S 
ATOM     69  O   UNL A   1      39.883  36.606  36.795  1.00  0.00    -0.237 OA
ATOM     70  O   UNL A   1      38.862  34.971  38.344  1.00  0.00    -0.237 OA
ATOM     71  O   UNL A   1      41.240  35.579  38.584  1.00  0.00    -0.744 OA
ENDBRANCH  67  68
ENDBRANCH  46  60
BRANCH  47  72
ATOM     72  C   UNL A   1      43.251  24.918  28.148  1.00  0.00     0.058 A 
ATOM     73  C   UNL A   1      42.836  23.590  28.325  1.00  0.00     0.135 A 
ATOM     74  C   UNL A   1      43.980  25.226  26.989  1.00  0.00     0.135 A 
ATOM     75  F   UNL A   1      42.143  23.245  29.421  1.00  0.00    -0.206 F 
ATOM     76  C   UNL A   1      43.143  22.600  27.397  1.00  0.00     0.059 A 
ATOM     77  C   UNL A   1      44.279  24.259  26.034  1.00  0.00     0.059 A 
ATOM     78  F   UNL A   1      44.387  26.486  26.765  1.00  0.00    -0.206 F 
ATOM     79  C   UNL A   1      43.864  22.945  26.254  1.00  0.00     0.060 A 
BRANCH  79  80
ATOM     80  S   UNL A   1      44.214  21.663  25.031  1.00  0.00     0.124 S 
ATOM     81  O   UNL A   1      45.571  21.271  25.397  1.00  0.00    -0.237 OA
ATOM     82  O   UNL A   1      43.169  20.681  25.307  1.00  0.00    -0.237 OA
ATOM     83  O   UNL A   1      44.081  22.368  23.759  1.00  0.00    -0.744 OA
ENDBRANCH  79  80
ENDBRANCH  47  72
BRANCH  59  84
ATOM     84  C   UNL A   1      46.415  27.232  33.919  1.00  0.00     0.058 A 
ATOM     85  C   UNL A   1      47.644  27.851  33.650  1.00  0.00     0.135 A 
ATOM     86  C   UNL A   1      46.380  26.242  34.915  1.00  0.00     0.135 A 
ATOM     87  F   UNL A   1      47.732  28.798  32.702  1.00  0.00    -0.206 F 
ATOM     88  C   UNL A   1      48.803  27.487  34.330  1.00  0.00     0.059 A 
ATOM     89  C   UNL A   1      47.521  25.882  35.625  1.00  0.00     0.059 A 
ATOM     90  F   UNL A   1      45.226  25.626  35.217  1.00  0.00    -0.206 F 
ATOM     91  C   UNL A   1      48.730  26.503  35.317  1.00  0.00     0.060 A 
BRANCH  91  92
ATOM     92  S   UNL A   1      50.232  26.067  36.219  1.00  0.00     0.124 S 
ATOM     93  O   UNL A   1      50.420  27.242  37.063  1.00  0.00    -0.237 OA
ATOM     94  O   UNL A   1      49.838  24.844  36.913  1.00  0.00    -0.237 OA
ATOM     95  O   UNL A   1      51.223  25.887  35.162  1.00  0.00    -0.744 OA
ENDBRANCH  91  92
ENDBRANCH  59  84
ENDBRANCH  33  34
ENDBRANCH  25  28
ENDBRANCH  23  24
ENDBRANCH   1  23
TORSDOF 16
ENDMDL
MODEL 2
REMARK VINA RESULT:     -11.2      2.967      6.111
REMARK SMILES C[C@@H](C(=O)NCCCCNC(=O)c1ccc(-c2c3nc(c(-c4c(F)cc(S(=O)(=O)[O-])cc4F)c4ccc([nH]4)c(-c4c(F)cc(S(=O)(=O)[O-])cc4F)c4nc(c(-c5c(F)cc(S(=O)(=O)[O-])cc5F)c5ccc2[nH]5)C=C4)C=C3)cc1)c1ccc(-c2ccccc2)c(F)c1
REMARK SMILES IDX 8 1 7 2 6 3 5 4 3 5 4 6 2 8 1 9 79 10 80 11 91 12 81 13
REMARK SMILES IDX 89 14 82 15 90 16 83 17 84 18 88 19 85 20 87 21 86 22 9 23
REMARK SMILES IDX 10 24 11 25 12 27 13 28 14 29 78 30 15 31 77 32 16 33 17 34
REMARK SMILES IDX 18 35 71 36 19 37 76 38 70 39 72 40 20 41 75 42 69 43 68 44
REMARK SMILES IDX 21 46 55 47 34 48 54 49 35 50 38 51 53 52 73 53 36 54 37 55
REMARK SMILES IDX 52 57 74 58 39 59 22 60 23 61 32 62 24 63 25 64 31 65 33 66
REMARK SMILES IDX 26 67 27 68 28 69 29 70 30 71 56 72 57 73 66 74 58 75 59 76
REMARK SMILES IDX 65 77 67 78 60 79 61 80 62 81 63 82 64 83 40 84 41 85 50 86
REMARK SMILES IDX 42 87 43 88 49 89 51 90 44 91 45 92 46 93 47 94 48 95
REMARK H PARENT 5 7 10 26 72 45 38 56
REMARK Flexibility Score: inf
ROOT
ATOM      1  C   UNL A   1      34.370  34.358  27.893  1.00  0.00     0.023 C 
ENDROOT
BRANCH   1   2
ATOM      2  C   UNL A   1      33.944  35.396  28.934  1.00  0.00     0.023 C 
BRANCH   2   3
ATOM      3  C   UNL A   1      33.602  34.822  30.310  1.00  0.00     0.116 C 
BRANCH   3   4
ATOM      4  N   UNL A   1      33.960  35.747  31.365  1.00  0.00    -0.356 N 
ATOM      5  C   UNL A   1      34.703  35.548  32.493  1.00  0.00     0.227 C 
ATOM      6  O   UNL A   1      34.776  36.489  33.287  1.00  0.00    -0.274 OA
ATOM      7  H   UNL A   1      33.613  36.661  31.252  1.00  0.00     0.163 HD
BRANCH   5   8
ATOM      8  C   UNL A   1      35.442  34.215  32.708  1.00  0.00     0.105 C 
ATOM      9  C   UNL A   1      35.577  33.863  34.195  1.00  0.00     0.023 C 
BRANCH   8  10
ATOM     10  C   UNL A   1      36.799  34.207  32.005  1.00  0.00    -0.033 A 
ATOM     11  C   UNL A   1      37.956  34.567  32.712  1.00  0.00     0.005 A 
ATOM     12  C   UNL A   1      36.938  33.817  30.666  1.00  0.00     0.044 A 
ATOM     13  C   UNL A   1      39.208  34.578  32.083  1.00  0.00     0.012 A 
ATOM     14  C   UNL A   1      38.184  33.846  30.043  1.00  0.00     0.131 A 
ATOM     15  C   UNL A   1      39.340  34.234  30.729  1.00  0.00     0.017 A 
ATOM     16  F   UNL A   1      38.248  33.494  28.749  1.00  0.00    -0.206 F 
BRANCH  15  17
ATOM     17  C   UNL A   1      40.644  34.288  30.052  1.00  0.00    -0.015 A 
ATOM     18  C   UNL A   1      41.631  33.321  30.298  1.00  0.00     0.009 A 
ATOM     19  C   UNL A   1      40.930  35.309  29.130  1.00  0.00     0.009 A 
ATOM     20  C   UNL A   1      42.862  33.370  29.639  1.00  0.00     0.001 A 
ATOM     21  C   UNL A   1      42.162  35.362  28.473  1.00  0.00     0.001 A 
ATOM     22  C   UNL A   1      43.127  34.390  28.727  1.00  0.00     0.000 A 
ENDBRANCH  15  17
ENDBRANCH   8  10
ENDBRANCH   5   8
ENDBRANCH   3   4
ENDBRANCH   2   3
ENDBRANCH   1   2
BRANCH   1  23
ATOM     23  C   UNL A   1      34.574  32.946  28.430  1.00  0.00     0.116 C 
BRANCH  23  24
ATOM     24  N   UNL A   1      33.914  31.931  27.624  1.00  0.00    -0.352 N 
ATOM     25  C   UNL A   1      34.330  30.654  27.339  1.00  0.00     0.251 C 
ATOM     26  H   UNL A   1      33.051  32.196  27.230  1.00  0.00     0.163 HD
ATOM     27  O   UNL A   1      33.705  29.971  26.533  1.00  0.00    -0.269 OA
BRANCH  25  28
ATOM     28  C   UNL A   1      35.553  30.123  27.979  1.00  0.00     0.039 A 
ATOM     29  C   UNL A   1      36.745  30.112  27.251  1.00  0.00     0.014 A 
ATOM     30  C   UNL A   1      35.527  29.661  29.298  1.00  0.00     0.014 A 
ATOM     31  C   UNL A   1      37.928  29.703  27.870  1.00  0.00     0.010 A 
ATOM     32  C   UNL A   1      36.718  29.319  29.933  1.00  0.00     0.010 A 
ATOM     33  C   UNL A   1      37.930  29.337  29.227  1.00  0.00    -0.014 A 
BRANCH  33  34
ATOM     34  C   UNL A   1      39.191  28.981  29.928  1.00  0.00     0.031 A 
ATOM     35  C   UNL A   1      39.610  29.738  31.158  1.00  0.00     0.074 A 
ATOM     36  C   UNL A   1      39.989  28.023  29.415  1.00  0.00     0.049 A 
ATOM     37  N   UNL A   1      40.707  29.628  31.861  1.00  0.00    -0.248 NA
ATOM     38  C   UNL A   1      38.687  30.775  31.646  1.00  0.00     0.031 C 
ATOM     39  C   UNL A   1      39.716  27.253  28.200  1.00  0.00     0.029 A 
ATOM     40  N   UNL A   1      41.201  27.543  29.845  1.00  0.00    -0.354 N 
ATOM     41  C   UNL A   1      40.615  30.586  32.862  1.00  0.00     0.074 A 
ATOM     42  C   UNL A   1      39.377  31.304  32.646  1.00  0.00     0.031 C 
ATOM     43  C   UNL A   1      40.719  26.385  27.995  1.00  0.00     0.029 A 
ATOM     44  C   UNL A   1      41.723  26.561  29.038  1.00  0.00     0.049 A 
ATOM     45  H   UNL A   1      41.653  27.872  30.655  1.00  0.00     0.167 HD
ATOM     46  C   UNL A   1      41.471  30.832  33.881  1.00  0.00     0.037 A 
ATOM     47  C   UNL A   1      42.884  25.882  29.125  1.00  0.00     0.037 A 
ATOM     48  C   UNL A   1      42.688  30.096  34.107  1.00  0.00     0.049 A 
ATOM     49  C   UNL A   1      43.818  26.168  30.270  1.00  0.00     0.074 A 
ATOM     50  C   UNL A   1      43.594  30.228  35.145  1.00  0.00     0.029 A 
ATOM     51  N   UNL A   1      43.171  29.090  33.283  1.00  0.00    -0.354 N 
ATOM     52  N   UNL A   1      43.684  27.037  31.243  1.00  0.00    -0.248 NA
ATOM     53  C   UNL A   1      45.055  25.379  30.332  1.00  0.00     0.031 C 
ATOM     54  C   UNL A   1      44.644  29.330  34.927  1.00  0.00     0.029 A 
ATOM     55  C   UNL A   1      44.370  28.605  33.778  1.00  0.00     0.049 A 
ATOM     56  H   UNL A   1      42.727  28.768  32.465  1.00  0.00     0.167 HD
ATOM     57  C   UNL A   1      44.807  26.881  32.048  1.00  0.00     0.074 A 
ATOM     58  C   UNL A   1      45.604  25.828  31.453  1.00  0.00     0.031 C 
ATOM     59  C   UNL A   1      45.146  27.549  33.179  1.00  0.00     0.037 A 
BRANCH  46  60
ATOM     60  C   UNL A   1      41.118  31.939  34.838  1.00  0.00     0.058 A 
ATOM     61  C   UNL A   1      41.552  33.257  34.627  1.00  0.00     0.135 A 
ATOM     62  C   UNL A   1      40.315  31.684  35.960  1.00  0.00     0.135 A 
ATOM     63  F   UNL A   1      42.336  33.552  33.578  1.00  0.00    -0.206 F 
ATOM     64  C   UNL A   1      41.226  34.280  35.512  1.00  0.00     0.059 A 
ATOM     65  C   UNL A   1      39.953  32.698  36.844  1.00  0.00     0.059 A 
ATOM     66  F   UNL A   1      39.873  30.442  36.209  1.00  0.00    -0.206 F 
ATOM     67  C   UNL A   1      40.427  33.990  36.619  1.00  0.00     0.060 A 
BRANCH  67  68
ATOM     68  S   UNL A   1      40.012  35.328  37.757  1.00  0.00     0.124 S 
ATOM     69  O   UNL A   1      38.856  34.770  38.452  1.00  0.00    -0.237 OA
ATOM     70  O   UNL A   1      41.230  35.453  38.552  1.00  0.00    -0.237 OA
ATOM     71  O   UNL A   1      39.728  36.453  36.871  1.00  0.00    -0.744 OA
ENDBRANCH  67  68
ENDBRANCH  46  60
BRANCH  47  72
ATOM     72  C   UNL A   1      43.216  24.846  28.110  1.00  0.00     0.058 A 
ATOM     73  C   UNL A   1      43.877  25.188  26.922  1.00  0.00     0.135 A 
ATOM     74  C   UNL A   1      42.892  23.495  28.313  1.00  0.00     0.135 A 
ATOM     75  F   UNL A   1      44.201  26.468  26.680  1.00  0.00    -0.206 F 
ATOM     76  C   UNL A   1      44.192  24.233  25.961  1.00  0.00     0.059 A 
ATOM     77  C   UNL A   1      43.219  22.518  27.378  1.00  0.00     0.059 A 
ATOM     78  F   UNL A   1      42.274  23.114  29.442  1.00  0.00    -0.206 F 
ATOM     79  C   UNL A   1      43.860  22.899  26.200  1.00  0.00     0.060 A 
BRANCH  79  80
ATOM     80  S   UNL A   1      44.318  21.660  24.969  1.00  0.00     0.124 S 
ATOM     81  O   UNL A   1      43.337  20.612  25.228  1.00  0.00    -0.237 OA
ATOM     82  O   UNL A   1      44.154  22.394  23.718  1.00  0.00    -0.237 OA
ATOM     83  O   UNL A   1      45.698  21.334  25.320  1.00  0.00    -0.744 OA
ENDBRANCH  79  80
ENDBRANCH  47  72
BRANCH  59  84
ATOM     84  C   UNL A   1      46.418  27.139  33.868  1.00  0.00     0.058 A 
ATOM     85  C   UNL A   1      47.645  27.754  33.579  1.00  0.00     0.135 A 
ATOM     86  C   UNL A   1      46.395  26.156  34.871  1.00  0.00     0.135 A 
ATOM     87  F   UNL A   1      47.722  28.694  32.624  1.00  0.00    -0.206 F 
ATOM     88  C   UNL A   1      48.812  27.393  34.246  1.00  0.00     0.059 A 
ATOM     89  C   UNL A   1      47.544  25.798  35.568  1.00  0.00     0.059 A 
ATOM     90  F   UNL A   1      45.244  25.544  35.193  1.00  0.00    -0.206 F 
ATOM     91  C   UNL A   1      48.751  26.415  35.241  1.00  0.00     0.060 A 
BRANCH  91  92
ATOM     92  S   UNL A   1      50.264  25.983  36.125  1.00  0.00     0.124 S 
ATOM     93  O   UNL A   1      49.953  26.433  37.477  1.00  0.00    -0.237 OA
ATOM     94  O   UNL A   1      50.334  24.536  35.939  1.00  0.00    -0.237 OA
ATOM     95  O   UNL A   1      51.295  26.747  35.429  1.00  0.00    -0.744 OA
ENDBRANCH  91  92
ENDBRANCH  59  84
ENDBRANCH  33  34
ENDBRANCH  25  28
ENDBRANCH  23  24
ENDBRANCH   1  23
TORSDOF 16
ENDMDL
MODEL 3
REMARK VINA RESULT:     -11.2      4.994      6.303
REMARK SMILES C[C@@H](C(=O)NCCCCNC(=O)c1ccc(-c2c3nc(c(-c4c(F)cc(S(=O)(=O)[O-])cc4F)c4ccc([nH]4)c(-c4c(F)cc(S(=O)(=O)[O-])cc4F)c4nc(c(-c5c(F)cc(S(=O)(=O)[O-])cc5F)c5ccc2[nH]5)C=C4)C=C3)cc1)c1ccc(-c2ccccc2)c(F)c1
REMARK SMILES IDX 8 1 7 2 6 3 5 4 3 5 4 6 2 8 1 9 79 10 80 11 91 12 81 13
REMARK SMILES IDX 89 14 82 15 90 16 83 17 84 18 88 19 85 20 87 21 86 22 9 23
REMARK SMILES IDX 10 24 11 25 12 27 13 28 14 29 78 30 15 31 77 32 16 33 17 34
REMARK SMILES IDX 18 35 71 36 19 37 76 38 70 39 72 40 20 41 75 42 69 43 68 44
REMARK SMILES IDX 21 46 55 47 34 48 54 49 35 50 38 51 53 52 73 53 36 54 37 55
REMARK SMILES IDX 52 57 74 58 39 59 22 60 23 61 32 62 24 63 25 64 31 65 33 66
REMARK SMILES IDX 26 67 27 68 28 69 29 70 30 71 56 72 57 73 66 74 58 75 59 76
REMARK SMILES IDX 65 77 67 78 60 79 61 80 62 81 63 82 64 83 40 84 41 85 50 86
REMARK SMILES IDX 42 87 43 88 49 89 51 90 44 91 45 92 46 93 47 94 48 95
REMARK H PARENT 5 7 10 26 72 45 38 56
REMARK Flexibility Score: inf
ROOT
ATOM      1  C   UNL A   1      33.752  29.421  27.019  1.00  0.00     0.023 C 
ENDROOT
BRANCH   1   2
ATOM      2  C   UNL A   1      33.173  28.018  26.821  1.00  0.00     0.023 C 
BRANCH   2   3
ATOM      3  C   UNL A   1      31.756  27.986  26.245  1.00  0.00     0.116 C 
BRANCH   3   4
ATOM      4  N   UNL A   1      31.038  26.808  26.689  1.00  0.00    -0.356 N 
ATOM      5  C   UNL A   1      30.826  25.618  26.055  1.00  0.00     0.227 C 
ATOM      6  O   UNL A   1      30.089  24.807  26.622  1.00  0.00    -0.274 OA
ATOM      7  H   UNL A   1      30.642  26.877  27.587  1.00  0.00     0.163 HD
BRANCH   5   8
ATOM      8  C   UNL A   1      31.529  25.315  24.720  1.00  0.00     0.105 C 
ATOM      9  C   UNL A   1      30.656  24.468  23.787  1.00  0.00     0.023 C 
BRANCH   8  10
ATOM     10  C   UNL A   1      32.899  24.676  24.940  1.00  0.00    -0.033 A 
ATOM     11  C   UNL A   1      33.251  24.191  26.209  1.00  0.00     0.005 A 
ATOM     12  C   UNL A   1      33.823  24.525  23.896  1.00  0.00     0.044 A 
ATOM     13  C   UNL A   1      34.506  23.614  26.435  1.00  0.00     0.012 A 
ATOM     14  C   UNL A   1      35.076  23.964  24.133  1.00  0.00     0.131 A 
ATOM     15  C   UNL A   1      35.450  23.506  25.401  1.00  0.00     0.017 A 
ATOM     16  F   UNL A   1      35.931  23.878  23.102  1.00  0.00    -0.206 F 
BRANCH  15  17
ATOM     17  C   UNL A   1      36.785  22.942  25.644  1.00  0.00    -0.015 A 
ATOM     18  C   UNL A   1      37.796  23.703  26.252  1.00  0.00     0.009 A 
ATOM     19  C   UNL A   1      37.080  21.618  25.279  1.00  0.00     0.009 A 
ATOM     20  C   UNL A   1      39.059  23.154  26.494  1.00  0.00     0.001 A 
ATOM     21  C   UNL A   1      38.342  21.069  25.517  1.00  0.00     0.001 A 
ATOM     22  C   UNL A   1      39.331  21.838  26.126  1.00  0.00     0.000 A 
ENDBRANCH  15  17
ENDBRANCH   8  10
ENDBRANCH   5   8
ENDBRANCH   3   4
ENDBRANCH   2   3
ENDBRANCH   1   2
BRANCH   1  23
ATOM     23  C   UNL A   1      35.145  29.469  27.633  1.00  0.00     0.116 C 
BRANCH  23  24
ATOM     24  N   UNL A   1      35.202  30.259  28.853  1.00  0.00    -0.352 N 
ATOM     25  C   UNL A   1      36.260  30.448  29.707  1.00  0.00     0.251 C 
ATOM     26  H   UNL A   1      34.368  30.721  29.098  1.00  0.00     0.163 HD
ATOM     27  O   UNL A   1      36.094  31.049  30.764  1.00  0.00    -0.269 OA
BRANCH  25  28
ATOM     28  C   UNL A   1      37.586  29.893  29.362  1.00  0.00     0.039 A 
ATOM     29  C   UNL A   1      37.969  29.847  28.020  1.00  0.00     0.014 A 
ATOM     30  C   UNL A   1      38.455  29.442  30.360  1.00  0.00     0.014 A 
ATOM     31  C   UNL A   1      39.253  29.414  27.682  1.00  0.00     0.010 A 
ATOM     32  C   UNL A   1      39.757  29.076  30.028  1.00  0.00     0.010 A 
ATOM     33  C   UNL A   1      40.170  29.060  28.687  1.00  0.00    -0.014 A 
BRANCH  33  34
ATOM     34  C   UNL A   1      41.567  28.679  28.357  1.00  0.00     0.031 A 
ATOM     35  C   UNL A   1      42.643  29.728  28.302  1.00  0.00     0.074 A 
ATOM     36  C   UNL A   1      41.851  27.399  28.039  1.00  0.00     0.049 A 
ATOM     37  N   UNL A   1      43.899  29.605  27.958  1.00  0.00    -0.248 NA
ATOM     38  C   UNL A   1      42.249  31.102  28.653  1.00  0.00     0.031 C 
ATOM     39  C   UNL A   1      40.884  26.300  28.008  1.00  0.00     0.029 A 
ATOM     40  N   UNL A   1      43.034  26.809  27.669  1.00  0.00    -0.354 N 
ATOM     41  C   UNL A   1      44.440  30.883  28.037  1.00  0.00     0.074 A 
ATOM     42  C   UNL A   1      43.364  31.775  28.411  1.00  0.00     0.031 C 
ATOM     43  C   UNL A   1      41.516  25.168  27.659  1.00  0.00     0.029 A 
ATOM     44  C   UNL A   1      42.921  25.465  27.405  1.00  0.00     0.049 A 
ATOM     45  H   UNL A   1      43.882  27.303  27.599  1.00  0.00     0.167 HD
ATOM     46  C   UNL A   1      45.721  31.274  27.837  1.00  0.00     0.037 A 
ATOM     47  C   UNL A   1      43.846  24.572  26.998  1.00  0.00     0.037 A 
ATOM     48  C   UNL A   1      46.793  30.377  27.491  1.00  0.00     0.049 A 
ATOM     49  C   UNL A   1      45.264  25.030  26.788  1.00  0.00     0.074 A 
ATOM     50  C   UNL A   1      48.137  30.665  27.325  1.00  0.00     0.029 A 
ATOM     51  N   UNL A   1      46.645  29.018  27.258  1.00  0.00    -0.354 N 
ATOM     52  N   UNL A   1      45.771  26.232  26.926  1.00  0.00    -0.248 NA
ATOM     53  C   UNL A   1      46.236  24.010  26.372  1.00  0.00     0.031 C 
ATOM     54  C   UNL A   1      48.795  29.488  26.953  1.00  0.00     0.029 A 
ATOM     55  C   UNL A   1      47.869  28.456  26.932  1.00  0.00     0.049 A 
ATOM     56  H   UNL A   1      45.795  28.523  27.315  1.00  0.00     0.167 HD
ATOM     57  C   UNL A   1      47.125  26.107  26.640  1.00  0.00     0.074 A 
ATOM     58  C   UNL A   1      47.360  24.711  26.331  1.00  0.00     0.031 C 
ATOM     59  C   UNL A   1      48.088  27.063  26.636  1.00  0.00     0.037 A 
BRANCH  46  60
ATOM     60  C   UNL A   1      46.037  32.736  27.995  1.00  0.00     0.058 A 
ATOM     61  C   UNL A   1      45.878  33.641  26.934  1.00  0.00     0.135 A 
ATOM     62  C   UNL A   1      46.475  33.243  29.228  1.00  0.00     0.135 A 
ATOM     63  F   UNL A   1      45.476  33.207  25.729  1.00  0.00    -0.206 F 
ATOM     64  C   UNL A   1      46.170  34.994  27.081  1.00  0.00     0.059 A 
ATOM     65  C   UNL A   1      46.748  34.597  29.406  1.00  0.00     0.059 A 
ATOM     66  F   UNL A   1      46.645  32.422  30.277  1.00  0.00    -0.206 F 
ATOM     67  C   UNL A   1      46.607  35.462  28.321  1.00  0.00     0.060 A 
BRANCH  67  68
ATOM     68  S   UNL A   1      46.981  37.219  28.496  1.00  0.00     0.124 S 
ATOM     69  O   UNL A   1      47.001  37.368  29.948  1.00  0.00    -0.237 OA
ATOM     70  O   UNL A   1      48.275  37.331  27.830  1.00  0.00    -0.237 OA
ATOM     71  O   UNL A   1      45.869  37.873  27.814  1.00  0.00    -0.744 OA
ENDBRANCH  67  68
ENDBRANCH  46  60
BRANCH  47  72
ATOM     72  C   UNL A   1      43.463  23.151  26.788  1.00  0.00     0.058 A 
ATOM     73  C   UNL A   1      43.373  22.613  25.496  1.00  0.00     0.135 A 
ATOM     74  C   UNL A   1      43.192  22.300  27.870  1.00  0.00     0.135 A 
ATOM     75  F   UNL A   1      43.616  23.390  24.428  1.00  0.00    -0.206 F 
ATOM     76  C   UNL A   1      43.013  21.287  25.281  1.00  0.00     0.059 A 
ATOM     77  C   UNL A   1      42.854  20.963  27.683  1.00  0.00     0.059 A 
ATOM     78  F   UNL A   1      43.280  22.762  29.128  1.00  0.00    -0.206 F 
ATOM     79  C   UNL A   1      42.757  20.469  26.382  1.00  0.00     0.060 A 
BRANCH  79  80
ATOM     80  S   UNL A   1      42.340  18.736  26.094  1.00  0.00     0.124 S 
ATOM     81  O   UNL A   1      40.925  18.827  25.752  1.00  0.00    -0.237 OA
ATOM     82  O   UNL A   1      43.241  18.380  25.002  1.00  0.00    -0.237 OA
ATOM     83  O   UNL A   1      42.641  18.103  27.375  1.00  0.00    -0.744 OA
ENDBRANCH  79  80
ENDBRANCH  47  72
BRANCH  59  84
ATOM     84  C   UNL A   1      49.492  26.628  26.320  1.00  0.00     0.058 A 
ATOM     85  C   UNL A   1      50.308  26.013  27.281  1.00  0.00     0.135 A 
ATOM     86  C   UNL A   1      50.006  26.780  25.022  1.00  0.00     0.135 A 
ATOM     87  F   UNL A   1      49.866  25.850  28.539  1.00  0.00    -0.206 F 
ATOM     88  C   UNL A   1      51.594  25.581  26.972  1.00  0.00     0.059 A 
ATOM     89  C   UNL A   1      51.279  26.333  24.684  1.00  0.00     0.059 A 
ATOM     90  F   UNL A   1      49.262  27.354  24.063  1.00  0.00    -0.206 F 
ATOM     91  C   UNL A   1      52.070  25.744  25.670  1.00  0.00     0.060 A 
BRANCH  91  92
ATOM     92  S   UNL A   1      53.727  25.147  25.271  1.00  0.00     0.124 S 
ATOM     93  O   UNL A   1      54.525  25.776  26.317  1.00  0.00    -0.237 OA
ATOM     94  O   UNL A   1      53.571  23.698  25.376  1.00  0.00    -0.237 OA
ATOM     95  O   UNL A   1      53.952  25.649  23.919  1.00  0.00    -0.744 OA
ENDBRANCH  91  92
ENDBRANCH  59  84
ENDBRANCH  33  34
ENDBRANCH  25  28
ENDBRANCH  23  24
ENDBRANCH   1  23
TORSDOF 16
ENDMDL
