MODEL 1
REMARK VINA RESULT:     -11.4      0.000      0.000
REMARK SMILES C[C@]1(C(=O)NCCn2cc(C(=O)NCCCCNC(=O)c3ccc(-c4c5nc(c(-c6c(F)cc(S(=O)(=O)[O-])cc6F)c6ccc([nH]6)c(-c6c(F)cc(S(=O)(=O)[O-])cc6F)c6nc(c(-c7c(F)cc(S(=O)(=O)[O-])cc7F)c7ccc4[nH]7)C=C6)C=C5)cc3)nn2)CCCO1
REMARK SMILES IDX 15 1 14 2 13 3 11 4 12 5 10 7 8 8 9 9 88 10 87 11 7 12 6 13
REMARK SMILES IDX 5 14 3 15 4 16 2 18 1 19 89 20 92 21 90 22 91 23 16 24 17 25
REMARK SMILES IDX 18 26 19 27 20 29 21 30 22 31 86 32 23 33 85 34 24 35 25 36
REMARK SMILES IDX 26 37 79 38 27 39 84 40 78 41 80 42 28 43 83 44 77 45 76 46
REMARK SMILES IDX 29 48 63 49 42 50 62 51 43 52 46 53 61 54 81 55 44 56 45 57
REMARK SMILES IDX 60 59 82 60 47 61 30 62 31 63 40 64 32 65 33 66 39 67 41 68
REMARK SMILES IDX 34 69 35 70 36 71 37 72 38 73 64 74 65 75 74 76 66 77 67 78
REMARK SMILES IDX 73 79 75 80 68 81 69 82 70 83 71 84 72 85 48 86 49 87 58 88
REMARK SMILES IDX 50 89 51 90 57 91 59 92 52 93 53 94 54 95 55 96 56 97
REMARK H PARENT 13 6 5 17 18 28 80 47 46 58
REMARK Flexibility Score: inf
ROOT
ATOM      1  C   UNL A   1      38.111  23.626  26.159  1.00  0.00     0.023 C 
ENDROOT
BRANCH   1   2
ATOM      2  C   UNL A   1      36.638  23.491  25.748  1.00  0.00     0.116 C 
BRANCH   2   3
ATOM      3  N   UNL A   1      35.936  22.482  26.525  1.00  0.00    -0.351 N 
ATOM      4  C   UNL A   1      34.588  22.165  26.593  1.00  0.00     0.273 C 
ATOM      5  O   UNL A   1      34.265  21.171  27.230  1.00  0.00    -0.267 OA
ATOM      6  H   UNL A   1      36.515  21.929  27.099  1.00  0.00     0.163 HD
BRANCH   4   7
ATOM      7  C   UNL A   1      33.615  23.005  25.903  1.00  0.00     0.170 A 
ATOM      8  N   UNL A   1      31.985  23.720  24.680  1.00  0.00    -0.250 N 
ATOM      9  C   UNL A   1      32.960  22.772  24.713  1.00  0.00     0.145 A 
ATOM     10  N   UNL A   1      32.198  24.660  25.611  1.00  0.00    -0.067 NA
ATOM     11  N   UNL A   1      33.197  24.229  26.378  1.00  0.00    -0.125 NA
BRANCH   8  12
ATOM     12  C   UNL A   1      30.783  23.723  23.866  1.00  0.00     0.167 C 
BRANCH  12  13
ATOM     13  C   UNL A   1      30.669  24.985  22.990  1.00  0.00     0.139 C 
BRANCH  13  14
ATOM     14  N   UNL A   1      31.936  25.327  22.376  1.00  0.00    -0.352 N 
ATOM     15  C   UNL A   1      32.672  26.459  22.258  1.00  0.00     0.252 C 
ATOM     16  O   UNL A   1      33.703  26.300  21.589  1.00  0.00    -0.272 OA
ATOM     17  H   UNL A   1      32.365  24.554  21.944  1.00  0.00     0.163 HD
BRANCH  15  18
ATOM     18  C   UNL A   1      32.375  27.821  22.953  1.00  0.00     0.143 C 
ATOM     19  C   UNL A   1      33.559  28.784  22.686  1.00  0.00     0.053 C 
ATOM     20  C   UNL A   1      31.079  28.576  22.664  1.00  0.00     0.048 C 
ATOM     21  O   UNL A   1      32.345  27.557  24.376  1.00  0.00    -0.365 OA
ATOM     22  C   UNL A   1      30.841  29.343  23.947  1.00  0.00     0.032 C 
ATOM     23  C   UNL A   1      31.396  28.419  25.009  1.00  0.00     0.162 C 
ENDBRANCH  15  18
ENDBRANCH  13  14
ENDBRANCH  12  13
ENDBRANCH   8  12
ENDBRANCH   4   7
ENDBRANCH   2   3
ENDBRANCH   1   2
BRANCH   1  24
ATOM     24  C   UNL A   1      38.922  22.322  26.186  1.00  0.00     0.023 C 
BRANCH  24  25
ATOM     25  C   UNL A   1      40.114  22.323  27.134  1.00  0.00     0.116 C 
BRANCH  25  26
ATOM     26  N   UNL A   1      41.389  22.039  26.468  1.00  0.00    -0.352 N 
ATOM     27  C   UNL A   1      42.255  22.951  25.884  1.00  0.00     0.251 C 
ATOM     28  H   UNL A   1      41.662  21.093  26.431  1.00  0.00     0.163 HD
ATOM     29  O   UNL A   1      43.033  22.607  25.002  1.00  0.00    -0.269 OA
BRANCH  27  30
ATOM     30  C   UNL A   1      42.230  24.341  26.371  1.00  0.00     0.039 A 
ATOM     31  C   UNL A   1      41.454  25.342  25.779  1.00  0.00     0.014 A 
ATOM     32  C   UNL A   1      42.984  24.606  27.510  1.00  0.00     0.014 A 
ATOM     33  C   UNL A   1      41.387  26.590  26.399  1.00  0.00     0.010 A 
ATOM     34  C   UNL A   1      42.756  25.750  28.218  1.00  0.00     0.010 A 
ATOM     35  C   UNL A   1      42.031  26.777  27.633  1.00  0.00    -0.014 A 
BRANCH  35  36
ATOM     36  C   UNL A   1      41.876  28.000  28.414  1.00  0.00     0.031 A 
ATOM     37  C   UNL A   1      42.977  28.981  28.217  1.00  0.00     0.074 A 
ATOM     38  C   UNL A   1      40.716  28.315  29.037  1.00  0.00     0.049 A 
ATOM     39  N   UNL A   1      43.902  29.311  29.055  1.00  0.00    -0.248 NA
ATOM     40  C   UNL A   1      43.190  29.526  26.862  1.00  0.00     0.031 C 
ATOM     41  C   UNL A   1      39.443  27.579  29.027  1.00  0.00     0.029 A 
ATOM     42  N   UNL A   1      40.393  29.435  29.737  1.00  0.00    -0.354 N 
ATOM     43  C   UNL A   1      44.643  30.309  28.427  1.00  0.00     0.074 A 
ATOM     44  C   UNL A   1      44.319  30.220  27.028  1.00  0.00     0.031 C 
ATOM     45  C   UNL A   1      38.447  28.375  29.476  1.00  0.00     0.029 A 
ATOM     46  C   UNL A   1      39.029  29.605  29.977  1.00  0.00     0.049 A 
ATOM     47  H   UNL A   1      41.070  30.076  30.052  1.00  0.00     0.167 HD
ATOM     48  C   UNL A   1      45.234  31.302  29.149  1.00  0.00     0.037 A 
ATOM     49  C   UNL A   1      38.429  30.689  30.537  1.00  0.00     0.037 A 
ATOM     50  C   UNL A   1      45.282  30.954  30.550  1.00  0.00     0.049 A 
ATOM     51  C   UNL A   1      39.492  31.421  31.278  1.00  0.00     0.074 A 
ATOM     52  C   UNL A   1      45.830  29.912  31.274  1.00  0.00     0.029 A 
ATOM     53  N   UNL A   1      44.343  31.528  31.375  1.00  0.00    -0.354 N 
ATOM     54  N   UNL A   1      40.113  30.932  32.317  1.00  0.00    -0.248 NA
ATOM     55  C   UNL A   1      40.204  32.464  30.557  1.00  0.00     0.031 C 
ATOM     56  C   UNL A   1      44.859  29.611  32.274  1.00  0.00     0.029 A 
ATOM     57  C   UNL A   1      43.820  30.536  32.166  1.00  0.00     0.049 A 
ATOM     58  H   UNL A   1      44.092  32.480  31.396  1.00  0.00     0.167 HD
ATOM     59  C   UNL A   1      41.445  31.284  32.135  1.00  0.00     0.074 A 
ATOM     60  C   UNL A   1      41.426  32.283  31.066  1.00  0.00     0.031 C 
ATOM     61  C   UNL A   1      42.457  30.526  32.653  1.00  0.00     0.037 A 
BRANCH  48  62
ATOM     62  C   UNL A   1      45.399  32.733  28.677  1.00  0.00     0.058 A 
ATOM     63  C   UNL A   1      46.686  33.313  28.697  1.00  0.00     0.135 A 
ATOM     64  C   UNL A   1      44.332  33.638  28.476  1.00  0.00     0.135 A 
ATOM     65  F   UNL A   1      47.777  32.553  28.878  1.00  0.00    -0.206 F 
ATOM     66  C   UNL A   1      46.888  34.692  28.614  1.00  0.00     0.059 A 
ATOM     67  C   UNL A   1      44.517  35.009  28.337  1.00  0.00     0.059 A 
ATOM     68  F   UNL A   1      43.050  33.260  28.499  1.00  0.00    -0.206 F 
ATOM     69  C   UNL A   1      45.793  35.533  28.450  1.00  0.00     0.060 A 
BRANCH  69  70
ATOM     70  S   UNL A   1      46.040  37.315  28.434  1.00  0.00     0.124 S 
ATOM     71  O   UNL A   1      46.163  37.578  27.005  1.00  0.00    -0.237 OA
ATOM     72  O   UNL A   1      44.818  37.793  29.071  1.00  0.00    -0.237 OA
ATOM     73  O   UNL A   1      47.260  37.492  29.216  1.00  0.00    -0.744 OA
ENDBRANCH  69  70
ENDBRANCH  48  62
BRANCH  49  74
ATOM     74  C   UNL A   1      37.121  31.312  30.184  1.00  0.00     0.058 A 
ATOM     75  C   UNL A   1      36.267  31.840  31.170  1.00  0.00     0.135 A 
ATOM     76  C   UNL A   1      36.815  31.665  28.854  1.00  0.00     0.135 A 
ATOM     77  F   UNL A   1      36.492  31.578  32.467  1.00  0.00    -0.206 F 
ATOM     78  C   UNL A   1      35.204  32.702  30.862  1.00  0.00     0.059 A 
ATOM     79  C   UNL A   1      35.760  32.518  28.521  1.00  0.00     0.059 A 
ATOM     80  F   UNL A   1      37.596  31.264  27.838  1.00  0.00    -0.206 F 
ATOM     81  C   UNL A   1      34.971  33.052  29.532  1.00  0.00     0.060 A 
BRANCH  81  82
ATOM     82  S   UNL A   1      33.711  34.294  29.142  1.00  0.00     0.124 S 
ATOM     83  O   UNL A   1      32.833  33.563  28.237  1.00  0.00    -0.237 OA
ATOM     84  O   UNL A   1      33.159  34.598  30.459  1.00  0.00    -0.237 OA
ATOM     85  O   UNL A   1      34.479  35.376  28.530  1.00  0.00    -0.744 OA
ENDBRANCH  81  82
ENDBRANCH  49  74
BRANCH  61  86
ATOM     86  C   UNL A   1      42.113  29.453  33.660  1.00  0.00     0.058 A 
ATOM     87  C   UNL A   1      41.756  28.131  33.337  1.00  0.00     0.135 A 
ATOM     88  C   UNL A   1      42.330  29.739  35.015  1.00  0.00     0.135 A 
ATOM     89  F   UNL A   1      41.621  27.745  32.062  1.00  0.00    -0.206 F 
ATOM     90  C   UNL A   1      41.598  27.147  34.320  1.00  0.00     0.059 A 
ATOM     91  C   UNL A   1      42.208  28.770  36.007  1.00  0.00     0.059 A 
ATOM     92  F   UNL A   1      42.730  30.966  35.386  1.00  0.00    -0.206 F 
ATOM     93  C   UNL A   1      41.832  27.477  35.653  1.00  0.00     0.060 A 
BRANCH  93  94
ATOM     94  S   UNL A   1      41.713  26.191  36.917  1.00  0.00     0.124 S 
ATOM     95  O   UNL A   1      41.899  24.973  36.137  1.00  0.00    -0.237 OA
ATOM     96  O   UNL A   1      42.802  26.535  37.826  1.00  0.00    -0.237 OA
ATOM     97  O   UNL A   1      40.372  26.378  37.469  1.00  0.00    -0.744 OA
ENDBRANCH  93  94
ENDBRANCH  61  86
ENDBRANCH  35  36
ENDBRANCH  27  30
ENDBRANCH  25  26
ENDBRANCH  24  25
ENDBRANCH   1  24
TORSDOF 18
ENDMDL
MODEL 2
REMARK VINA RESULT:     -11.2      3.120      9.422
REMARK SMILES C[C@]1(C(=O)NCCn2cc(C(=O)NCCCCNC(=O)c3ccc(-c4c5nc(c(-c6c(F)cc(S(=O)(=O)[O-])cc6F)c6ccc([nH]6)c(-c6c(F)cc(S(=O)(=O)[O-])cc6F)c6nc(c(-c7c(F)cc(S(=O)(=O)[O-])cc7F)c7ccc4[nH]7)C=C6)C=C5)cc3)nn2)CCCO1
REMARK SMILES IDX 15 1 14 2 13 3 11 4 12 5 10 7 8 8 9 9 88 10 87 11 7 12 6 13
REMARK SMILES IDX 5 14 3 15 4 16 2 18 1 19 89 20 92 21 90 22 91 23 16 24 17 25
REMARK SMILES IDX 18 26 19 27 20 29 21 30 22 31 86 32 23 33 85 34 24 35 25 36
REMARK SMILES IDX 26 37 79 38 27 39 84 40 78 41 80 42 28 43 83 44 77 45 76 46
REMARK SMILES IDX 29 48 63 49 42 50 62 51 43 52 46 53 61 54 81 55 44 56 45 57
REMARK SMILES IDX 60 59 82 60 47 61 30 62 31 63 40 64 32 65 33 66 39 67 41 68
REMARK SMILES IDX 34 69 35 70 36 71 37 72 38 73 64 74 65 75 74 76 66 77 67 78
REMARK SMILES IDX 73 79 75 80 68 81 69 82 70 83 71 84 72 85 48 86 49 87 58 88
REMARK SMILES IDX 50 89 51 90 57 91 59 92 52 93 53 94 54 95 55 96 56 97
REMARK H PARENT 13 6 5 17 18 28 80 47 46 58
REMARK Flexibility Score: inf
ROOT
ATOM      1  C   UNL A   1      33.272  28.319  27.154  1.00  0.00     0.023 C 
ENDROOT
BRANCH   1   2
ATOM      2  C   UNL A   1      33.293  27.476  25.871  1.00  0.00     0.116 C 
BRANCH   2   3
ATOM      3  N   UNL A   1      31.983  27.390  25.243  1.00  0.00    -0.351 N 
ATOM      4  C   UNL A   1      31.045  26.370  25.238  1.00  0.00     0.273 C 
ATOM      5  O   UNL A   1      29.950  26.601  24.741  1.00  0.00    -0.267 OA
ATOM      6  H   UNL A   1      31.718  28.192  24.736  1.00  0.00     0.163 HD
BRANCH   4   7
ATOM      7  C   UNL A   1      31.381  25.079  25.828  1.00  0.00     0.170 A 
ATOM      8  N   UNL A   1      32.403  23.277  26.439  1.00  0.00    -0.250 N 
ATOM      9  C   UNL A   1      32.291  24.140  25.393  1.00  0.00     0.145 A 
ATOM     10  N   UNL A   1      31.424  23.476  27.332  1.00  0.00    -0.067 NA
ATOM     11  N   UNL A   1      30.789  24.589  26.972  1.00  0.00    -0.125 NA
BRANCH   8  12
ATOM     12  C   UNL A   1      33.473  22.328  26.691  1.00  0.00     0.167 C 
BRANCH  12  13
ATOM     13  C   UNL A   1      33.134  20.913  26.186  1.00  0.00     0.139 C 
BRANCH  13  14
ATOM     14  N   UNL A   1      32.642  20.935  24.823  1.00  0.00    -0.352 N 
ATOM     15  C   UNL A   1      32.568  20.034  23.813  1.00  0.00     0.252 C 
ATOM     16  O   UNL A   1      32.100  20.512  22.769  1.00  0.00    -0.272 OA
ATOM     17  H   UNL A   1      32.271  21.812  24.570  1.00  0.00     0.163 HD
BRANCH  15  18
ATOM     18  C   UNL A   1      32.912  18.518  23.911  1.00  0.00     0.143 C 
ATOM     19  C   UNL A   1      32.518  17.831  22.580  1.00  0.00     0.053 C 
ATOM     20  C   UNL A   1      34.324  18.062  24.276  1.00  0.00     0.048 C 
ATOM     21  O   UNL A   1      32.063  17.972  24.949  1.00  0.00    -0.365 OA
ATOM     22  C   UNL A   1      34.085  16.728  24.951  1.00  0.00     0.032 C 
ATOM     23  C   UNL A   1      32.749  16.922  25.635  1.00  0.00     0.162 C 
ENDBRANCH  15  18
ENDBRANCH  13  14
ENDBRANCH  12  13
ENDBRANCH   8  12
ENDBRANCH   4   7
ENDBRANCH   2   3
ENDBRANCH   1   2
BRANCH   1  24
ATOM     24  C   UNL A   1      33.293  29.841  26.957  1.00  0.00     0.023 C 
BRANCH  24  25
ATOM     25  C   UNL A   1      34.602  30.523  27.332  1.00  0.00     0.116 C 
BRANCH  25  26
ATOM     26  N   UNL A   1      34.425  31.687  28.205  1.00  0.00    -0.352 N 
ATOM     27  C   UNL A   1      34.969  31.885  29.466  1.00  0.00     0.251 C 
ATOM     28  H   UNL A   1      33.853  32.411  27.858  1.00  0.00     0.163 HD
ATOM     29  O   UNL A   1      34.437  32.639  30.271  1.00  0.00    -0.269 OA
BRANCH  27  30
ATOM     30  C   UNL A   1      36.218  31.179  29.799  1.00  0.00     0.039 A 
ATOM     31  C   UNL A   1      36.311  29.786  29.868  1.00  0.00     0.014 A 
ATOM     32  C   UNL A   1      37.342  31.978  29.988  1.00  0.00     0.014 A 
ATOM     33  C   UNL A   1      37.568  29.209  30.050  1.00  0.00     0.010 A 
ATOM     34  C   UNL A   1      38.584  31.412  29.960  1.00  0.00     0.010 A 
ATOM     35  C   UNL A   1      38.704  30.034  30.077  1.00  0.00    -0.014 A 
BRANCH  35  36
ATOM     36  C   UNL A   1      40.059  29.494  30.106  1.00  0.00     0.031 A 
ATOM     37  C   UNL A   1      40.582  29.258  31.479  1.00  0.00     0.074 A 
ATOM     38  C   UNL A   1      40.664  29.006  28.998  1.00  0.00     0.049 A 
ATOM     39  N   UNL A   1      41.505  29.915  32.097  1.00  0.00    -0.248 NA
ATOM     40  C   UNL A   1      39.866  28.297  32.340  1.00  0.00     0.031 C 
ATOM     41  C   UNL A   1      40.118  28.878  27.638  1.00  0.00     0.029 A 
ATOM     42  N   UNL A   1      41.881  28.413  28.873  1.00  0.00    -0.354 N 
ATOM     43  C   UNL A   1      41.675  29.269  33.318  1.00  0.00     0.074 A 
ATOM     44  C   UNL A   1      40.499  28.461  33.505  1.00  0.00     0.031 C 
ATOM     45  C   UNL A   1      40.893  28.047  26.906  1.00  0.00     0.029 A 
ATOM     46  C   UNL A   1      42.081  27.729  27.672  1.00  0.00     0.049 A 
ATOM     47  H   UNL A   1      42.568  28.461  29.575  1.00  0.00     0.167 HD
ATOM     48  C   UNL A   1      42.894  29.233  33.929  1.00  0.00     0.037 A 
ATOM     49  C   UNL A   1      43.147  26.951  27.346  1.00  0.00     0.037 A 
ATOM     50  C   UNL A   1      43.783  30.210  33.347  1.00  0.00     0.049 A 
ATOM     51  C   UNL A   1      44.251  27.345  28.262  1.00  0.00     0.074 A 
ATOM     52  C   UNL A   1      43.749  31.582  33.187  1.00  0.00     0.029 A 
ATOM     53  N   UNL A   1      44.722  29.754  32.450  1.00  0.00    -0.354 N 
ATOM     54  N   UNL A   1      44.810  28.526  28.253  1.00  0.00    -0.248 NA
ATOM     55  C   UNL A   1      44.375  26.606  29.509  1.00  0.00     0.031 C 
ATOM     56  C   UNL A   1      44.284  31.813  31.885  1.00  0.00     0.029 A 
ATOM     57  C   UNL A   1      44.698  30.588  31.360  1.00  0.00     0.049 A 
ATOM     58  H   UNL A   1      45.306  28.971  32.569  1.00  0.00     0.167 HD
ATOM     59  C   UNL A   1      44.973  28.855  29.592  1.00  0.00     0.074 A 
ATOM     60  C   UNL A   1      44.745  27.604  30.317  1.00  0.00     0.031 C 
ATOM     61  C   UNL A   1      44.982  30.156  30.008  1.00  0.00     0.037 A 
BRANCH  48  62
ATOM     62  C   UNL A   1      43.413  28.073  34.754  1.00  0.00     0.058 A 
ATOM     63  C   UNL A   1      43.896  28.326  36.057  1.00  0.00     0.135 A 
ATOM     64  C   UNL A   1      43.717  26.794  34.236  1.00  0.00     0.135 A 
ATOM     65  F   UNL A   1      43.667  29.505  36.655  1.00  0.00    -0.206 F 
ATOM     66  C   UNL A   1      44.693  27.414  36.751  1.00  0.00     0.059 A 
ATOM     67  C   UNL A   1      44.464  25.851  34.934  1.00  0.00     0.059 A 
ATOM     68  F   UNL A   1      43.392  26.422  32.994  1.00  0.00    -0.206 F 
ATOM     69  C   UNL A   1      44.983  26.184  36.172  1.00  0.00     0.060 A 
BRANCH  69  70
ATOM     70  S   UNL A   1      46.084  25.043  37.023  1.00  0.00     0.124 S 
ATOM     71  O   UNL A   1      47.234  25.897  37.297  1.00  0.00    -0.237 OA
ATOM     72  O   UNL A   1      45.281  24.658  38.179  1.00  0.00    -0.237 OA
ATOM     73  O   UNL A   1      46.300  23.987  36.038  1.00  0.00    -0.744 OA
ENDBRANCH  69  70
ENDBRANCH  48  62
BRANCH  49  74
ATOM     74  C   UNL A   1      43.164  25.679  26.568  1.00  0.00     0.058 A 
ATOM     75  C   UNL A   1      43.999  25.513  25.447  1.00  0.00     0.135 A 
ATOM     76  C   UNL A   1      42.582  24.502  27.080  1.00  0.00     0.135 A 
ATOM     77  F   UNL A   1      44.616  26.574  24.903  1.00  0.00    -0.206 F 
ATOM     78  C   UNL A   1      44.276  24.254  24.895  1.00  0.00     0.059 A 
ATOM     79  C   UNL A   1      42.839  23.237  26.546  1.00  0.00     0.059 A 
ATOM     80  F   UNL A   1      41.815  24.535  28.181  1.00  0.00    -0.206 F 
ATOM     81  C   UNL A   1      43.706  23.116  25.467  1.00  0.00     0.060 A 
BRANCH  81  82
ATOM     82  S   UNL A   1      44.192  21.476  24.869  1.00  0.00     0.124 S 
ATOM     83  O   UNL A   1      44.350  21.708  23.438  1.00  0.00    -0.237 OA
ATOM     84  O   UNL A   1      45.422  21.228  25.614  1.00  0.00    -0.237 OA
ATOM     85  O   UNL A   1      43.061  20.630  25.243  1.00  0.00    -0.744 OA
ENDBRANCH  81  82
ENDBRANCH  49  74
BRANCH  61  86
ATOM     86  C   UNL A   1      45.091  31.246  28.967  1.00  0.00     0.058 A 
ATOM     87  C   UNL A   1      46.280  31.617  28.311  1.00  0.00     0.135 A 
ATOM     88  C   UNL A   1      43.901  31.813  28.490  1.00  0.00     0.135 A 
ATOM     89  F   UNL A   1      47.451  31.054  28.637  1.00  0.00    -0.206 F 
ATOM     90  C   UNL A   1      46.285  32.529  27.250  1.00  0.00     0.059 A 
ATOM     91  C   UNL A   1      43.878  32.700  27.417  1.00  0.00     0.059 A 
ATOM     92  F   UNL A   1      42.724  31.458  29.032  1.00  0.00    -0.206 F 
ATOM     93  C   UNL A   1      45.076  33.061  26.806  1.00  0.00     0.060 A 
BRANCH  93  94
ATOM     94  S   UNL A   1      45.067  34.172  25.382  1.00  0.00     0.124 S 
ATOM     95  O   UNL A   1      46.465  34.580  25.300  1.00  0.00    -0.237 OA
ATOM     96  O   UNL A   1      44.595  33.307  24.305  1.00  0.00    -0.237 OA
ATOM     97  O   UNL A   1      44.133  35.226  25.776  1.00  0.00    -0.744 OA
ENDBRANCH  93  94
ENDBRANCH  61  86
ENDBRANCH  35  36
ENDBRANCH  27  30
ENDBRANCH  25  26
ENDBRANCH  24  25
ENDBRANCH   1  24
TORSDOF 18
ENDMDL
MODEL 3
REMARK VINA RESULT:     -11.1      2.797      9.296
REMARK SMILES C[C@]1(C(=O)NCCn2cc(C(=O)NCCCCNC(=O)c3ccc(-c4c5nc(c(-c6c(F)cc(S(=O)(=O)[O-])cc6F)c6ccc([nH]6)c(-c6c(F)cc(S(=O)(=O)[O-])cc6F)c6nc(c(-c7c(F)cc(S(=O)(=O)[O-])cc7F)c7ccc4[nH]7)C=C6)C=C5)cc3)nn2)CCCO1
REMARK SMILES IDX 15 1 14 2 13 3 11 4 12 5 10 7 8 8 9 9 88 10 87 11 7 12 6 13
REMARK SMILES IDX 5 14 3 15 4 16 2 18 1 19 89 20 92 21 90 22 91 23 16 24 17 25
REMARK SMILES IDX 18 26 19 27 20 29 21 30 22 31 86 32 23 33 85 34 24 35 25 36
REMARK SMILES IDX 26 37 79 38 27 39 84 40 78 41 80 42 28 43 83 44 77 45 76 46
REMARK SMILES IDX 29 48 63 49 42 50 62 51 43 52 46 53 61 54 81 55 44 56 45 57
REMARK SMILES IDX 60 59 82 60 47 61 30 62 31 63 40 64 32 65 33 66 39 67 41 68
REMARK SMILES IDX 34 69 35 70 36 71 37 72 38 73 64 74 65 75 74 76 66 77 67 78
REMARK SMILES IDX 73 79 75 80 68 81 69 82 70 83 71 84 72 85 48 86 49 87 58 88
REMARK SMILES IDX 50 89 51 90 57 91 59 92 52 93 53 94 54 95 55 96 56 97
REMARK H PARENT 13 6 5 17 18 28 80 47 46 58
REMARK Flexibility Score: inf
ROOT
ATOM      1  C   UNL A   1      32.309  29.936  26.083  1.00  0.00     0.023 C 
ENDROOT
BRANCH   1   2
ATOM      2  C   UNL A   1      32.702  29.338  24.725  1.00  0.00     0.116 C 
BRANCH   2   3
ATOM      3  N   UNL A   1      31.546  29.067  23.883  1.00  0.00    -0.351 N 
ATOM      4  C   UNL A   1      30.672  27.992  23.863  1.00  0.00     0.273 C 
ATOM      5  O   UNL A   1      29.688  28.068  23.139  1.00  0.00    -0.267 OA
ATOM      6  H   UNL A   1      31.352  29.765  23.217  1.00  0.00     0.163 HD
BRANCH   4   7
ATOM      7  C   UNL A   1      30.941  26.828  24.700  1.00  0.00     0.170 A 
ATOM      8  N   UNL A   1      31.755  25.005  25.525  1.00  0.00    -0.250 N 
ATOM      9  C   UNL A   1      31.460  25.604  24.339  1.00  0.00     0.145 A 
ATOM     10  N   UNL A   1      31.188  25.661  26.547  1.00  0.00    -0.067 NA
ATOM     11  N   UNL A   1      30.688  26.792  26.054  1.00  0.00    -0.125 NA
BRANCH   8  12
ATOM     12  C   UNL A   1      32.650  23.885  25.751  1.00  0.00     0.167 C 
BRANCH  12  13
ATOM     13  C   UNL A   1      33.263  23.350  24.443  1.00  0.00     0.139 C 
BRANCH  13  14
ATOM     14  N   UNL A   1      33.862  22.043  24.628  1.00  0.00    -0.352 N 
ATOM     15  C   UNL A   1      35.129  21.568  24.708  1.00  0.00     0.252 C 
ATOM     16  O   UNL A   1      35.179  20.336  24.826  1.00  0.00    -0.272 OA
ATOM     17  H   UNL A   1      33.188  21.330  24.718  1.00  0.00     0.163 HD
BRANCH  15  18
ATOM     18  C   UNL A   1      36.426  22.428  24.765  1.00  0.00     0.143 C 
ATOM     19  C   UNL A   1      36.701  23.006  23.354  1.00  0.00     0.053 C 
ATOM     20  C   UNL A   1      36.563  23.566  25.774  1.00  0.00     0.048 C 
ATOM     21  O   UNL A   1      37.508  21.518  25.078  1.00  0.00    -0.365 OA
ATOM     22  C   UNL A   1      38.057  23.631  26.012  1.00  0.00     0.032 C 
ATOM     23  C   UNL A   1      38.490  22.188  25.872  1.00  0.00     0.162 C 
ENDBRANCH  15  18
ENDBRANCH  13  14
ENDBRANCH  12  13
ENDBRANCH   8  12
ENDBRANCH   4   7
ENDBRANCH   2   3
ENDBRANCH   1   2
BRANCH   1  24
ATOM     24  C   UNL A   1      33.287  29.677  27.238  1.00  0.00     0.023 C 
BRANCH  24  25
ATOM     25  C   UNL A   1      34.509  30.585  27.265  1.00  0.00     0.116 C 
BRANCH  25  26
ATOM     26  N   UNL A   1      34.345  31.759  28.129  1.00  0.00    -0.352 N 
ATOM     27  C   UNL A   1      34.886  31.958  29.390  1.00  0.00     0.251 C 
ATOM     28  H   UNL A   1      33.786  32.489  27.773  1.00  0.00     0.163 HD
ATOM     29  O   UNL A   1      34.362  32.727  30.187  1.00  0.00    -0.269 OA
BRANCH  27  30
ATOM     30  C   UNL A   1      36.124  31.237  29.735  1.00  0.00     0.039 A 
ATOM     31  C   UNL A   1      36.211  29.842  29.756  1.00  0.00     0.014 A 
ATOM     32  C   UNL A   1      37.243  32.025  29.986  1.00  0.00     0.014 A 
ATOM     33  C   UNL A   1      37.461  29.254  29.955  1.00  0.00     0.010 A 
ATOM     34  C   UNL A   1      38.484  31.456  29.974  1.00  0.00     0.010 A 
ATOM     35  C   UNL A   1      38.597  30.075  30.045  1.00  0.00    -0.014 A 
BRANCH  35  36
ATOM     36  C   UNL A   1      39.950  29.529  30.095  1.00  0.00     0.031 A 
ATOM     37  C   UNL A   1      40.452  29.296  31.476  1.00  0.00     0.074 A 
ATOM     38  C   UNL A   1      40.568  29.034  28.997  1.00  0.00     0.049 A 
ATOM     39  N   UNL A   1      41.370  29.952  32.104  1.00  0.00    -0.248 NA
ATOM     40  C   UNL A   1      39.721  28.342  32.331  1.00  0.00     0.031 C 
ATOM     41  C   UNL A   1      40.040  28.904  27.630  1.00  0.00     0.029 A 
ATOM     42  N   UNL A   1      41.784  28.436  28.891  1.00  0.00    -0.354 N 
ATOM     43  C   UNL A   1      41.520  29.309  33.330  1.00  0.00     0.074 A 
ATOM     44  C   UNL A   1      40.338  28.507  33.504  1.00  0.00     0.031 C 
ATOM     45  C   UNL A   1      40.822  28.067  26.912  1.00  0.00     0.029 A 
ATOM     46  C   UNL A   1      41.999  27.747  27.696  1.00  0.00     0.049 A 
ATOM     47  H   UNL A   1      42.461  28.485  29.603  1.00  0.00     0.167 HD
ATOM     48  C   UNL A   1      42.730  29.272  33.958  1.00  0.00     0.037 A 
ATOM     49  C   UNL A   1      43.066  26.963  27.388  1.00  0.00     0.037 A 
ATOM     50  C   UNL A   1      43.632  30.243  33.385  1.00  0.00     0.049 A 
ATOM     51  C   UNL A   1      44.158  27.357  28.318  1.00  0.00     0.074 A 
ATOM     52  C   UNL A   1      43.605  31.614  33.219  1.00  0.00     0.029 A 
ATOM     53  N   UNL A   1      44.580  29.779  32.503  1.00  0.00    -0.354 N 
ATOM     54  N   UNL A   1      44.722  28.535  28.312  1.00  0.00    -0.248 NA
ATOM     55  C   UNL A   1      44.261  26.622  29.569  1.00  0.00     0.031 C 
ATOM     56  C   UNL A   1      44.159  31.838  31.924  1.00  0.00     0.029 A 
ATOM     57  C   UNL A   1      44.575  30.609  31.410  1.00  0.00     0.049 A 
ATOM     58  H   UNL A   1      45.160  28.994  32.633  1.00  0.00     0.167 HD
ATOM     59  C   UNL A   1      44.867  28.868  29.652  1.00  0.00     0.074 A 
ATOM     60  C   UNL A   1      44.625  27.621  30.378  1.00  0.00     0.031 C 
ATOM     61  C   UNL A   1      44.876  30.172  30.063  1.00  0.00     0.037 A 
BRANCH  48  62
ATOM     62  C   UNL A   1      43.233  28.113  34.795  1.00  0.00     0.058 A 
ATOM     63  C   UNL A   1      43.699  28.369  36.103  1.00  0.00     0.135 A 
ATOM     64  C   UNL A   1      43.539  26.831  34.286  1.00  0.00     0.135 A 
ATOM     65  F   UNL A   1      43.466  29.551  36.694  1.00  0.00    -0.206 F 
ATOM     66  C   UNL A   1      44.482  27.456  36.812  1.00  0.00     0.059 A 
ATOM     67  C   UNL A   1      44.273  25.887  34.997  1.00  0.00     0.059 A 
ATOM     68  F   UNL A   1      43.231  26.455  33.040  1.00  0.00    -0.206 F 
ATOM     69  C   UNL A   1      44.776  26.223  36.242  1.00  0.00     0.060 A 
BRANCH  69  70
ATOM     70  S   UNL A   1      45.860  25.080  37.113  1.00  0.00     0.124 S 
ATOM     71  O   UNL A   1      47.036  25.912  37.339  1.00  0.00    -0.237 OA
ATOM     72  O   UNL A   1      45.067  24.756  38.293  1.00  0.00    -0.237 OA
ATOM     73  O   UNL A   1      46.032  23.988  36.159  1.00  0.00    -0.744 OA
ENDBRANCH  69  70
ENDBRANCH  48  62
BRANCH  49  74
ATOM     74  C   UNL A   1      43.089  25.688  26.615  1.00  0.00     0.058 A 
ATOM     75  C   UNL A   1      43.883  25.540  25.463  1.00  0.00     0.135 A 
ATOM     76  C   UNL A   1      42.560  24.498  27.154  1.00  0.00     0.135 A 
ATOM     77  F   UNL A   1      44.449  26.615  24.891  1.00  0.00    -0.206 F 
ATOM     78  C   UNL A   1      44.174  24.286  24.906  1.00  0.00     0.059 A 
ATOM     79  C   UNL A   1      42.832  23.238  26.616  1.00  0.00     0.059 A 
ATOM     80  F   UNL A   1      41.836  24.516  28.284  1.00  0.00    -0.206 F 
ATOM     81  C   UNL A   1      43.659  23.136  25.504  1.00  0.00     0.060 A 
BRANCH  81  82
ATOM     82  S   UNL A   1      44.167  21.507  24.894  1.00  0.00     0.124 S 
ATOM     83  O   UNL A   1      45.398  21.274  25.640  1.00  0.00    -0.237 OA
ATOM     84  O   UNL A   1      43.031  20.670  25.265  1.00  0.00    -0.237 OA
ATOM     85  O   UNL A   1      44.337  21.720  23.460  1.00  0.00    -0.744 OA
ENDBRANCH  81  82
ENDBRANCH  49  74
BRANCH  61  86
ATOM     86  C   UNL A   1      45.004  31.257  29.019  1.00  0.00     0.058 A 
ATOM     87  C   UNL A   1      46.202  31.613  28.371  1.00  0.00     0.135 A 
ATOM     88  C   UNL A   1      43.823  31.836  28.533  1.00  0.00     0.135 A 
ATOM     89  F   UNL A   1      47.364  31.039  28.706  1.00  0.00    -0.206 F 
ATOM     90  C   UNL A   1      46.224  32.521  27.307  1.00  0.00     0.059 A 
ATOM     91  C   UNL A   1      43.817  32.719  27.457  1.00  0.00     0.059 A 
ATOM     92  F   UNL A   1      42.639  31.495  29.068  1.00  0.00    -0.206 F 
ATOM     93  C   UNL A   1      45.023  33.065  26.854  1.00  0.00     0.060 A 
BRANCH  93  94
ATOM     94  S   UNL A   1      45.036  34.172  25.426  1.00  0.00     0.124 S 
ATOM     95  O   UNL A   1      44.122  35.229  25.847  1.00  0.00    -0.237 OA
ATOM     96  O   UNL A   1      46.442  34.552  25.329  1.00  0.00    -0.237 OA
ATOM     97  O   UNL A   1      44.551  33.329  24.335  1.00  0.00    -0.744 OA
ENDBRANCH  93  94
ENDBRANCH  61  86
ENDBRANCH  35  36
ENDBRANCH  27  30
ENDBRANCH  25  26
ENDBRANCH  24  25
ENDBRANCH   1  24
TORSDOF 18
ENDMDL
