MODEL 1
REMARK VINA RESULT:     -12.5      0.000      0.000
REMARK SMILES O=C(/C=C/c1ccccc1)Nc1ccc(O)cc1C(=O)NCCCCNC(=O)c1ccc(-c2c3nc(c(-c4c(F)cc(S(=O)(=O)[O-])cc4F)c4ccc([nH]4)c(-c4c(F)cc(S(=O)(=O)[O-])cc4F)c4nc(c(-c5c(F)cc(S(=O)(=O)[O-])cc5F)c5ccc2[nH]5)C=C4)C=C3)cc1
REMARK SMILES IDX 23 1 22 2 21 3 19 4 20 5 18 7 12 8 13 9 14 10 17 11 15 12
REMARK SMILES IDX 11 13 1 14 2 15 3 17 4 18 5 19 6 20 10 21 7 22 9 23 8 24
REMARK SMILES IDX 16 25 24 27 25 28 26 29 27 30 28 32 29 33 30 34 94 35 31 36
REMARK SMILES IDX 93 37 32 38 33 39 34 40 87 41 35 42 92 43 86 44 88 45 36 46
REMARK SMILES IDX 91 47 85 48 84 49 37 51 71 52 50 53 70 54 51 55 54 56 69 57
REMARK SMILES IDX 89 58 52 59 53 60 68 62 90 63 55 64 38 65 39 66 48 67 40 68
REMARK SMILES IDX 41 69 47 70 49 71 42 72 43 73 44 74 45 75 46 76 72 77 73 78
REMARK SMILES IDX 82 79 74 80 75 81 81 82 83 83 76 84 77 85 78 86 79 87 80 88
REMARK SMILES IDX 56 89 57 90 66 91 58 92 59 93 65 94 67 95 60 96 61 97 62 98
REMARK SMILES IDX 63 99 64 100
REMARK H PARENT 21 6 11 16 16 26 26 31 88 50 54 61
REMARK Flexibility Score: inf
ROOT
ATOM      1  C   UNL A   1      31.863  28.819  25.969  1.00  0.00     0.023 C 
ENDROOT
BRANCH   1   2
ATOM      2  C   UNL A   1      32.574  27.590  26.518  1.00  0.00     0.116 C 
BRANCH   2   3
ATOM      3  N   UNL A   1      31.728  26.490  26.894  1.00  0.00    -0.352 N 
ATOM      4  C   UNL A   1      31.727  25.190  26.448  1.00  0.00     0.253 C 
ATOM      5  O   UNL A   1      31.021  24.388  27.066  1.00  0.00    -0.269 OA
ATOM      6  H   UNL A   1      31.048  26.700  27.574  1.00  0.00     0.163 HD
BRANCH   4   7
ATOM      7  C   UNL A   1      32.346  24.746  25.157  1.00  0.00     0.067 A 
ATOM      8  C   UNL A   1      32.181  25.241  23.846  1.00  0.00     0.054 A 
ATOM      9  C   UNL A   1      32.735  24.512  22.770  1.00  0.00     0.031 A 
ATOM     10  C   UNL A   1      33.522  23.380  22.980  1.00  0.00     0.048 A 
ATOM     11  C   UNL A   1      33.158  23.597  25.344  1.00  0.00     0.062 A 
ATOM     12  C   UNL A   1      33.746  22.942  24.269  1.00  0.00     0.116 A 
BRANCH   8  13
ATOM     13  N   UNL A   1      31.532  26.430  23.435  1.00  0.00    -0.322 N 
ATOM     14  O   UNL A   1      29.348  25.935  24.000  1.00  0.00    -0.270 OA
ATOM     15  C   UNL A   1      30.182  26.656  23.457  1.00  0.00     0.248 C 
ATOM     16  H   UNL A   1      32.103  27.161  23.104  1.00  0.00     0.170 HD
BRANCH  15  17
ATOM     17  C   UNL A   1      29.723  27.895  22.752  1.00  0.00     0.072 C 
ATOM     18  C   UNL A   1      28.710  28.688  23.153  1.00  0.00     0.014 C 
BRANCH  18  19
ATOM     19  C   UNL A   1      28.456  30.060  22.653  1.00  0.00    -0.025 A 
ATOM     20  C   UNL A   1      28.582  31.131  23.554  1.00  0.00     0.008 A 
ATOM     21  C   UNL A   1      28.207  30.360  21.306  1.00  0.00     0.008 A 
ATOM     22  C   UNL A   1      28.517  32.458  23.112  1.00  0.00     0.001 A 
ATOM     23  C   UNL A   1      28.152  31.688  20.863  1.00  0.00     0.001 A 
ATOM     24  C   UNL A   1      28.320  32.736  21.763  1.00  0.00     0.000 A 
ENDBRANCH  18  19
ENDBRANCH  15  17
ENDBRANCH   8  13
BRANCH  12  25
ATOM     25  O   UNL A   1      34.542  21.851  24.448  1.00  0.00    -0.508 OA
ATOM     26  H   UNL A   1      35.443  21.962  24.682  1.00  0.00     0.293 HD
ENDBRANCH  12  25
ENDBRANCH   4   7
ENDBRANCH   2   3
ENDBRANCH   1   2
BRANCH   1  27
ATOM     27  C   UNL A   1      32.557  30.169  26.202  1.00  0.00     0.023 C 
BRANCH  27  28
ATOM     28  C   UNL A   1      33.048  30.440  27.627  1.00  0.00     0.116 C 
BRANCH  28  29
ATOM     29  N   UNL A   1      34.065  31.481  27.655  1.00  0.00    -0.352 N 
ATOM     30  C   UNL A   1      35.040  31.556  28.617  1.00  0.00     0.251 C 
ATOM     31  H   UNL A   1      34.052  32.166  26.948  1.00  0.00     0.163 HD
ATOM     32  O   UNL A   1      35.048  32.496  29.403  1.00  0.00    -0.269 OA
BRANCH  30  33
ATOM     33  C   UNL A   1      36.019  30.455  28.731  1.00  0.00     0.039 A 
ATOM     34  C   UNL A   1      36.690  30.052  27.570  1.00  0.00     0.014 A 
ATOM     35  C   UNL A   1      36.376  29.932  29.972  1.00  0.00     0.014 A 
ATOM     36  C   UNL A   1      37.866  29.323  27.683  1.00  0.00     0.010 A 
ATOM     37  C   UNL A   1      37.601  29.303  30.095  1.00  0.00     0.010 A 
ATOM     38  C   UNL A   1      38.390  29.081  28.958  1.00  0.00    -0.014 A 
BRANCH  38  39
ATOM     39  C   UNL A   1      39.822  28.776  29.159  1.00  0.00     0.031 A 
ATOM     40  C   UNL A   1      40.752  29.868  29.579  1.00  0.00     0.074 A 
ATOM     41  C   UNL A   1      40.274  27.562  28.775  1.00  0.00     0.049 A 
ATOM     42  N   UNL A   1      42.056  29.885  29.566  1.00  0.00    -0.248 NA
ATOM     43  C   UNL A   1      40.131  31.127  30.025  1.00  0.00     0.031 C 
ATOM     44  C   UNL A   1      39.441  26.459  28.274  1.00  0.00     0.029 A 
ATOM     45  N   UNL A   1      41.546  27.056  28.709  1.00  0.00    -0.354 N 
ATOM     46  C   UNL A   1      42.414  31.157  29.987  1.00  0.00     0.074 A 
ATOM     47  C   UNL A   1      41.191  31.904  30.185  1.00  0.00     0.031 C 
ATOM     48  C   UNL A   1      40.220  25.408  27.978  1.00  0.00     0.029 A 
ATOM     49  C   UNL A   1      41.609  25.774  28.208  1.00  0.00     0.049 A 
ATOM     50  H   UNL A   1      42.341  27.561  28.994  1.00  0.00     0.167 HD
ATOM     51  C   UNL A   1      43.656  31.641  30.213  1.00  0.00     0.037 A 
ATOM     52  C   UNL A   1      42.674  24.995  27.944  1.00  0.00     0.037 A 
ATOM     53  C   UNL A   1      44.851  30.867  30.020  1.00  0.00     0.049 A 
ATOM     54  C   UNL A   1      44.043  25.561  28.211  1.00  0.00     0.074 A 
ATOM     55  C   UNL A   1      46.166  31.241  30.224  1.00  0.00     0.029 A 
ATOM     56  N   UNL A   1      44.870  29.546  29.589  1.00  0.00    -0.354 N 
ATOM     57  N   UNL A   1      44.366  26.758  28.643  1.00  0.00    -0.248 NA
ATOM     58  C   UNL A   1      45.190  24.681  27.958  1.00  0.00     0.031 C 
ATOM     59  C   UNL A   1      46.982  30.152  29.902  1.00  0.00     0.029 A 
ATOM     60  C   UNL A   1      46.172  29.086  29.536  1.00  0.00     0.049 A 
ATOM     61  H   UNL A   1      44.073  29.017  29.356  1.00  0.00     0.167 HD
ATOM     62  C   UNL A   1      45.748  26.757  28.763  1.00  0.00     0.074 A 
ATOM     63  C   UNL A   1      46.201  25.442  28.354  1.00  0.00     0.031 C 
ATOM     64  C   UNL A   1      46.573  27.750  29.174  1.00  0.00     0.037 A 
BRANCH  51  65
ATOM     65  C   UNL A   1      43.768  33.048  30.728  1.00  0.00     0.058 A 
ATOM     66  C   UNL A   1      43.942  33.306  32.097  1.00  0.00     0.135 A 
ATOM     67  C   UNL A   1      43.726  34.146  29.855  1.00  0.00     0.135 A 
ATOM     68  F   UNL A   1      43.967  32.294  32.979  1.00  0.00    -0.206 F 
ATOM     69  C   UNL A   1      44.045  34.603  32.587  1.00  0.00     0.059 A 
ATOM     70  C   UNL A   1      43.856  35.452  30.319  1.00  0.00     0.059 A 
ATOM     71  F   UNL A   1      43.554  33.957  28.537  1.00  0.00    -0.206 F 
ATOM     72  C   UNL A   1      44.003  35.670  31.689  1.00  0.00     0.060 A 
BRANCH  72  73
ATOM     73  S   UNL A   1      44.158  37.344  32.344  1.00  0.00     0.124 S 
ATOM     74  O   UNL A   1      44.019  38.145  31.131  1.00  0.00    -0.237 OA
ATOM     75  O   UNL A   1      43.041  37.417  33.281  1.00  0.00    -0.237 OA
ATOM     76  O   UNL A   1      45.485  37.350  32.952  1.00  0.00    -0.744 OA
ENDBRANCH  72  73
ENDBRANCH  51  65
BRANCH  52  77
ATOM     77  C   UNL A   1      42.504  23.609  27.427  1.00  0.00     0.058 A 
ATOM     78  C   UNL A   1      42.335  22.532  28.313  1.00  0.00     0.135 A 
ATOM     79  C   UNL A   1      42.535  23.319  26.054  1.00  0.00     0.135 A 
ATOM     80  F   UNL A   1      42.291  22.754  29.635  1.00  0.00    -0.206 F 
ATOM     81  C   UNL A   1      42.258  21.218  27.862  1.00  0.00     0.059 A 
ATOM     82  C   UNL A   1      42.430  22.015  25.577  1.00  0.00     0.059 A 
ATOM     83  F   UNL A   1      42.663  24.312  25.159  1.00  0.00    -0.206 F 
ATOM     84  C   UNL A   1      42.317  20.969  26.491  1.00  0.00     0.060 A 
BRANCH  84  85
ATOM     85  S   UNL A   1      42.239  19.258  25.917  1.00  0.00     0.124 S 
ATOM     86  O   UNL A   1      40.809  19.098  25.673  1.00  0.00    -0.237 OA
ATOM     87  O   UNL A   1      43.089  19.290  24.731  1.00  0.00    -0.237 OA
ATOM     88  O   UNL A   1      42.776  18.501  27.044  1.00  0.00    -0.744 OA
ENDBRANCH  84  85
ENDBRANCH  52  77
BRANCH  64  89
ATOM     89  C   UNL A   1      48.034  27.429  29.289  1.00  0.00     0.058 A 
ATOM     90  C   UNL A   1      48.945  27.757  28.276  1.00  0.00     0.135 A 
ATOM     91  C   UNL A   1      48.534  26.876  30.479  1.00  0.00     0.135 A 
ATOM     92  F   UNL A   1      48.510  28.277  27.118  1.00  0.00    -0.206 F 
ATOM     93  C   UNL A   1      50.309  27.545  28.438  1.00  0.00     0.059 A 
ATOM     94  C   UNL A   1      49.896  26.681  30.673  1.00  0.00     0.059 A 
ATOM     95  F   UNL A   1      47.697  26.552  31.478  1.00  0.00    -0.206 F 
ATOM     96  C   UNL A   1      50.775  27.018  29.645  1.00  0.00     0.060 A 
BRANCH  96  97
ATOM     97  S   UNL A   1      52.554  26.831  29.875  1.00  0.00     0.124 S 
ATOM     98  O   UNL A   1      52.988  28.222  29.959  1.00  0.00    -0.237 OA
ATOM     99  O   UNL A   1      52.630  26.068  31.116  1.00  0.00    -0.237 OA
ATOM    100  O   UNL A   1      52.978  26.112  28.678  1.00  0.00    -0.744 OA
ENDBRANCH  96  97
ENDBRANCH  64  89
ENDBRANCH  38  39
ENDBRANCH  30  33
ENDBRANCH  28  29
ENDBRANCH  27  28
ENDBRANCH   1  27
TORSDOF 18
ENDMDL
MODEL 2
REMARK VINA RESULT:     -12.3      1.497      4.358
REMARK SMILES O=C(/C=C/c1ccccc1)Nc1ccc(O)cc1C(=O)NCCCCNC(=O)c1ccc(-c2c3nc(c(-c4c(F)cc(S(=O)(=O)[O-])cc4F)c4ccc([nH]4)c(-c4c(F)cc(S(=O)(=O)[O-])cc4F)c4nc(c(-c5c(F)cc(S(=O)(=O)[O-])cc5F)c5ccc2[nH]5)C=C4)C=C3)cc1
REMARK SMILES IDX 23 1 22 2 21 3 19 4 20 5 18 7 12 8 13 9 14 10 17 11 15 12
REMARK SMILES IDX 11 13 1 14 2 15 3 17 4 18 5 19 6 20 10 21 7 22 9 23 8 24
REMARK SMILES IDX 16 25 24 27 25 28 26 29 27 30 28 32 29 33 30 34 94 35 31 36
REMARK SMILES IDX 93 37 32 38 33 39 34 40 87 41 35 42 92 43 86 44 88 45 36 46
REMARK SMILES IDX 91 47 85 48 84 49 37 51 71 52 50 53 70 54 51 55 54 56 69 57
REMARK SMILES IDX 89 58 52 59 53 60 68 62 90 63 55 64 38 65 39 66 48 67 40 68
REMARK SMILES IDX 41 69 47 70 49 71 42 72 43 73 44 74 45 75 46 76 72 77 73 78
REMARK SMILES IDX 82 79 74 80 75 81 81 82 83 83 76 84 77 85 78 86 79 87 80 88
REMARK SMILES IDX 56 89 57 90 66 91 58 92 59 93 65 94 67 95 60 96 61 97 62 98
REMARK SMILES IDX 63 99 64 100
REMARK H PARENT 21 6 11 16 16 26 26 31 88 50 54 61
REMARK Flexibility Score: inf
ROOT
ATOM      1  C   UNL A   1      31.602  29.239  26.002  1.00  0.00     0.023 C 
ENDROOT
BRANCH   1   2
ATOM      2  C   UNL A   1      32.043  27.886  26.543  1.00  0.00     0.116 C 
BRANCH   2   3
ATOM      3  N   UNL A   1      31.010  26.896  26.680  1.00  0.00    -0.352 N 
ATOM      4  C   UNL A   1      30.629  25.898  25.815  1.00  0.00     0.253 C 
ATOM      5  O   UNL A   1      29.835  25.057  26.247  1.00  0.00    -0.269 OA
ATOM      6  H   UNL A   1      30.498  26.939  27.520  1.00  0.00     0.163 HD
BRANCH   4   7
ATOM      7  C   UNL A   1      30.944  25.894  24.350  1.00  0.00     0.067 A 
ATOM      8  C   UNL A   1      31.666  24.964  23.571  1.00  0.00     0.054 A 
ATOM      9  C   UNL A   1      31.987  25.299  22.238  1.00  0.00     0.031 A 
ATOM     10  C   UNL A   1      31.521  26.472  21.644  1.00  0.00     0.048 A 
ATOM     11  C   UNL A   1      30.476  27.076  23.720  1.00  0.00     0.062 A 
ATOM     12  C   UNL A   1      30.750  27.344  22.384  1.00  0.00     0.116 A 
BRANCH   8  13
ATOM     13  N   UNL A   1      32.116  23.674  23.945  1.00  0.00    -0.322 N 
ATOM     14  O   UNL A   1      34.133  24.202  24.939  1.00  0.00    -0.270 OA
ATOM     15  C   UNL A   1      33.328  23.380  24.509  1.00  0.00     0.248 C 
ATOM     16  H   UNL A   1      31.502  22.922  23.784  1.00  0.00     0.170 HD
BRANCH  15  17
ATOM     17  C   UNL A   1      33.664  21.923  24.591  1.00  0.00     0.072 C 
ATOM     18  C   UNL A   1      32.808  20.913  24.342  1.00  0.00     0.014 C 
BRANCH  18  19
ATOM     19  C   UNL A   1      33.201  19.501  24.114  1.00  0.00    -0.025 A 
ATOM     20  C   UNL A   1      32.428  18.729  23.230  1.00  0.00     0.008 A 
ATOM     21  C   UNL A   1      34.365  18.926  24.644  1.00  0.00     0.008 A 
ATOM     22  C   UNL A   1      32.836  17.446  22.846  1.00  0.00     0.001 A 
ATOM     23  C   UNL A   1      34.778  17.647  24.250  1.00  0.00     0.001 A 
ATOM     24  C   UNL A   1      34.021  16.912  23.342  1.00  0.00     0.000 A 
ENDBRANCH  18  19
ENDBRANCH  15  17
ENDBRANCH   8  13
BRANCH  12  25
ATOM     25  O   UNL A   1      30.284  28.468  21.772  1.00  0.00    -0.508 OA
ATOM     26  H   UNL A   1      30.396  29.305  22.178  1.00  0.00     0.293 HD
ENDBRANCH  12  25
ENDBRANCH   4   7
ENDBRANCH   2   3
ENDBRANCH   1   2
BRANCH   1  27
ATOM     27  C   UNL A   1      32.460  30.447  26.405  1.00  0.00     0.023 C 
BRANCH  27  28
ATOM     28  C   UNL A   1      33.272  30.300  27.695  1.00  0.00     0.116 C 
BRANCH  28  29
ATOM     29  N   UNL A   1      34.247  31.372  27.839  1.00  0.00    -0.352 N 
ATOM     30  C   UNL A   1      35.212  31.386  28.815  1.00  0.00     0.251 C 
ATOM     31  H   UNL A   1      34.211  32.124  27.206  1.00  0.00     0.163 HD
ATOM     32  O   UNL A   1      35.176  32.240  29.692  1.00  0.00    -0.269 OA
BRANCH  30  33
ATOM     33  C   UNL A   1      36.233  30.318  28.826  1.00  0.00     0.039 A 
ATOM     34  C   UNL A   1      36.921  30.056  27.636  1.00  0.00     0.014 A 
ATOM     35  C   UNL A   1      36.607  29.691  30.013  1.00  0.00     0.014 A 
ATOM     36  C   UNL A   1      38.125  29.366  27.684  1.00  0.00     0.010 A 
ATOM     37  C   UNL A   1      37.856  29.101  30.082  1.00  0.00     0.010 A 
ATOM     38  C   UNL A   1      38.655  29.022  28.933  1.00  0.00    -0.014 A 
BRANCH  38  39
ATOM     39  C   UNL A   1      40.098  28.754  29.111  1.00  0.00     0.031 A 
ATOM     40  C   UNL A   1      41.013  29.880  29.467  1.00  0.00     0.074 A 
ATOM     41  C   UNL A   1      40.567  27.536  28.764  1.00  0.00     0.049 A 
ATOM     42  N   UNL A   1      42.315  29.924  29.422  1.00  0.00    -0.248 NA
ATOM     43  C   UNL A   1      40.375  31.143  29.877  1.00  0.00     0.031 C 
ATOM     44  C   UNL A   1      39.746  26.397  28.327  1.00  0.00     0.029 A 
ATOM     45  N   UNL A   1      41.848  27.053  28.689  1.00  0.00    -0.354 N 
ATOM     46  C   UNL A   1      42.656  31.219  29.784  1.00  0.00     0.074 A 
ATOM     47  C   UNL A   1      41.422  31.948  29.982  1.00  0.00     0.031 C 
ATOM     48  C   UNL A   1      40.541  25.351  28.054  1.00  0.00     0.029 A 
ATOM     49  C   UNL A   1      41.926  25.755  28.236  1.00  0.00     0.049 A 
ATOM     50  H   UNL A   1      42.638  27.586  28.935  1.00  0.00     0.167 HD
ATOM     51  C   UNL A   1      43.892  31.737  29.962  1.00  0.00     0.037 A 
ATOM     52  C   UNL A   1      43.002  24.987  27.978  1.00  0.00     0.037 A 
ATOM     53  C   UNL A   1      45.099  30.981  29.771  1.00  0.00     0.049 A 
ATOM     54  C   UNL A   1      44.364  25.592  28.190  1.00  0.00     0.074 A 
ATOM     55  C   UNL A   1      46.410  31.390  29.929  1.00  0.00     0.029 A 
ATOM     56  N   UNL A   1      45.136  29.644  29.391  1.00  0.00    -0.354 N 
ATOM     57  N   UNL A   1      44.671  26.811  28.568  1.00  0.00    -0.248 NA
ATOM     58  C   UNL A   1      45.523  24.726  27.945  1.00  0.00     0.031 C 
ATOM     59  C   UNL A   1      47.241  30.305  29.630  1.00  0.00     0.029 A 
ATOM     60  C   UNL A   1      46.446  29.210  29.326  1.00  0.00     0.049 A 
ATOM     61  H   UNL A   1      44.346  29.090  29.198  1.00  0.00     0.167 HD
ATOM     62  C   UNL A   1      46.055  26.843  28.655  1.00  0.00     0.074 A 
ATOM     63  C   UNL A   1      46.527  25.523  28.287  1.00  0.00     0.031 C 
ATOM     64  C   UNL A   1      46.868  27.869  29.007  1.00  0.00     0.037 A 
BRANCH  51  65
ATOM     65  C   UNL A   1      43.985  33.165  30.418  1.00  0.00     0.058 A 
ATOM     66  C   UNL A   1      44.176  34.208  29.497  1.00  0.00     0.135 A 
ATOM     67  C   UNL A   1      43.862  33.503  31.774  1.00  0.00     0.135 A 
ATOM     68  F   UNL A   1      44.323  33.939  28.190  1.00  0.00    -0.206 F 
ATOM     69  C   UNL A   1      44.266  35.534  29.906  1.00  0.00     0.059 A 
ATOM     70  C   UNL A   1      43.920  34.827  32.204  1.00  0.00     0.059 A 
ATOM     71  F   UNL A   1      43.686  32.546  32.698  1.00  0.00    -0.206 F 
ATOM     72  C   UNL A   1      44.135  35.833  31.262  1.00  0.00     0.060 A 
BRANCH  72  73
ATOM     73  S   UNL A   1      44.236  37.562  31.769  1.00  0.00     0.124 S 
ATOM     74  O   UNL A   1      45.673  37.725  31.965  1.00  0.00    -0.237 OA
ATOM     75  O   UNL A   1      43.672  38.258  30.616  1.00  0.00    -0.237 OA
ATOM     76  O   UNL A   1      43.427  37.609  32.983  1.00  0.00    -0.744 OA
ENDBRANCH  72  73
ENDBRANCH  51  65
BRANCH  52  77
ATOM     77  C   UNL A   1      42.850  23.579  27.520  1.00  0.00     0.058 A 
ATOM     78  C   UNL A   1      42.863  23.267  26.151  1.00  0.00     0.135 A 
ATOM     79  C   UNL A   1      42.658  22.521  28.423  1.00  0.00     0.135 A 
ATOM     80  F   UNL A   1      43.049  24.240  25.246  1.00  0.00    -0.206 F 
ATOM     81  C   UNL A   1      42.640  21.973  25.691  1.00  0.00     0.059 A 
ATOM     82  C   UNL A   1      42.462  21.212  27.988  1.00  0.00     0.059 A 
ATOM     83  F   UNL A   1      42.667  22.754  29.745  1.00  0.00    -0.206 F 
ATOM     84  C   UNL A   1      42.429  20.953  26.619  1.00  0.00     0.060 A 
BRANCH  84  85
ATOM     85  S   UNL A   1      42.118  19.281  26.012  1.00  0.00     0.124 S 
ATOM     86  O   UNL A   1      40.682  19.326  25.757  1.00  0.00    -0.237 OA
ATOM     87  O   UNL A   1      42.973  19.216  24.831  1.00  0.00    -0.237 OA
ATOM     88  O   UNL A   1      42.535  18.436  27.126  1.00  0.00    -0.744 OA
ENDBRANCH  84  85
ENDBRANCH  52  77
BRANCH  64  89
ATOM     89  C   UNL A   1      48.338  27.583  29.100  1.00  0.00     0.058 A 
ATOM     90  C   UNL A   1      49.205  27.813  28.023  1.00  0.00     0.135 A 
ATOM     91  C   UNL A   1      48.890  27.168  30.322  1.00  0.00     0.135 A 
ATOM     92  F   UNL A   1      48.718  28.199  26.834  1.00  0.00    -0.206 F 
ATOM     93  C   UNL A   1      50.577  27.639  28.155  1.00  0.00     0.059 A 
ATOM     94  C   UNL A   1      50.261  27.014  30.484  1.00  0.00     0.059 A 
ATOM     95  F   UNL A   1      48.096  26.942  31.381  1.00  0.00    -0.206 F 
ATOM     96  C   UNL A   1      51.096  27.251  29.393  1.00  0.00     0.060 A 
BRANCH  96  97
ATOM     97  S   UNL A   1      52.886  27.116  29.574  1.00  0.00     0.124 S 
ATOM     98  O   UNL A   1      53.002  26.484  30.884  1.00  0.00    -0.237 OA
ATOM     99  O   UNL A   1      53.252  26.281  28.434  1.00  0.00    -0.237 OA
ATOM    100  O   UNL A   1      53.341  28.500  29.501  1.00  0.00    -0.744 OA
ENDBRANCH  96  97
ENDBRANCH  64  89
ENDBRANCH  38  39
ENDBRANCH  30  33
ENDBRANCH  28  29
ENDBRANCH  27  28
ENDBRANCH   1  27
TORSDOF 18
ENDMDL
MODEL 3
REMARK VINA RESULT:     -11.9      2.768      5.291
REMARK SMILES O=C(/C=C/c1ccccc1)Nc1ccc(O)cc1C(=O)NCCCCNC(=O)c1ccc(-c2c3nc(c(-c4c(F)cc(S(=O)(=O)[O-])cc4F)c4ccc([nH]4)c(-c4c(F)cc(S(=O)(=O)[O-])cc4F)c4nc(c(-c5c(F)cc(S(=O)(=O)[O-])cc5F)c5ccc2[nH]5)C=C4)C=C3)cc1
REMARK SMILES IDX 23 1 22 2 21 3 19 4 20 5 18 7 12 8 13 9 14 10 17 11 15 12
REMARK SMILES IDX 11 13 1 14 2 15 3 17 4 18 5 19 6 20 10 21 7 22 9 23 8 24
REMARK SMILES IDX 16 25 24 27 25 28 26 29 27 30 28 32 29 33 30 34 94 35 31 36
REMARK SMILES IDX 93 37 32 38 33 39 34 40 87 41 35 42 92 43 86 44 88 45 36 46
REMARK SMILES IDX 91 47 85 48 84 49 37 51 71 52 50 53 70 54 51 55 54 56 69 57
REMARK SMILES IDX 89 58 52 59 53 60 68 62 90 63 55 64 38 65 39 66 48 67 40 68
REMARK SMILES IDX 41 69 47 70 49 71 42 72 43 73 44 74 45 75 46 76 72 77 73 78
REMARK SMILES IDX 82 79 74 80 75 81 81 82 83 83 76 84 77 85 78 86 79 87 80 88
REMARK SMILES IDX 56 89 57 90 66 91 58 92 59 93 65 94 67 95 60 96 61 97 62 98
REMARK SMILES IDX 63 99 64 100
REMARK H PARENT 21 6 11 16 16 26 26 31 88 50 54 61
REMARK Flexibility Score: inf
ROOT
ATOM      1  C   UNL A   1      33.294  28.108  27.030  1.00  0.00     0.023 C 
ENDROOT
BRANCH   1   2
ATOM      2  C   UNL A   1      31.896  28.193  26.431  1.00  0.00     0.116 C 
BRANCH   2   3
ATOM      3  N   UNL A   1      31.027  27.081  26.701  1.00  0.00    -0.352 N 
ATOM      4  C   UNL A   1      30.774  25.960  25.946  1.00  0.00     0.253 C 
ATOM      5  O   UNL A   1      30.129  25.056  26.486  1.00  0.00    -0.269 OA
ATOM      6  H   UNL A   1      30.541  27.128  27.555  1.00  0.00     0.163 HD
BRANCH   4   7
ATOM      7  C   UNL A   1      31.041  25.863  24.475  1.00  0.00     0.067 A 
ATOM      8  C   UNL A   1      31.609  24.818  23.715  1.00  0.00     0.054 A 
ATOM      9  C   UNL A   1      31.931  25.059  22.361  1.00  0.00     0.031 A 
ATOM     10  C   UNL A   1      31.610  26.263  21.735  1.00  0.00     0.048 A 
ATOM     11  C   UNL A   1      30.717  27.075  23.812  1.00  0.00     0.062 A 
ATOM     12  C   UNL A   1      30.985  27.257  22.461  1.00  0.00     0.116 A 
BRANCH   8  13
ATOM     13  N   UNL A   1      31.893  23.492  24.125  1.00  0.00    -0.322 N 
ATOM     14  O   UNL A   1      33.671  23.864  25.551  1.00  0.00    -0.270 OA
ATOM     15  C   UNL A   1      32.934  23.106  24.926  1.00  0.00     0.248 C 
ATOM     16  H   UNL A   1      31.286  22.785  23.807  1.00  0.00     0.170 HD
BRANCH  15  17
ATOM     17  C   UNL A   1      33.160  21.629  25.021  1.00  0.00     0.072 C 
ATOM     18  C   UNL A   1      32.229  20.683  24.788  1.00  0.00     0.014 C 
BRANCH  18  19
ATOM     19  C   UNL A   1      32.513  19.244  24.573  1.00  0.00    -0.025 A 
ATOM     20  C   UNL A   1      32.524  18.757  23.255  1.00  0.00     0.008 A 
ATOM     21  C   UNL A   1      32.884  18.366  25.602  1.00  0.00     0.008 A 
ATOM     22  C   UNL A   1      32.945  17.452  22.971  1.00  0.00     0.001 A 
ATOM     23  C   UNL A   1      33.315  17.064  25.315  1.00  0.00     0.001 A 
ATOM     24  C   UNL A   1      33.358  16.612  24.000  1.00  0.00     0.000 A 
ENDBRANCH  18  19
ENDBRANCH  15  17
ENDBRANCH   8  13
BRANCH  12  25
ATOM     25  O   UNL A   1      30.656  28.412  21.817  1.00  0.00    -0.508 OA
ATOM     26  H   UNL A   1      31.286  29.100  21.737  1.00  0.00     0.293 HD
ENDBRANCH  12  25
ENDBRANCH   4   7
ENDBRANCH   2   3
ENDBRANCH   1   2
BRANCH   1  27
ATOM     27  C   UNL A   1      34.016  29.441  27.270  1.00  0.00     0.023 C 
BRANCH  27  28
ATOM     28  C   UNL A   1      35.476  29.348  27.720  1.00  0.00     0.116 C 
BRANCH  28  29
ATOM     29  N   UNL A   1      35.659  29.886  29.060  1.00  0.00    -0.352 N 
ATOM     30  C   UNL A   1      36.736  29.582  29.854  1.00  0.00     0.251 C 
ATOM     31  H   UNL A   1      34.974  30.498  29.416  1.00  0.00     0.163 HD
ATOM     32  O   UNL A   1      36.570  28.942  30.885  1.00  0.00    -0.269 OA
BRANCH  30  33
ATOM     33  C   UNL A   1      38.088  29.972  29.403  1.00  0.00     0.039 A 
ATOM     34  C   UNL A   1      39.002  30.406  30.370  1.00  0.00     0.014 A 
ATOM     35  C   UNL A   1      38.494  29.774  28.085  1.00  0.00     0.014 A 
ATOM     36  C   UNL A   1      40.359  30.404  30.074  1.00  0.00     0.010 A 
ATOM     37  C   UNL A   1      39.847  29.664  27.820  1.00  0.00     0.010 A 
ATOM     38  C   UNL A   1      40.779  29.890  28.842  1.00  0.00    -0.014 A 
BRANCH  38  39
ATOM     39  C   UNL A   1      42.157  29.394  28.643  1.00  0.00     0.031 A 
ATOM     40  C   UNL A   1      43.285  30.372  28.577  1.00  0.00     0.074 A 
ATOM     41  C   UNL A   1      42.327  28.089  28.341  1.00  0.00     0.049 A 
ATOM     42  N   UNL A   1      44.508  30.187  28.164  1.00  0.00    -0.248 NA
ATOM     43  C   UNL A   1      42.981  31.756  28.981  1.00  0.00     0.031 C 
ATOM     44  C   UNL A   1      41.262  27.075  28.304  1.00  0.00     0.029 A 
ATOM     45  N   UNL A   1      43.446  27.388  27.973  1.00  0.00    -0.354 N 
ATOM     46  C   UNL A   1      45.118  31.431  28.245  1.00  0.00     0.074 A 
ATOM     47  C   UNL A   1      44.113  32.375  28.683  1.00  0.00     0.031 C 
ATOM     48  C   UNL A   1      41.785  25.889  27.958  1.00  0.00     0.029 A 
ATOM     49  C   UNL A   1      43.205  26.062  27.691  1.00  0.00     0.049 A 
ATOM     50  H   UNL A   1      44.341  27.797  27.916  1.00  0.00     0.167 HD
ATOM     51  C   UNL A   1      46.411  31.742  28.000  1.00  0.00     0.037 A 
ATOM     52  C   UNL A   1      44.036  25.103  27.244  1.00  0.00     0.037 A 
ATOM     53  C   UNL A   1      47.388  30.776  27.579  1.00  0.00     0.049 A 
ATOM     54  C   UNL A   1      45.470  25.480  26.985  1.00  0.00     0.074 A 
ATOM     55  C   UNL A   1      48.731  30.965  27.309  1.00  0.00     0.029 A 
ATOM     56  N   UNL A   1      47.123  29.426  27.382  1.00  0.00    -0.354 N 
ATOM     57  N   UNL A   1      46.043  26.656  27.099  1.00  0.00    -0.248 NA
ATOM     58  C   UNL A   1      46.372  24.410  26.541  1.00  0.00     0.031 C 
ATOM     59  C   UNL A   1      49.275  29.733  26.934  1.00  0.00     0.029 A 
ATOM     60  C   UNL A   1      48.281  28.769  27.010  1.00  0.00     0.049 A 
ATOM     61  H   UNL A   1      46.242  29.001  27.492  1.00  0.00     0.167 HD
ATOM     62  C   UNL A   1      47.381  26.457  26.790  1.00  0.00     0.074 A 
ATOM     63  C   UNL A   1      47.533  25.049  26.481  1.00  0.00     0.031 C 
ATOM     64  C   UNL A   1      48.397  27.353  26.764  1.00  0.00     0.037 A 
BRANCH  51  65
ATOM     65  C   UNL A   1      46.834  33.165  28.221  1.00  0.00     0.058 A 
ATOM     66  C   UNL A   1      46.757  34.113  27.187  1.00  0.00     0.135 A 
ATOM     67  C   UNL A   1      47.298  33.599  29.472  1.00  0.00     0.135 A 
ATOM     68  F   UNL A   1      46.343  33.747  25.963  1.00  0.00    -0.206 F 
ATOM     69  C   UNL A   1      47.148  35.433  27.377  1.00  0.00     0.059 A 
ATOM     70  C   UNL A   1      47.667  34.924  29.694  1.00  0.00     0.059 A 
ATOM     71  F   UNL A   1      47.399  32.735  30.494  1.00  0.00    -0.206 F 
ATOM     72  C   UNL A   1      47.600  35.830  28.636  1.00  0.00     0.060 A 
BRANCH  72  73
ATOM     73  S   UNL A   1      48.083  37.553  28.867  1.00  0.00     0.124 S 
ATOM     74  O   UNL A   1      48.334  37.595  30.305  1.00  0.00    -0.237 OA
ATOM     75  O   UNL A   1      49.264  37.662  28.016  1.00  0.00    -0.237 OA
ATOM     76  O   UNL A   1      46.914  38.298  28.411  1.00  0.00    -0.744 OA
ENDBRANCH  72  73
ENDBRANCH  51  65
BRANCH  52  77
ATOM     77  C   UNL A   1      43.560  23.708  27.035  1.00  0.00     0.058 A 
ATOM     78  C   UNL A   1      43.356  23.209  25.738  1.00  0.00     0.135 A 
ATOM     79  C   UNL A   1      43.267  22.854  28.110  1.00  0.00     0.135 A 
ATOM     80  F   UNL A   1      43.626  23.981  24.675  1.00  0.00    -0.206 F 
ATOM     81  C   UNL A   1      42.833  21.939  25.515  1.00  0.00     0.059 A 
ATOM     82  C   UNL A   1      42.770  21.568  27.912  1.00  0.00     0.059 A 
ATOM     83  F   UNL A   1      43.472  23.266  29.372  1.00  0.00    -0.206 F 
ATOM     84  C   UNL A   1      42.532  21.130  26.610  1.00  0.00     0.060 A 
BRANCH  84  85
ATOM     85  S   UNL A   1      41.831  19.492  26.311  1.00  0.00     0.124 S 
ATOM     86  O   UNL A   1      42.243  18.775  27.512  1.00  0.00    -0.237 OA
ATOM     87  O   UNL A   1      40.405  19.782  26.198  1.00  0.00    -0.237 OA
ATOM     88  O   UNL A   1      42.478  19.072  25.071  1.00  0.00    -0.744 OA
ENDBRANCH  84  85
ENDBRANCH  52  77
BRANCH  64  89
ATOM     89  C   UNL A   1      49.772  26.827  26.478  1.00  0.00     0.058 A 
ATOM     90  C   UNL A   1      50.589  26.305  27.490  1.00  0.00     0.135 A 
ATOM     91  C   UNL A   1      50.229  26.758  25.152  1.00  0.00     0.135 A 
ATOM     92  F   UNL A   1      50.196  26.360  28.772  1.00  0.00    -0.206 F 
ATOM     93  C   UNL A   1      51.819  25.729  27.196  1.00  0.00     0.059 A 
ATOM     94  C   UNL A   1      51.444  26.163  24.833  1.00  0.00     0.059 A 
ATOM     95  F   UNL A   1      49.477  27.242  24.150  1.00  0.00    -0.206 F 
ATOM     96  C   UNL A   1      52.232  25.653  25.863  1.00  0.00     0.060 A 
BRANCH  96  97
ATOM     97  S   UNL A   1      53.790  24.825  25.489  1.00  0.00     0.124 S 
ATOM     98  O   UNL A   1      54.308  25.649  24.402  1.00  0.00    -0.237 OA
ATOM     99  O   UNL A   1      54.507  24.923  26.756  1.00  0.00    -0.237 OA
ATOM    100  O   UNL A   1      53.377  23.476  25.113  1.00  0.00    -0.744 OA
ENDBRANCH  96  97
ENDBRANCH  64  89
ENDBRANCH  38  39
ENDBRANCH  30  33
ENDBRANCH  28  29
ENDBRANCH  27  28
ENDBRANCH   1  27
TORSDOF 18
ENDMDL
