MODEL 1
REMARK VINA RESULT:     -13.0      0.000      0.000
REMARK SMILES COC(=O)c1c(-c2ccccc2Cl)csc1NC(=O)[C@@H]1[C@@H]2CC[C@@H](C2)[C@@H]1C(=O)NCCCCNC(=O)c1ccc(-c2c3nc(c(-c4c(F)cc(S(=O)(=O)[O-])cc4F)c4ccc([nH]4)c(-c4c(F)cc(S(=O)(=O)[O-])cc4F)c4nc(c(-c5c(F)cc(S(=O)(=O)[O-])cc5F)c5ccc2[nH]5)C=C4)C=C3)cc1
REMARK SMILES IDX 31 1 30 2 29 3 27 4 28 5 26 7 20 8 21 9 22 10 25 11 24 12
REMARK SMILES IDX 23 13 18 14 17 15 19 17 16 18 5 19 6 20 14 21 15 22 3 23
REMARK SMILES IDX 4 24 2 25 1 26 7 27 8 28 12 29 9 30 11 31 13 32 10 33 32 34
REMARK SMILES IDX 33 35 34 36 35 37 36 39 37 40 38 41 102 42 39 43 101 44
REMARK SMILES IDX 40 45 41 46 42 47 95 48 43 49 100 50 94 51 96 52 44 53 99 54
REMARK SMILES IDX 93 55 92 56 45 58 79 59 58 60 78 61 59 62 62 63 77 64 97 65
REMARK SMILES IDX 60 66 61 67 76 69 98 70 63 71 46 72 47 73 56 74 48 75 49 76
REMARK SMILES IDX 55 77 57 78 50 79 51 80 52 81 53 82 54 83 80 84 81 85 90 86
REMARK SMILES IDX 82 87 83 88 89 89 91 90 84 91 85 92 86 93 87 94 88 95 64 96
REMARK SMILES IDX 65 97 74 98 66 99 67 100 73 101 75 102 68 103 69 104 70 105
REMARK SMILES IDX 71 106 72 107
REMARK H PARENT 29 6 17 16 34 38 96 57 62 68
REMARK Flexibility Score: inf
ROOT
ATOM      1  C   UNL A   1      38.307  21.666  25.605  1.00  0.00     0.023 C 
ENDROOT
BRANCH   1   2
ATOM      2  C   UNL A   1      36.940  21.204  25.108  1.00  0.00     0.116 C 
BRANCH   2   3
ATOM      3  N   UNL A   1      35.905  21.367  26.112  1.00  0.00    -0.356 N 
ATOM      4  C   UNL A   1      34.582  21.679  25.989  1.00  0.00     0.224 C 
ATOM      5  O   UNL A   1      33.926  21.796  27.023  1.00  0.00    -0.275 OA
ATOM      6  H   UNL A   1      36.208  21.230  27.039  1.00  0.00     0.163 HD
BRANCH   4   7
ATOM      7  C   UNL A   1      33.961  21.815  24.603  1.00  0.00     0.094 C 
ATOM      8  C   UNL A   1      33.730  23.239  23.982  1.00  0.00     0.094 C 
ATOM      9  C   UNL A   1      32.249  23.109  23.529  1.00  0.00     0.002 C 
ATOM     10  C   UNL A   1      31.289  23.180  24.717  1.00  0.00     0.005 C 
ATOM     11  C   UNL A   1      32.142  21.628  23.134  1.00  0.00     0.009 C 
ATOM     12  C   UNL A   1      32.562  21.145  24.515  1.00  0.00     0.002 C 
ATOM     13  C   UNL A   1      31.486  21.820  25.385  1.00  0.00     0.005 C 
BRANCH   8  14
ATOM     14  C   UNL A   1      34.229  24.401  24.862  1.00  0.00     0.229 C 
ATOM     15  N   UNL A   1      33.706  25.659  24.875  1.00  0.00    -0.317 N 
ATOM     16  H   UNL A   1      33.933  26.178  25.680  1.00  0.00     0.170 HD
ATOM     17  O   UNL A   1      35.215  24.228  25.591  1.00  0.00    -0.274 OA
BRANCH  15  18
ATOM     18  C   UNL A   1      32.916  26.340  23.976  1.00  0.00     0.110 A 
ATOM     19  C   UNL A   1      31.899  27.245  24.256  1.00  0.00     0.102 A 
ATOM     20  C   UNL A   1      31.192  27.572  23.035  1.00  0.00     0.011 A 
ATOM     21  C   UNL A   1      31.858  27.109  21.917  1.00  0.00     0.076 A 
ATOM     22  S   UNL A   1      33.325  26.345  22.326  1.00  0.00    -0.125 S 
BRANCH  19  23
ATOM     23  C   UNL A   1      31.613  27.706  25.620  1.00  0.00     0.341 C 
ATOM     24  O   UNL A   1      31.548  26.945  26.573  1.00  0.00    -0.246 OA
BRANCH  23  25
ATOM     25  O   UNL A   1      31.517  29.063  25.719  1.00  0.00    -0.465 OA
ATOM     26  C   UNL A   1      32.758  29.771  25.686  1.00  0.00     0.282 C 
ENDBRANCH  23  25
ENDBRANCH  19  23
BRANCH  20  27
ATOM     27  C   UNL A   1      29.973  28.353  22.858  1.00  0.00     0.002 A 
ATOM     28  C   UNL A   1      30.074  29.622  22.269  1.00  0.00     0.010 A 
ATOM     29  C   UNL A   1      28.711  27.874  23.244  1.00  0.00     0.048 A 
ATOM     30  C   UNL A   1      28.933  30.398  22.063  1.00  0.00     0.001 A 
ATOM     31  C   UNL A   1      27.569  28.654  23.029  1.00  0.00     0.021 A 
ATOM     32  Cl  UNL A   1      28.498  26.328  23.991  1.00  0.00    -0.084 Cl
ATOM     33  C   UNL A   1      27.682  29.913  22.438  1.00  0.00     0.002 A 
ENDBRANCH  20  27
ENDBRANCH  15  18
ENDBRANCH   8  14
ENDBRANCH   4   7
ENDBRANCH   2   3
ENDBRANCH   1   2
BRANCH   1  34
ATOM     34  C   UNL A   1      38.361  23.104  26.124  1.00  0.00     0.023 C 
BRANCH  34  35
ATOM     35  C   UNL A   1      39.523  23.424  27.061  1.00  0.00     0.116 C 
BRANCH  35  36
ATOM     36  N   UNL A   1      40.780  23.646  26.362  1.00  0.00    -0.352 N 
ATOM     37  C   UNL A   1      41.639  24.716  26.438  1.00  0.00     0.251 C 
ATOM     38  H   UNL A   1      41.053  22.927  25.745  1.00  0.00     0.163 HD
ATOM     39  O   UNL A   1      42.601  24.784  25.680  1.00  0.00    -0.269 OA
BRANCH  37  40
ATOM     40  C   UNL A   1      41.382  25.802  27.412  1.00  0.00     0.039 A 
ATOM     41  C   UNL A   1      40.348  25.644  28.339  1.00  0.00     0.014 A 
ATOM     42  C   UNL A   1      42.165  26.959  27.424  1.00  0.00     0.014 A 
ATOM     43  C   UNL A   1      40.149  26.613  29.326  1.00  0.00     0.010 A 
ATOM     44  C   UNL A   1      42.008  27.890  28.448  1.00  0.00     0.010 A 
ATOM     45  C   UNL A   1      41.004  27.725  29.414  1.00  0.00    -0.014 A 
BRANCH  45  46
ATOM     46  C   UNL A   1      40.872  28.715  30.515  1.00  0.00     0.031 A 
ATOM     47  C   UNL A   1      41.748  28.612  31.734  1.00  0.00     0.074 A 
ATOM     48  C   UNL A   1      39.914  29.661  30.450  1.00  0.00     0.049 A 
ATOM     49  N   UNL A   1      41.722  29.324  32.832  1.00  0.00    -0.248 NA
ATOM     50  C   UNL A   1      42.768  27.552  31.731  1.00  0.00     0.031 C 
ATOM     51  C   UNL A   1      38.968  29.834  29.345  1.00  0.00     0.029 A 
ATOM     52  N   UNL A   1      39.564  30.647  31.339  1.00  0.00    -0.354 N 
ATOM     53  C   UNL A   1      42.707  28.790  33.654  1.00  0.00     0.074 A 
ATOM     54  C   UNL A   1      43.282  27.665  32.947  1.00  0.00     0.031 C 
ATOM     55  C   UNL A   1      38.159  30.871  29.615  1.00  0.00     0.029 A 
ATOM     56  C   UNL A   1      38.502  31.415  30.925  1.00  0.00     0.049 A 
ATOM     57  H   UNL A   1      40.033  30.792  32.193  1.00  0.00     0.167 HD
ATOM     58  C   UNL A   1      43.108  29.210  34.877  1.00  0.00     0.037 A 
ATOM     59  C   UNL A   1      37.867  32.436  31.536  1.00  0.00     0.037 A 
ATOM     60  C   UNL A   1      42.555  30.349  35.563  1.00  0.00     0.049 A 
ATOM     61  C   UNL A   1      38.341  32.892  32.888  1.00  0.00     0.074 A 
ATOM     62  C   UNL A   1      42.937  30.891  36.778  1.00  0.00     0.029 A 
ATOM     63  N   UNL A   1      41.503  31.123  35.095  1.00  0.00    -0.354 N 
ATOM     64  N   UNL A   1      39.316  32.414  33.624  1.00  0.00    -0.248 NA
ATOM     65  C   UNL A   1      37.636  34.032  33.493  1.00  0.00     0.031 C 
ATOM     66  C   UNL A   1      42.094  31.970  37.062  1.00  0.00     0.029 A 
ATOM     67  C   UNL A   1      41.215  32.129  36.002  1.00  0.00     0.049 A 
ATOM     68  H   UNL A   1      41.032  30.979  34.242  1.00  0.00     0.167 HD
ATOM     69  C   UNL A   1      39.359  33.210  34.763  1.00  0.00     0.074 A 
ATOM     70  C   UNL A   1      38.319  34.207  34.615  1.00  0.00     0.031 C 
ATOM     71  C   UNL A   1      40.186  33.123  35.834  1.00  0.00     0.037 A 
BRANCH  58  72
ATOM     72  C   UNL A   1      44.210  28.441  35.553  1.00  0.00     0.058 A 
ATOM     73  C   UNL A   1      45.560  28.784  35.377  1.00  0.00     0.135 A 
ATOM     74  C   UNL A   1      43.912  27.380  36.424  1.00  0.00     0.135 A 
ATOM     75  F   UNL A   1      45.902  29.780  34.545  1.00  0.00    -0.206 F 
ATOM     76  C   UNL A   1      46.576  28.086  36.021  1.00  0.00     0.059 A 
ATOM     77  C   UNL A   1      44.912  26.686  37.098  1.00  0.00     0.059 A 
ATOM     78  F   UNL A   1      42.637  27.012  36.629  1.00  0.00    -0.206 F 
ATOM     79  C   UNL A   1      46.243  27.038  36.880  1.00  0.00     0.060 A 
BRANCH  79  80
ATOM     80  S   UNL A   1      47.574  26.153  37.718  1.00  0.00     0.124 S 
ATOM     81  O   UNL A   1      48.737  26.950  37.340  1.00  0.00    -0.237 OA
ATOM     82  O   UNL A   1      47.175  26.240  39.119  1.00  0.00    -0.237 OA
ATOM     83  O   UNL A   1      47.513  24.816  37.135  1.00  0.00    -0.744 OA
ENDBRANCH  79  80
ENDBRANCH  58  72
BRANCH  59  84
ATOM     84  C   UNL A   1      36.724  33.111  30.864  1.00  0.00     0.058 A 
ATOM     85  C   UNL A   1      36.933  33.948  29.757  1.00  0.00     0.135 A 
ATOM     86  C   UNL A   1      35.406  32.934  31.311  1.00  0.00     0.135 A 
ATOM     87  F   UNL A   1      38.176  34.153  29.296  1.00  0.00    -0.206 F 
ATOM     88  C   UNL A   1      35.878  34.603  29.130  1.00  0.00     0.059 A 
ATOM     89  C   UNL A   1      34.332  33.560  30.685  1.00  0.00     0.059 A 
ATOM     90  F   UNL A   1      35.153  32.132  32.355  1.00  0.00    -0.206 F 
ATOM     91  C   UNL A   1      34.580  34.402  29.602  1.00  0.00     0.060 A 
BRANCH  91  92
ATOM     92  S   UNL A   1      33.213  35.229  28.758  1.00  0.00     0.124 S 
ATOM     93  O   UNL A   1      32.440  35.739  29.884  1.00  0.00    -0.237 OA
ATOM     94  O   UNL A   1      33.908  36.230  27.954  1.00  0.00    -0.237 OA
ATOM     95  O   UNL A   1      32.589  34.150  27.998  1.00  0.00    -0.744 OA
ENDBRANCH  91  92
ENDBRANCH  59  84
BRANCH  71  96
ATOM     96  C   UNL A   1      40.031  34.157  36.915  1.00  0.00     0.058 A 
ATOM     97  C   UNL A   1      40.727  35.374  36.875  1.00  0.00     0.135 A 
ATOM     98  C   UNL A   1      39.133  33.947  37.974  1.00  0.00     0.135 A 
ATOM     99  F   UNL A   1      41.601  35.621  35.887  1.00  0.00    -0.206 F 
ATOM    100  C   UNL A   1      40.551  36.343  37.859  1.00  0.00     0.059 A 
ATOM    101  C   UNL A   1      38.924  34.911  38.955  1.00  0.00     0.059 A 
ATOM    102  F   UNL A   1      38.437  32.802  38.053  1.00  0.00    -0.206 F 
ATOM    103  C   UNL A   1      39.646  36.102  38.895  1.00  0.00     0.060 A 
BRANCH 103 104
ATOM    104  S   UNL A   1      39.397  37.381  40.144  1.00  0.00     0.124 S 
ATOM    105  O   UNL A   1      40.736  37.953  40.250  1.00  0.00    -0.237 OA
ATOM    106  O   UNL A   1      38.390  38.236  39.523  1.00  0.00    -0.237 OA
ATOM    107  O   UNL A   1      38.940  36.632  41.311  1.00  0.00    -0.744 OA
ENDBRANCH 103 104
ENDBRANCH  71  96
ENDBRANCH  45  46
ENDBRANCH  37  40
ENDBRANCH  35  36
ENDBRANCH  34  35
ENDBRANCH   1  34
TORSDOF 19
ENDMDL
MODEL 2
REMARK VINA RESULT:     -12.9      0.618      7.917
REMARK SMILES COC(=O)c1c(-c2ccccc2Cl)csc1NC(=O)[C@@H]1[C@@H]2CC[C@@H](C2)[C@@H]1C(=O)NCCCCNC(=O)c1ccc(-c2c3nc(c(-c4c(F)cc(S(=O)(=O)[O-])cc4F)c4ccc([nH]4)c(-c4c(F)cc(S(=O)(=O)[O-])cc4F)c4nc(c(-c5c(F)cc(S(=O)(=O)[O-])cc5F)c5ccc2[nH]5)C=C4)C=C3)cc1
REMARK SMILES IDX 31 1 30 2 29 3 27 4 28 5 26 7 20 8 21 9 22 10 25 11 24 12
REMARK SMILES IDX 23 13 18 14 17 15 19 17 16 18 5 19 6 20 14 21 15 22 3 23
REMARK SMILES IDX 4 24 2 25 1 26 7 27 8 28 12 29 9 30 11 31 13 32 10 33 32 34
REMARK SMILES IDX 33 35 34 36 35 37 36 39 37 40 38 41 102 42 39 43 101 44
REMARK SMILES IDX 40 45 41 46 42 47 95 48 43 49 100 50 94 51 96 52 44 53 99 54
REMARK SMILES IDX 93 55 92 56 45 58 79 59 58 60 78 61 59 62 62 63 77 64 97 65
REMARK SMILES IDX 60 66 61 67 76 69 98 70 63 71 46 72 47 73 56 74 48 75 49 76
REMARK SMILES IDX 55 77 57 78 50 79 51 80 52 81 53 82 54 83 80 84 81 85 90 86
REMARK SMILES IDX 82 87 83 88 89 89 91 90 84 91 85 92 86 93 87 94 88 95 64 96
REMARK SMILES IDX 65 97 74 98 66 99 67 100 73 101 75 102 68 103 69 104 70 105
REMARK SMILES IDX 71 106 72 107
REMARK H PARENT 29 6 17 16 34 38 96 57 62 68
REMARK Flexibility Score: inf
ROOT
ATOM      1  C   UNL A   1      38.596  21.816  25.773  1.00  0.00     0.023 C 
ENDROOT
BRANCH   1   2
ATOM      2  C   UNL A   1      37.236  21.566  25.126  1.00  0.00     0.116 C 
BRANCH   2   3
ATOM      3  N   UNL A   1      36.168  21.480  26.104  1.00  0.00    -0.356 N 
ATOM      4  C   UNL A   1      34.820  21.646  25.972  1.00  0.00     0.224 C 
ATOM      5  O   UNL A   1      34.132  21.556  26.989  1.00  0.00    -0.275 OA
ATOM      6  H   UNL A   1      36.466  21.265  27.018  1.00  0.00     0.163 HD
BRANCH   4   7
ATOM      7  C   UNL A   1      34.217  21.880  24.592  1.00  0.00     0.094 C 
ATOM      8  C   UNL A   1      33.890  23.340  24.114  1.00  0.00     0.094 C 
ATOM      9  C   UNL A   1      32.432  23.149  23.611  1.00  0.00     0.002 C 
ATOM     10  C   UNL A   1      31.447  23.025  24.774  1.00  0.00     0.005 C 
ATOM     11  C   UNL A   1      32.444  21.714  23.063  1.00  0.00     0.009 C 
ATOM     12  C   UNL A   1      32.874  21.122  24.398  1.00  0.00     0.002 C 
ATOM     13  C   UNL A   1      31.734  21.622  25.304  1.00  0.00     0.005 C 
BRANCH   8  14
ATOM     14  C   UNL A   1      34.282  24.438  25.121  1.00  0.00     0.229 C 
ATOM     15  N   UNL A   1      33.703  25.667  25.210  1.00  0.00    -0.317 N 
ATOM     16  H   UNL A   1      33.858  26.121  26.070  1.00  0.00     0.170 HD
ATOM     17  O   UNL A   1      35.230  24.240  25.894  1.00  0.00    -0.274 OA
BRANCH  15  18
ATOM     18  C   UNL A   1      32.938  26.394  24.326  1.00  0.00     0.110 A 
ATOM     19  C   UNL A   1      31.846  27.205  24.616  1.00  0.00     0.102 A 
ATOM     20  C   UNL A   1      31.210  27.619  23.382  1.00  0.00     0.011 A 
ATOM     21  C   UNL A   1      31.984  27.317  22.279  1.00  0.00     0.076 A 
ATOM     22  S   UNL A   1      33.464  26.599  22.723  1.00  0.00    -0.125 S 
BRANCH  19  23
ATOM     23  C   UNL A   1      31.433  27.500  25.993  1.00  0.00     0.341 C 
ATOM     24  O   UNL A   1      31.018  26.642  26.755  1.00  0.00    -0.246 OA
BRANCH  23  25
ATOM     25  O   UNL A   1      31.642  28.801  26.348  1.00  0.00    -0.465 OA
ATOM     26  C   UNL A   1      33.008  29.217  26.377  1.00  0.00     0.282 C 
ENDBRANCH  23  25
ENDBRANCH  19  23
BRANCH  20  27
ATOM     27  C   UNL A   1      29.959  28.343  23.190  1.00  0.00     0.002 A 
ATOM     28  C   UNL A   1      30.019  29.673  22.750  1.00  0.00     0.010 A 
ATOM     29  C   UNL A   1      28.705  27.752  23.418  1.00  0.00     0.048 A 
ATOM     30  C   UNL A   1      28.848  30.401  22.535  1.00  0.00     0.001 A 
ATOM     31  C   UNL A   1      27.533  28.484  23.194  1.00  0.00     0.021 A 
ATOM     32  Cl  UNL A   1      28.540  26.123  23.977  1.00  0.00    -0.084 Cl
ATOM     33  C   UNL A   1      27.607  29.805  22.752  1.00  0.00     0.002 A 
ENDBRANCH  20  27
ENDBRANCH  15  18
ENDBRANCH   8  14
ENDBRANCH   4   7
ENDBRANCH   2   3
ENDBRANCH   1   2
BRANCH   1  34
ATOM     34  C   UNL A   1      38.715  23.124  26.557  1.00  0.00     0.023 C 
BRANCH  34  35
ATOM     35  C   UNL A   1      40.132  23.526  26.958  1.00  0.00     0.116 C 
BRANCH  35  36
ATOM     36  N   UNL A   1      40.803  24.339  25.955  1.00  0.00    -0.352 N 
ATOM     37  C   UNL A   1      41.249  25.636  26.045  1.00  0.00     0.251 C 
ATOM     38  H   UNL A   1      40.959  23.897  25.088  1.00  0.00     0.163 HD
ATOM     39  O   UNL A   1      41.690  26.202  25.050  1.00  0.00    -0.269 OA
BRANCH  37  40
ATOM     40  C   UNL A   1      41.164  26.359  27.335  1.00  0.00     0.039 A 
ATOM     41  C   UNL A   1      42.126  27.329  27.628  1.00  0.00     0.014 A 
ATOM     42  C   UNL A   1      40.133  26.096  28.241  1.00  0.00     0.014 A 
ATOM     43  C   UNL A   1      42.010  28.089  28.795  1.00  0.00     0.010 A 
ATOM     44  C   UNL A   1      39.983  26.899  29.370  1.00  0.00     0.010 A 
ATOM     45  C   UNL A   1      40.915  27.908  29.657  1.00  0.00    -0.014 A 
BRANCH  45  46
ATOM     46  C   UNL A   1      40.720  28.772  30.850  1.00  0.00     0.031 A 
ATOM     47  C   UNL A   1      39.660  29.839  30.847  1.00  0.00     0.074 A 
ATOM     48  C   UNL A   1      41.547  28.645  31.908  1.00  0.00     0.049 A 
ATOM     49  N   UNL A   1      39.397  30.745  31.755  1.00  0.00    -0.248 NA
ATOM     50  C   UNL A   1      38.798  29.916  29.657  1.00  0.00     0.031 C 
ATOM     51  C   UNL A   1      42.647  27.683  32.012  1.00  0.00     0.029 A 
ATOM     52  N   UNL A   1      41.603  29.338  33.091  1.00  0.00    -0.354 N 
ATOM     53  C   UNL A   1      38.356  31.508  31.239  1.00  0.00     0.074 A 
ATOM     54  C   UNL A   1      38.064  30.987  29.921  1.00  0.00     0.031 C 
ATOM     55  C   UNL A   1      43.257  27.837  33.198  1.00  0.00     0.029 A 
ATOM     56  C   UNL A   1      42.618  28.930  33.925  1.00  0.00     0.049 A 
ATOM     57  H   UNL A   1      40.974  30.060  33.322  1.00  0.00     0.167 HD
ATOM     58  C   UNL A   1      37.691  32.535  31.820  1.00  0.00     0.037 A 
ATOM     59  C   UNL A   1      42.998  29.389  35.134  1.00  0.00     0.037 A 
ATOM     60  C   UNL A   1      37.963  33.029  33.145  1.00  0.00     0.049 A 
ATOM     61  C   UNL A   1      42.234  30.522  35.762  1.00  0.00     0.074 A 
ATOM     62  C   UNL A   1      37.303  34.024  33.844  1.00  0.00     0.029 A 
ATOM     63  N   UNL A   1      38.976  32.565  33.971  1.00  0.00    -0.354 N 
ATOM     64  N   UNL A   1      41.212  31.191  35.286  1.00  0.00    -0.248 NA
ATOM     65  C   UNL A   1      42.670  30.960  37.096  1.00  0.00     0.031 C 
ATOM     66  C   UNL A   1      37.938  34.187  35.080  1.00  0.00     0.029 A 
ATOM     67  C   UNL A   1      38.967  33.262  35.168  1.00  0.00     0.049 A 
ATOM     68  H   UNL A   1      39.607  31.845  33.742  1.00  0.00     0.167 HD
ATOM     69  C   UNL A   1      40.864  32.108  36.272  1.00  0.00     0.074 A 
ATOM     70  C   UNL A   1      41.779  31.903  37.375  1.00  0.00     0.031 C 
ATOM     71  C   UNL A   1      39.876  33.036  36.263  1.00  0.00     0.037 A 
BRANCH  58  72
ATOM     72  C   UNL A   1      36.592  33.191  31.030  1.00  0.00     0.058 A 
ATOM     73  C   UNL A   1      35.238  32.984  31.343  1.00  0.00     0.135 A 
ATOM     74  C   UNL A   1      36.894  34.072  29.980  1.00  0.00     0.135 A 
ATOM     75  F   UNL A   1      34.894  32.140  32.327  1.00  0.00    -0.206 F 
ATOM     76  C   UNL A   1      34.224  33.609  30.626  1.00  0.00     0.059 A 
ATOM     77  C   UNL A   1      35.894  34.728  29.266  1.00  0.00     0.059 A 
ATOM     78  F   UNL A   1      38.171  34.306  29.639  1.00  0.00    -0.206 F 
ATOM     79  C   UNL A   1      34.561  34.480  29.589  1.00  0.00     0.060 A 
BRANCH  79  80
ATOM     80  S   UNL A   1      33.231  35.293  28.679  1.00  0.00     0.124 S 
ATOM     81  O   UNL A   1      33.982  36.199  27.814  1.00  0.00    -0.237 OA
ATOM     82  O   UNL A   1      32.580  34.173  28.009  1.00  0.00    -0.237 OA
ATOM     83  O   UNL A   1      32.444  35.935  29.727  1.00  0.00    -0.744 OA
ENDBRANCH  79  80
ENDBRANCH  58  72
BRANCH  59  84
ATOM     84  C   UNL A   1      44.148  28.764  35.840  1.00  0.00     0.058 A 
ATOM     85  C   UNL A   1      43.951  27.706  36.741  1.00  0.00     0.135 A 
ATOM     86  C   UNL A   1      45.463  29.208  35.630  1.00  0.00     0.135 A 
ATOM     87  F   UNL A   1      42.712  27.250  36.979  1.00  0.00    -0.206 F 
ATOM     88  C   UNL A   1      45.013  27.124  37.425  1.00  0.00     0.059 A 
ATOM     89  C   UNL A   1      46.544  28.625  36.285  1.00  0.00     0.059 A 
ATOM     90  F   UNL A   1      45.706  30.205  34.767  1.00  0.00    -0.206 F 
ATOM     91  C   UNL A   1      46.307  27.591  37.190  1.00  0.00     0.060 A 
BRANCH  91  92
ATOM     92  S   UNL A   1      47.683  26.805  38.056  1.00  0.00     0.124 S 
ATOM     93  O   UNL A   1      47.067  25.569  38.524  1.00  0.00    -0.237 OA
ATOM     94  O   UNL A   1      48.675  26.662  36.995  1.00  0.00    -0.237 OA
ATOM     95  O   UNL A   1      48.022  27.774  39.094  1.00  0.00    -0.744 OA
ENDBRANCH  91  92
ENDBRANCH  59  84
BRANCH  71  96
ATOM     96  C   UNL A   1      39.701  33.874  37.499  1.00  0.00     0.058 A 
ATOM     97  C   UNL A   1      38.858  33.476  38.547  1.00  0.00     0.135 A 
ATOM     98  C   UNL A   1      40.431  35.064  37.658  1.00  0.00     0.135 A 
ATOM     99  F   UNL A   1      38.134  32.351  38.442  1.00  0.00    -0.206 F 
ATOM    100  C   UNL A   1      38.730  34.239  39.704  1.00  0.00     0.059 A 
ATOM    101  C   UNL A   1      40.337  35.829  38.816  1.00  0.00     0.059 A 
ATOM    102  F   UNL A   1      41.258  35.484  36.688  1.00  0.00    -0.206 F 
ATOM    103  C   UNL A   1      39.475  35.413  39.830  1.00  0.00     0.060 A 
BRANCH 103 104
ATOM    104  S   UNL A   1      39.330  36.373  41.352  1.00  0.00     0.124 S 
ATOM    105  O   UNL A   1      40.681  36.270  41.895  1.00  0.00    -0.237 OA
ATOM    106  O   UNL A   1      38.946  37.692  40.856  1.00  0.00    -0.237 OA
ATOM    107  O   UNL A   1      38.296  35.668  42.101  1.00  0.00    -0.744 OA
ENDBRANCH 103 104
ENDBRANCH  71  96
ENDBRANCH  45  46
ENDBRANCH  37  40
ENDBRANCH  35  36
ENDBRANCH  34  35
ENDBRANCH   1  34
TORSDOF 19
ENDMDL
MODEL 3
REMARK VINA RESULT:     -11.2      5.178      8.580
REMARK SMILES COC(=O)c1c(-c2ccccc2Cl)csc1NC(=O)[C@@H]1[C@@H]2CC[C@@H](C2)[C@@H]1C(=O)NCCCCNC(=O)c1ccc(-c2c3nc(c(-c4c(F)cc(S(=O)(=O)[O-])cc4F)c4ccc([nH]4)c(-c4c(F)cc(S(=O)(=O)[O-])cc4F)c4nc(c(-c5c(F)cc(S(=O)(=O)[O-])cc5F)c5ccc2[nH]5)C=C4)C=C3)cc1
REMARK SMILES IDX 31 1 30 2 29 3 27 4 28 5 26 7 20 8 21 9 22 10 25 11 24 12
REMARK SMILES IDX 23 13 18 14 17 15 19 17 16 18 5 19 6 20 14 21 15 22 3 23
REMARK SMILES IDX 4 24 2 25 1 26 7 27 8 28 12 29 9 30 11 31 13 32 10 33 32 34
REMARK SMILES IDX 33 35 34 36 35 37 36 39 37 40 38 41 102 42 39 43 101 44
REMARK SMILES IDX 40 45 41 46 42 47 95 48 43 49 100 50 94 51 96 52 44 53 99 54
REMARK SMILES IDX 93 55 92 56 45 58 79 59 58 60 78 61 59 62 62 63 77 64 97 65
REMARK SMILES IDX 60 66 61 67 76 69 98 70 63 71 46 72 47 73 56 74 48 75 49 76
REMARK SMILES IDX 55 77 57 78 50 79 51 80 52 81 53 82 54 83 80 84 81 85 90 86
REMARK SMILES IDX 82 87 83 88 89 89 91 90 84 91 85 92 86 93 87 94 88 95 64 96
REMARK SMILES IDX 65 97 74 98 66 99 67 100 73 101 75 102 68 103 69 104 70 105
REMARK SMILES IDX 71 106 72 107
REMARK H PARENT 29 6 17 16 34 38 96 57 62 68
REMARK Flexibility Score: inf
ROOT
ATOM      1  C   UNL A   1      42.601  27.819  25.780  1.00  0.00     0.023 C 
ENDROOT
BRANCH   1   2
ATOM      2  C   UNL A   1      43.974  28.189  26.333  1.00  0.00     0.116 C 
BRANCH   2   3
ATOM      3  N   UNL A   1      44.923  28.509  25.283  1.00  0.00    -0.356 N 
ATOM      4  C   UNL A   1      46.179  28.034  25.039  1.00  0.00     0.224 C 
ATOM      5  O   UNL A   1      46.793  28.512  24.086  1.00  0.00    -0.275 OA
ATOM      6  H   UNL A   1      44.608  29.182  24.638  1.00  0.00     0.163 HD
BRANCH   4   7
ATOM      7  C   UNL A   1      46.746  26.913  25.902  1.00  0.00     0.094 C 
ATOM      8  C   UNL A   1      48.025  27.167  26.778  1.00  0.00     0.094 C 
ATOM      9  C   UNL A   1      48.883  25.932  26.383  1.00  0.00     0.002 C 
ATOM     10  C   UNL A   1      49.485  26.089  24.985  1.00  0.00     0.005 C 
ATOM     11  C   UNL A   1      47.826  24.844  26.143  1.00  0.00     0.009 C 
ATOM     12  C   UNL A   1      47.117  25.656  25.068  1.00  0.00     0.002 C 
ATOM     13  C   UNL A   1      48.275  25.877  24.078  1.00  0.00     0.005 C 
BRANCH   8  14
ATOM     14  C   UNL A   1      48.565  28.608  26.708  1.00  0.00     0.229 C 
ATOM     15  N   UNL A   1      48.225  29.618  27.556  1.00  0.00    -0.317 N 
ATOM     16  H   UNL A   1      48.863  30.368  27.560  1.00  0.00     0.170 HD
ATOM     17  O   UNL A   1      49.334  28.922  25.788  1.00  0.00    -0.274 OA
BRANCH  15  18
ATOM     18  C   UNL A   1      47.160  29.787  28.411  1.00  0.00     0.110 A 
ATOM     19  C   UNL A   1      46.151  30.741  28.332  1.00  0.00     0.102 A 
ATOM     20  C   UNL A   1      45.348  30.696  29.537  1.00  0.00     0.011 A 
ATOM     21  C   UNL A   1      45.634  29.583  30.304  1.00  0.00     0.076 A 
ATOM     22  S   UNL A   1      46.803  28.589  29.564  1.00  0.00    -0.125 S 
BRANCH  19  23
ATOM     23  C   UNL A   1      46.024  31.654  27.191  1.00  0.00     0.341 C 
ATOM     24  O   UNL A   1      45.860  31.261  26.047  1.00  0.00    -0.246 OA
BRANCH  23  25
ATOM     25  O   UNL A   1      46.023  32.970  27.554  1.00  0.00    -0.465 OA
ATOM     26  C   UNL A   1      44.934  33.745  27.048  1.00  0.00     0.282 C 
ENDBRANCH  23  25
ENDBRANCH  19  23
BRANCH  20  27
ATOM     27  C   UNL A   1      44.285  31.596  29.967  1.00  0.00     0.002 A 
ATOM     28  C   UNL A   1      44.583  32.563  30.939  1.00  0.00     0.010 A 
ATOM     29  C   UNL A   1      42.987  31.536  29.435  1.00  0.00     0.048 A 
ATOM     30  C   UNL A   1      43.603  33.459  31.369  1.00  0.00     0.001 A 
ATOM     31  C   UNL A   1      42.010  32.442  29.865  1.00  0.00     0.021 A 
ATOM     32  Cl  UNL A   1      42.529  30.367  28.246  1.00  0.00    -0.084 Cl
ATOM     33  C   UNL A   1      42.320  33.401  30.829  1.00  0.00     0.002 A 
ENDBRANCH  20  27
ENDBRANCH  15  18
ENDBRANCH   8  14
ENDBRANCH   4   7
ENDBRANCH   2   3
ENDBRANCH   1   2
BRANCH   1  34
ATOM     34  C   UNL A   1      42.500  26.423  25.162  1.00  0.00     0.023 C 
BRANCH  34  35
ATOM     35  C   UNL A   1      43.522  25.405  25.660  1.00  0.00     0.116 C 
BRANCH  35  36
ATOM     36  N   UNL A   1      42.913  24.223  26.253  1.00  0.00    -0.352 N 
ATOM     37  C   UNL A   1      42.289  24.086  27.469  1.00  0.00     0.251 C 
ATOM     38  H   UNL A   1      42.957  23.406  25.705  1.00  0.00     0.163 HD
ATOM     39  O   UNL A   1      41.937  22.975  27.855  1.00  0.00    -0.269 OA
BRANCH  37  40
ATOM     40  C   UNL A   1      42.072  25.273  28.327  1.00  0.00     0.039 A 
ATOM     41  C   UNL A   1      40.764  25.708  28.557  1.00  0.00     0.014 A 
ATOM     42  C   UNL A   1      43.148  25.943  28.915  1.00  0.00     0.014 A 
ATOM     43  C   UNL A   1      40.531  26.767  29.439  1.00  0.00     0.010 A 
ATOM     44  C   UNL A   1      42.910  26.954  29.844  1.00  0.00     0.010 A 
ATOM     45  C   UNL A   1      41.600  27.373  30.121  1.00  0.00    -0.014 A 
BRANCH  45  46
ATOM     46  C   UNL A   1      41.366  28.434  31.136  1.00  0.00     0.031 A 
ATOM     47  C   UNL A   1      42.168  28.453  32.409  1.00  0.00     0.074 A 
ATOM     48  C   UNL A   1      40.381  29.335  30.945  1.00  0.00     0.049 A 
ATOM     49  N   UNL A   1      42.049  29.240  33.448  1.00  0.00    -0.248 NA
ATOM     50  C   UNL A   1      43.224  27.437  32.545  1.00  0.00     0.031 C 
ATOM     51  C   UNL A   1      39.500  29.390  29.776  1.00  0.00     0.029 A 
ATOM     52  N   UNL A   1      39.943  30.367  31.736  1.00  0.00    -0.354 N 
ATOM     53  C   UNL A   1      43.000  28.806  34.364  1.00  0.00     0.074 A 
ATOM     54  C   UNL A   1      43.657  27.657  33.777  1.00  0.00     0.031 C 
ATOM     55  C   UNL A   1      38.640  30.411  29.921  1.00  0.00     0.029 A 
ATOM     56  C   UNL A   1      38.882  31.061  31.205  1.00  0.00     0.049 A 
ATOM     57  H   UNL A   1      40.353  30.591  32.604  1.00  0.00     0.167 HD
ATOM     58  C   UNL A   1      43.310  29.328  35.574  1.00  0.00     0.037 A 
ATOM     59  C   UNL A   1      38.176  32.097  31.700  1.00  0.00     0.037 A 
ATOM     60  C   UNL A   1      42.676  30.491  36.140  1.00  0.00     0.049 A 
ATOM     61  C   UNL A   1      38.549  32.667  33.040  1.00  0.00     0.074 A 
ATOM     62  C   UNL A   1      42.963  31.133  37.332  1.00  0.00     0.029 A 
ATOM     63  N   UNL A   1      41.629  31.187  35.555  1.00  0.00    -0.354 N 
ATOM     64  N   UNL A   1      39.492  32.282  33.866  1.00  0.00    -0.248 NA
ATOM     65  C   UNL A   1      37.768  33.818  33.516  1.00  0.00     0.031 C 
ATOM     66  C   UNL A   1      42.067  32.196  37.485  1.00  0.00     0.029 A 
ATOM     67  C   UNL A   1      41.250  32.243  36.366  1.00  0.00     0.049 A 
ATOM     68  H   UNL A   1      41.217  30.964  34.689  1.00  0.00     0.167 HD
ATOM     69  C   UNL A   1      39.437  33.158  34.943  1.00  0.00     0.074 A 
ATOM     70  C   UNL A   1      38.374  34.100  34.662  1.00  0.00     0.031 C 
ATOM     71  C   UNL A   1      40.199  33.181  36.065  1.00  0.00     0.037 A 
BRANCH  58  72
ATOM     72  C   UNL A   1      44.394  28.654  36.369  1.00  0.00     0.058 A 
ATOM     73  C   UNL A   1      45.720  29.115  36.342  1.00  0.00     0.135 A 
ATOM     74  C   UNL A   1      44.097  27.564  37.203  1.00  0.00     0.135 A 
ATOM     75  F   UNL A   1      46.062  30.143  35.550  1.00  0.00    -0.206 F 
ATOM     76  C   UNL A   1      46.717  28.504  37.095  1.00  0.00     0.059 A 
ATOM     77  C   UNL A   1      45.074  26.955  37.986  1.00  0.00     0.059 A 
ATOM     78  F   UNL A   1      42.845  27.083  37.267  1.00  0.00    -0.206 F 
ATOM     79  C   UNL A   1      46.385  27.425  37.915  1.00  0.00     0.060 A 
BRANCH  79  80
ATOM     80  S   UNL A   1      47.689  26.653  38.896  1.00  0.00     0.124 S 
ATOM     81  O   UNL A   1      47.323  25.243  38.809  1.00  0.00    -0.237 OA
ATOM     82  O   UNL A   1      48.895  27.040  38.173  1.00  0.00    -0.237 OA
ATOM     83  O   UNL A   1      47.529  27.262  40.213  1.00  0.00    -0.744 OA
ENDBRANCH  79  80
ENDBRANCH  58  72
BRANCH  59  84
ATOM     84  C   UNL A   1      37.053  32.677  30.914  1.00  0.00     0.058 A 
ATOM     85  C   UNL A   1      35.728  32.287  31.158  1.00  0.00     0.135 A 
ATOM     86  C   UNL A   1      37.281  33.629  29.908  1.00  0.00     0.135 A 
ATOM     87  F   UNL A   1      35.460  31.376  32.106  1.00  0.00    -0.206 F 
ATOM     88  C   UNL A   1      34.669  32.804  30.419  1.00  0.00     0.059 A 
ATOM     89  C   UNL A   1      36.235  34.178  29.172  1.00  0.00     0.059 A 
ATOM     90  F   UNL A   1      38.528  34.046  29.648  1.00  0.00    -0.206 F 
ATOM     91  C   UNL A   1      34.932  33.750  29.427  1.00  0.00     0.060 A 
BRANCH  91  92
ATOM     92  S   UNL A   1      33.547  34.442  28.498  1.00  0.00     0.124 S 
ATOM     93  O   UNL A   1      34.207  35.484  27.721  1.00  0.00    -0.237 OA
ATOM     94  O   UNL A   1      33.074  33.285  27.743  1.00  0.00    -0.237 OA
ATOM     95  O   UNL A   1      32.643  34.909  29.545  1.00  0.00    -0.744 OA
ENDBRANCH  91  92
ENDBRANCH  59  84
BRANCH  71  96
ATOM     96  C   UNL A   1      39.942  34.283  37.055  1.00  0.00     0.058 A 
ATOM     97  C   UNL A   1      39.048  34.122  38.123  1.00  0.00     0.135 A 
ATOM     98  C   UNL A   1      40.643  35.497  36.963  1.00  0.00     0.135 A 
ATOM     99  F   UNL A   1      38.348  32.983  38.252  1.00  0.00    -0.206 F 
ATOM    100  C   UNL A   1      38.842  35.133  39.057  1.00  0.00     0.059 A 
ATOM    101  C   UNL A   1      40.472  36.512  37.899  1.00  0.00     0.059 A 
ATOM    102  F   UNL A   1      41.517  35.698  35.965  1.00  0.00    -0.206 F 
ATOM    103  C   UNL A   1      39.561  36.324  38.937  1.00  0.00     0.060 A 
BRANCH 103 104
ATOM    104  S   UNL A   1      39.316  37.613  40.176  1.00  0.00     0.124 S 
ATOM    105  O   UNL A   1      38.955  36.827  41.352  1.00  0.00    -0.237 OA
ATOM    106  O   UNL A   1      40.625  38.259  40.223  1.00  0.00    -0.237 OA
ATOM    107  O   UNL A   1      38.244  38.427  39.613  1.00  0.00    -0.744 OA
ENDBRANCH 103 104
ENDBRANCH  71  96
ENDBRANCH  45  46
ENDBRANCH  37  40
ENDBRANCH  35  36
ENDBRANCH  34  35
ENDBRANCH   1  34
TORSDOF 19
ENDMDL
