MODEL 1
REMARK VINA RESULT:     -10.5      0.000      0.000
REMARK SMILES CC(=O)Nc1ccc(/N=C2\C(=O)N(c3ccc(NC(C)=O)cc3)[C@H](c3ccccc3)[C@H]2CC(=O)NCCCCNC(=O)c2ccc(-c3c4nc(c(-c5c(F)cc(S(=O)(=O)[O-])cc5F)c5ccc([nH]5)c(-c5c(F)cc(S(=O)(=O)[O-])cc5F)c5nc(c(-c6c(F)cc(S(=O)(=O)[O-])cc6F)c6ccc3[nH]6)C=C5)C=C4)cc2)cc1
REMARK SMILES IDX 37 1 36 2 35 3 33 4 34 5 32 7 31 8 9 9 10 10 11 11 12 12
REMARK SMILES IDX 13 13 24 14 8 15 5 16 6 17 110 18 7 19 109 20 4 21 1 22 2 23
REMARK SMILES IDX 3 24 14 26 15 27 23 28 16 29 22 30 17 31 18 32 19 33 20 35
REMARK SMILES IDX 21 36 25 37 26 38 30 39 27 40 29 41 28 42 38 43 39 44 40 45
REMARK SMILES IDX 41 46 42 48 43 49 44 50 108 51 45 52 107 53 46 54 47 55
REMARK SMILES IDX 48 56 101 57 49 58 106 59 100 60 102 61 50 62 105 63 99 64
REMARK SMILES IDX 98 65 51 67 85 68 64 69 84 70 65 71 68 72 83 73 103 74 66 75
REMARK SMILES IDX 67 76 82 78 104 79 69 80 52 81 53 82 62 83 54 84 55 85 61 86
REMARK SMILES IDX 63 87 56 88 57 89 58 90 59 91 60 92 86 93 87 94 96 95 88 96
REMARK SMILES IDX 89 97 95 98 97 99 90 100 91 101 92 102 93 103 94 104 70 105
REMARK SMILES IDX 71 106 80 107 72 108 73 109 79 110 81 111 74 112 75 113
REMARK SMILES IDX 76 114 77 115 78 116
REMARK H PARENT 35 6 4 25 18 34 40 47 102 66 68 77
REMARK Flexibility Score: inf
ROOT
ATOM      1  C   UNL A   1      41.997  21.744  26.762  1.00  0.00     0.023 C 
ENDROOT
BRANCH   1   2
ATOM      2  C   UNL A   1      43.316  22.381  27.195  1.00  0.00     0.116 C 
BRANCH   2   3
ATOM      3  N   UNL A   1      44.456  21.865  26.448  1.00  0.00    -0.356 N 
ATOM      4  C   UNL A   1      45.513  22.519  25.897  1.00  0.00     0.220 C 
ATOM      5  O   UNL A   1      46.397  21.872  25.333  1.00  0.00    -0.275 OA
ATOM      6  H   UNL A   1      44.460  20.889  26.321  1.00  0.00     0.163 HD
BRANCH   4   7
ATOM      7  C   UNL A   1      45.596  24.026  25.957  1.00  0.00     0.112 C 
BRANCH   7   8
ATOM      8  C   UNL A   1      46.141  24.449  27.331  1.00  0.00     0.081 C 
ATOM      9  N   UNL A   1      48.576  24.652  27.159  1.00  0.00    -0.247 NA
ATOM     10  C   UNL A   1      47.408  25.216  27.116  1.00  0.00     0.112 C 
ATOM     11  C   UNL A   1      47.052  26.669  26.959  1.00  0.00     0.273 C 
ATOM     12  O   UNL A   1      47.706  27.455  26.306  1.00  0.00    -0.267 OA
ATOM     13  N   UNL A   1      45.895  26.837  27.707  1.00  0.00    -0.299 N 
ATOM     14  C   UNL A   1      45.289  25.541  28.044  1.00  0.00     0.131 C 
BRANCH   9  15
ATOM     15  C   UNL A   1      49.765  25.377  26.965  1.00  0.00     0.064 A 
ATOM     16  C   UNL A   1      52.236  26.737  26.748  1.00  0.00     0.041 A 
ATOM     17  C   UNL A   1      51.634  26.553  27.992  1.00  0.00     0.028 A 
ATOM     18  C   UNL A   1      51.544  26.336  25.607  1.00  0.00     0.028 A 
ATOM     19  C   UNL A   1      50.419  25.871  28.095  1.00  0.00     0.030 A 
ATOM     20  C   UNL A   1      50.304  25.687  25.716  1.00  0.00     0.030 A 
BRANCH  16  21
ATOM     21  N   UNL A   1      53.489  27.368  26.735  1.00  0.00    -0.326 N 
ATOM     22  C   UNL A   1      54.780  25.884  28.264  1.00  0.00     0.114 C 
ATOM     23  C   UNL A   1      54.691  27.010  27.273  1.00  0.00     0.221 C 
ATOM     24  O   UNL A   1      55.697  27.662  26.980  1.00  0.00    -0.275 OA
ATOM     25  H   UNL A   1      53.504  28.226  26.252  1.00  0.00     0.169 HD
ENDBRANCH  16  21
ENDBRANCH   9  15
BRANCH  13  26
ATOM     26  C   UNL A   1      45.382  28.122  28.042  1.00  0.00     0.045 A 
ATOM     27  C   UNL A   1      44.599  28.836  27.124  1.00  0.00     0.028 A 
ATOM     28  C   UNL A   1      45.740  28.781  29.220  1.00  0.00     0.028 A 
ATOM     29  C   UNL A   1      44.248  30.177  27.335  1.00  0.00     0.028 A 
ATOM     30  C   UNL A   1      45.421  30.134  29.418  1.00  0.00     0.028 A 
ATOM     31  C   UNL A   1      44.697  30.851  28.464  1.00  0.00     0.041 A 
BRANCH  31  32
ATOM     32  N   UNL A   1      44.531  32.235  28.675  1.00  0.00    -0.326 N 
ATOM     33  C   UNL A   1      43.431  32.869  29.223  1.00  0.00     0.221 C 
ATOM     34  H   UNL A   1      45.279  32.813  28.403  1.00  0.00     0.169 HD
ATOM     35  C   UNL A   1      43.498  34.371  29.091  1.00  0.00     0.114 C 
ATOM     36  O   UNL A   1      42.479  32.340  29.786  1.00  0.00    -0.275 OA
ENDBRANCH  31  32
ENDBRANCH  13  26
BRANCH  14  37
ATOM     37  C   UNL A   1      45.121  25.221  29.520  1.00  0.00    -0.024 A 
ATOM     38  C   UNL A   1      44.032  24.425  29.928  1.00  0.00     0.006 A 
ATOM     39  C   UNL A   1      46.022  25.672  30.497  1.00  0.00     0.006 A 
ATOM     40  C   UNL A   1      43.837  24.109  31.273  1.00  0.00     0.000 A 
ATOM     41  C   UNL A   1      45.832  25.340  31.841  1.00  0.00     0.000 A 
ATOM     42  C   UNL A   1      44.739  24.566  32.230  1.00  0.00     0.000 A 
ENDBRANCH  14  37
ENDBRANCH   7   8
ENDBRANCH   4   7
ENDBRANCH   2   3
ENDBRANCH   1   2
BRANCH   1  43
ATOM     43  C   UNL A   1      40.790  22.120  27.629  1.00  0.00     0.023 C 
BRANCH  43  44
ATOM     44  C   UNL A   1      39.834  23.154  27.033  1.00  0.00     0.116 C 
BRANCH  44  45
ATOM     45  N   UNL A   1      40.488  24.061  26.103  1.00  0.00    -0.352 N 
ATOM     46  C   UNL A   1      40.849  25.382  26.212  1.00  0.00     0.251 C 
ATOM     47  H   UNL A   1      40.714  23.652  25.235  1.00  0.00     0.163 HD
ATOM     48  O   UNL A   1      41.255  25.960  25.204  1.00  0.00    -0.269 OA
BRANCH  46  49
ATOM     49  C   UNL A   1      40.736  26.144  27.481  1.00  0.00     0.039 A 
ATOM     50  C   UNL A   1      41.783  27.013  27.819  1.00  0.00     0.014 A 
ATOM     51  C   UNL A   1      39.676  25.977  28.375  1.00  0.00     0.014 A 
ATOM     52  C   UNL A   1      41.732  27.763  28.999  1.00  0.00     0.010 A 
ATOM     53  C   UNL A   1      39.600  26.762  29.529  1.00  0.00     0.010 A 
ATOM     54  C   UNL A   1      40.617  27.677  29.845  1.00  0.00    -0.014 A 
BRANCH  54  55
ATOM     55  C   UNL A   1      40.486  28.537  31.050  1.00  0.00     0.031 A 
ATOM     56  C   UNL A   1      39.393  29.561  31.139  1.00  0.00     0.074 A 
ATOM     57  C   UNL A   1      41.395  28.467  32.042  1.00  0.00     0.049 A 
ATOM     58  N   UNL A   1      39.313  30.606  31.919  1.00  0.00    -0.248 NA
ATOM     59  C   UNL A   1      38.263  29.408  30.211  1.00  0.00     0.031 C 
ATOM     60  C   UNL A   1      42.530  27.546  32.099  1.00  0.00     0.029 A 
ATOM     61  N   UNL A   1      41.508  29.207  33.194  1.00  0.00    -0.354 N 
ATOM     62  C   UNL A   1      38.191  31.304  31.498  1.00  0.00     0.074 A 
ATOM     63  C   UNL A   1      37.567  30.512  30.457  1.00  0.00     0.031 C 
ATOM     64  C   UNL A   1      43.214  27.760  33.236  1.00  0.00     0.029 A 
ATOM     65  C   UNL A   1      42.587  28.857  33.968  1.00  0.00     0.049 A 
ATOM     66  H   UNL A   1      40.877  29.920  33.440  1.00  0.00     0.167 HD
ATOM     67  C   UNL A   1      37.765  32.525  31.902  1.00  0.00     0.037 A 
ATOM     68  C   UNL A   1      43.036  29.373  35.127  1.00  0.00     0.037 A 
ATOM     69  C   UNL A   1      38.363  33.276  32.974  1.00  0.00     0.049 A 
ATOM     70  C   UNL A   1      42.336  30.546  35.741  1.00  0.00     0.074 A 
ATOM     71  C   UNL A   1      38.162  34.593  33.348  1.00  0.00     0.029 A 
ATOM     72  N   UNL A   1      39.244  32.732  33.894  1.00  0.00    -0.354 N 
ATOM     73  N   UNL A   1      41.403  31.302  35.219  1.00  0.00    -0.248 NA
ATOM     74  C   UNL A   1      42.745  30.938  37.097  1.00  0.00     0.031 C 
ATOM     75  C   UNL A   1      38.884  34.829  34.530  1.00  0.00     0.029 A 
ATOM     76  C   UNL A   1      39.533  33.658  34.882  1.00  0.00     0.049 A 
ATOM     77  H   UNL A   1      39.612  31.821  33.851  1.00  0.00     0.167 HD
ATOM     78  C   UNL A   1      41.146  32.290  36.159  1.00  0.00     0.074 A 
ATOM     79  C   UNL A   1      41.982  32.004  37.309  1.00  0.00     0.031 C 
ATOM     80  C   UNL A   1      40.325  33.362  36.048  1.00  0.00     0.037 A 
BRANCH  67  81
ATOM     81  C   UNL A   1      36.657  33.140  31.109  1.00  0.00     0.058 A 
ATOM     82  C   UNL A   1      36.881  33.733  29.860  1.00  0.00     0.135 A 
ATOM     83  C   UNL A   1      35.357  33.176  31.639  1.00  0.00     0.135 A 
ATOM     84  F   UNL A   1      38.113  33.741  29.327  1.00  0.00    -0.206 F 
ATOM     85  C   UNL A   1      35.854  34.371  29.168  1.00  0.00     0.059 A 
ATOM     86  C   UNL A   1      34.317  33.804  30.965  1.00  0.00     0.059 A 
ATOM     87  F   UNL A   1      35.100  32.631  32.837  1.00  0.00    -0.206 F 
ATOM     88  C   UNL A   1      34.580  34.414  29.737  1.00  0.00     0.060 A 
BRANCH  88  89
ATOM     89  S   UNL A   1      33.234  35.290  28.911  1.00  0.00     0.124 S 
ATOM     90  O   UNL A   1      33.969  36.286  28.137  1.00  0.00    -0.237 OA
ATOM     91  O   UNL A   1      32.581  34.245  28.130  1.00  0.00    -0.237 OA
ATOM     92  O   UNL A   1      32.458  35.806  30.034  1.00  0.00    -0.744 OA
ENDBRANCH  88  89
ENDBRANCH  67  81
BRANCH  68  93
ATOM     93  C   UNL A   1      44.226  28.774  35.769  1.00  0.00     0.058 A 
ATOM     94  C   UNL A   1      45.505  29.293  35.526  1.00  0.00     0.135 A 
ATOM     95  C   UNL A   1      44.097  27.730  36.693  1.00  0.00     0.135 A 
ATOM     96  F   UNL A   1      45.668  30.294  34.647  1.00  0.00    -0.206 F 
ATOM     97  C   UNL A   1      46.624  28.804  36.191  1.00  0.00     0.059 A 
ATOM     98  C   UNL A   1      45.199  27.228  37.375  1.00  0.00     0.059 A 
ATOM     99  F   UNL A   1      42.887  27.217  36.961  1.00  0.00    -0.206 F 
ATOM    100  C   UNL A   1      46.459  27.774  37.119  1.00  0.00     0.060 A 
BRANCH 100 101
ATOM    101  S   UNL A   1      47.876  27.191  38.077  1.00  0.00     0.124 S 
ATOM    102  O   UNL A   1      48.373  26.110  37.236  1.00  0.00    -0.237 OA
ATOM    103  O   UNL A   1      48.727  28.375  38.159  1.00  0.00    -0.237 OA
ATOM    104  O   UNL A   1      47.258  26.788  39.337  1.00  0.00    -0.744 OA
ENDBRANCH 100 101
ENDBRANCH  68  93
BRANCH  80 105
ATOM    105  C   UNL A   1      40.290  34.313  37.202  1.00  0.00     0.058 A 
ATOM    106  C   UNL A   1      39.336  34.171  38.220  1.00  0.00     0.135 A 
ATOM    107  C   UNL A   1      41.201  35.374  37.290  1.00  0.00     0.135 A 
ATOM    108  F   UNL A   1      38.441  33.171  38.174  1.00  0.00    -0.206 F 
ATOM    109  C   UNL A   1      39.278  35.060  39.289  1.00  0.00     0.059 A 
ATOM    110  C   UNL A   1      41.161  36.277  38.350  1.00  0.00     0.059 A 
ATOM    111  F   UNL A   1      42.123  35.555  36.332  1.00  0.00    -0.206 F 
ATOM    112  C   UNL A   1      40.188  36.117  39.338  1.00  0.00     0.060 A 
BRANCH 112 113
ATOM    113  S   UNL A   1      40.122  37.276  40.723  1.00  0.00     0.124 S 
ATOM    114  O   UNL A   1      41.358  36.956  41.431  1.00  0.00    -0.237 OA
ATOM    115  O   UNL A   1      40.092  38.576  40.059  1.00  0.00    -0.237 OA
ATOM    116  O   UNL A   1      38.887  36.902  41.407  1.00  0.00    -0.744 OA
ENDBRANCH 112 113
ENDBRANCH  80 105
ENDBRANCH  54  55
ENDBRANCH  46  49
ENDBRANCH  44  45
ENDBRANCH  43  44
ENDBRANCH   1  43
TORSDOF 20
ENDMDL
MODEL 2
REMARK VINA RESULT:     -10.4      0.970      7.596
REMARK SMILES CC(=O)Nc1ccc(/N=C2\C(=O)N(c3ccc(NC(C)=O)cc3)[C@H](c3ccccc3)[C@H]2CC(=O)NCCCCNC(=O)c2ccc(-c3c4nc(c(-c5c(F)cc(S(=O)(=O)[O-])cc5F)c5ccc([nH]5)c(-c5c(F)cc(S(=O)(=O)[O-])cc5F)c5nc(c(-c6c(F)cc(S(=O)(=O)[O-])cc6F)c6ccc3[nH]6)C=C5)C=C4)cc2)cc1
REMARK SMILES IDX 37 1 36 2 35 3 33 4 34 5 32 7 31 8 9 9 10 10 11 11 12 12
REMARK SMILES IDX 13 13 24 14 8 15 5 16 6 17 110 18 7 19 109 20 4 21 1 22 2 23
REMARK SMILES IDX 3 24 14 26 15 27 23 28 16 29 22 30 17 31 18 32 19 33 20 35
REMARK SMILES IDX 21 36 25 37 26 38 30 39 27 40 29 41 28 42 38 43 39 44 40 45
REMARK SMILES IDX 41 46 42 48 43 49 44 50 108 51 45 52 107 53 46 54 47 55
REMARK SMILES IDX 48 56 101 57 49 58 106 59 100 60 102 61 50 62 105 63 99 64
REMARK SMILES IDX 98 65 51 67 85 68 64 69 84 70 65 71 68 72 83 73 103 74 66 75
REMARK SMILES IDX 67 76 82 78 104 79 69 80 52 81 53 82 62 83 54 84 55 85 61 86
REMARK SMILES IDX 63 87 56 88 57 89 58 90 59 91 60 92 86 93 87 94 96 95 88 96
REMARK SMILES IDX 89 97 95 98 97 99 90 100 91 101 92 102 93 103 94 104 70 105
REMARK SMILES IDX 71 106 80 107 72 108 73 109 79 110 81 111 74 112 75 113
REMARK SMILES IDX 76 114 77 115 78 116
REMARK H PARENT 35 6 4 25 18 34 40 47 102 66 68 77
REMARK Flexibility Score: inf
ROOT
ATOM      1  C   UNL A   1      42.355  21.731  27.505  1.00  0.00     0.023 C 
ENDROOT
BRANCH   1   2
ATOM      2  C   UNL A   1      43.601  22.582  27.740  1.00  0.00     0.116 C 
BRANCH   2   3
ATOM      3  N   UNL A   1      44.711  22.195  26.879  1.00  0.00    -0.356 N 
ATOM      4  C   UNL A   1      45.699  22.950  26.329  1.00  0.00     0.220 C 
ATOM      5  O   UNL A   1      46.573  22.403  25.653  1.00  0.00    -0.275 OA
ATOM      6  H   UNL A   1      44.751  21.237  26.660  1.00  0.00     0.163 HD
BRANCH   4   7
ATOM      7  C   UNL A   1      45.719  24.448  26.527  1.00  0.00     0.112 C 
BRANCH   7   8
ATOM      8  C   UNL A   1      46.388  24.773  27.872  1.00  0.00     0.081 C 
ATOM      9  N   UNL A   1      48.815  24.643  27.570  1.00  0.00    -0.247 NA
ATOM     10  C   UNL A   1      47.736  25.362  27.593  1.00  0.00     0.112 C 
ATOM     11  C   UNL A   1      47.575  26.852  27.466  1.00  0.00     0.273 C 
ATOM     12  O   UNL A   1      48.295  27.550  26.784  1.00  0.00    -0.267 OA
ATOM     13  N   UNL A   1      46.492  27.166  28.276  1.00  0.00    -0.299 N 
ATOM     14  C   UNL A   1      45.733  25.961  28.637  1.00  0.00     0.131 C 
BRANCH   9  15
ATOM     15  C   UNL A   1      50.081  25.202  27.317  1.00  0.00     0.064 A 
ATOM     16  C   UNL A   1      52.694  26.234  26.989  1.00  0.00     0.041 A 
ATOM     17  C   UNL A   1      52.080  26.240  28.241  1.00  0.00     0.028 A 
ATOM     18  C   UNL A   1      51.954  25.812  25.886  1.00  0.00     0.028 A 
ATOM     19  C   UNL A   1      50.794  25.719  28.399  1.00  0.00     0.030 A 
ATOM     20  C   UNL A   1      50.647  25.328  26.048  1.00  0.00     0.030 A 
BRANCH  16  21
ATOM     21  N   UNL A   1      54.013  26.709  26.926  1.00  0.00    -0.326 N 
ATOM     22  C   UNL A   1      53.637  29.043  26.141  1.00  0.00     0.114 C 
ATOM     23  C   UNL A   1      54.519  27.951  26.677  1.00  0.00     0.221 C 
ATOM     24  O   UNL A   1      55.726  28.151  26.842  1.00  0.00    -0.275 OA
ATOM     25  H   UNL A   1      54.698  26.020  27.089  1.00  0.00     0.169 HD
ENDBRANCH  16  21
ENDBRANCH   9  15
BRANCH  13  26
ATOM     26  C   UNL A   1      46.179  28.504  28.647  1.00  0.00     0.045 A 
ATOM     27  C   UNL A   1      45.262  29.253  27.898  1.00  0.00     0.028 A 
ATOM     28  C   UNL A   1      46.858  29.171  29.670  1.00  0.00     0.028 A 
ATOM     29  C   UNL A   1      45.080  30.628  28.107  1.00  0.00     0.028 A 
ATOM     30  C   UNL A   1      46.705  30.554  29.859  1.00  0.00     0.028 A 
ATOM     31  C   UNL A   1      45.837  31.299  29.061  1.00  0.00     0.041 A 
BRANCH  31  32
ATOM     32  N   UNL A   1      45.837  32.698  29.225  1.00  0.00    -0.326 N 
ATOM     33  C   UNL A   1      45.198  33.423  30.214  1.00  0.00     0.221 C 
ATOM     34  H   UNL A   1      46.349  33.217  28.564  1.00  0.00     0.169 HD
ATOM     35  C   UNL A   1      45.223  34.910  29.957  1.00  0.00     0.114 C 
ATOM     36  O   UNL A   1      44.665  32.979  31.226  1.00  0.00    -0.275 OA
ENDBRANCH  31  32
ENDBRANCH  13  26
BRANCH  14  37
ATOM     37  C   UNL A   1      45.601  25.646  30.118  1.00  0.00    -0.024 A 
ATOM     38  C   UNL A   1      44.444  24.985  30.576  1.00  0.00     0.006 A 
ATOM     39  C   UNL A   1      46.598  25.971  31.051  1.00  0.00     0.006 A 
ATOM     40  C   UNL A   1      44.279  24.679  31.928  1.00  0.00     0.000 A 
ATOM     41  C   UNL A   1      46.435  25.648  32.400  1.00  0.00     0.000 A 
ATOM     42  C   UNL A   1      45.276  25.010  32.840  1.00  0.00     0.000 A 
ENDBRANCH  14  37
ENDBRANCH   7   8
ENDBRANCH   4   7
ENDBRANCH   2   3
ENDBRANCH   1   2
BRANCH   1  43
ATOM     43  C   UNL A   1      41.063  22.309  28.094  1.00  0.00     0.023 C 
BRANCH  43  44
ATOM     44  C   UNL A   1      40.237  23.189  27.155  1.00  0.00     0.116 C 
BRANCH  44  45
ATOM     45  N   UNL A   1      41.038  23.825  26.121  1.00  0.00    -0.352 N 
ATOM     46  C   UNL A   1      41.557  25.093  26.014  1.00  0.00     0.251 C 
ATOM     47  H   UNL A   1      41.246  23.239  25.357  1.00  0.00     0.163 HD
ATOM     48  O   UNL A   1      42.074  25.422  24.947  1.00  0.00    -0.269 OA
BRANCH  46  49
ATOM     49  C   UNL A   1      41.488  26.085  27.115  1.00  0.00     0.039 A 
ATOM     50  C   UNL A   1      42.245  27.258  26.989  1.00  0.00     0.014 A 
ATOM     51  C   UNL A   1      40.765  25.866  28.290  1.00  0.00     0.014 A 
ATOM     52  C   UNL A   1      42.217  28.234  27.990  1.00  0.00     0.010 A 
ATOM     53  C   UNL A   1      40.697  26.863  29.269  1.00  0.00     0.010 A 
ATOM     54  C   UNL A   1      41.407  28.064  29.122  1.00  0.00    -0.014 A 
BRANCH  54  55
ATOM     55  C   UNL A   1      41.276  29.128  30.152  1.00  0.00     0.031 A 
ATOM     56  C   UNL A   1      42.256  29.215  31.285  1.00  0.00     0.074 A 
ATOM     57  C   UNL A   1      40.229  29.976  30.129  1.00  0.00     0.049 A 
ATOM     58  N   UNL A   1      42.126  29.828  32.432  1.00  0.00    -0.248 NA
ATOM     59  C   UNL A   1      43.527  28.496  31.120  1.00  0.00     0.031 C 
ATOM     60  C   UNL A   1      39.177  30.010  29.113  1.00  0.00     0.029 A 
ATOM     61  N   UNL A   1      39.876  30.972  31.007  1.00  0.00    -0.354 N 
ATOM     62  C   UNL A   1      43.242  29.472  33.176  1.00  0.00     0.074 A 
ATOM     63  C   UNL A   1      44.085  28.667  32.313  1.00  0.00     0.031 C 
ATOM     64  C   UNL A   1      38.307  30.989  29.413  1.00  0.00     0.029 A 
ATOM     65  C   UNL A   1      38.720  31.626  30.659  1.00  0.00     0.049 A 
ATOM     66  H   UNL A   1      40.402  31.195  31.809  1.00  0.00     0.167 HD
ATOM     67  C   UNL A   1      43.499  29.741  34.479  1.00  0.00     0.037 A 
ATOM     68  C   UNL A   1      38.053  32.615  31.285  1.00  0.00     0.037 A 
ATOM     69  C   UNL A   1      42.680  30.586  35.306  1.00  0.00     0.049 A 
ATOM     70  C   UNL A   1      38.551  33.135  32.597  1.00  0.00     0.074 A 
ATOM     71  C   UNL A   1      42.714  30.777  36.677  1.00  0.00     0.029 A 
ATOM     72  N   UNL A   1      41.711  31.441  34.810  1.00  0.00    -0.354 N 
ATOM     73  N   UNL A   1      39.491  32.644  33.364  1.00  0.00    -0.248 NA
ATOM     74  C   UNL A   1      37.902  34.341  33.131  1.00  0.00     0.031 C 
ATOM     75  C   UNL A   1      41.796  31.791  37.000  1.00  0.00     0.029 A 
ATOM     76  C   UNL A   1      41.196  32.222  35.830  1.00  0.00     0.049 A 
ATOM     77  H   UNL A   1      41.429  31.486  33.868  1.00  0.00     0.167 HD
ATOM     78  C   UNL A   1      39.516  33.448  34.496  1.00  0.00     0.074 A 
ATOM     79  C   UNL A   1      38.534  34.494  34.289  1.00  0.00     0.031 C 
ATOM     80  C   UNL A   1      40.255  33.293  35.620  1.00  0.00     0.037 A 
BRANCH  67  81
ATOM     81  C   UNL A   1      44.666  29.031  35.086  1.00  0.00     0.058 A 
ATOM     82  C   UNL A   1      44.572  27.712  35.548  1.00  0.00     0.135 A 
ATOM     83  C   UNL A   1      45.885  29.709  35.252  1.00  0.00     0.135 A 
ATOM     84  F   UNL A   1      43.419  27.036  35.430  1.00  0.00    -0.206 F 
ATOM     85  C   UNL A   1      45.645  27.090  36.183  1.00  0.00     0.059 A 
ATOM     86  C   UNL A   1      46.968  29.107  35.880  1.00  0.00     0.059 A 
ATOM     87  F   UNL A   1      46.015  30.977  34.836  1.00  0.00    -0.206 F 
ATOM     88  C   UNL A   1      46.833  27.803  36.358  1.00  0.00     0.060 A 
BRANCH  88  89
ATOM     89  S   UNL A   1      48.226  27.064  37.237  1.00  0.00     0.124 S 
ATOM     90  O   UNL A   1      49.337  27.879  36.755  1.00  0.00    -0.237 OA
ATOM     91  O   UNL A   1      47.875  27.246  38.641  1.00  0.00    -0.237 OA
ATOM     92  O   UNL A   1      48.201  25.684  36.762  1.00  0.00    -0.744 OA
ENDBRANCH  88  89
ENDBRANCH  67  81
BRANCH  68  93
ATOM     93  C   UNL A   1      36.828  33.162  30.662  1.00  0.00     0.058 A 
ATOM     94  C   UNL A   1      35.563  32.842  31.175  1.00  0.00     0.135 A 
ATOM     95  C   UNL A   1      36.905  34.072  29.601  1.00  0.00     0.135 A 
ATOM     96  F   UNL A   1      35.451  31.975  32.192  1.00  0.00    -0.206 F 
ATOM     97  C   UNL A   1      34.407  33.420  30.662  1.00  0.00     0.059 A 
ATOM     98  C   UNL A   1      35.763  34.666  29.075  1.00  0.00     0.059 A 
ATOM     99  F   UNL A   1      38.099  34.412  29.093  1.00  0.00    -0.206 F 
ATOM    100  C   UNL A   1      34.519  34.336  29.616  1.00  0.00     0.060 A 
BRANCH 100 101
ATOM    101  S   UNL A   1      33.046  35.184  29.001  1.00  0.00     0.124 S 
ATOM    102  O   UNL A   1      32.264  35.336  30.221  1.00  0.00    -0.237 OA
ATOM    103  O   UNL A   1      33.589  36.417  28.436  1.00  0.00    -0.237 OA
ATOM    104  O   UNL A   1      32.523  34.235  28.021  1.00  0.00    -0.744 OA
ENDBRANCH 100 101
ENDBRANCH  68  93
BRANCH  80 105
ATOM    105  C   UNL A   1      40.030  34.279  36.722  1.00  0.00     0.058 A 
ATOM    106  C   UNL A   1      40.813  35.439  36.817  1.00  0.00     0.135 A 
ATOM    107  C   UNL A   1      39.042  34.065  37.692  1.00  0.00     0.135 A 
ATOM    108  F   UNL A   1      41.774  35.682  35.912  1.00  0.00    -0.206 F 
ATOM    109  C   UNL A   1      40.629  36.355  37.848  1.00  0.00     0.059 A 
ATOM    110  C   UNL A   1      38.841  34.967  38.733  1.00  0.00     0.059 A 
ATOM    111  F   UNL A   1      38.279  32.962  37.646  1.00  0.00    -0.206 F 
ATOM    112  C   UNL A   1      39.648  36.104  38.808  1.00  0.00     0.060 A 
BRANCH 112 113
ATOM    113  S   UNL A   1      39.400  37.288  40.150  1.00  0.00     0.124 S 
ATOM    114  O   UNL A   1      38.847  36.433  41.195  1.00  0.00    -0.237 OA
ATOM    115  O   UNL A   1      40.749  37.792  40.394  1.00  0.00    -0.237 OA
ATOM    116  O   UNL A   1      38.474  38.256  39.569  1.00  0.00    -0.744 OA
ENDBRANCH 112 113
ENDBRANCH  80 105
ENDBRANCH  54  55
ENDBRANCH  46  49
ENDBRANCH  44  45
ENDBRANCH  43  44
ENDBRANCH   1  43
TORSDOF 20
ENDMDL
MODEL 3
REMARK VINA RESULT:     -10.3      2.007      7.844
REMARK SMILES CC(=O)Nc1ccc(/N=C2\C(=O)N(c3ccc(NC(C)=O)cc3)[C@H](c3ccccc3)[C@H]2CC(=O)NCCCCNC(=O)c2ccc(-c3c4nc(c(-c5c(F)cc(S(=O)(=O)[O-])cc5F)c5ccc([nH]5)c(-c5c(F)cc(S(=O)(=O)[O-])cc5F)c5nc(c(-c6c(F)cc(S(=O)(=O)[O-])cc6F)c6ccc3[nH]6)C=C5)C=C4)cc2)cc1
REMARK SMILES IDX 37 1 36 2 35 3 33 4 34 5 32 7 31 8 9 9 10 10 11 11 12 12
REMARK SMILES IDX 13 13 24 14 8 15 5 16 6 17 110 18 7 19 109 20 4 21 1 22 2 23
REMARK SMILES IDX 3 24 14 26 15 27 23 28 16 29 22 30 17 31 18 32 19 33 20 35
REMARK SMILES IDX 21 36 25 37 26 38 30 39 27 40 29 41 28 42 38 43 39 44 40 45
REMARK SMILES IDX 41 46 42 48 43 49 44 50 108 51 45 52 107 53 46 54 47 55
REMARK SMILES IDX 48 56 101 57 49 58 106 59 100 60 102 61 50 62 105 63 99 64
REMARK SMILES IDX 98 65 51 67 85 68 64 69 84 70 65 71 68 72 83 73 103 74 66 75
REMARK SMILES IDX 67 76 82 78 104 79 69 80 52 81 53 82 62 83 54 84 55 85 61 86
REMARK SMILES IDX 63 87 56 88 57 89 58 90 59 91 60 92 86 93 87 94 96 95 88 96
REMARK SMILES IDX 89 97 95 98 97 99 90 100 91 101 92 102 93 103 94 104 70 105
REMARK SMILES IDX 71 106 80 107 72 108 73 109 79 110 81 111 74 112 75 113
REMARK SMILES IDX 76 114 77 115 78 116
REMARK H PARENT 35 6 4 25 18 34 40 47 102 66 68 77
REMARK Flexibility Score: inf
ROOT
ATOM      1  C   UNL A   1      42.755  22.140  26.565  1.00  0.00     0.023 C 
ENDROOT
BRANCH   1   2
ATOM      2  C   UNL A   1      44.200  22.557  26.828  1.00  0.00     0.116 C 
BRANCH   2   3
ATOM      3  N   UNL A   1      45.042  22.429  25.646  1.00  0.00    -0.356 N 
ATOM      4  C   UNL A   1      45.548  23.384  24.821  1.00  0.00     0.220 C 
ATOM      5  O   UNL A   1      46.280  23.051  23.887  1.00  0.00    -0.275 OA
ATOM      6  H   UNL A   1      45.281  21.505  25.406  1.00  0.00     0.163 HD
BRANCH   4   7
ATOM      7  C   UNL A   1      45.203  24.839  25.033  1.00  0.00     0.112 C 
BRANCH   7   8
ATOM      8  C   UNL A   1      46.296  25.501  25.888  1.00  0.00     0.081 C 
ATOM      9  N   UNL A   1      48.225  25.953  24.449  1.00  0.00    -0.247 NA
ATOM     10  C   UNL A   1      47.126  26.370  24.996  1.00  0.00     0.112 C 
ATOM     11  C   UNL A   1      46.504  27.739  24.972  1.00  0.00     0.273 C 
ATOM     12  O   UNL A   1      46.590  28.500  24.032  1.00  0.00    -0.267 OA
ATOM     13  N   UNL A   1      45.884  27.874  26.207  1.00  0.00    -0.299 N 
ATOM     14  C   UNL A   1      45.762  26.574  26.883  1.00  0.00     0.131 C 
BRANCH   9  15
ATOM     15  C   UNL A   1      49.007  26.776  23.619  1.00  0.00     0.064 A 
ATOM     16  C   UNL A   1      50.752  28.355  22.049  1.00  0.00     0.041 A 
ATOM     17  C   UNL A   1      50.961  28.216  23.421  1.00  0.00     0.028 A 
ATOM     18  C   UNL A   1      49.607  27.792  21.489  1.00  0.00     0.028 A 
ATOM     19  C   UNL A   1      50.102  27.426  24.189  1.00  0.00     0.030 A 
ATOM     20  C   UNL A   1      48.727  27.034  22.276  1.00  0.00     0.030 A 
BRANCH  16  21
ATOM     21  N   UNL A   1      51.699  29.106  21.336  1.00  0.00    -0.326 N 
ATOM     22  C   UNL A   1      53.043  27.293  20.282  1.00  0.00     0.114 C 
ATOM     23  C   UNL A   1      52.666  28.738  20.447  1.00  0.00     0.221 C 
ATOM     24  O   UNL A   1      53.271  29.614  19.823  1.00  0.00    -0.275 OA
ATOM     25  H   UNL A   1      51.659  30.074  21.510  1.00  0.00     0.169 HD
ENDBRANCH  16  21
ENDBRANCH   9  15
BRANCH  13  26
ATOM     26  C   UNL A   1      45.411  29.125  26.692  1.00  0.00     0.045 A 
ATOM     27  C   UNL A   1      46.287  30.022  27.318  1.00  0.00     0.028 A 
ATOM     28  C   UNL A   1      44.054  29.458  26.692  1.00  0.00     0.028 A 
ATOM     29  C   UNL A   1      45.825  31.166  27.984  1.00  0.00     0.028 A 
ATOM     30  C   UNL A   1      43.585  30.583  27.389  1.00  0.00     0.028 A 
ATOM     31  C   UNL A   1      44.463  31.431  28.065  1.00  0.00     0.041 A 
BRANCH  31  32
ATOM     32  N   UNL A   1      43.904  32.461  28.847  1.00  0.00    -0.326 N 
ATOM     33  C   UNL A   1      42.858  32.353  29.746  1.00  0.00     0.221 C 
ATOM     34  H   UNL A   1      44.301  33.356  28.742  1.00  0.00     0.169 HD
ATOM     35  C   UNL A   1      42.371  33.694  30.237  1.00  0.00     0.114 C 
ATOM     36  O   UNL A   1      42.346  31.319  30.160  1.00  0.00    -0.275 OA
ENDBRANCH  31  32
ENDBRANCH  13  26
BRANCH  14  37
ATOM     37  C   UNL A   1      46.431  26.437  28.241  1.00  0.00    -0.024 A 
ATOM     38  C   UNL A   1      45.658  26.023  29.344  1.00  0.00     0.006 A 
ATOM     39  C   UNL A   1      47.797  26.688  28.438  1.00  0.00     0.006 A 
ATOM     40  C   UNL A   1      46.230  25.886  30.610  1.00  0.00     0.000 A 
ATOM     41  C   UNL A   1      48.368  26.534  29.704  1.00  0.00     0.000 A 
ATOM     42  C   UNL A   1      47.586  26.141  30.789  1.00  0.00     0.000 A 
ENDBRANCH  14  37
ENDBRANCH   7   8
ENDBRANCH   4   7
ENDBRANCH   2   3
ENDBRANCH   1   2
BRANCH   1  43
ATOM     43  C   UNL A   1      41.807  22.328  27.754  1.00  0.00     0.023 C 
BRANCH  43  44
ATOM     44  C   UNL A   1      40.366  21.863  27.541  1.00  0.00     0.116 C 
BRANCH  44  45
ATOM     45  N   UNL A   1      39.713  22.532  26.426  1.00  0.00    -0.352 N 
ATOM     46  C   UNL A   1      39.265  23.822  26.267  1.00  0.00     0.251 C 
ATOM     47  H   UNL A   1      39.565  21.955  25.643  1.00  0.00     0.163 HD
ATOM     48  O   UNL A   1      38.600  24.088  25.267  1.00  0.00    -0.269 OA
BRANCH  46  49
ATOM     49  C   UNL A   1      39.521  24.890  27.265  1.00  0.00     0.039 A 
ATOM     50  C   UNL A   1      40.439  25.895  26.928  1.00  0.00     0.014 A 
ATOM     51  C   UNL A   1      38.946  24.895  28.538  1.00  0.00     0.014 A 
ATOM     52  C   UNL A   1      40.718  26.933  27.823  1.00  0.00     0.010 A 
ATOM     53  C   UNL A   1      39.186  25.958  29.414  1.00  0.00     0.010 A 
ATOM     54  C   UNL A   1      40.060  26.998  29.060  1.00  0.00    -0.014 A 
BRANCH  54  55
ATOM     55  C   UNL A   1      40.258  28.142  29.987  1.00  0.00     0.031 A 
ATOM     56  C   UNL A   1      41.367  28.120  30.998  1.00  0.00     0.074 A 
ATOM     57  C   UNL A   1      39.394  29.176  29.991  1.00  0.00     0.049 A 
ATOM     58  N   UNL A   1      41.496  28.832  32.086  1.00  0.00    -0.248 NA
ATOM     59  C   UNL A   1      42.451  27.153  30.773  1.00  0.00     0.031 C 
ATOM     60  C   UNL A   1      38.251  29.339  29.092  1.00  0.00     0.029 A 
ATOM     61  N   UNL A   1      39.344  30.286  30.798  1.00  0.00    -0.354 N 
ATOM     62  C   UNL A   1      42.607  28.320  32.741  1.00  0.00     0.074 A 
ATOM     63  C   UNL A   1      43.172  27.302  31.878  1.00  0.00     0.031 C 
ATOM     64  C   UNL A   1      37.623  30.491  29.383  1.00  0.00     0.029 A 
ATOM     65  C   UNL A   1      38.297  31.128  30.511  1.00  0.00     0.049 A 
ATOM     66  H   UNL A   1      39.995  30.461  31.515  1.00  0.00     0.167 HD
ATOM     67  C   UNL A   1      43.066  28.632  33.976  1.00  0.00     0.037 A 
ATOM     68  C   UNL A   1      37.909  32.273  31.102  1.00  0.00     0.037 A 
ATOM     69  C   UNL A   1      42.528  29.683  34.797  1.00  0.00     0.049 A 
ATOM     70  C   UNL A   1      38.651  32.784  32.297  1.00  0.00     0.074 A 
ATOM     71  C   UNL A   1      42.763  29.969  36.132  1.00  0.00     0.029 A 
ATOM     72  N   UNL A   1      41.683  30.673  34.323  1.00  0.00    -0.354 N 
ATOM     73  N   UNL A   1      39.569  32.177  33.006  1.00  0.00    -0.248 NA
ATOM     74  C   UNL A   1      38.310  34.131  32.775  1.00  0.00     0.031 C 
ATOM     75  C   UNL A   1      42.099  31.166  36.448  1.00  0.00     0.029 A 
ATOM     76  C   UNL A   1      41.452  31.616  35.309  1.00  0.00     0.049 A 
ATOM     77  H   UNL A   1      41.302  30.701  33.417  1.00  0.00     0.167 HD
ATOM     78  C   UNL A   1      39.882  33.044  34.044  1.00  0.00     0.074 A 
ATOM     79  C   UNL A   1      39.096  34.245  33.839  1.00  0.00     0.031 C 
ATOM     80  C   UNL A   1      40.711  32.832  35.095  1.00  0.00     0.037 A 
BRANCH  67  81
ATOM     81  C   UNL A   1      44.144  27.754  34.526  1.00  0.00     0.058 A 
ATOM     82  C   UNL A   1      45.502  28.039  34.333  1.00  0.00     0.135 A 
ATOM     83  C   UNL A   1      43.803  26.579  35.214  1.00  0.00     0.135 A 
ATOM     84  F   UNL A   1      45.872  29.139  33.660  1.00  0.00    -0.206 F 
ATOM     85  C   UNL A   1      46.494  27.170  34.782  1.00  0.00     0.059 A 
ATOM     86  C   UNL A   1      44.775  25.699  35.674  1.00  0.00     0.059 A 
ATOM     87  F   UNL A   1      42.514  26.261  35.411  1.00  0.00    -0.206 F 
ATOM     88  C   UNL A   1      46.119  25.996  35.437  1.00  0.00     0.060 A 
BRANCH  88  89
ATOM     89  S   UNL A   1      47.365  24.806  35.976  1.00  0.00     0.124 S 
ATOM     90  O   UNL A   1      48.518  25.212  35.176  1.00  0.00    -0.237 OA
ATOM     91  O   UNL A   1      47.475  25.056  37.409  1.00  0.00    -0.237 OA
ATOM     92  O   UNL A   1      46.760  23.529  35.610  1.00  0.00    -0.744 OA
ENDBRANCH  88  89
ENDBRANCH  67  81
BRANCH  68  93
ATOM     93  C   UNL A   1      36.742  33.003  30.560  1.00  0.00     0.058 A 
ATOM     94  C   UNL A   1      35.494  32.923  31.193  1.00  0.00     0.135 A 
ATOM     95  C   UNL A   1      36.873  33.850  29.453  1.00  0.00     0.135 A 
ATOM     96  F   UNL A   1      35.331  32.122  32.257  1.00  0.00    -0.206 F 
ATOM     97  C   UNL A   1      34.409  33.674  30.754  1.00  0.00     0.059 A 
ATOM     98  C   UNL A   1      35.805  34.615  28.998  1.00  0.00     0.059 A 
ATOM     99  F   UNL A   1      38.055  33.962  28.830  1.00  0.00    -0.206 F 
ATOM    100  C   UNL A   1      34.577  34.522  29.658  1.00  0.00     0.060 A 
BRANCH 100 101
ATOM    101  S   UNL A   1      33.218  35.590  29.130  1.00  0.00     0.124 S 
ATOM    102  O   UNL A   1      33.929  36.620  28.383  1.00  0.00    -0.237 OA
ATOM    103  O   UNL A   1      32.384  34.691  28.337  1.00  0.00    -0.237 OA
ATOM    104  O   UNL A   1      32.637  36.010  30.402  1.00  0.00    -0.744 OA
ENDBRANCH 100 101
ENDBRANCH  68  93
BRANCH  80 105
ATOM    105  C   UNL A   1      40.811  33.925  36.111  1.00  0.00     0.058 A 
ATOM    106  C   UNL A   1      41.846  34.869  36.050  1.00  0.00     0.135 A 
ATOM    107  C   UNL A   1      39.881  34.028  37.154  1.00  0.00     0.135 A 
ATOM    108  F   UNL A   1      42.762  34.806  35.070  1.00  0.00    -0.206 F 
ATOM    109  C   UNL A   1      41.965  35.879  37.000  1.00  0.00     0.059 A 
ATOM    110  C   UNL A   1      39.980  35.029  38.117  1.00  0.00     0.059 A 
ATOM    111  F   UNL A   1      38.881  33.139  37.258  1.00  0.00    -0.206 F 
ATOM    112  C   UNL A   1      41.032  35.943  38.037  1.00  0.00     0.060 A 
BRANCH 112 113
ATOM    113  S   UNL A   1      41.176  37.250  39.275  1.00  0.00     0.124 S 
ATOM    114  O   UNL A   1      39.891  37.927  39.135  1.00  0.00    -0.237 OA
ATOM    115  O   UNL A   1      41.366  36.506  40.517  1.00  0.00    -0.237 OA
ATOM    116  O   UNL A   1      42.340  38.006  38.823  1.00  0.00    -0.744 OA
ENDBRANCH 112 113
ENDBRANCH  80 105
ENDBRANCH  54  55
ENDBRANCH  46  49
ENDBRANCH  44  45
ENDBRANCH  43  44
ENDBRANCH   1  43
TORSDOF 20
ENDMDL
