MODEL 1
REMARK VINA RESULT:      -8.4      0.000      0.000
REMARK SMILES C[C@@H](C(=O)NCCCCNC(=O)c1ccc(-c2c3nc(c(-c4c(F)cc(S(=O)(=O)[O-])cc4F)c4ccc([nH]4)c(-c4c(F)cc(S(=O)(=O)[O-])cc4F)c4nc(c(-c5c(F)cc(S(=O)(=O)[O-])cc5F)c5ccc2[nH]5)C=C4)C=C3)cc1)c1ccc(C[C@H]2CCC[C@@H]2O)cc1
REMARK SMILES IDX 7 1 6 2 5 3 3 4 4 5 2 7 1 8 79 9 80 10 91 11 81 12 90 13
REMARK SMILES IDX 82 14 83 15 84 16 85 17 88 18 86 19 87 20 89 21 8 23 9 24
REMARK SMILES IDX 10 25 11 26 12 28 13 29 14 30 78 31 15 32 77 33 16 34 17 35
REMARK SMILES IDX 18 36 71 37 19 38 76 39 70 40 72 41 20 42 75 43 69 44 68 45
REMARK SMILES IDX 21 47 55 48 34 49 54 50 35 51 38 52 53 53 73 54 36 55 37 56
REMARK SMILES IDX 52 58 74 59 39 60 22 61 23 62 32 63 24 64 25 65 31 66 33 67
REMARK SMILES IDX 26 68 27 69 28 70 29 71 30 72 56 73 57 74 66 75 58 76 59 77
REMARK SMILES IDX 65 78 67 79 60 80 61 81 62 82 63 83 64 84 40 85 41 86 50 87
REMARK SMILES IDX 42 88 43 89 49 90 51 91 44 92 45 93 46 94 47 95 48 96
REMARK H PARENT 5 6 89 22 10 27 72 46 38 57
REMARK Flexibility Score: inf
ROOT
ATOM      1  C   UNL A   1      39.015  21.452  25.759  1.00  0.00     0.023 C 
ENDROOT
BRANCH   1   2
ATOM      2  C   UNL A   1      37.800  22.382  25.786  1.00  0.00     0.116 C 
BRANCH   2   3
ATOM      3  N   UNL A   1      37.359  22.727  24.450  1.00  0.00    -0.356 N 
ATOM      4  C   UNL A   1      36.107  22.782  23.907  1.00  0.00     0.227 C 
ATOM      5  O   UNL A   1      36.055  23.115  22.722  1.00  0.00    -0.274 OA
ATOM      6  H   UNL A   1      38.085  22.962  23.828  1.00  0.00     0.163 HD
BRANCH   4   7
ATOM      7  C   UNL A   1      34.876  22.475  24.778  1.00  0.00     0.105 C 
ATOM      8  C   UNL A   1      33.812  21.672  24.020  1.00  0.00     0.023 C 
BRANCH   7   9
ATOM      9  C   UNL A   1      34.162  23.682  25.387  1.00  0.00    -0.036 A 
ATOM     10  C   UNL A   1      32.944  23.483  26.058  1.00  0.00     0.005 A 
ATOM     11  C   UNL A   1      34.586  24.999  25.165  1.00  0.00     0.005 A 
ATOM     12  C   UNL A   1      32.151  24.566  26.443  1.00  0.00     0.004 A 
ATOM     13  C   UNL A   1      33.804  26.081  25.569  1.00  0.00     0.004 A 
ATOM     14  C   UNL A   1      32.554  25.875  26.161  1.00  0.00    -0.048 A 
BRANCH  14  15
ATOM     15  C   UNL A   1      31.637  27.046  26.413  1.00  0.00     0.041 C 
BRANCH  15  16
ATOM     16  C   UNL A   1      30.961  27.634  25.159  1.00  0.00     0.022 C 
ATOM     17  C   UNL A   1      31.768  28.673  24.359  1.00  0.00     0.007 C 
ATOM     18  C   UNL A   1      30.526  26.606  24.109  1.00  0.00     0.117 C 
ATOM     19  C   UNL A   1      31.436  28.431  22.884  1.00  0.00     0.003 C 
ATOM     20  C   UNL A   1      30.262  27.466  22.882  1.00  0.00     0.032 C 
BRANCH  18  21
ATOM     21  O   UNL A   1      29.368  25.894  24.508  1.00  0.00    -0.393 OA
ATOM     22  H   UNL A   1      28.822  26.459  25.077  1.00  0.00     0.210 HD
ENDBRANCH  18  21
ENDBRANCH  15  16
ENDBRANCH  14  15
ENDBRANCH   7   9
ENDBRANCH   4   7
ENDBRANCH   2   3
ENDBRANCH   1   2
BRANCH   1  23
ATOM     23  C   UNL A   1      40.037  21.686  26.874  1.00  0.00     0.023 C 
BRANCH  23  24
ATOM     24  C   UNL A   1      40.315  23.145  27.209  1.00  0.00     0.116 C 
BRANCH  24  25
ATOM     25  N   UNL A   1      40.942  23.865  26.113  1.00  0.00    -0.352 N 
ATOM     26  C   UNL A   1      41.354  25.175  26.065  1.00  0.00     0.251 C 
ATOM     27  H   UNL A   1      41.093  23.343  25.292  1.00  0.00     0.163 HD
ATOM     28  O   UNL A   1      41.745  25.655  25.005  1.00  0.00    -0.269 OA
BRANCH  26  29
ATOM     29  C   UNL A   1      41.290  26.009  27.283  1.00  0.00     0.039 A 
ATOM     30  C   UNL A   1      42.273  26.981  27.486  1.00  0.00     0.014 A 
ATOM     31  C   UNL A   1      40.256  25.850  28.211  1.00  0.00     0.014 A 
ATOM     32  C   UNL A   1      42.180  27.839  28.584  1.00  0.00     0.010 A 
ATOM     33  C   UNL A   1      40.127  26.750  29.265  1.00  0.00     0.010 A 
ATOM     34  C   UNL A   1      41.087  27.755  29.462  1.00  0.00    -0.014 A 
BRANCH  34  35
ATOM     35  C   UNL A   1      40.922  28.720  30.580  1.00  0.00     0.031 A 
ATOM     36  C   UNL A   1      41.777  28.601  31.813  1.00  0.00     0.074 A 
ATOM     37  C   UNL A   1      39.958  29.659  30.511  1.00  0.00     0.049 A 
ATOM     38  N   UNL A   1      41.732  29.301  32.917  1.00  0.00    -0.248 NA
ATOM     39  C   UNL A   1      42.798  27.542  31.816  1.00  0.00     0.031 C 
ATOM     40  C   UNL A   1      39.031  29.841  29.391  1.00  0.00     0.029 A 
ATOM     41  N   UNL A   1      39.586  30.630  31.407  1.00  0.00    -0.354 N 
ATOM     42  C   UNL A   1      42.705  28.760  33.750  1.00  0.00     0.074 A 
ATOM     43  C   UNL A   1      43.292  27.643  33.042  1.00  0.00     0.031 C 
ATOM     44  C   UNL A   1      38.212  30.870  29.658  1.00  0.00     0.029 A 
ATOM     45  C   UNL A   1      38.527  31.399  30.982  1.00  0.00     0.049 A 
ATOM     46  H   UNL A   1      40.034  30.764  32.273  1.00  0.00     0.167 HD
ATOM     47  C   UNL A   1      43.089  29.171  34.981  1.00  0.00     0.037 A 
ATOM     48  C   UNL A   1      37.877  32.409  31.593  1.00  0.00     0.037 A 
ATOM     49  C   UNL A   1      42.520  30.302  35.669  1.00  0.00     0.049 A 
ATOM     50  C   UNL A   1      38.328  32.850  32.960  1.00  0.00     0.074 A 
ATOM     51  C   UNL A   1      42.883  30.835  36.893  1.00  0.00     0.029 A 
ATOM     52  N   UNL A   1      41.469  31.073  35.193  1.00  0.00    -0.354 N 
ATOM     53  N   UNL A   1      39.294  32.368  33.703  1.00  0.00    -0.248 NA
ATOM     54  C   UNL A   1      37.604  33.975  33.568  1.00  0.00     0.031 C 
ATOM     55  C   UNL A   1      42.025  31.902  37.177  1.00  0.00     0.029 A 
ATOM     56  C   UNL A   1      41.159  32.066  36.107  1.00  0.00     0.049 A 
ATOM     57  H   UNL A   1      41.012  30.934  34.332  1.00  0.00     0.167 HD
ATOM     58  C   UNL A   1      39.314  33.149  34.853  1.00  0.00     0.074 A 
ATOM     59  C   UNL A   1      38.270  34.142  34.702  1.00  0.00     0.031 C 
ATOM     60  C   UNL A   1      40.125  33.054  35.936  1.00  0.00     0.037 A 
BRANCH  47  61
ATOM     61  C   UNL A   1      44.185  28.402  35.667  1.00  0.00     0.058 A 
ATOM     62  C   UNL A   1      45.536  28.748  35.507  1.00  0.00     0.135 A 
ATOM     63  C   UNL A   1      43.879  27.340  36.534  1.00  0.00     0.135 A 
ATOM     64  F   UNL A   1      45.887  29.745  34.679  1.00  0.00    -0.206 F 
ATOM     65  C   UNL A   1      46.547  28.054  36.165  1.00  0.00     0.059 A 
ATOM     66  C   UNL A   1      44.872  26.650  37.223  1.00  0.00     0.059 A 
ATOM     67  F   UNL A   1      42.604  26.967  36.722  1.00  0.00    -0.206 F 
ATOM     68  C   UNL A   1      46.205  27.007  37.022  1.00  0.00     0.060 A 
BRANCH  68  69
ATOM     69  S   UNL A   1      47.528  26.131  37.883  1.00  0.00     0.124 S 
ATOM     70  O   UNL A   1      48.672  26.998  37.614  1.00  0.00    -0.237 OA
ATOM     71  O   UNL A   1      47.052  26.122  39.262  1.00  0.00    -0.237 OA
ATOM     72  O   UNL A   1      47.560  24.830  37.224  1.00  0.00    -0.744 OA
ENDBRANCH  68  69
ENDBRANCH  47  61
BRANCH  48  73
ATOM     73  C   UNL A   1      36.741  33.085  30.911  1.00  0.00     0.058 A 
ATOM     74  C   UNL A   1      36.965  33.994  29.865  1.00  0.00     0.135 A 
ATOM     75  C   UNL A   1      35.412  32.838  31.287  1.00  0.00     0.135 A 
ATOM     76  F   UNL A   1      38.218  34.267  29.471  1.00  0.00    -0.206 F 
ATOM     77  C   UNL A   1      35.915  34.651  29.233  1.00  0.00     0.059 A 
ATOM     78  C   UNL A   1      34.343  33.463  30.653  1.00  0.00     0.059 A 
ATOM     79  F   UNL A   1      35.143  31.964  32.269  1.00  0.00    -0.206 F 
ATOM     80  C   UNL A   1      34.607  34.379  29.634  1.00  0.00     0.060 A 
BRANCH  80  81
ATOM     81  S   UNL A   1      33.247  35.209  28.783  1.00  0.00     0.124 S 
ATOM     82  O   UNL A   1      32.464  35.714  29.904  1.00  0.00    -0.237 OA
ATOM     83  O   UNL A   1      33.949  36.214  27.990  1.00  0.00    -0.237 OA
ATOM     84  O   UNL A   1      32.629  34.135  28.012  1.00  0.00    -0.744 OA
ENDBRANCH  80  81
ENDBRANCH  48  73
BRANCH  60  85
ATOM     85  C   UNL A   1      39.945  34.072  37.028  1.00  0.00     0.058 A 
ATOM     86  C   UNL A   1      40.521  35.349  36.950  1.00  0.00     0.135 A 
ATOM     87  C   UNL A   1      39.139  33.782  38.141  1.00  0.00     0.135 A 
ATOM     88  F   UNL A   1      41.305  35.675  35.910  1.00  0.00    -0.206 F 
ATOM     89  C   UNL A   1      40.323  36.297  37.949  1.00  0.00     0.059 A 
ATOM     90  C   UNL A   1      38.906  34.723  39.139  1.00  0.00     0.059 A 
ATOM     91  F   UNL A   1      38.557  32.578  38.259  1.00  0.00    -0.206 F 
ATOM     92  C   UNL A   1      39.512  35.975  39.040  1.00  0.00     0.060 A 
BRANCH  92  93
ATOM     93  S   UNL A   1      39.234  37.225  40.312  1.00  0.00     0.124 S 
ATOM     94  O   UNL A   1      40.601  37.590  40.668  1.00  0.00    -0.237 OA
ATOM     95  O   UNL A   1      38.474  38.242  39.591  1.00  0.00    -0.237 OA
ATOM     96  O   UNL A   1      38.488  36.504  41.339  1.00  0.00    -0.744 OA
ENDBRANCH  92  93
ENDBRANCH  60  85
ENDBRANCH  34  35
ENDBRANCH  26  29
ENDBRANCH  24  25
ENDBRANCH  23  24
ENDBRANCH   1  23
TORSDOF 18
ENDMDL
MODEL 2
REMARK VINA RESULT:      -8.4      4.120      6.800
REMARK SMILES C[C@@H](C(=O)NCCCCNC(=O)c1ccc(-c2c3nc(c(-c4c(F)cc(S(=O)(=O)[O-])cc4F)c4ccc([nH]4)c(-c4c(F)cc(S(=O)(=O)[O-])cc4F)c4nc(c(-c5c(F)cc(S(=O)(=O)[O-])cc5F)c5ccc2[nH]5)C=C4)C=C3)cc1)c1ccc(C[C@H]2CCC[C@@H]2O)cc1
REMARK SMILES IDX 7 1 6 2 5 3 3 4 4 5 2 7 1 8 79 9 80 10 91 11 81 12 90 13
REMARK SMILES IDX 82 14 83 15 84 16 85 17 88 18 86 19 87 20 89 21 8 23 9 24
REMARK SMILES IDX 10 25 11 26 12 28 13 29 14 30 78 31 15 32 77 33 16 34 17 35
REMARK SMILES IDX 18 36 71 37 19 38 76 39 70 40 72 41 20 42 75 43 69 44 68 45
REMARK SMILES IDX 21 47 55 48 34 49 54 50 35 51 38 52 53 53 73 54 36 55 37 56
REMARK SMILES IDX 52 58 74 59 39 60 22 61 23 62 32 63 24 64 25 65 31 66 33 67
REMARK SMILES IDX 26 68 27 69 28 70 29 71 30 72 56 73 57 74 66 75 58 76 59 77
REMARK SMILES IDX 65 78 67 79 60 80 61 81 62 82 63 83 64 84 40 85 41 86 50 87
REMARK SMILES IDX 42 88 43 89 49 90 51 91 44 92 45 93 46 94 47 95 48 96
REMARK H PARENT 5 6 89 22 10 27 72 46 38 57
REMARK Flexibility Score: inf
ROOT
ATOM      1  C   UNL A   1      42.867  22.416  25.987  1.00  0.00     0.023 C 
ENDROOT
BRANCH   1   2
ATOM      2  C   UNL A   1      44.362  22.247  26.267  1.00  0.00     0.116 C 
BRANCH   2   3
ATOM      3  N   UNL A   1      44.724  22.757  27.573  1.00  0.00    -0.356 N 
ATOM      4  C   UNL A   1      45.528  23.800  27.935  1.00  0.00     0.227 C 
ATOM      5  O   UNL A   1      45.642  23.988  29.148  1.00  0.00    -0.274 OA
ATOM      6  H   UNL A   1      44.323  22.269  28.327  1.00  0.00     0.163 HD
BRANCH   4   7
ATOM      7  C   UNL A   1      46.190  24.673  26.855  1.00  0.00     0.105 C 
ATOM      8  C   UNL A   1      47.695  24.849  27.091  1.00  0.00     0.023 C 
BRANCH   7   9
ATOM      9  C   UNL A   1      45.609  26.076  26.671  1.00  0.00    -0.036 A 
ATOM     10  C   UNL A   1      46.142  27.136  27.421  1.00  0.00     0.005 A 
ATOM     11  C   UNL A   1      44.459  26.320  25.907  1.00  0.00     0.005 A 
ATOM     12  C   UNL A   1      45.515  28.383  27.450  1.00  0.00     0.004 A 
ATOM     13  C   UNL A   1      43.844  27.572  25.920  1.00  0.00     0.004 A 
ATOM     14  C   UNL A   1      44.333  28.598  26.734  1.00  0.00    -0.048 A 
BRANCH  14  15
ATOM     15  C   UNL A   1      43.548  29.877  26.887  1.00  0.00     0.041 C 
BRANCH  15  16
ATOM     16  C   UNL A   1      44.190  30.937  27.804  1.00  0.00     0.022 C 
ATOM     17  C   UNL A   1      45.258  31.847  27.169  1.00  0.00     0.007 C 
ATOM     18  C   UNL A   1      43.208  31.911  28.462  1.00  0.00     0.117 C 
ATOM     19  C   UNL A   1      45.078  33.228  27.807  1.00  0.00     0.003 C 
ATOM     20  C   UNL A   1      44.119  33.021  28.967  1.00  0.00     0.032 C 
BRANCH  18  21
ATOM     21  O   UNL A   1      42.485  31.306  29.520  1.00  0.00    -0.393 OA
ATOM     22  H   UNL A   1      43.100  30.833  30.102  1.00  0.00     0.210 HD
ENDBRANCH  18  21
ENDBRANCH  15  16
ENDBRANCH  14  15
ENDBRANCH   7   9
ENDBRANCH   4   7
ENDBRANCH   2   3
ENDBRANCH   1   2
BRANCH   1  23
ATOM     23  C   UNL A   1      41.967  21.337  26.595  1.00  0.00     0.023 C 
BRANCH  23  24
ATOM     24  C   UNL A   1      40.677  21.842  27.227  1.00  0.00     0.116 C 
BRANCH  24  25
ATOM     25  N   UNL A   1      39.621  22.065  26.253  1.00  0.00    -0.352 N 
ATOM     26  C   UNL A   1      38.882  23.200  26.026  1.00  0.00     0.251 C 
ATOM     27  H   UNL A   1      39.407  21.297  25.675  1.00  0.00     0.163 HD
ATOM     28  O   UNL A   1      37.934  23.168  25.247  1.00  0.00    -0.269 OA
BRANCH  26  29
ATOM     29  C   UNL A   1      39.210  24.446  26.750  1.00  0.00     0.039 A 
ATOM     30  C   UNL A   1      38.716  24.624  28.044  1.00  0.00     0.014 A 
ATOM     31  C   UNL A   1      40.019  25.425  26.166  1.00  0.00     0.014 A 
ATOM     32  C   UNL A   1      39.088  25.752  28.779  1.00  0.00     0.010 A 
ATOM     33  C   UNL A   1      40.445  26.514  26.923  1.00  0.00     0.010 A 
ATOM     34  C   UNL A   1      39.985  26.687  28.238  1.00  0.00    -0.014 A 
BRANCH  34  35
ATOM     35  C   UNL A   1      40.466  27.843  29.038  1.00  0.00     0.031 A 
ATOM     36  C   UNL A   1      41.822  27.800  29.690  1.00  0.00     0.074 A 
ATOM     37  C   UNL A   1      39.654  28.902  29.231  1.00  0.00     0.049 A 
ATOM     38  N   UNL A   1      42.384  28.677  30.481  1.00  0.00    -0.248 NA
ATOM     39  C   UNL A   1      42.642  26.604  29.441  1.00  0.00     0.031 C 
ATOM     40  C   UNL A   1      38.298  29.038  28.694  1.00  0.00     0.029 A 
ATOM     41  N   UNL A   1      39.844  30.060  29.943  1.00  0.00    -0.354 N 
ATOM     42  C   UNL A   1      43.614  28.135  30.836  1.00  0.00     0.074 A 
ATOM     43  C   UNL A   1      43.696  26.832  30.212  1.00  0.00     0.031 C 
ATOM     44  C   UNL A   1      37.787  30.217  29.079  1.00  0.00     0.029 A 
ATOM     45  C   UNL A   1      38.761  30.907  29.920  1.00  0.00     0.049 A 
ATOM     46  H   UNL A   1      40.678  30.265  30.424  1.00  0.00     0.167 HD
ATOM     47  C   UNL A   1      44.594  28.684  31.593  1.00  0.00     0.037 A 
ATOM     48  C   UNL A   1      38.569  32.100  30.518  1.00  0.00     0.037 A 
ATOM     49  C   UNL A   1      44.517  29.993  32.187  1.00  0.00     0.049 A 
ATOM     50  C   UNL A   1      39.676  32.689  31.350  1.00  0.00     0.074 A 
ATOM     51  C   UNL A   1      45.482  30.662  32.920  1.00  0.00     0.029 A 
ATOM     52  N   UNL A   1      43.415  30.832  32.118  1.00  0.00    -0.354 N 
ATOM     53  N   UNL A   1      40.859  32.190  31.618  1.00  0.00    -0.248 NA
ATOM     54  C   UNL A   1      39.426  34.005  31.954  1.00  0.00     0.031 C 
ATOM     55  C   UNL A   1      44.948  31.888  33.330  1.00  0.00     0.029 A 
ATOM     56  C   UNL A   1      43.669  32.005  32.810  1.00  0.00     0.049 A 
ATOM     57  H   UNL A   1      42.576  30.624  31.646  1.00  0.00     0.167 HD
ATOM     58  C   UNL A   1      41.505  33.144  32.399  1.00  0.00     0.074 A 
ATOM     59  C   UNL A   1      40.585  34.253  32.548  1.00  0.00     0.031 C 
ATOM     60  C   UNL A   1      42.747  33.105  32.940  1.00  0.00     0.037 A 
BRANCH  47  61
ATOM     61  C   UNL A   1      45.843  27.874  31.816  1.00  0.00     0.058 A 
ATOM     62  C   UNL A   1      47.004  28.090  31.057  1.00  0.00     0.135 A 
ATOM     63  C   UNL A   1      45.896  26.908  32.834  1.00  0.00     0.135 A 
ATOM     64  F   UNL A   1      47.004  28.990  30.061  1.00  0.00    -0.206 F 
ATOM     65  C   UNL A   1      48.167  27.361  31.284  1.00  0.00     0.059 A 
ATOM     66  C   UNL A   1      47.057  26.187  33.097  1.00  0.00     0.059 A 
ATOM     67  F   UNL A   1      44.814  26.661  33.589  1.00  0.00    -0.206 F 
ATOM     68  C   UNL A   1      48.184  26.413  32.308  1.00  0.00     0.060 A 
BRANCH  68  69
ATOM     69  S   UNL A   1      49.708  25.491  32.602  1.00  0.00     0.124 S 
ATOM     70  O   UNL A   1      49.220  24.370  33.401  1.00  0.00    -0.237 OA
ATOM     71  O   UNL A   1      50.141  25.162  31.248  1.00  0.00    -0.237 OA
ATOM     72  O   UNL A   1      50.552  26.446  33.313  1.00  0.00    -0.744 OA
ENDBRANCH  68  69
ENDBRANCH  47  61
BRANCH  48  73
ATOM     73  C   UNL A   1      37.283  32.825  30.338  1.00  0.00     0.058 A 
ATOM     74  C   UNL A   1      36.249  32.706  31.280  1.00  0.00     0.135 A 
ATOM     75  C   UNL A   1      37.060  33.652  29.227  1.00  0.00     0.135 A 
ATOM     76  F   UNL A   1      36.413  31.924  32.359  1.00  0.00    -0.206 F 
ATOM     77  C   UNL A   1      35.033  33.360  31.115  1.00  0.00     0.059 A 
ATOM     78  C   UNL A   1      35.862  34.338  29.052  1.00  0.00     0.059 A 
ATOM     79  F   UNL A   1      38.024  33.815  28.306  1.00  0.00    -0.206 F 
ATOM     80  C   UNL A   1      34.849  34.174  29.997  1.00  0.00     0.060 A 
BRANCH  80  81
ATOM     81  S   UNL A   1      33.280  35.048  29.809  1.00  0.00     0.124 S 
ATOM     82  O   UNL A   1      32.599  34.221  28.820  1.00  0.00    -0.237 OA
ATOM     83  O   UNL A   1      32.737  35.002  31.164  1.00  0.00    -0.237 OA
ATOM     84  O   UNL A   1      33.688  36.374  29.352  1.00  0.00    -0.744 OA
ENDBRANCH  80  81
ENDBRANCH  48  73
BRANCH  60  85
ATOM     85  C   UNL A   1      43.204  34.311  33.713  1.00  0.00     0.058 A 
ATOM     86  C   UNL A   1      43.824  35.401  33.083  1.00  0.00     0.135 A 
ATOM     87  C   UNL A   1      42.969  34.397  35.095  1.00  0.00     0.135 A 
ATOM     88  F   UNL A   1      44.077  35.365  31.765  1.00  0.00    -0.206 F 
ATOM     89  C   UNL A   1      44.215  36.527  33.800  1.00  0.00     0.059 A 
ATOM     90  C   UNL A   1      43.328  35.524  35.827  1.00  0.00     0.059 A 
ATOM     91  F   UNL A   1      42.371  33.386  35.744  1.00  0.00    -0.206 F 
ATOM     92  C   UNL A   1      43.961  36.581  35.172  1.00  0.00     0.060 A 
BRANCH  92  93
ATOM     93  S   UNL A   1      44.441  38.062  36.086  1.00  0.00     0.124 S 
ATOM     94  O   UNL A   1      43.987  39.120  35.189  1.00  0.00    -0.237 OA
ATOM     95  O   UNL A   1      43.690  37.920  37.329  1.00  0.00    -0.237 OA
ATOM     96  O   UNL A   1      45.889  37.927  36.216  1.00  0.00    -0.744 OA
ENDBRANCH  92  93
ENDBRANCH  60  85
ENDBRANCH  34  35
ENDBRANCH  26  29
ENDBRANCH  24  25
ENDBRANCH  23  24
ENDBRANCH   1  23
TORSDOF 18
ENDMDL
MODEL 3
REMARK VINA RESULT:      -8.4      4.854     10.508
REMARK SMILES C[C@@H](C(=O)NCCCCNC(=O)c1ccc(-c2c3nc(c(-c4c(F)cc(S(=O)(=O)[O-])cc4F)c4ccc([nH]4)c(-c4c(F)cc(S(=O)(=O)[O-])cc4F)c4nc(c(-c5c(F)cc(S(=O)(=O)[O-])cc5F)c5ccc2[nH]5)C=C4)C=C3)cc1)c1ccc(C[C@H]2CCC[C@@H]2O)cc1
REMARK SMILES IDX 7 1 6 2 5 3 3 4 4 5 2 7 1 8 79 9 80 10 91 11 81 12 90 13
REMARK SMILES IDX 82 14 83 15 84 16 85 17 88 18 86 19 87 20 89 21 8 23 9 24
REMARK SMILES IDX 10 25 11 26 12 28 13 29 14 30 78 31 15 32 77 33 16 34 17 35
REMARK SMILES IDX 18 36 71 37 19 38 76 39 70 40 72 41 20 42 75 43 69 44 68 45
REMARK SMILES IDX 21 47 55 48 34 49 54 50 35 51 38 52 53 53 73 54 36 55 37 56
REMARK SMILES IDX 52 58 74 59 39 60 22 61 23 62 32 63 24 64 25 65 31 66 33 67
REMARK SMILES IDX 26 68 27 69 28 70 29 71 30 72 56 73 57 74 66 75 58 76 59 77
REMARK SMILES IDX 65 78 67 79 60 80 61 81 62 82 63 83 64 84 40 85 41 86 50 87
REMARK SMILES IDX 42 88 43 89 49 90 51 91 44 92 45 93 46 94 47 95 48 96
REMARK H PARENT 5 6 89 22 10 27 72 46 38 57
REMARK Flexibility Score: inf
ROOT
ATOM      1  C   UNL A   1      31.750  29.198  25.516  1.00  0.00     0.023 C 
ENDROOT
BRANCH   1   2
ATOM      2  C   UNL A   1      31.422  28.792  24.078  1.00  0.00     0.116 C 
BRANCH   2   3
ATOM      3  N   UNL A   1      30.841  27.467  24.013  1.00  0.00    -0.356 N 
ATOM      4  C   UNL A   1      31.399  26.259  23.708  1.00  0.00     0.227 C 
ATOM      5  O   UNL A   1      30.633  25.295  23.739  1.00  0.00    -0.274 OA
ATOM      6  H   UNL A   1      29.881  27.432  24.225  1.00  0.00     0.163 HD
BRANCH   4   7
ATOM      7  C   UNL A   1      32.903  26.163  23.393  1.00  0.00     0.105 C 
ATOM      8  C   UNL A   1      33.188  26.232  21.888  1.00  0.00     0.023 C 
BRANCH   7   9
ATOM      9  C   UNL A   1      33.625  24.921  23.920  1.00  0.00    -0.036 A 
ATOM     10  C   UNL A   1      33.883  23.860  23.036  1.00  0.00     0.005 A 
ATOM     11  C   UNL A   1      33.894  24.727  25.281  1.00  0.00     0.005 A 
ATOM     12  C   UNL A   1      34.343  22.629  23.507  1.00  0.00     0.004 A 
ATOM     13  C   UNL A   1      34.373  23.504  25.749  1.00  0.00     0.004 A 
ATOM     14  C   UNL A   1      34.549  22.426  24.875  1.00  0.00    -0.048 A 
BRANCH  14  15
ATOM     15  C   UNL A   1      34.878  21.059  25.420  1.00  0.00     0.041 C 
BRANCH  15  16
ATOM     16  C   UNL A   1      34.118  19.889  24.766  1.00  0.00     0.022 C 
ATOM     17  C   UNL A   1      34.926  18.608  24.486  1.00  0.00     0.007 C 
ATOM     18  C   UNL A   1      32.888  19.397  25.536  1.00  0.00     0.117 C 
ATOM     19  C   UNL A   1      33.972  17.436  24.736  1.00  0.00     0.003 C 
ATOM     20  C   UNL A   1      32.592  18.056  24.881  1.00  0.00     0.032 C 
BRANCH  18  21
ATOM     21  O   UNL A   1      31.794  20.290  25.417  1.00  0.00    -0.393 OA
ATOM     22  H   UNL A   1      31.390  20.423  26.289  1.00  0.00     0.210 HD
ENDBRANCH  18  21
ENDBRANCH  15  16
ENDBRANCH  14  15
ENDBRANCH   7   9
ENDBRANCH   4   7
ENDBRANCH   2   3
ENDBRANCH   1   2
BRANCH   1  23
ATOM     23  C   UNL A   1      32.432  28.116  26.358  1.00  0.00     0.023 C 
BRANCH  23  24
ATOM     24  C   UNL A   1      33.633  28.580  27.170  1.00  0.00     0.116 C 
BRANCH  24  25
ATOM     25  N   UNL A   1      33.517  29.961  27.609  1.00  0.00    -0.352 N 
ATOM     26  C   UNL A   1      34.443  30.739  28.260  1.00  0.00     0.251 C 
ATOM     27  H   UNL A   1      32.658  30.399  27.412  1.00  0.00     0.163 HD
ATOM     28  O   UNL A   1      34.124  31.850  28.675  1.00  0.00    -0.269 OA
BRANCH  26  29
ATOM     29  C   UNL A   1      35.807  30.220  28.489  1.00  0.00     0.039 A 
ATOM     30  C   UNL A   1      36.729  30.263  27.440  1.00  0.00     0.014 A 
ATOM     31  C   UNL A   1      36.184  29.713  29.736  1.00  0.00     0.014 A 
ATOM     32  C   UNL A   1      38.049  29.861  27.662  1.00  0.00     0.010 A 
ATOM     33  C   UNL A   1      37.515  29.379  29.974  1.00  0.00     0.010 A 
ATOM     34  C   UNL A   1      38.461  29.451  28.940  1.00  0.00    -0.014 A 
BRANCH  34  35
ATOM     35  C   UNL A   1      39.880  29.110  29.218  1.00  0.00     0.031 A 
ATOM     36  C   UNL A   1      40.806  30.143  29.803  1.00  0.00     0.074 A 
ATOM     37  C   UNL A   1      40.350  27.892  28.881  1.00  0.00     0.049 A 
ATOM     38  N   UNL A   1      42.087  30.056  30.047  1.00  0.00    -0.248 NA
ATOM     39  C   UNL A   1      40.220  31.452  30.130  1.00  0.00     0.031 C 
ATOM     40  C   UNL A   1      39.563  26.824  28.260  1.00  0.00     0.029 A 
ATOM     41  N   UNL A   1      41.605  27.350  29.000  1.00  0.00    -0.354 N 
ATOM     42  C   UNL A   1      42.465  31.299  30.544  1.00  0.00     0.074 A 
ATOM     43  C   UNL A   1      41.285  32.137  30.520  1.00  0.00     0.031 C 
ATOM     44  C   UNL A   1      40.347  25.751  28.071  1.00  0.00     0.029 A 
ATOM     45  C   UNL A   1      41.700  26.064  28.520  1.00  0.00     0.049 A 
ATOM     46  H   UNL A   1      42.366  27.836  29.393  1.00  0.00     0.167 HD
ATOM     47  C   UNL A   1      43.677  31.697  30.998  1.00  0.00     0.037 A 
ATOM     48  C   UNL A   1      42.760  25.235  28.441  1.00  0.00     0.037 A 
ATOM     49  C   UNL A   1      44.839  30.848  31.045  1.00  0.00     0.049 A 
ATOM     50  C   UNL A   1      44.095  25.700  28.959  1.00  0.00     0.074 A 
ATOM     51  C   UNL A   1      46.096  31.140  31.545  1.00  0.00     0.029 A 
ATOM     52  N   UNL A   1      44.889  29.543  30.577  1.00  0.00    -0.354 N 
ATOM     53  N   UNL A   1      44.415  26.857  29.486  1.00  0.00    -0.248 NA
ATOM     54  C   UNL A   1      45.209  24.746  28.877  1.00  0.00     0.031 C 
ATOM     55  C   UNL A   1      46.918  30.026  31.340  1.00  0.00     0.029 A 
ATOM     56  C   UNL A   1      46.159  29.023  30.759  1.00  0.00     0.049 A 
ATOM     57  H   UNL A   1      44.131  29.059  30.174  1.00  0.00     0.167 HD
ATOM     58  C   UNL A   1      45.761  26.760  29.825  1.00  0.00     0.074 A 
ATOM     59  C   UNL A   1      46.189  25.427  29.453  1.00  0.00     0.031 C 
ATOM     60  C   UNL A   1      46.567  27.690  30.394  1.00  0.00     0.037 A 
BRANCH  47  61
ATOM     61  C   UNL A   1      43.810  33.111  31.492  1.00  0.00     0.058 A 
ATOM     62  C   UNL A   1      44.035  34.180  30.610  1.00  0.00     0.135 A 
ATOM     63  C   UNL A   1      43.660  33.409  32.857  1.00  0.00     0.135 A 
ATOM     64  F   UNL A   1      44.201  33.951  29.298  1.00  0.00    -0.206 F 
ATOM     65  C   UNL A   1      44.129  35.491  31.065  1.00  0.00     0.059 A 
ATOM     66  C   UNL A   1      43.723  34.717  33.330  1.00  0.00     0.059 A 
ATOM     67  F   UNL A   1      43.445  32.425  33.744  1.00  0.00    -0.206 F 
ATOM     68  C   UNL A   1      43.970  35.750  32.428  1.00  0.00     0.060 A 
BRANCH  68  69
ATOM     69  S   UNL A   1      44.075  37.460  32.997  1.00  0.00     0.124 S 
ATOM     70  O   UNL A   1      42.912  37.544  33.877  1.00  0.00    -0.237 OA
ATOM     71  O   UNL A   1      45.374  37.489  33.661  1.00  0.00    -0.237 OA
ATOM     72  O   UNL A   1      43.985  38.235  31.765  1.00  0.00    -0.744 OA
ENDBRANCH  68  69
ENDBRANCH  47  61
BRANCH  48  73
ATOM     73  C   UNL A   1      42.599  23.873  27.865  1.00  0.00     0.058 A 
ATOM     74  C   UNL A   1      42.589  23.674  26.476  1.00  0.00     0.135 A 
ATOM     75  C   UNL A   1      42.455  22.745  28.687  1.00  0.00     0.135 A 
ATOM     76  F   UNL A   1      42.719  24.723  25.648  1.00  0.00    -0.206 F 
ATOM     77  C   UNL A   1      42.417  22.411  25.921  1.00  0.00     0.059 A 
ATOM     78  C   UNL A   1      42.308  21.467  28.157  1.00  0.00     0.059 A 
ATOM     79  F   UNL A   1      42.478  22.879  30.022  1.00  0.00    -0.206 F 
ATOM     80  C   UNL A   1      42.277  21.312  26.771  1.00  0.00     0.060 A 
BRANCH  80  81
ATOM     81  S   UNL A   1      42.092  19.670  26.042  1.00  0.00     0.124 S 
ATOM     82  O   UNL A   1      43.037  19.733  24.934  1.00  0.00    -0.237 OA
ATOM     83  O   UNL A   1      42.465  18.797  27.151  1.00  0.00    -0.237 OA
ATOM     84  O   UNL A   1      40.681  19.627  25.669  1.00  0.00    -0.744 OA
ENDBRANCH  80  81
ENDBRANCH  48  73
BRANCH  60  85
ATOM     85  C   UNL A   1      47.986  27.289  30.688  1.00  0.00     0.058 A 
ATOM     86  C   UNL A   1      48.328  26.576  31.847  1.00  0.00     0.135 A 
ATOM     87  C   UNL A   1      49.008  27.578  29.768  1.00  0.00     0.135 A 
ATOM     88  F   UNL A   1      47.390  26.282  32.760  1.00  0.00    -0.206 F 
ATOM     89  C   UNL A   1      49.638  26.182  32.096  1.00  0.00     0.059 A 
ATOM     90  C   UNL A   1      50.321  27.169  29.984  1.00  0.00     0.059 A 
ATOM     91  F   UNL A   1      48.733  28.249  28.639  1.00  0.00    -0.206 F 
ATOM     92  C   UNL A   1      50.628  26.481  31.157  1.00  0.00     0.060 A 
BRANCH  92  93
ATOM     93  S   UNL A   1      52.318  25.932  31.475  1.00  0.00     0.124 S 
ATOM     94  O   UNL A   1      52.778  26.935  32.429  1.00  0.00    -0.237 OA
ATOM     95  O   UNL A   1      52.116  24.591  32.013  1.00  0.00    -0.237 OA
ATOM     96  O   UNL A   1      52.946  25.984  30.157  1.00  0.00    -0.744 OA
ENDBRANCH  92  93
ENDBRANCH  60  85
ENDBRANCH  34  35
ENDBRANCH  26  29
ENDBRANCH  24  25
ENDBRANCH  23  24
ENDBRANCH   1  23
TORSDOF 18
ENDMDL
