MODEL 1
REMARK VINA RESULT:     -11.6      0.000      0.000
REMARK SMILES CC[C@](C)(NS(=O)(=O)c1cc(C)c(Br)s1)C(=O)NCCCCNC(=O)c1ccc(-c2c3nc(c(-c4c(F)cc(S(=O)(=O)[O-])cc4F)c4ccc([nH]4)c(-c4c(F)cc(S(=O)(=O)[O-])cc4F)c4nc(c(-c5c(F)cc(S(=O)(=O)[O-])cc5F)c5ccc2[nH]5)C=C4)C=C3)cc1
REMARK SMILES IDX 20 1 19 2 18 3 16 4 17 5 3 7 4 8 2 9 1 10 5 11 6 13 7 14
REMARK SMILES IDX 8 15 9 16 10 17 15 18 11 19 13 20 12 21 14 22 21 23 22 24
REMARK SMILES IDX 23 25 24 26 25 28 26 29 27 30 91 31 28 32 90 33 29 34 30 35
REMARK SMILES IDX 31 36 84 37 32 38 89 39 83 40 85 41 33 42 88 43 82 44 81 45
REMARK SMILES IDX 34 47 68 48 47 49 67 50 48 51 51 52 66 53 86 54 49 55 50 56
REMARK SMILES IDX 65 58 87 59 52 60 35 61 36 62 45 63 37 64 38 65 44 66 46 67
REMARK SMILES IDX 39 68 40 69 41 70 42 71 43 72 69 73 70 74 79 75 71 76 72 77
REMARK SMILES IDX 78 78 80 79 73 80 74 81 75 82 76 83 77 84 53 85 54 86 63 87
REMARK SMILES IDX 55 88 56 89 62 90 64 91 57 92 58 93 59 94 60 95 61 96
REMARK H PARENT 18 6 5 12 23 27 85 46 51 57
REMARK Flexibility Score: inf
ROOT
ATOM      1  C   UNL A   1      31.989  28.561  27.215  1.00  0.00     0.023 C 
ENDROOT
BRANCH   1   2
ATOM      2  C   UNL A   1      31.569  27.362  26.326  1.00  0.00     0.116 C 
BRANCH   2   3
ATOM      3  N   UNL A   1      32.532  26.447  25.708  1.00  0.00    -0.354 N 
ATOM      4  C   UNL A   1      32.538  25.593  24.630  1.00  0.00     0.241 C 
ATOM      5  O   UNL A   1      33.661  25.294  24.202  1.00  0.00    -0.273 OA
ATOM      6  H   UNL A   1      33.392  26.443  26.185  1.00  0.00     0.163 HD
BRANCH   4   7
ATOM      7  C   UNL A   1      31.281  24.902  24.020  1.00  0.00     0.108 C 
ATOM      8  C   UNL A   1      31.609  23.810  22.952  1.00  0.00     0.040 C 
BRANCH   7   9
ATOM      9  C   UNL A   1      30.358  25.933  23.313  1.00  0.00     0.030 C 
ATOM     10  C   UNL A   1      29.051  26.211  24.059  1.00  0.00     0.006 C 
ENDBRANCH   7   9
BRANCH   7  11
ATOM     11  N   UNL A   1      30.521  24.249  25.111  1.00  0.00    -0.195 NA
ATOM     12  H   UNL A   1      29.722  23.816  24.648  1.00  0.00     0.142 HD
BRANCH  11  13
ATOM     13  S   UNL A   1      31.072  23.085  26.195  1.00  0.00     0.251 S 
ATOM     14  O   UNL A   1      31.464  23.867  27.357  1.00  0.00    -0.206 OA
ATOM     15  O   UNL A   1      29.999  22.129  26.336  1.00  0.00    -0.206 OA
BRANCH  13  16
ATOM     16  C   UNL A   1      32.497  22.082  25.759  1.00  0.00     0.136 A 
ATOM     17  C   UNL A   1      33.879  22.251  25.775  1.00  0.00     0.038 A 
ATOM     18  S   UNL A   1      32.151  20.622  24.949  1.00  0.00    -0.115 S 
ATOM     19  C   UNL A   1      34.614  21.080  25.313  1.00  0.00    -0.025 A 
ATOM     20  C   UNL A   1      33.733  20.091  24.953  1.00  0.00     0.074 A 
ATOM     21  C   UNL A   1      36.095  20.944  25.226  1.00  0.00     0.046 C 
ATOM     22  Br  UNL A   1      34.183  18.351  24.405  1.00  0.00    -0.039 Br
ENDBRANCH  13  16
ENDBRANCH  11  13
ENDBRANCH   7  11
ENDBRANCH   4   7
ENDBRANCH   2   3
ENDBRANCH   1   2
BRANCH   1  23
ATOM     23  C   UNL A   1      33.413  28.931  27.664  1.00  0.00     0.023 C 
BRANCH  23  24
ATOM     24  C   UNL A   1      34.185  29.969  26.868  1.00  0.00     0.116 C 
BRANCH  24  25
ATOM     25  N   UNL A   1      34.155  31.243  27.578  1.00  0.00    -0.352 N 
ATOM     26  C   UNL A   1      34.841  31.641  28.693  1.00  0.00     0.251 C 
ATOM     27  H   UNL A   1      33.549  31.920  27.196  1.00  0.00     0.163 HD
ATOM     28  O   UNL A   1      34.342  32.479  29.438  1.00  0.00    -0.269 OA
BRANCH  26  29
ATOM     29  C   UNL A   1      36.175  31.095  28.975  1.00  0.00     0.039 A 
ATOM     30  C   UNL A   1      36.300  29.745  29.308  1.00  0.00     0.014 A 
ATOM     31  C   UNL A   1      37.288  31.941  28.985  1.00  0.00     0.014 A 
ATOM     32  C   UNL A   1      37.553  29.247  29.625  1.00  0.00     0.010 A 
ATOM     33  C   UNL A   1      38.546  31.426  29.194  1.00  0.00     0.010 A 
ATOM     34  C   UNL A   1      38.674  30.092  29.556  1.00  0.00    -0.014 A 
BRANCH  34  35
ATOM     35  C   UNL A   1      40.003  29.504  29.673  1.00  0.00     0.031 A 
ATOM     36  C   UNL A   1      40.396  29.326  31.094  1.00  0.00     0.074 A 
ATOM     37  C   UNL A   1      40.710  29.019  28.630  1.00  0.00     0.049 A 
ATOM     38  N   UNL A   1      41.255  30.026  31.759  1.00  0.00    -0.248 NA
ATOM     39  C   UNL A   1      39.580  28.437  31.944  1.00  0.00     0.031 C 
ATOM     40  C   UNL A   1      40.244  28.867  27.247  1.00  0.00     0.029 A 
ATOM     41  N   UNL A   1      41.955  28.457  28.587  1.00  0.00    -0.354 N 
ATOM     42  C   UNL A   1      41.318  29.423  33.011  1.00  0.00     0.074 A 
ATOM     43  C   UNL A   1      40.105  28.669  33.150  1.00  0.00     0.031 C 
ATOM     44  C   UNL A   1      41.077  28.043  26.576  1.00  0.00     0.029 A 
ATOM     45  C   UNL A   1      42.220  27.743  27.418  1.00  0.00     0.049 A 
ATOM     46  H   UNL A   1      42.607  28.548  29.318  1.00  0.00     0.167 HD
ATOM     47  C   UNL A   1      42.528  29.285  33.623  1.00  0.00     0.037 A 
ATOM     48  C   UNL A   1      43.291  26.946  27.165  1.00  0.00     0.037 A 
ATOM     49  C   UNL A   1      43.493  30.158  32.997  1.00  0.00     0.049 A 
ATOM     50  C   UNL A   1      44.377  27.376  28.081  1.00  0.00     0.074 A 
ATOM     51  C   UNL A   1      43.744  31.511  32.949  1.00  0.00     0.029 A 
ATOM     52  N   UNL A   1      44.117  29.588  31.920  1.00  0.00    -0.354 N 
ATOM     53  N   UNL A   1      44.949  28.548  28.012  1.00  0.00    -0.248 NA
ATOM     54  C   UNL A   1      44.591  26.648  29.327  1.00  0.00     0.031 C 
ATOM     55  C   UNL A   1      44.447  31.746  31.730  1.00  0.00     0.029 A 
ATOM     56  C   UNL A   1      44.664  30.527  31.091  1.00  0.00     0.049 A 
ATOM     57  H   UNL A   1      44.166  28.618  31.760  1.00  0.00     0.167 HD
ATOM     58  C   UNL A   1      45.206  28.877  29.327  1.00  0.00     0.074 A 
ATOM     59  C   UNL A   1      45.134  27.621  30.062  1.00  0.00     0.031 C 
ATOM     60  C   UNL A   1      45.100  30.167  29.758  1.00  0.00     0.037 A 
BRANCH  47  61
ATOM     61  C   UNL A   1      42.991  28.028  34.350  1.00  0.00     0.058 A 
ATOM     62  C   UNL A   1      43.352  28.132  35.714  1.00  0.00     0.135 A 
ATOM     63  C   UNL A   1      43.379  26.822  33.724  1.00  0.00     0.135 A 
ATOM     64  F   UNL A   1      43.041  29.230  36.422  1.00  0.00    -0.206 F 
ATOM     65  C   UNL A   1      44.101  27.154  36.374  1.00  0.00     0.059 A 
ATOM     66  C   UNL A   1      44.088  25.817  34.374  1.00  0.00     0.059 A 
ATOM     67  F   UNL A   1      43.172  26.575  32.427  1.00  0.00    -0.206 F 
ATOM     68  C   UNL A   1      44.472  26.003  35.689  1.00  0.00     0.060 A 
BRANCH  68  69
ATOM     69  S   UNL A   1      45.473  24.755  36.516  1.00  0.00     0.124 S 
ATOM     70  O   UNL A   1      46.698  25.495  36.787  1.00  0.00    -0.237 OA
ATOM     71  O   UNL A   1      44.648  24.430  37.674  1.00  0.00    -0.237 OA
ATOM     72  O   UNL A   1      45.579  23.696  35.515  1.00  0.00    -0.744 OA
ENDBRANCH  68  69
ENDBRANCH  47  61
BRANCH  48  73
ATOM     73  C   UNL A   1      43.361  25.678  26.386  1.00  0.00     0.058 A 
ATOM     74  C   UNL A   1      44.320  25.500  25.369  1.00  0.00     0.135 A 
ATOM     75  C   UNL A   1      42.697  24.512  26.817  1.00  0.00     0.135 A 
ATOM     76  F   UNL A   1      45.002  26.552  24.893  1.00  0.00    -0.206 F 
ATOM     77  C   UNL A   1      44.661  24.236  24.872  1.00  0.00     0.059 A 
ATOM     78  C   UNL A   1      43.012  23.243  26.328  1.00  0.00     0.059 A 
ATOM     79  F   UNL A   1      41.785  24.556  27.798  1.00  0.00    -0.206 F 
ATOM     80  C   UNL A   1      44.019  23.107  25.381  1.00  0.00     0.060 A 
BRANCH  80  81
ATOM     81  S   UNL A   1      44.594  21.459  24.901  1.00  0.00     0.124 S 
ATOM     82  O   UNL A   1      44.616  21.559  23.445  1.00  0.00    -0.237 OA
ATOM     83  O   UNL A   1      45.896  21.384  25.554  1.00  0.00    -0.237 OA
ATOM     84  O   UNL A   1      43.572  20.572  25.449  1.00  0.00    -0.744 OA
ENDBRANCH  80  81
ENDBRANCH  48  73
BRANCH  60  85
ATOM     85  C   UNL A   1      45.351  31.267  28.771  1.00  0.00     0.058 A 
ATOM     86  C   UNL A   1      46.611  31.708  28.333  1.00  0.00     0.135 A 
ATOM     87  C   UNL A   1      44.221  31.853  28.179  1.00  0.00     0.135 A 
ATOM     88  F   UNL A   1      47.739  31.146  28.793  1.00  0.00    -0.206 F 
ATOM     89  C   UNL A   1      46.734  32.714  27.372  1.00  0.00     0.059 A 
ATOM     90  C   UNL A   1      44.320  32.828  27.197  1.00  0.00     0.059 A 
ATOM     91  F   UNL A   1      42.990  31.444  28.530  1.00  0.00    -0.206 F 
ATOM     92  C   UNL A   1      45.581  33.267  26.808  1.00  0.00     0.060 A 
BRANCH  92  93
ATOM     93  S   UNL A   1      45.733  34.531  25.529  1.00  0.00     0.124 S 
ATOM     94  O   UNL A   1      47.165  34.520  25.254  1.00  0.00    -0.237 OA
ATOM     95  O   UNL A   1      44.876  34.010  24.468  1.00  0.00    -0.237 OA
ATOM     96  O   UNL A   1      45.233  35.740  26.182  1.00  0.00    -0.744 OA
ENDBRANCH  92  93
ENDBRANCH  60  85
ENDBRANCH  34  35
ENDBRANCH  26  29
ENDBRANCH  24  25
ENDBRANCH  23  24
ENDBRANCH   1  23
TORSDOF 18
ENDMDL
MODEL 2
REMARK VINA RESULT:     -11.5      2.912      9.268
REMARK SMILES CC[C@](C)(NS(=O)(=O)c1cc(C)c(Br)s1)C(=O)NCCCCNC(=O)c1ccc(-c2c3nc(c(-c4c(F)cc(S(=O)(=O)[O-])cc4F)c4ccc([nH]4)c(-c4c(F)cc(S(=O)(=O)[O-])cc4F)c4nc(c(-c5c(F)cc(S(=O)(=O)[O-])cc5F)c5ccc2[nH]5)C=C4)C=C3)cc1
REMARK SMILES IDX 20 1 19 2 18 3 16 4 17 5 3 7 4 8 2 9 1 10 5 11 6 13 7 14
REMARK SMILES IDX 8 15 9 16 10 17 15 18 11 19 13 20 12 21 14 22 21 23 22 24
REMARK SMILES IDX 23 25 24 26 25 28 26 29 27 30 91 31 28 32 90 33 29 34 30 35
REMARK SMILES IDX 31 36 84 37 32 38 89 39 83 40 85 41 33 42 88 43 82 44 81 45
REMARK SMILES IDX 34 47 68 48 47 49 67 50 48 51 51 52 66 53 86 54 49 55 50 56
REMARK SMILES IDX 65 58 87 59 52 60 35 61 36 62 45 63 37 64 38 65 44 66 46 67
REMARK SMILES IDX 39 68 40 69 41 70 42 71 43 72 69 73 70 74 79 75 71 76 72 77
REMARK SMILES IDX 78 78 80 79 73 80 74 81 75 82 76 83 77 84 53 85 54 86 63 87
REMARK SMILES IDX 55 88 56 89 62 90 64 91 57 92 58 93 59 94 60 95 61 96
REMARK H PARENT 18 6 5 12 23 27 85 46 51 57
REMARK Flexibility Score: inf
ROOT
ATOM      1  C   UNL A   1      38.278  21.387  25.315  1.00  0.00     0.023 C 
ENDROOT
BRANCH   1   2
ATOM      2  C   UNL A   1      36.784  21.077  25.594  1.00  0.00     0.116 C 
BRANCH   2   3
ATOM      3  N   UNL A   1      35.851  22.061  26.148  1.00  0.00    -0.354 N 
ATOM      4  C   UNL A   1      34.485  22.195  26.236  1.00  0.00     0.241 C 
ATOM      5  O   UNL A   1      34.087  22.964  27.120  1.00  0.00    -0.273 OA
ATOM      6  H   UNL A   1      36.322  22.819  26.564  1.00  0.00     0.163 HD
BRANCH   4   7
ATOM      7  C   UNL A   1      33.453  21.567  25.250  1.00  0.00     0.108 C 
ATOM      8  C   UNL A   1      32.003  22.127  25.404  1.00  0.00     0.040 C 
BRANCH   7   9
ATOM      9  C   UNL A   1      33.346  20.030  25.448  1.00  0.00     0.030 C 
ATOM     10  C   UNL A   1      32.518  19.321  24.373  1.00  0.00     0.006 C 
ENDBRANCH   7   9
BRANCH   7  11
ATOM     11  N   UNL A   1      33.895  21.841  23.863  1.00  0.00    -0.195 NA
ATOM     12  H   UNL A   1      33.136  21.495  23.276  1.00  0.00     0.142 HD
BRANCH  11  13
ATOM     13  S   UNL A   1      34.315  23.326  23.191  1.00  0.00     0.251 S 
ATOM     14  O   UNL A   1      35.769  23.326  23.260  1.00  0.00    -0.206 OA
ATOM     15  O   UNL A   1      33.686  23.371  21.893  1.00  0.00    -0.206 OA
BRANCH  13  16
ATOM     16  C   UNL A   1      33.773  24.840  23.993  1.00  0.00     0.136 A 
ATOM     17  C   UNL A   1      34.247  25.647  25.023  1.00  0.00     0.038 A 
ATOM     18  S   UNL A   1      32.213  25.381  23.569  1.00  0.00    -0.115 S 
ATOM     19  C   UNL A   1      33.406  26.810  25.284  1.00  0.00    -0.025 A 
ATOM     20  C   UNL A   1      32.325  26.800  24.439  1.00  0.00     0.074 A 
ATOM     21  C   UNL A   1      33.649  27.863  26.309  1.00  0.00     0.046 C 
ATOM     22  Br  UNL A   1      31.015  28.139  24.300  1.00  0.00    -0.039 Br
ENDBRANCH  13  16
ENDBRANCH  11  13
ENDBRANCH   7  11
ENDBRANCH   4   7
ENDBRANCH   2   3
ENDBRANCH   1   2
BRANCH   1  23
ATOM     23  C   UNL A   1      39.232  22.221  26.187  1.00  0.00     0.023 C 
BRANCH  23  24
ATOM     24  C   UNL A   1      40.258  21.501  27.043  1.00  0.00     0.116 C 
BRANCH  24  25
ATOM     25  N   UNL A   1      41.534  21.458  26.336  1.00  0.00    -0.352 N 
ATOM     26  C   UNL A   1      42.294  22.481  25.837  1.00  0.00     0.251 C 
ATOM     27  H   UNL A   1      41.904  20.556  26.197  1.00  0.00     0.163 HD
ATOM     28  O   UNL A   1      43.010  22.278  24.862  1.00  0.00    -0.269 OA
BRANCH  26  29
ATOM     29  C   UNL A   1      42.278  23.798  26.487  1.00  0.00     0.039 A 
ATOM     30  C   UNL A   1      41.745  24.889  25.797  1.00  0.00     0.014 A 
ATOM     31  C   UNL A   1      42.865  23.963  27.745  1.00  0.00     0.014 A 
ATOM     32  C   UNL A   1      41.782  26.139  26.393  1.00  0.00     0.010 A 
ATOM     33  C   UNL A   1      42.805  25.181  28.381  1.00  0.00     0.010 A 
ATOM     34  C   UNL A   1      42.304  26.277  27.691  1.00  0.00    -0.014 A 
BRANCH  34  35
ATOM     35  C   UNL A   1      42.132  27.546  28.385  1.00  0.00     0.031 A 
ATOM     36  C   UNL A   1      43.259  28.474  28.110  1.00  0.00     0.074 A 
ATOM     37  C   UNL A   1      41.009  27.902  29.046  1.00  0.00     0.049 A 
ATOM     38  N   UNL A   1      44.215  28.799  28.916  1.00  0.00    -0.248 NA
ATOM     39  C   UNL A   1      43.494  28.904  26.718  1.00  0.00     0.031 C 
ATOM     40  C   UNL A   1      39.739  27.167  29.079  1.00  0.00     0.029 A 
ATOM     41  N   UNL A   1      40.712  29.038  29.743  1.00  0.00    -0.354 N 
ATOM     42  C   UNL A   1      44.967  29.742  28.221  1.00  0.00     0.074 A 
ATOM     43  C   UNL A   1      44.657  29.551  26.833  1.00  0.00     0.031 C 
ATOM     44  C   UNL A   1      38.759  27.975  29.534  1.00  0.00     0.029 A 
ATOM     45  C   UNL A   1      39.350  29.222  29.983  1.00  0.00     0.049 A 
ATOM     46  H   UNL A   1      41.400  29.673  30.048  1.00  0.00     0.167 HD
ATOM     47  C   UNL A   1      45.447  30.830  28.885  1.00  0.00     0.037 A 
ATOM     48  C   UNL A   1      38.746  30.327  30.494  1.00  0.00     0.037 A 
ATOM     49  C   UNL A   1      45.399  30.593  30.309  1.00  0.00     0.049 A 
ATOM     50  C   UNL A   1      39.780  31.075  31.251  1.00  0.00     0.074 A 
ATOM     51  C   UNL A   1      46.074  29.816  31.224  1.00  0.00     0.029 A 
ATOM     52  N   UNL A   1      44.200  30.940  30.873  1.00  0.00    -0.354 N 
ATOM     53  N   UNL A   1      40.352  30.612  32.331  1.00  0.00    -0.248 NA
ATOM     54  C   UNL A   1      40.465  32.193  30.612  1.00  0.00     0.031 C 
ATOM     55  C   UNL A   1      45.179  29.613  32.316  1.00  0.00     0.029 A 
ATOM     56  C   UNL A   1      44.002  30.318  32.074  1.00  0.00     0.049 A 
ATOM     57  H   UNL A   1      43.557  31.562  30.463  1.00  0.00     0.167 HD
ATOM     58  C   UNL A   1      41.651  31.071  32.250  1.00  0.00     0.074 A 
ATOM     59  C   UNL A   1      41.616  32.165  31.288  1.00  0.00     0.031 C 
ATOM     60  C   UNL A   1      42.691  30.304  32.688  1.00  0.00     0.037 A 
BRANCH  47  61
ATOM     61  C   UNL A   1      45.421  32.255  28.344  1.00  0.00     0.058 A 
ATOM     62  C   UNL A   1      46.636  32.976  28.281  1.00  0.00     0.135 A 
ATOM     63  C   UNL A   1      44.256  33.038  28.174  1.00  0.00     0.135 A 
ATOM     64  F   UNL A   1      47.813  32.347  28.429  1.00  0.00    -0.206 F 
ATOM     65  C   UNL A   1      46.685  34.365  28.137  1.00  0.00     0.059 A 
ATOM     66  C   UNL A   1      44.284  34.416  27.987  1.00  0.00     0.059 A 
ATOM     67  F   UNL A   1      43.021  32.536  28.261  1.00  0.00    -0.206 F 
ATOM     68  C   UNL A   1      45.498  35.077  28.000  1.00  0.00     0.060 A 
BRANCH  68  69
ATOM     69  S   UNL A   1      45.545  36.871  27.856  1.00  0.00     0.124 S 
ATOM     70  O   UNL A   1      44.166  37.171  27.494  1.00  0.00    -0.237 OA
ATOM     71  O   UNL A   1      45.958  37.267  29.198  1.00  0.00    -0.237 OA
ATOM     72  O   UNL A   1      46.539  37.096  26.811  1.00  0.00    -0.744 OA
ENDBRANCH  68  69
ENDBRANCH  47  61
BRANCH  48  73
ATOM     73  C   UNL A   1      37.420  30.918  30.160  1.00  0.00     0.058 A 
ATOM     74  C   UNL A   1      36.620  31.520  31.151  1.00  0.00     0.135 A 
ATOM     75  C   UNL A   1      37.044  31.175  28.826  1.00  0.00     0.135 A 
ATOM     76  F   UNL A   1      36.899  31.333  32.450  1.00  0.00    -0.206 F 
ATOM     77  C   UNL A   1      35.567  32.390  30.840  1.00  0.00     0.059 A 
ATOM     78  C   UNL A   1      35.992  32.029  28.492  1.00  0.00     0.059 A 
ATOM     79  F   UNL A   1      37.748  30.678  27.799  1.00  0.00    -0.206 F 
ATOM     80  C   UNL A   1      35.279  32.662  29.503  1.00  0.00     0.060 A 
BRANCH  80  81
ATOM     81  S   UNL A   1      34.065  33.939  29.092  1.00  0.00     0.124 S 
ATOM     82  O   UNL A   1      33.205  33.244  28.139  1.00  0.00    -0.237 OA
ATOM     83  O   UNL A   1      33.470  34.230  30.391  1.00  0.00    -0.237 OA
ATOM     84  O   UNL A   1      34.880  35.011  28.528  1.00  0.00    -0.744 OA
ENDBRANCH  80  81
ENDBRANCH  48  73
BRANCH  60  85
ATOM     85  C   UNL A   1      42.434  29.327  33.794  1.00  0.00     0.058 A 
ATOM     86  C   UNL A   1      42.244  29.648  35.148  1.00  0.00     0.135 A 
ATOM     87  C   UNL A   1      42.299  27.979  33.426  1.00  0.00     0.135 A 
ATOM     88  F   UNL A   1      42.280  30.922  35.568  1.00  0.00    -0.206 F 
ATOM     89  C   UNL A   1      41.964  28.662  36.097  1.00  0.00     0.059 A 
ATOM     90  C   UNL A   1      41.987  26.987  34.346  1.00  0.00     0.059 A 
ATOM     91  F   UNL A   1      42.432  27.616  32.139  1.00  0.00    -0.206 F 
ATOM     92  C   UNL A   1      41.836  27.333  35.684  1.00  0.00     0.060 A 
BRANCH  92  93
ATOM     93  S   UNL A   1      41.425  26.059  36.895  1.00  0.00     0.124 S 
ATOM     94  O   UNL A   1      40.934  24.977  36.050  1.00  0.00    -0.237 OA
ATOM     95  O   UNL A   1      42.709  25.822  37.551  1.00  0.00    -0.237 OA
ATOM     96  O   UNL A   1      40.416  26.700  37.737  1.00  0.00    -0.744 OA
ENDBRANCH  92  93
ENDBRANCH  60  85
ENDBRANCH  34  35
ENDBRANCH  26  29
ENDBRANCH  24  25
ENDBRANCH  23  24
ENDBRANCH   1  23
TORSDOF 18
ENDMDL
MODEL 3
REMARK VINA RESULT:     -11.4      1.451      2.004
REMARK SMILES CC[C@](C)(NS(=O)(=O)c1cc(C)c(Br)s1)C(=O)NCCCCNC(=O)c1ccc(-c2c3nc(c(-c4c(F)cc(S(=O)(=O)[O-])cc4F)c4ccc([nH]4)c(-c4c(F)cc(S(=O)(=O)[O-])cc4F)c4nc(c(-c5c(F)cc(S(=O)(=O)[O-])cc5F)c5ccc2[nH]5)C=C4)C=C3)cc1
REMARK SMILES IDX 20 1 19 2 18 3 16 4 17 5 3 7 4 8 2 9 1 10 5 11 6 13 7 14
REMARK SMILES IDX 8 15 9 16 10 17 15 18 11 19 13 20 12 21 14 22 21 23 22 24
REMARK SMILES IDX 23 25 24 26 25 28 26 29 27 30 91 31 28 32 90 33 29 34 30 35
REMARK SMILES IDX 31 36 84 37 32 38 89 39 83 40 85 41 33 42 88 43 82 44 81 45
REMARK SMILES IDX 34 47 68 48 47 49 67 50 48 51 51 52 66 53 86 54 49 55 50 56
REMARK SMILES IDX 65 58 87 59 52 60 35 61 36 62 45 63 37 64 38 65 44 66 46 67
REMARK SMILES IDX 39 68 40 69 41 70 42 71 43 72 69 73 70 74 79 75 71 76 72 77
REMARK SMILES IDX 78 78 80 79 73 80 74 81 75 82 76 83 77 84 53 85 54 86 63 87
REMARK SMILES IDX 55 88 56 89 62 90 64 91 57 92 58 93 59 94 60 95 61 96
REMARK H PARENT 18 6 5 12 23 27 85 46 51 57
REMARK Flexibility Score: inf
ROOT
ATOM      1  C   UNL A   1      31.937  28.141  26.907  1.00  0.00     0.023 C 
ENDROOT
BRANCH   1   2
ATOM      2  C   UNL A   1      31.930  26.884  25.999  1.00  0.00     0.116 C 
BRANCH   2   3
ATOM      3  N   UNL A   1      30.775  26.483  25.192  1.00  0.00    -0.354 N 
ATOM      4  C   UNL A   1      30.425  26.537  23.864  1.00  0.00     0.241 C 
ATOM      5  O   UNL A   1      29.540  25.743  23.519  1.00  0.00    -0.273 OA
ATOM      6  H   UNL A   1      30.072  26.068  25.742  1.00  0.00     0.163 HD
BRANCH   4   7
ATOM      7  C   UNL A   1      30.954  27.581  22.834  1.00  0.00     0.108 C 
ATOM      8  C   UNL A   1      32.127  28.465  23.368  1.00  0.00     0.040 C 
BRANCH   7   9
ATOM      9  C   UNL A   1      29.833  28.567  22.402  1.00  0.00     0.030 C 
ATOM     10  C   UNL A   1      29.675  29.774  23.330  1.00  0.00     0.006 C 
ENDBRANCH   7   9
BRANCH   7  11
ATOM     11  N   UNL A   1      31.445  26.860  21.637  1.00  0.00    -0.195 NA
ATOM     12  H   UNL A   1      31.518  27.577  20.914  1.00  0.00     0.142 HD
BRANCH  11  13
ATOM     13  S   UNL A   1      32.856  25.955  21.487  1.00  0.00     0.251 S 
ATOM     14  O   UNL A   1      32.824  25.511  20.101  1.00  0.00    -0.206 OA
ATOM     15  O   UNL A   1      33.933  26.817  21.911  1.00  0.00    -0.206 OA
BRANCH  13  16
ATOM     16  C   UNL A   1      33.061  24.475  22.485  1.00  0.00     0.136 A 
ATOM     17  C   UNL A   1      32.426  23.241  22.581  1.00  0.00     0.038 A 
ATOM     18  S   UNL A   1      34.165  24.606  23.778  1.00  0.00    -0.115 S 
ATOM     19  C   UNL A   1      33.015  22.359  23.583  1.00  0.00    -0.025 A 
ATOM     20  C   UNL A   1      34.059  22.996  24.205  1.00  0.00     0.074 A 
ATOM     21  C   UNL A   1      32.571  20.976  23.913  1.00  0.00     0.046 C 
ATOM     22  Br  UNL A   1      35.212  22.245  25.484  1.00  0.00    -0.039 Br
ENDBRANCH  13  16
ENDBRANCH  11  13
ENDBRANCH   7  11
ENDBRANCH   4   7
ENDBRANCH   2   3
ENDBRANCH   1   2
BRANCH   1  23
ATOM     23  C   UNL A   1      33.161  28.823  27.540  1.00  0.00     0.023 C 
BRANCH  23  24
ATOM     24  C   UNL A   1      34.069  29.662  26.658  1.00  0.00     0.116 C 
BRANCH  24  25
ATOM     25  N   UNL A   1      34.103  31.031  27.160  1.00  0.00    -0.352 N 
ATOM     26  C   UNL A   1      34.823  31.567  28.194  1.00  0.00     0.251 C 
ATOM     27  H   UNL A   1      33.520  31.666  26.684  1.00  0.00     0.163 HD
ATOM     28  O   UNL A   1      34.371  32.531  28.804  1.00  0.00    -0.269 OA
BRANCH  26  29
ATOM     29  C   UNL A   1      36.138  31.014  28.544  1.00  0.00     0.039 A 
ATOM     30  C   UNL A   1      36.276  29.633  28.692  1.00  0.00     0.014 A 
ATOM     31  C   UNL A   1      37.210  31.874  28.803  1.00  0.00     0.014 A 
ATOM     32  C   UNL A   1      37.505  29.121  29.075  1.00  0.00     0.010 A 
ATOM     33  C   UNL A   1      38.456  31.360  29.078  1.00  0.00     0.010 A 
ATOM     34  C   UNL A   1      38.595  29.990  29.256  1.00  0.00    -0.014 A 
BRANCH  34  35
ATOM     35  C   UNL A   1      39.924  29.421  29.438  1.00  0.00     0.031 A 
ATOM     36  C   UNL A   1      40.245  29.238  30.876  1.00  0.00     0.074 A 
ATOM     37  C   UNL A   1      40.691  28.952  28.430  1.00  0.00     0.049 A 
ATOM     38  N   UNL A   1      41.058  29.944  31.589  1.00  0.00    -0.248 NA
ATOM     39  C   UNL A   1      39.399  28.331  31.678  1.00  0.00     0.031 C 
ATOM     40  C   UNL A   1      40.299  28.803  27.024  1.00  0.00     0.029 A 
ATOM     41  N   UNL A   1      41.944  28.408  28.449  1.00  0.00    -0.354 N 
ATOM     42  C   UNL A   1      41.065  29.333  32.840  1.00  0.00     0.074 A 
ATOM     43  C   UNL A   1      39.857  28.563  32.911  1.00  0.00     0.031 C 
ATOM     44  C   UNL A   1      41.177  27.997  26.392  1.00  0.00     0.029 A 
ATOM     45  C   UNL A   1      42.279  27.706  27.290  1.00  0.00     0.049 A 
ATOM     46  H   UNL A   1      42.556  28.503  29.213  1.00  0.00     0.167 HD
ATOM     47  C   UNL A   1      42.244  29.208  33.512  1.00  0.00     0.037 A 
ATOM     48  C   UNL A   1      43.373  26.926  27.088  1.00  0.00     0.037 A 
ATOM     49  C   UNL A   1      43.227  30.099  32.943  1.00  0.00     0.049 A 
ATOM     50  C   UNL A   1      44.404  27.365  28.061  1.00  0.00     0.074 A 
ATOM     51  C   UNL A   1      43.461  31.456  32.917  1.00  0.00     0.029 A 
ATOM     52  N   UNL A   1      43.914  29.545  31.896  1.00  0.00    -0.354 N 
ATOM     53  N   UNL A   1      44.962  28.545  28.030  1.00  0.00    -0.248 NA
ATOM     54  C   UNL A   1      44.564  26.631  29.312  1.00  0.00     0.031 C 
ATOM     55  C   UNL A   1      44.223  31.709  31.737  1.00  0.00     0.029 A 
ATOM     56  C   UNL A   1      44.490  30.498  31.103  1.00  0.00     0.049 A 
ATOM     57  H   UNL A   1      43.985  28.577  31.733  1.00  0.00     0.167 HD
ATOM     58  C   UNL A   1      45.146  28.868  29.359  1.00  0.00     0.074 A 
ATOM     59  C   UNL A   1      45.054  27.606  30.081  1.00  0.00     0.031 C 
ATOM     60  C   UNL A   1      45.000  30.154  29.792  1.00  0.00     0.037 A 
BRANCH  47  61
ATOM     61  C   UNL A   1      42.686  27.952  34.255  1.00  0.00     0.058 A 
ATOM     62  C   UNL A   1      42.886  28.030  35.653  1.00  0.00     0.135 A 
ATOM     63  C   UNL A   1      43.203  26.787  33.645  1.00  0.00     0.135 A 
ATOM     64  F   UNL A   1      42.441  29.089  36.350  1.00  0.00    -0.206 F 
ATOM     65  C   UNL A   1      43.605  27.070  36.369  1.00  0.00     0.059 A 
ATOM     66  C   UNL A   1      43.886  25.798  34.346  1.00  0.00     0.059 A 
ATOM     67  F   UNL A   1      43.157  26.572  32.328  1.00  0.00    -0.206 F 
ATOM     68  C   UNL A   1      44.110  25.960  35.700  1.00  0.00     0.060 A 
BRANCH  68  69
ATOM     69  S   UNL A   1      45.074  24.737  36.603  1.00  0.00     0.124 S 
ATOM     70  O   UNL A   1      44.670  25.001  37.978  1.00  0.00    -0.237 OA
ATOM     71  O   UNL A   1      44.594  23.489  36.019  1.00  0.00    -0.237 OA
ATOM     72  O   UNL A   1      46.453  25.086  36.269  1.00  0.00    -0.744 OA
ENDBRANCH  68  69
ENDBRANCH  47  61
BRANCH  48  73
ATOM     73  C   UNL A   1      43.501  25.665  26.306  1.00  0.00     0.058 A 
ATOM     74  C   UNL A   1      44.561  25.477  25.395  1.00  0.00     0.135 A 
ATOM     75  C   UNL A   1      42.772  24.509  26.649  1.00  0.00     0.135 A 
ATOM     76  F   UNL A   1      45.311  26.519  25.008  1.00  0.00    -0.206 F 
ATOM     77  C   UNL A   1      44.928  24.210  24.922  1.00  0.00     0.059 A 
ATOM     78  C   UNL A   1      43.113  23.238  26.181  1.00  0.00     0.059 A 
ATOM     79  F   UNL A   1      41.761  24.562  27.527  1.00  0.00    -0.206 F 
ATOM     80  C   UNL A   1      44.213  23.091  25.346  1.00  0.00     0.060 A 
BRANCH  80  81
ATOM     81  S   UNL A   1      44.803  21.436  24.910  1.00  0.00     0.124 S 
ATOM     82  O   UNL A   1      44.662  21.437  23.458  1.00  0.00    -0.237 OA
ATOM     83  O   UNL A   1      46.171  21.452  25.417  1.00  0.00    -0.237 OA
ATOM     84  O   UNL A   1      43.887  20.552  25.625  1.00  0.00    -0.744 OA
ENDBRANCH  80  81
ENDBRANCH  48  73
BRANCH  60  85
ATOM     85  C   UNL A   1      45.286  31.263  28.826  1.00  0.00     0.058 A 
ATOM     86  C   UNL A   1      46.554  31.787  28.526  1.00  0.00     0.135 A 
ATOM     87  C   UNL A   1      44.192  31.769  28.106  1.00  0.00     0.135 A 
ATOM     88  F   UNL A   1      47.659  31.303  29.115  1.00  0.00    -0.206 F 
ATOM     89  C   UNL A   1      46.717  32.795  27.573  1.00  0.00     0.059 A 
ATOM     90  C   UNL A   1      44.335  32.746  27.129  1.00  0.00     0.059 A 
ATOM     91  F   UNL A   1      42.959  31.280  28.322  1.00  0.00    -0.206 F 
ATOM     92  C   UNL A   1      45.600  33.266  26.878  1.00  0.00     0.060 A 
BRANCH  92  93
ATOM     93  S   UNL A   1      45.809  34.533  25.610  1.00  0.00     0.124 S 
ATOM     94  O   UNL A   1      47.231  34.427  25.300  1.00  0.00    -0.237 OA
ATOM     95  O   UNL A   1      44.895  34.085  24.563  1.00  0.00    -0.237 OA
ATOM     96  O   UNL A   1      45.410  35.765  26.287  1.00  0.00    -0.744 OA
ENDBRANCH  92  93
ENDBRANCH  60  85
ENDBRANCH  34  35
ENDBRANCH  26  29
ENDBRANCH  24  25
ENDBRANCH  23  24
ENDBRANCH   1  23
TORSDOF 18
ENDMDL
