MODEL 1
REMARK VINA RESULT:     -11.4      0.000      0.000
REMARK SMILES Cc1ccc(S(=O)(=O)Nc2ccc(C(=O)CCC(=O)NCCCCNC(=O)c3ccc(-c4c5nc(c(-c6c(F)cc(S(=O)(=O)[O-])cc6F)c6ccc([nH]6)c(-c6c(F)cc(S(=O)(=O)[O-])cc6F)c6nc(c(-c7c(F)cc(S(=O)(=O)[O-])cc7F)c7ccc4[nH]7)C=C6)C=C5)cc3)cc2)c(C)c1
REMARK SMILES IDX 21 1 20 2 18 3 19 4 17 6 16 7 14 8 15 9 13 10 10 11 11 12
REMARK SMILES IDX 95 13 12 14 94 15 9 16 6 18 7 19 8 20 5 21 1 22 2 23 3 24
REMARK SMILES IDX 98 25 4 26 96 27 97 28 22 29 23 30 24 31 25 32 26 33 27 35
REMARK SMILES IDX 28 36 29 37 93 38 30 39 92 40 31 41 32 42 33 43 86 44 34 45
REMARK SMILES IDX 91 46 85 47 87 48 35 49 90 50 84 51 83 52 36 54 70 55 49 56
REMARK SMILES IDX 69 57 50 58 53 59 68 60 88 61 51 62 52 63 67 65 89 66 54 67
REMARK SMILES IDX 37 68 38 69 47 70 39 71 40 72 46 73 48 74 41 75 42 76 43 77
REMARK SMILES IDX 44 78 45 79 71 80 72 81 81 82 73 83 74 84 80 85 82 86 75 87
REMARK SMILES IDX 76 88 77 89 78 90 79 91 55 92 56 93 65 94 57 95 58 96 64 97
REMARK SMILES IDX 66 98 59 99 60 100 61 101 62 102 63 103
REMARK H PARENT 20 5 9 17 25 34 87 53 53 64
REMARK Flexibility Score: inf
ROOT
ATOM      1  C   UNL A   1      34.395  32.517  28.348  1.00  0.00     0.116 C 
ENDROOT
BRANCH   1   2
ATOM      2  N   UNL A   1      34.331  31.069  28.233  1.00  0.00    -0.356 N 
ATOM      3  C   UNL A   1      33.793  30.277  27.273  1.00  0.00     0.220 C 
ATOM      4  O   UNL A   1      34.231  29.134  27.134  1.00  0.00    -0.275 OA
ATOM      5  H   UNL A   1      34.750  30.580  28.978  1.00  0.00     0.163 HD
BRANCH   3   6
ATOM      6  C   UNL A   1      32.591  30.745  26.504  1.00  0.00     0.108 C 
BRANCH   6   7
ATOM      7  C   UNL A   1      31.594  29.586  26.391  1.00  0.00     0.091 C 
BRANCH   7   8
ATOM      8  C   UNL A   1      31.378  29.140  24.952  1.00  0.00     0.163 C 
ATOM      9  O   UNL A   1      30.584  29.758  24.241  1.00  0.00    -0.294 OA
BRANCH   8  10
ATOM     10  C   UNL A   1      32.007  27.878  24.421  1.00  0.00     0.018 A 
ATOM     11  C   UNL A   1      32.339  25.304  23.312  1.00  0.00     0.049 A 
ATOM     12  C   UNL A   1      32.215  26.426  22.484  1.00  0.00     0.027 A 
ATOM     13  C   UNL A   1      32.513  25.511  24.679  1.00  0.00     0.027 A 
ATOM     14  C   UNL A   1      32.048  27.706  23.033  1.00  0.00     0.014 A 
ATOM     15  C   UNL A   1      32.371  26.798  25.229  1.00  0.00     0.014 A 
BRANCH  11  16
ATOM     16  N   UNL A   1      31.924  24.057  22.746  1.00  0.00    -0.280 N 
ATOM     17  H   UNL A   1      30.955  23.893  22.709  1.00  0.00     0.180 HD
BRANCH  16  18
ATOM     18  S   UNL A   1      32.914  22.846  22.138  1.00  0.00     0.262 S 
ATOM     19  O   UNL A   1      33.414  23.293  20.848  1.00  0.00    -0.201 OA
ATOM     20  O   UNL A   1      32.152  21.638  22.299  1.00  0.00    -0.201 OA
BRANCH  18  21
ATOM     21  C   UNL A   1      34.332  22.670  23.220  1.00  0.00     0.090 A 
ATOM     22  C   UNL A   1      37.904  21.385  25.251  1.00  0.00     0.044 C 
ATOM     23  C   UNL A   1      36.651  21.914  24.617  1.00  0.00    -0.051 A 
ATOM     24  C   UNL A   1      36.720  22.845  23.584  1.00  0.00     0.005 A 
ATOM     25  C   UNL A   1      35.393  21.517  25.069  1.00  0.00     0.008 A 
ATOM     26  C   UNL A   1      35.574  23.194  22.860  1.00  0.00     0.023 A 
ATOM     27  C   UNL A   1      34.218  21.919  24.405  1.00  0.00    -0.030 A 
ATOM     28  C   UNL A   1      32.908  21.608  25.075  1.00  0.00     0.046 C 
ENDBRANCH  18  21
ENDBRANCH  16  18
ENDBRANCH  11  16
ENDBRANCH   8  10
ENDBRANCH   7   8
ENDBRANCH   6   7
ENDBRANCH   3   6
ENDBRANCH   1   2
BRANCH   1  29
ATOM     29  C   UNL A   1      35.786  33.130  28.174  1.00  0.00     0.023 C 
BRANCH  29  30
ATOM     30  C   UNL A   1      36.163  34.157  29.240  1.00  0.00     0.023 C 
BRANCH  30  31
ATOM     31  C   UNL A   1      37.061  33.695  30.384  1.00  0.00     0.116 C 
BRANCH  31  32
ATOM     32  N   UNL A   1      36.451  32.600  31.114  1.00  0.00    -0.352 N 
ATOM     33  C   UNL A   1      36.703  31.248  31.105  1.00  0.00     0.251 C 
ATOM     34  H   UNL A   1      35.729  32.874  31.724  1.00  0.00     0.163 HD
ATOM     35  O   UNL A   1      35.832  30.508  31.565  1.00  0.00    -0.269 OA
BRANCH  33  36
ATOM     36  C   UNL A   1      37.964  30.644  30.581  1.00  0.00     0.039 A 
ATOM     37  C   UNL A   1      38.936  30.243  31.513  1.00  0.00     0.014 A 
ATOM     38  C   UNL A   1      38.281  30.573  29.223  1.00  0.00     0.014 A 
ATOM     39  C   UNL A   1      40.196  29.788  31.093  1.00  0.00     0.010 A 
ATOM     40  C   UNL A   1      39.510  30.043  28.802  1.00  0.00     0.010 A 
ATOM     41  C   UNL A   1      40.497  29.675  29.729  1.00  0.00    -0.014 A 
BRANCH  41  42
ATOM     42  C   UNL A   1      41.845  29.230  29.260  1.00  0.00     0.031 A 
ATOM     43  C   UNL A   1      42.997  30.209  29.208  1.00  0.00     0.074 A 
ATOM     44  C   UNL A   1      42.038  27.960  28.849  1.00  0.00     0.049 A 
ATOM     45  N   UNL A   1      44.215  30.036  28.758  1.00  0.00    -0.248 NA
ATOM     46  C   UNL A   1      42.741  31.568  29.713  1.00  0.00     0.031 C 
ATOM     47  C   UNL A   1      41.017  26.913  28.825  1.00  0.00     0.029 A 
ATOM     48  N   UNL A   1      43.160  27.335  28.356  1.00  0.00    -0.354 N 
ATOM     49  C   UNL A   1      44.856  31.264  28.892  1.00  0.00     0.074 A 
ATOM     50  C   UNL A   1      43.883  32.185  29.441  1.00  0.00     0.031 C 
ATOM     51  C   UNL A   1      41.559  25.776  28.357  1.00  0.00     0.029 A 
ATOM     52  C   UNL A   1      42.955  26.021  28.006  1.00  0.00     0.049 A 
ATOM     53  H   UNL A   1      44.030  27.786  28.263  1.00  0.00     0.167 HD
ATOM     54  C   UNL A   1      46.138  31.594  28.602  1.00  0.00     0.037 A 
ATOM     55  C   UNL A   1      43.787  25.116  27.450  1.00  0.00     0.037 A 
ATOM     56  C   UNL A   1      47.122  30.668  28.103  1.00  0.00     0.049 A 
ATOM     57  C   UNL A   1      45.206  25.511  27.133  1.00  0.00     0.074 A 
ATOM     58  C   UNL A   1      48.466  30.893  27.854  1.00  0.00     0.029 A 
ATOM     59  N   UNL A   1      46.873  29.344  27.777  1.00  0.00    -0.354 N 
ATOM     60  N   UNL A   1      45.806  26.661  27.326  1.00  0.00    -0.248 NA
ATOM     61  C   UNL A   1      46.064  24.483  26.525  1.00  0.00     0.031 C 
ATOM     62  C   UNL A   1      49.019  29.719  27.334  1.00  0.00     0.029 A 
ATOM     63  C   UNL A   1      48.033  28.746  27.308  1.00  0.00     0.049 A 
ATOM     64  H   UNL A   1      46.002  28.894  27.866  1.00  0.00     0.167 HD
ATOM     65  C   UNL A   1      47.117  26.483  26.895  1.00  0.00     0.074 A 
ATOM     66  C   UNL A   1      47.227  25.113  26.442  1.00  0.00     0.031 C 
ATOM     67  C   UNL A   1      48.138  27.375  26.878  1.00  0.00     0.037 A 
BRANCH  54  68
ATOM     68  C   UNL A   1      46.571  33.021  28.817  1.00  0.00     0.058 A 
ATOM     69  C   UNL A   1      47.114  33.455  30.037  1.00  0.00     0.135 A 
ATOM     70  C   UNL A   1      46.515  33.948  27.761  1.00  0.00     0.135 A 
ATOM     71  F   UNL A   1      47.182  32.617  31.083  1.00  0.00    -0.206 F 
ATOM     72  C   UNL A   1      47.570  34.759  30.208  1.00  0.00     0.059 A 
ATOM     73  C   UNL A   1      46.990  35.250  27.902  1.00  0.00     0.059 A 
ATOM     74  F   UNL A   1      46.009  33.587  26.572  1.00  0.00    -0.206 F 
ATOM     75  C   UNL A   1      47.507  35.648  29.133  1.00  0.00     0.060 A 
BRANCH  75  76
ATOM     76  S   UNL A   1      48.131  37.327  29.365  1.00  0.00     0.124 S 
ATOM     77  O   UNL A   1      49.367  37.289  28.589  1.00  0.00    -0.237 OA
ATOM     78  O   UNL A   1      47.057  38.140  28.805  1.00  0.00    -0.237 OA
ATOM     79  O   UNL A   1      48.303  37.430  30.810  1.00  0.00    -0.744 OA
ENDBRANCH  75  76
ENDBRANCH  54  68
BRANCH  55  80
ATOM     80  C   UNL A   1      43.311  23.735  27.158  1.00  0.00     0.058 A 
ATOM     81  C   UNL A   1      43.189  22.783  28.181  1.00  0.00     0.135 A 
ATOM     82  C   UNL A   1      42.994  23.332  25.851  1.00  0.00     0.135 A 
ATOM     83  F   UNL A   1      43.487  23.117  29.446  1.00  0.00    -0.206 F 
ATOM     84  C   UNL A   1      42.800  21.473  27.918  1.00  0.00     0.059 A 
ATOM     85  C   UNL A   1      42.575  22.036  25.567  1.00  0.00     0.059 A 
ATOM     86  F   UNL A   1      43.081  24.207  24.838  1.00  0.00    -0.206 F 
ATOM     87  C   UNL A   1      42.497  21.108  26.605  1.00  0.00     0.060 A 
BRANCH  87  88
ATOM     88  S   UNL A   1      41.974  19.411  26.277  1.00  0.00     0.124 S 
ATOM     89  O   UNL A   1      42.426  18.727  27.483  1.00  0.00    -0.237 OA
ATOM     90  O   UNL A   1      40.530  19.557  26.129  1.00  0.00    -0.237 OA
ATOM     91  O   UNL A   1      42.691  19.071  25.051  1.00  0.00    -0.744 OA
ENDBRANCH  87  88
ENDBRANCH  55  80
BRANCH  67  92
ATOM     92  C   UNL A   1      49.480  26.890  26.402  1.00  0.00     0.058 A 
ATOM     93  C   UNL A   1      50.430  26.355  27.286  1.00  0.00     0.135 A 
ATOM     94  C   UNL A   1      49.800  26.916  25.035  1.00  0.00     0.135 A 
ATOM     95  F   UNL A   1      50.179  26.313  28.603  1.00  0.00    -0.206 F 
ATOM     96  C   UNL A   1      51.659  25.883  26.833  1.00  0.00     0.059 A 
ATOM     97  C   UNL A   1      51.011  26.424  24.557  1.00  0.00     0.059 A 
ATOM     98  F   UNL A   1      48.924  27.408  24.144  1.00  0.00    -0.206 F 
ATOM     99  C   UNL A   1      51.939  25.920  25.466  1.00  0.00     0.060 A 
BRANCH  99 100
ATOM    100  S   UNL A   1      53.523  25.272  24.887  1.00  0.00     0.124 S 
ATOM    101  O   UNL A   1      54.451  25.863  25.846  1.00  0.00    -0.237 OA
ATOM    102  O   UNL A   1      53.331  23.830  24.999  1.00  0.00    -0.237 OA
ATOM    103  O   UNL A   1      53.621  25.781  23.523  1.00  0.00    -0.744 OA
ENDBRANCH  99 100
ENDBRANCH  67  92
ENDBRANCH  41  42
ENDBRANCH  33  36
ENDBRANCH  31  32
ENDBRANCH  30  31
ENDBRANCH  29  30
ENDBRANCH   1  29
TORSDOF 20
ENDMDL
MODEL 2
REMARK VINA RESULT:     -11.4      6.083     13.643
REMARK SMILES Cc1ccc(S(=O)(=O)Nc2ccc(C(=O)CCC(=O)NCCCCNC(=O)c3ccc(-c4c5nc(c(-c6c(F)cc(S(=O)(=O)[O-])cc6F)c6ccc([nH]6)c(-c6c(F)cc(S(=O)(=O)[O-])cc6F)c6nc(c(-c7c(F)cc(S(=O)(=O)[O-])cc7F)c7ccc4[nH]7)C=C6)C=C5)cc3)cc2)c(C)c1
REMARK SMILES IDX 21 1 20 2 18 3 19 4 17 6 16 7 14 8 15 9 13 10 10 11 11 12
REMARK SMILES IDX 95 13 12 14 94 15 9 16 6 18 7 19 8 20 5 21 1 22 2 23 3 24
REMARK SMILES IDX 98 25 4 26 96 27 97 28 22 29 23 30 24 31 25 32 26 33 27 35
REMARK SMILES IDX 28 36 29 37 93 38 30 39 92 40 31 41 32 42 33 43 86 44 34 45
REMARK SMILES IDX 91 46 85 47 87 48 35 49 90 50 84 51 83 52 36 54 70 55 49 56
REMARK SMILES IDX 69 57 50 58 53 59 68 60 88 61 51 62 52 63 67 65 89 66 54 67
REMARK SMILES IDX 37 68 38 69 47 70 39 71 40 72 46 73 48 74 41 75 42 76 43 77
REMARK SMILES IDX 44 78 45 79 71 80 72 81 81 82 73 83 74 84 80 85 82 86 75 87
REMARK SMILES IDX 76 88 77 89 78 90 79 91 55 92 56 93 65 94 57 95 58 96 64 97
REMARK SMILES IDX 66 98 59 99 60 100 61 101 62 102 63 103
REMARK H PARENT 20 5 9 17 25 34 87 53 53 64
REMARK Flexibility Score: inf
ROOT
ATOM      1  C   UNL A   1      42.195  19.718  25.849  1.00  0.00     0.116 C 
ENDROOT
BRANCH   1   2
ATOM      2  N   UNL A   1      43.256  18.770  25.546  1.00  0.00    -0.356 N 
ATOM      3  C   UNL A   1      44.529  18.966  25.125  1.00  0.00     0.220 C 
ATOM      4  O   UNL A   1      45.372  18.099  25.363  1.00  0.00    -0.275 OA
ATOM      5  H   UNL A   1      43.007  17.825  25.667  1.00  0.00     0.163 HD
BRANCH   3   6
ATOM      6  C   UNL A   1      44.858  20.150  24.262  1.00  0.00     0.108 C 
BRANCH   6   7
ATOM      7  C   UNL A   1      45.777  21.094  25.046  1.00  0.00     0.091 C 
BRANCH   7   8
ATOM      8  C   UNL A   1      45.467  22.561  24.787  1.00  0.00     0.163 C 
ATOM      9  O   UNL A   1      44.682  22.862  23.886  1.00  0.00    -0.294 OA
BRANCH   8  10
ATOM     10  C   UNL A   1      46.201  23.656  25.515  1.00  0.00     0.018 A 
ATOM     11  C   UNL A   1      46.771  26.067  26.868  1.00  0.00     0.049 A 
ATOM     12  C   UNL A   1      46.309  24.948  27.571  1.00  0.00     0.027 A 
ATOM     13  C   UNL A   1      47.148  25.899  25.537  1.00  0.00     0.027 A 
ATOM     14  C   UNL A   1      46.022  23.749  26.900  1.00  0.00     0.014 A 
ATOM     15  C   UNL A   1      46.885  24.688  24.869  1.00  0.00     0.014 A 
BRANCH  11  16
ATOM     16  N   UNL A   1      46.486  27.339  27.456  1.00  0.00    -0.280 N 
ATOM     17  H   UNL A   1      46.542  27.392  28.437  1.00  0.00     0.180 HD
BRANCH  16  18
ATOM     18  S   UNL A   1      46.067  28.751  26.652  1.00  0.00     0.262 S 
ATOM     19  O   UNL A   1      45.020  28.420  25.699  1.00  0.00    -0.201 OA
ATOM     20  O   UNL A   1      47.322  29.331  26.255  1.00  0.00    -0.201 OA
BRANCH  18  21
ATOM     21  C   UNL A   1      45.360  29.895  27.835  1.00  0.00     0.090 A 
ATOM     22  C   UNL A   1      42.786  32.107  30.484  1.00  0.00     0.044 C 
ATOM     23  C   UNL A   1      43.763  31.408  29.586  1.00  0.00    -0.051 A 
ATOM     24  C   UNL A   1      44.534  30.353  30.066  1.00  0.00     0.005 A 
ATOM     25  C   UNL A   1      43.949  31.818  28.266  1.00  0.00     0.008 A 
ATOM     26  C   UNL A   1      45.300  29.572  29.192  1.00  0.00     0.023 A 
ATOM     27  C   UNL A   1      44.778  31.095  27.386  1.00  0.00    -0.030 A 
ATOM     28  C   UNL A   1      45.072  31.719  26.050  1.00  0.00     0.046 C 
ENDBRANCH  18  21
ENDBRANCH  16  18
ENDBRANCH  11  16
ENDBRANCH   8  10
ENDBRANCH   7   8
ENDBRANCH   6   7
ENDBRANCH   3   6
ENDBRANCH   1   2
BRANCH   1  29
ATOM     29  C   UNL A   1      42.066  20.111  27.321  1.00  0.00     0.023 C 
BRANCH  29  30
ATOM     30  C   UNL A   1      42.303  21.593  27.604  1.00  0.00     0.023 C 
BRANCH  30  31
ATOM     31  C   UNL A   1      41.375  22.601  26.931  1.00  0.00     0.116 C 
BRANCH  31  32
ATOM     32  N   UNL A   1      42.104  23.431  25.991  1.00  0.00    -0.352 N 
ATOM     33  C   UNL A   1      42.185  24.798  25.856  1.00  0.00     0.251 C 
ATOM     34  H   UNL A   1      42.635  22.927  25.333  1.00  0.00     0.163 HD
ATOM     35  O   UNL A   1      42.604  25.236  24.784  1.00  0.00    -0.269 OA
BRANCH  33  36
ATOM     36  C   UNL A   1      41.805  25.760  26.933  1.00  0.00     0.039 A 
ATOM     37  C   UNL A   1      42.545  26.949  27.042  1.00  0.00     0.014 A 
ATOM     38  C   UNL A   1      40.844  25.487  27.908  1.00  0.00     0.014 A 
ATOM     39  C   UNL A   1      42.330  27.839  28.106  1.00  0.00     0.010 A 
ATOM     40  C   UNL A   1      40.574  26.414  28.926  1.00  0.00     0.010 A 
ATOM     41  C   UNL A   1      41.335  27.587  29.060  1.00  0.00    -0.014 A 
BRANCH  41  42
ATOM     42  C   UNL A   1      41.115  28.500  30.222  1.00  0.00     0.031 A 
ATOM     43  C   UNL A   1      41.966  28.372  31.466  1.00  0.00     0.074 A 
ATOM     44  C   UNL A   1      40.135  29.426  30.186  1.00  0.00     0.049 A 
ATOM     45  N   UNL A   1      41.878  29.016  32.604  1.00  0.00    -0.248 NA
ATOM     46  C   UNL A   1      43.051  27.377  31.433  1.00  0.00     0.031 C 
ATOM     47  C   UNL A   1      39.225  29.652  29.062  1.00  0.00     0.029 A 
ATOM     48  N   UNL A   1      39.730  30.345  31.126  1.00  0.00    -0.354 N 
ATOM     49  C   UNL A   1      42.865  28.482  33.428  1.00  0.00     0.074 A 
ATOM     50  C   UNL A   1      43.525  27.441  32.670  1.00  0.00     0.031 C 
ATOM     51  C   UNL A   1      38.379  30.649  29.372  1.00  0.00     0.029 A 
ATOM     52  C   UNL A   1      38.655  31.107  30.731  1.00  0.00     0.049 A 
ATOM     53  H   UNL A   1      40.168  30.448  32.001  1.00  0.00     0.167 HD
ATOM     54  C   UNL A   1      43.203  28.834  34.692  1.00  0.00     0.037 A 
ATOM     55  C   UNL A   1      37.958  32.056  31.388  1.00  0.00     0.037 A 
ATOM     56  C   UNL A   1      42.581  29.903  35.431  1.00  0.00     0.049 A 
ATOM     57  C   UNL A   1      38.352  32.425  32.794  1.00  0.00     0.074 A 
ATOM     58  C   UNL A   1      42.910  30.383  36.689  1.00  0.00     0.029 A 
ATOM     59  N   UNL A   1      41.507  30.657  34.985  1.00  0.00    -0.354 N 
ATOM     60  N   UNL A   1      39.327  31.949  33.531  1.00  0.00    -0.248 NA
ATOM     61  C   UNL A   1      37.551  33.464  33.460  1.00  0.00     0.031 C 
ATOM     62  C   UNL A   1      42.006  31.396  37.022  1.00  0.00     0.029 A 
ATOM     63  C   UNL A   1      41.147  31.583  35.952  1.00  0.00     0.049 A 
ATOM     64  H   UNL A   1      41.066  30.551  34.112  1.00  0.00     0.167 HD
ATOM     65  C   UNL A   1      39.278  32.654  34.730  1.00  0.00     0.074 A 
ATOM     66  C   UNL A   1      38.185  33.595  34.617  1.00  0.00     0.031 C 
ATOM     67  C   UNL A   1      40.069  32.531  35.824  1.00  0.00     0.037 A 
BRANCH  54  68
ATOM     68  C   UNL A   1      44.305  28.065  35.375  1.00  0.00     0.058 A 
ATOM     69  C   UNL A   1      44.045  26.908  36.127  1.00  0.00     0.135 A 
ATOM     70  C   UNL A   1      45.647  28.447  35.208  1.00  0.00     0.135 A 
ATOM     71  F   UNL A   1      42.781  26.503  36.329  1.00  0.00    -0.206 F 
ATOM     72  C   UNL A   1      45.074  26.169  36.703  1.00  0.00     0.059 A 
ATOM     73  C   UNL A   1      46.694  27.706  35.752  1.00  0.00     0.059 A 
ATOM     74  F   UNL A   1      45.955  29.543  34.495  1.00  0.00    -0.206 F 
ATOM     75  C   UNL A   1      46.396  26.573  36.506  1.00  0.00     0.060 A 
BRANCH  75  76
ATOM     76  S   UNL A   1      47.718  25.584  37.236  1.00  0.00     0.124 S 
ATOM     77  O   UNL A   1      48.810  26.551  37.292  1.00  0.00    -0.237 OA
ATOM     78  O   UNL A   1      47.147  25.199  38.522  1.00  0.00    -0.237 OA
ATOM     79  O   UNL A   1      47.896  24.494  36.281  1.00  0.00    -0.744 OA
ENDBRANCH  75  76
ENDBRANCH  54  68
BRANCH  55  80
ATOM     80  C   UNL A   1      36.810  32.740  30.728  1.00  0.00     0.058 A 
ATOM     81  C   UNL A   1      37.018  33.833  29.873  1.00  0.00     0.135 A 
ATOM     82  C   UNL A   1      35.487  32.335  30.958  1.00  0.00     0.135 A 
ATOM     83  F   UNL A   1      38.265  34.264  29.627  1.00  0.00    -0.206 F 
ATOM     84  C   UNL A   1      35.956  34.519  29.292  1.00  0.00     0.059 A 
ATOM     85  C   UNL A   1      34.408  32.987  30.366  1.00  0.00     0.059 A 
ATOM     86  F   UNL A   1      35.233  31.287  31.756  1.00  0.00    -0.206 F 
ATOM     87  C   UNL A   1      34.653  34.089  29.548  1.00  0.00     0.060 A 
BRANCH  87  88
ATOM     88  S   UNL A   1      33.281  34.975  28.774  1.00  0.00     0.124 S 
ATOM     89  O   UNL A   1      32.655  33.917  27.990  1.00  0.00    -0.237 OA
ATOM     90  O   UNL A   1      32.527  35.444  29.931  1.00  0.00    -0.237 OA
ATOM     91  O   UNL A   1      33.950  36.021  28.006  1.00  0.00    -0.744 OA
ENDBRANCH  87  88
ENDBRANCH  55  80
BRANCH  67  92
ATOM     92  C   UNL A   1      39.820  33.470  36.973  1.00  0.00     0.058 A 
ATOM     93  C   UNL A   1      40.494  34.696  37.087  1.00  0.00     0.135 A 
ATOM     94  C   UNL A   1      38.856  33.160  37.946  1.00  0.00     0.135 A 
ATOM     95  F   UNL A   1      41.429  35.039  36.188  1.00  0.00    -0.206 F 
ATOM     96  C   UNL A   1      40.237  35.571  38.138  1.00  0.00     0.059 A 
ATOM     97  C   UNL A   1      38.563  34.032  38.990  1.00  0.00     0.059 A 
ATOM     98  F   UNL A   1      38.174  32.005  37.880  1.00  0.00    -0.206 F 
ATOM     99  C   UNL A   1      39.269  35.231  39.084  1.00  0.00     0.060 A 
BRANCH  99 100
ATOM    100  S   UNL A   1      38.919  36.391  40.424  1.00  0.00     0.124 S 
ATOM    101  O   UNL A   1      38.504  37.578  39.684  1.00  0.00    -0.237 OA
ATOM    102  O   UNL A   1      37.866  35.706  41.165  1.00  0.00    -0.237 OA
ATOM    103  O   UNL A   1      40.197  36.502  41.121  1.00  0.00    -0.744 OA
ENDBRANCH  99 100
ENDBRANCH  67  92
ENDBRANCH  41  42
ENDBRANCH  33  36
ENDBRANCH  31  32
ENDBRANCH  30  31
ENDBRANCH  29  30
ENDBRANCH   1  29
TORSDOF 20
ENDMDL
MODEL 3
REMARK VINA RESULT:     -11.3      2.766      8.901
REMARK SMILES Cc1ccc(S(=O)(=O)Nc2ccc(C(=O)CCC(=O)NCCCCNC(=O)c3ccc(-c4c5nc(c(-c6c(F)cc(S(=O)(=O)[O-])cc6F)c6ccc([nH]6)c(-c6c(F)cc(S(=O)(=O)[O-])cc6F)c6nc(c(-c7c(F)cc(S(=O)(=O)[O-])cc7F)c7ccc4[nH]7)C=C6)C=C5)cc3)cc2)c(C)c1
REMARK SMILES IDX 21 1 20 2 18 3 19 4 17 6 16 7 14 8 15 9 13 10 10 11 11 12
REMARK SMILES IDX 95 13 12 14 94 15 9 16 6 18 7 19 8 20 5 21 1 22 2 23 3 24
REMARK SMILES IDX 98 25 4 26 96 27 97 28 22 29 23 30 24 31 25 32 26 33 27 35
REMARK SMILES IDX 28 36 29 37 93 38 30 39 92 40 31 41 32 42 33 43 86 44 34 45
REMARK SMILES IDX 91 46 85 47 87 48 35 49 90 50 84 51 83 52 36 54 70 55 49 56
REMARK SMILES IDX 69 57 50 58 53 59 68 60 88 61 51 62 52 63 67 65 89 66 54 67
REMARK SMILES IDX 37 68 38 69 47 70 39 71 40 72 46 73 48 74 41 75 42 76 43 77
REMARK SMILES IDX 44 78 45 79 71 80 72 81 81 82 73 83 74 84 80 85 82 86 75 87
REMARK SMILES IDX 76 88 77 89 78 90 79 91 55 92 56 93 65 94 57 95 58 96 64 97
REMARK SMILES IDX 66 98 59 99 60 100 61 101 62 102 63 103
REMARK H PARENT 20 5 9 17 25 34 87 53 53 64
REMARK Flexibility Score: inf
ROOT
ATOM      1  C   UNL A   1      40.576  22.474  26.284  1.00  0.00     0.116 C 
ENDROOT
BRANCH   1   2
ATOM      2  N   UNL A   1      39.525  23.474  26.388  1.00  0.00    -0.356 N 
ATOM      3  C   UNL A   1      38.193  23.391  26.153  1.00  0.00     0.220 C 
ATOM      4  O   UNL A   1      37.441  24.185  26.720  1.00  0.00    -0.275 OA
ATOM      5  H   UNL A   1      39.834  24.363  26.678  1.00  0.00     0.163 HD
BRANCH   3   6
ATOM      6  C   UNL A   1      37.674  22.443  25.110  1.00  0.00     0.108 C 
BRANCH   6   7
ATOM      7  C   UNL A   1      36.149  22.575  25.036  1.00  0.00     0.091 C 
BRANCH   7   8
ATOM      8  C   UNL A   1      35.686  23.315  23.789  1.00  0.00     0.163 C 
ATOM      9  O   UNL A   1      36.031  22.904  22.680  1.00  0.00    -0.294 OA
BRANCH   8  10
ATOM     10  C   UNL A   1      34.932  24.615  23.886  1.00  0.00     0.018 A 
ATOM     11  C   UNL A   1      32.893  26.508  24.366  1.00  0.00     0.049 A 
ATOM     12  C   UNL A   1      33.769  26.129  25.390  1.00  0.00     0.027 A 
ATOM     13  C   UNL A   1      33.185  26.100  23.066  1.00  0.00     0.027 A 
ATOM     14  C   UNL A   1      34.781  25.187  25.155  1.00  0.00     0.014 A 
ATOM     15  C   UNL A   1      34.217  25.174  22.824  1.00  0.00     0.014 A 
BRANCH  11  16
ATOM     16  N   UNL A   1      31.604  26.969  24.780  1.00  0.00    -0.280 N 
ATOM     17  H   UNL A   1      31.391  27.910  24.585  1.00  0.00     0.180 HD
BRANCH  16  18
ATOM     18  S   UNL A   1      30.416  26.078  25.562  1.00  0.00     0.262 S 
ATOM     19  O   UNL A   1      29.218  26.126  24.740  1.00  0.00    -0.201 OA
ATOM     20  O   UNL A   1      30.444  26.546  26.921  1.00  0.00    -0.201 OA
BRANCH  18  21
ATOM     21  C   UNL A   1      30.939  24.366  25.631  1.00  0.00     0.090 A 
ATOM     22  C   UNL A   1      33.144  20.668  25.673  1.00  0.00     0.044 C 
ATOM     23  C   UNL A   1      32.283  21.896  25.663  1.00  0.00    -0.051 A 
ATOM     24  C   UNL A   1      31.948  22.534  26.854  1.00  0.00     0.005 A 
ATOM     25  C   UNL A   1      31.769  22.407  24.471  1.00  0.00     0.008 A 
ATOM     26  C   UNL A   1      31.314  23.782  26.842  1.00  0.00     0.023 A 
ATOM     27  C   UNL A   1      31.059  23.622  24.443  1.00  0.00    -0.030 A 
ATOM     28  C   UNL A   1      30.377  23.991  23.153  1.00  0.00     0.046 C 
ENDBRANCH  18  21
ENDBRANCH  16  18
ENDBRANCH  11  16
ENDBRANCH   8  10
ENDBRANCH   7   8
ENDBRANCH   6   7
ENDBRANCH   3   6
ENDBRANCH   1   2
BRANCH   1  29
ATOM     29  C   UNL A   1      40.932  21.757  27.588  1.00  0.00     0.023 C 
BRANCH  29  30
ATOM     30  C   UNL A   1      41.150  20.252  27.444  1.00  0.00     0.023 C 
BRANCH  30  31
ATOM     31  C   UNL A   1      41.045  19.651  26.046  1.00  0.00     0.116 C 
BRANCH  31  32
ATOM     32  N   UNL A   1      42.274  18.973  25.678  1.00  0.00    -0.352 N 
ATOM     33  C   UNL A   1      43.489  19.459  25.251  1.00  0.00     0.251 C 
ATOM     34  H   UNL A   1      42.231  17.992  25.745  1.00  0.00     0.163 HD
ATOM     35  O   UNL A   1      44.250  18.666  24.695  1.00  0.00    -0.269 OA
BRANCH  33  36
ATOM     36  C   UNL A   1      43.925  20.875  25.435  1.00  0.00     0.039 A 
ATOM     37  C   UNL A   1      44.507  21.228  26.664  1.00  0.00     0.014 A 
ATOM     38  C   UNL A   1      43.672  21.887  24.508  1.00  0.00     0.014 A 
ATOM     39  C   UNL A   1      44.823  22.564  26.957  1.00  0.00     0.010 A 
ATOM     40  C   UNL A   1      44.061  23.210  24.769  1.00  0.00     0.010 A 
ATOM     41  C   UNL A   1      44.610  23.573  26.009  1.00  0.00    -0.014 A 
BRANCH  41  42
ATOM     42  C   UNL A   1      44.903  25.007  26.314  1.00  0.00     0.031 A 
ATOM     43  C   UNL A   1      46.310  25.546  26.175  1.00  0.00     0.074 A 
ATOM     44  C   UNL A   1      43.923  25.825  26.748  1.00  0.00     0.049 A 
ATOM     45  N   UNL A   1      46.778  26.734  26.466  1.00  0.00    -0.248 NA
ATOM     46  C   UNL A   1      47.330  24.621  25.653  1.00  0.00     0.031 C 
ATOM     47  C   UNL A   1      42.525  25.441  26.948  1.00  0.00     0.029 A 
ATOM     48  N   UNL A   1      43.953  27.151  27.113  1.00  0.00    -0.354 N 
ATOM     49  C   UNL A   1      48.143  26.690  26.199  1.00  0.00     0.074 A 
ATOM     50  C   UNL A   1      48.436  25.346  25.747  1.00  0.00     0.031 C 
ATOM     51  C   UNL A   1      41.832  26.505  27.386  1.00  0.00     0.029 A 
ATOM     52  C   UNL A   1      42.739  27.638  27.540  1.00  0.00     0.049 A 
ATOM     53  H   UNL A   1      44.768  27.702  27.072  1.00  0.00     0.167 HD
ATOM     54  C   UNL A   1      49.066  27.676  26.304  1.00  0.00     0.037 A 
ATOM     55  C   UNL A   1      42.395  28.851  28.017  1.00  0.00     0.037 A 
ATOM     56  C   UNL A   1      48.768  29.027  26.707  1.00  0.00     0.049 A 
ATOM     57  C   UNL A   1      43.442  29.929  28.129  1.00  0.00     0.074 A 
ATOM     58  C   UNL A   1      49.624  30.114  26.767  1.00  0.00     0.029 A 
ATOM     59  N   UNL A   1      47.522  29.478  27.116  1.00  0.00    -0.354 N 
ATOM     60  N   UNL A   1      44.713  29.881  27.812  1.00  0.00    -0.248 NA
ATOM     61  C   UNL A   1      43.006  31.229  28.660  1.00  0.00     0.031 C 
ATOM     62  C   UNL A   1      48.908  31.211  27.257  1.00  0.00     0.029 A 
ATOM     63  C   UNL A   1      47.593  30.821  27.452  1.00  0.00     0.049 A 
ATOM     64  H   UNL A   1      46.709  28.926  27.161  1.00  0.00     0.167 HD
ATOM     65  C   UNL A   1      45.219  31.151  28.073  1.00  0.00     0.074 A 
ATOM     66  C   UNL A   1      44.115  31.948  28.563  1.00  0.00     0.031 C 
ATOM     67  C   UNL A   1      46.484  31.613  27.920  1.00  0.00     0.037 A 
BRANCH  54  68
ATOM     68  C   UNL A   1      50.499  27.348  25.976  1.00  0.00     0.058 A 
ATOM     69  C   UNL A   1      51.402  26.906  26.956  1.00  0.00     0.135 A 
ATOM     70  C   UNL A   1      50.954  27.402  24.647  1.00  0.00     0.135 A 
ATOM     71  F   UNL A   1      51.026  26.846  28.244  1.00  0.00    -0.206 F 
ATOM     72  C   UNL A   1      52.707  26.546  26.634  1.00  0.00     0.059 A 
ATOM     73  C   UNL A   1      52.247  27.020  24.298  1.00  0.00     0.059 A 
ATOM     74  F   UNL A   1      50.133  27.814  23.668  1.00  0.00    -0.206 F 
ATOM     75  C   UNL A   1      53.119  26.602  25.301  1.00  0.00     0.060 A 
BRANCH  75  76
ATOM     76  S   UNL A   1      54.807  26.101  24.899  1.00  0.00     0.124 S 
ATOM     77  O   UNL A   1      54.935  26.582  23.527  1.00  0.00    -0.237 OA
ATOM     78  O   UNL A   1      55.592  26.820  25.896  1.00  0.00    -0.237 OA
ATOM     79  O   UNL A   1      54.779  24.651  25.054  1.00  0.00    -0.744 OA
ENDBRANCH  75  76
ENDBRANCH  54  68
BRANCH  55  80
ATOM     80  C   UNL A   1      40.989  29.128  28.426  1.00  0.00     0.058 A 
ATOM     81  C   UNL A   1      40.630  29.183  29.782  1.00  0.00     0.135 A 
ATOM     82  C   UNL A   1      39.974  29.314  27.475  1.00  0.00     0.135 A 
ATOM     83  F   UNL A   1      41.564  29.003  30.729  1.00  0.00    -0.206 F 
ATOM     84  C   UNL A   1      39.313  29.384  30.181  1.00  0.00     0.059 A 
ATOM     85  C   UNL A   1      38.653  29.546  27.850  1.00  0.00     0.059 A 
ATOM     86  F   UNL A   1      40.264  29.284  26.166  1.00  0.00    -0.206 F 
ATOM     87  C   UNL A   1      38.330  29.562  29.206  1.00  0.00     0.060 A 
BRANCH  87  88
ATOM     88  S   UNL A   1      36.626  29.841  29.736  1.00  0.00     0.124 S 
ATOM     89  O   UNL A   1      35.877  29.317  28.601  1.00  0.00    -0.237 OA
ATOM     90  O   UNL A   1      36.554  29.059  30.966  1.00  0.00    -0.237 OA
ATOM     91  O   UNL A   1      36.566  31.289  29.920  1.00  0.00    -0.744 OA
ENDBRANCH  87  88
ENDBRANCH  55  80
BRANCH  67  92
ATOM     92  C   UNL A   1      46.740  33.062  28.234  1.00  0.00     0.058 A 
ATOM     93  C   UNL A   1      46.576  34.069  27.270  1.00  0.00     0.135 A 
ATOM     94  C   UNL A   1      47.106  33.453  29.532  1.00  0.00     0.135 A 
ATOM     95  F   UNL A   1      46.234  33.751  26.012  1.00  0.00    -0.206 F 
ATOM     96  C   UNL A   1      46.788  35.410  27.576  1.00  0.00     0.059 A 
ATOM     97  C   UNL A   1      47.296  34.789  29.869  1.00  0.00     0.059 A 
ATOM     98  F   UNL A   1      47.266  32.532  30.496  1.00  0.00    -0.206 F 
ATOM     99  C   UNL A   1      47.146  35.761  28.879  1.00  0.00     0.060 A 
BRANCH  99 100
ATOM    100  S   UNL A   1      47.383  37.507  29.274  1.00  0.00     0.124 S 
ATOM    101  O   UNL A   1      48.701  37.490  29.902  1.00  0.00    -0.237 OA
ATOM    102  O   UNL A   1      47.316  38.137  27.959  1.00  0.00    -0.237 OA
ATOM    103  O   UNL A   1      46.267  37.810  30.165  1.00  0.00    -0.744 OA
ENDBRANCH  99 100
ENDBRANCH  67  92
ENDBRANCH  41  42
ENDBRANCH  33  36
ENDBRANCH  31  32
ENDBRANCH  30  31
ENDBRANCH  29  30
ENDBRANCH   1  29
TORSDOF 20
ENDMDL
