MODEL 1
REMARK VINA RESULT:     -12.2      0.000      0.000
REMARK SMILES Nc1nn(-c2cc(Cl)ccc2Cl)nc1C(=O)NCCCCNC(=O)c1ccc(-c2c3nc(c(-c4c(F)cc(S(=O)(=O)[O-])cc4F)c4ccc([nH]4)c(-c4c(F)cc(S(=O)(=O)[O-])cc4F)c4nc(c(-c5c(F)cc(S(=O)(=O)[O-])cc5F)c5ccc2[nH]5)C=C4)C=C3)cc1
REMARK SMILES IDX 20 1 19 2 18 3 17 4 15 5 16 6 14 8 2 9 3 10 4 11 13 12 1 13
REMARK SMILES IDX 5 16 6 17 11 18 7 19 10 20 12 21 8 22 9 23 21 24 22 25 23 26
REMARK SMILES IDX 24 28 25 29 26 30 90 31 27 32 89 33 28 34 29 35 30 36 83 37
REMARK SMILES IDX 31 38 88 39 82 40 84 41 32 42 87 43 81 44 80 45 33 47 67 48
REMARK SMILES IDX 46 49 66 50 47 51 50 52 65 53 85 54 48 55 49 56 64 58 86 59
REMARK SMILES IDX 51 60 34 61 35 62 44 63 36 64 37 65 43 66 45 67 38 68 39 69
REMARK SMILES IDX 40 70 41 71 42 72 68 73 69 74 78 75 70 76 71 77 77 78 79 79
REMARK SMILES IDX 72 80 73 81 74 82 75 83 76 84 52 85 53 86 62 87 54 88 55 89
REMARK SMILES IDX 61 90 63 91 56 92 57 93 58 94 59 95 60 96
REMARK H PARENT 17 7 1 14 1 15 22 27 84 46 50 57
REMARK Flexibility Score: inf
ROOT
ATOM      1  C   UNL A   1      34.296  34.084  29.447  1.00  0.00     0.023 C 
ENDROOT
BRANCH   1   2
ATOM      2  C   UNL A   1      33.102  35.043  29.494  1.00  0.00     0.023 C 
BRANCH   2   3
ATOM      3  C   UNL A   1      33.366  36.503  29.870  1.00  0.00     0.116 C 
BRANCH   3   4
ATOM      4  N   UNL A   1      32.766  36.919  31.118  1.00  0.00    -0.351 N 
ATOM      5  C   UNL A   1      32.979  36.501  32.418  1.00  0.00     0.275 C 
ATOM      6  O   UNL A   1      32.210  36.979  33.257  1.00  0.00    -0.267 OA
ATOM      7  H   UNL A   1      32.085  37.625  31.025  1.00  0.00     0.163 HD
BRANCH   5   8
ATOM      8  C   UNL A   1      34.025  35.538  32.801  1.00  0.00     0.194 A 
ATOM      9  C   UNL A   1      33.993  34.170  33.207  1.00  0.00     0.179 A 
ATOM     10  N   UNL A   1      35.231  33.717  33.368  1.00  0.00    -0.130 NA
ATOM     11  N   UNL A   1      35.972  34.723  32.872  1.00  0.00    -0.147 N 
ATOM     12  N   UNL A   1      35.331  35.906  32.736  1.00  0.00    -0.141 NA
BRANCH   9  13
ATOM     13  N   UNL A   1      32.959  33.341  33.394  1.00  0.00    -0.380 N 
ATOM     14  H   UNL A   1      32.242  33.583  34.023  1.00  0.00     0.158 HD
ATOM     15  H   UNL A   1      32.916  32.490  32.902  1.00  0.00     0.158 HD
ENDBRANCH   9  13
BRANCH  11  16
ATOM     16  C   UNL A   1      37.353  34.576  32.597  1.00  0.00     0.106 A 
ATOM     17  C   UNL A   1      37.769  34.537  31.254  1.00  0.00     0.052 A 
ATOM     18  C   UNL A   1      38.305  34.467  33.625  1.00  0.00     0.068 A 
ATOM     19  C   UNL A   1      39.129  34.453  30.951  1.00  0.00     0.043 A 
ATOM     20  C   UNL A   1      39.663  34.345  33.299  1.00  0.00     0.024 A 
ATOM     21  Cl  UNL A   1      37.928  34.326  35.307  1.00  0.00    -0.082 Cl
ATOM     22  Cl  UNL A   1      39.651  34.500  29.312  1.00  0.00    -0.084 Cl
ATOM     23  C   UNL A   1      40.076  34.355  31.967  1.00  0.00     0.022 A 
ENDBRANCH  11  16
ENDBRANCH   5   8
ENDBRANCH   3   4
ENDBRANCH   2   3
ENDBRANCH   1   2
BRANCH   1  24
ATOM     24  C   UNL A   1      34.507  33.379  28.116  1.00  0.00     0.116 C 
BRANCH  24  25
ATOM     25  N   UNL A   1      33.838  32.079  28.013  1.00  0.00    -0.352 N 
ATOM     26  C   UNL A   1      34.431  30.849  27.770  1.00  0.00     0.251 C 
ATOM     27  H   UNL A   1      32.861  32.079  28.129  1.00  0.00     0.163 HD
ATOM     28  O   UNL A   1      33.768  29.891  27.380  1.00  0.00    -0.269 OA
BRANCH  26  29
ATOM     29  C   UNL A   1      35.880  30.718  28.000  1.00  0.00     0.039 A 
ATOM     30  C   UNL A   1      36.613  31.647  28.747  1.00  0.00     0.014 A 
ATOM     31  C   UNL A   1      36.484  29.574  27.495  1.00  0.00     0.014 A 
ATOM     32  C   UNL A   1      37.942  31.359  29.055  1.00  0.00     0.010 A 
ATOM     33  C   UNL A   1      37.714  29.204  27.960  1.00  0.00     0.010 A 
ATOM     34  C   UNL A   1      38.478  30.123  28.672  1.00  0.00    -0.014 A 
BRANCH  34  35
ATOM     35  C   UNL A   1      39.820  29.701  29.055  1.00  0.00     0.031 A 
ATOM     36  C   UNL A   1      40.011  29.457  30.512  1.00  0.00     0.074 A 
ATOM     37  C   UNL A   1      40.702  29.266  28.127  1.00  0.00     0.049 A 
ATOM     38  N   UNL A   1      40.736  30.127  31.345  1.00  0.00    -0.248 NA
ATOM     39  C   UNL A   1      39.169  28.435  31.157  1.00  0.00     0.031 C 
ATOM     40  C   UNL A   1      40.493  29.114  26.679  1.00  0.00     0.029 A 
ATOM     41  N   UNL A   1      41.936  28.726  28.298  1.00  0.00    -0.354 N 
ATOM     42  C   UNL A   1      40.644  29.450  32.562  1.00  0.00     0.074 A 
ATOM     43  C   UNL A   1      39.496  28.594  32.441  1.00  0.00     0.031 C 
ATOM     44  C   UNL A   1      41.437  28.297  26.166  1.00  0.00     0.029 A 
ATOM     45  C   UNL A   1      42.416  28.021  27.200  1.00  0.00     0.049 A 
ATOM     46  H   UNL A   1      42.449  28.826  29.133  1.00  0.00     0.167 HD
ATOM     47  C   UNL A   1      41.680  29.448  33.452  1.00  0.00     0.037 A 
ATOM     48  C   UNL A   1      43.520  27.235  27.157  1.00  0.00     0.037 A 
ATOM     49  C   UNL A   1      42.651  30.459  33.095  1.00  0.00     0.049 A 
ATOM     50  C   UNL A   1      44.371  27.633  28.311  1.00  0.00     0.074 A 
ATOM     51  C   UNL A   1      42.614  31.828  32.918  1.00  0.00     0.029 A 
ATOM     52  N   UNL A   1      43.807  30.034  32.482  1.00  0.00    -0.354 N 
ATOM     53  N   UNL A   1      44.917  28.816  28.433  1.00  0.00    -0.248 NA
ATOM     54  C   UNL A   1      44.213  26.894  29.554  1.00  0.00     0.031 C 
ATOM     55  C   UNL A   1      43.472  32.078  31.807  1.00  0.00     0.029 A 
ATOM     56  C   UNL A   1      44.044  30.864  31.419  1.00  0.00     0.049 A 
ATOM     57  H   UNL A   1      44.363  29.271  32.759  1.00  0.00     0.167 HD
ATOM     58  C   UNL A   1      44.778  29.139  29.777  1.00  0.00     0.074 A 
ATOM     59  C   UNL A   1      44.419  27.882  30.430  1.00  0.00     0.031 C 
ATOM     60  C   UNL A   1      44.675  30.439  30.187  1.00  0.00     0.037 A 
BRANCH  47  61
ATOM     61  C   UNL A   1      42.052  28.298  34.376  1.00  0.00     0.058 A 
ATOM     62  C   UNL A   1      41.942  28.497  35.772  1.00  0.00     0.135 A 
ATOM     63  C   UNL A   1      42.786  27.153  33.994  1.00  0.00     0.135 A 
ATOM     64  F   UNL A   1      41.228  29.522  36.266  1.00  0.00    -0.206 F 
ATOM     65  C   UNL A   1      42.633  27.717  36.701  1.00  0.00     0.059 A 
ATOM     66  C   UNL A   1      43.440  26.332  34.907  1.00  0.00     0.059 A 
ATOM     67  F   UNL A   1      42.989  26.812  32.719  1.00  0.00    -0.206 F 
ATOM     68  C   UNL A   1      43.407  26.656  36.251  1.00  0.00     0.060 A 
BRANCH  68  69
ATOM     69  S   UNL A   1      44.424  25.743  37.424  1.00  0.00     0.124 S 
ATOM     70  O   UNL A   1      45.759  26.202  37.062  1.00  0.00    -0.237 OA
ATOM     71  O   UNL A   1      43.907  26.217  38.704  1.00  0.00    -0.237 OA
ATOM     72  O   UNL A   1      44.125  24.350  37.110  1.00  0.00    -0.744 OA
ENDBRANCH  68  69
ENDBRANCH  47  61
BRANCH  48  73
ATOM     73  C   UNL A   1      43.695  25.965  26.402  1.00  0.00     0.058 A 
ATOM     74  C   UNL A   1      44.753  25.786  25.492  1.00  0.00     0.135 A 
ATOM     75  C   UNL A   1      42.974  24.802  26.745  1.00  0.00     0.135 A 
ATOM     76  F   UNL A   1      45.509  26.833  25.128  1.00  0.00    -0.206 F 
ATOM     77  C   UNL A   1      45.095  24.528  24.980  1.00  0.00     0.059 A 
ATOM     78  C   UNL A   1      43.288  23.540  26.241  1.00  0.00     0.059 A 
ATOM     79  F   UNL A   1      41.987  24.842  27.653  1.00  0.00    -0.206 F 
ATOM     80  C   UNL A   1      44.365  23.406  25.373  1.00  0.00     0.060 A 
BRANCH  80  81
ATOM     81  S   UNL A   1      44.892  21.761  24.833  1.00  0.00     0.124 S 
ATOM     82  O   UNL A   1      46.307  21.766  25.186  1.00  0.00    -0.237 OA
ATOM     83  O   UNL A   1      44.039  20.886  25.630  1.00  0.00    -0.237 OA
ATOM     84  O   UNL A   1      44.607  21.767  23.400  1.00  0.00    -0.744 OA
ENDBRANCH  80  81
ENDBRANCH  48  73
BRANCH  60  85
ATOM     85  C   UNL A   1      45.022  31.538  29.215  1.00  0.00     0.058 A 
ATOM     86  C   UNL A   1      46.333  31.921  28.882  1.00  0.00     0.135 A 
ATOM     87  C   UNL A   1      43.983  32.076  28.441  1.00  0.00     0.135 A 
ATOM     88  F   UNL A   1      47.390  31.384  29.504  1.00  0.00    -0.206 F 
ATOM     89  C   UNL A   1      46.597  32.812  27.839  1.00  0.00     0.059 A 
ATOM     90  C   UNL A   1      44.224  32.942  27.379  1.00  0.00     0.059 A 
ATOM     91  F   UNL A   1      42.713  31.701  28.671  1.00  0.00    -0.206 F 
ATOM     92  C   UNL A   1      45.534  33.310  27.086  1.00  0.00     0.060 A 
BRANCH  92  93
ATOM     93  S   UNL A   1      45.882  34.372  25.666  1.00  0.00     0.124 S 
ATOM     94  O   UNL A   1      47.313  34.163  25.470  1.00  0.00    -0.237 OA
ATOM     95  O   UNL A   1      45.013  33.816  24.633  1.00  0.00    -0.237 OA
ATOM     96  O   UNL A   1      45.504  35.703  26.135  1.00  0.00    -0.744 OA
ENDBRANCH  92  93
ENDBRANCH  60  85
ENDBRANCH  34  35
ENDBRANCH  26  29
ENDBRANCH  24  25
ENDBRANCH   1  24
TORSDOF 16
ENDMDL
MODEL 2
REMARK VINA RESULT:     -12.2      4.649     10.903
REMARK SMILES Nc1nn(-c2cc(Cl)ccc2Cl)nc1C(=O)NCCCCNC(=O)c1ccc(-c2c3nc(c(-c4c(F)cc(S(=O)(=O)[O-])cc4F)c4ccc([nH]4)c(-c4c(F)cc(S(=O)(=O)[O-])cc4F)c4nc(c(-c5c(F)cc(S(=O)(=O)[O-])cc5F)c5ccc2[nH]5)C=C4)C=C3)cc1
REMARK SMILES IDX 20 1 19 2 18 3 17 4 15 5 16 6 14 8 2 9 3 10 4 11 13 12 1 13
REMARK SMILES IDX 5 16 6 17 11 18 7 19 10 20 12 21 8 22 9 23 21 24 22 25 23 26
REMARK SMILES IDX 24 28 25 29 26 30 90 31 27 32 89 33 28 34 29 35 30 36 83 37
REMARK SMILES IDX 31 38 88 39 82 40 84 41 32 42 87 43 81 44 80 45 33 47 67 48
REMARK SMILES IDX 46 49 66 50 47 51 50 52 65 53 85 54 48 55 49 56 64 58 86 59
REMARK SMILES IDX 51 60 34 61 35 62 44 63 36 64 37 65 43 66 45 67 38 68 39 69
REMARK SMILES IDX 40 70 41 71 42 72 68 73 69 74 78 75 70 76 71 77 77 78 79 79
REMARK SMILES IDX 72 80 73 81 74 82 75 83 76 84 52 85 53 86 62 87 54 88 55 89
REMARK SMILES IDX 61 90 63 91 56 92 57 93 58 94 59 95 60 96
REMARK H PARENT 17 7 1 14 1 15 22 27 84 46 50 57
REMARK Flexibility Score: inf
ROOT
ATOM      1  C   UNL A   1      35.859  22.674  25.687  1.00  0.00     0.023 C 
ENDROOT
BRANCH   1   2
ATOM      2  C   UNL A   1      34.999  23.087  26.886  1.00  0.00     0.023 C 
BRANCH   2   3
ATOM      3  C   UNL A   1      34.016  22.061  27.453  1.00  0.00     0.116 C 
BRANCH   3   4
ATOM      4  N   UNL A   1      33.291  21.308  26.454  1.00  0.00    -0.351 N 
ATOM      5  C   UNL A   1      32.115  21.582  25.780  1.00  0.00     0.275 C 
ATOM      6  O   UNL A   1      31.694  20.668  25.064  1.00  0.00    -0.267 OA
ATOM      7  H   UNL A   1      33.707  20.450  26.211  1.00  0.00     0.163 HD
BRANCH   5   8
ATOM      8  C   UNL A   1      31.384  22.854  25.903  1.00  0.00     0.194 A 
ATOM      9  C   UNL A   1      30.215  23.244  26.624  1.00  0.00     0.179 A 
ATOM     10  N   UNL A   1      30.002  24.545  26.470  1.00  0.00    -0.130 NA
ATOM     11  N   UNL A   1      31.125  24.949  25.851  1.00  0.00    -0.147 N 
ATOM     12  N   UNL A   1      31.866  23.966  25.291  1.00  0.00    -0.141 NA
BRANCH   9  13
ATOM     13  N   UNL A   1      29.394  22.529  27.403  1.00  0.00    -0.380 N 
ATOM     14  H   UNL A   1      28.447  22.784  27.484  1.00  0.00     0.158 HD
ATOM     15  H   UNL A   1      29.739  21.749  27.894  1.00  0.00     0.158 HD
ENDBRANCH   9  13
BRANCH  11  16
ATOM     16  C   UNL A   1      31.459  26.318  25.716  1.00  0.00     0.106 A 
ATOM     17  C   UNL A   1      32.452  26.853  26.556  1.00  0.00     0.052 A 
ATOM     18  C   UNL A   1      30.825  27.145  24.773  1.00  0.00     0.068 A 
ATOM     19  C   UNL A   1      32.845  28.183  26.406  1.00  0.00     0.043 A 
ATOM     20  C   UNL A   1      31.208  28.489  24.664  1.00  0.00     0.024 A 
ATOM     21  Cl  UNL A   1      29.475  26.675  23.798  1.00  0.00    -0.082 Cl
ATOM     22  Cl  UNL A   1      34.125  28.817  27.367  1.00  0.00    -0.084 Cl
ATOM     23  C   UNL A   1      32.226  29.004  25.467  1.00  0.00     0.022 A 
ENDBRANCH  11  16
ENDBRANCH   5   8
ENDBRANCH   3   4
ENDBRANCH   2   3
ENDBRANCH   1   2
BRANCH   1  24
ATOM     24  C   UNL A   1      37.303  23.148  25.734  1.00  0.00     0.116 C 
BRANCH  24  25
ATOM     25  N   UNL A   1      38.246  22.150  26.246  1.00  0.00    -0.352 N 
ATOM     26  C   UNL A   1      39.528  22.377  26.725  1.00  0.00     0.251 C 
ATOM     27  H   UNL A   1      37.935  21.216  26.251  1.00  0.00     0.163 HD
ATOM     28  O   UNL A   1      40.341  21.461  26.819  1.00  0.00    -0.269 OA
BRANCH  26  29
ATOM     29  C   UNL A   1      39.887  23.748  27.128  1.00  0.00     0.039 A 
ATOM     30  C   UNL A   1      39.001  24.824  27.014  1.00  0.00     0.014 A 
ATOM     31  C   UNL A   1      41.140  23.913  27.703  1.00  0.00     0.014 A 
ATOM     32  C   UNL A   1      39.361  26.051  27.573  1.00  0.00     0.010 A 
ATOM     33  C   UNL A   1      41.405  25.047  28.416  1.00  0.00     0.010 A 
ATOM     34  C   UNL A   1      40.561  26.146  28.290  1.00  0.00    -0.014 A 
BRANCH  34  35
ATOM     35  C   UNL A   1      40.953  27.358  28.999  1.00  0.00     0.031 A 
ATOM     36  C   UNL A   1      42.041  28.142  28.353  1.00  0.00     0.074 A 
ATOM     37  C   UNL A   1      40.172  27.873  29.976  1.00  0.00     0.049 A 
ATOM     38  N   UNL A   1      43.245  28.338  28.777  1.00  0.00    -0.248 NA
ATOM     39  C   UNL A   1      41.813  28.642  26.986  1.00  0.00     0.031 C 
ATOM     40  C   UNL A   1      38.871  27.377  30.452  1.00  0.00     0.029 A 
ATOM     41  N   UNL A   1      40.302  29.040  30.656  1.00  0.00    -0.354 N 
ATOM     42  C   UNL A   1      43.839  29.202  27.857  1.00  0.00     0.074 A 
ATOM     43  C   UNL A   1      43.011  29.145  26.684  1.00  0.00     0.031 C 
ATOM     44  C   UNL A   1      38.232  28.354  31.129  1.00  0.00     0.029 A 
ATOM     45  C   UNL A   1      39.144  29.470  31.295  1.00  0.00     0.049 A 
ATOM     46  H   UNL A   1      41.149  29.541  30.696  1.00  0.00     0.167 HD
ATOM     47  C   UNL A   1      44.796  30.097  28.242  1.00  0.00     0.037 A 
ATOM     48  C   UNL A   1      38.939  30.674  31.883  1.00  0.00     0.037 A 
ATOM     49  C   UNL A   1      45.282  29.776  29.566  1.00  0.00     0.049 A 
ATOM     50  C   UNL A   1      40.283  31.253  32.148  1.00  0.00     0.074 A 
ATOM     51  C   UNL A   1      45.873  28.672  30.148  1.00  0.00     0.029 A 
ATOM     52  N   UNL A   1      44.824  30.547  30.609  1.00  0.00    -0.354 N 
ATOM     53  N   UNL A   1      41.150  30.723  32.972  1.00  0.00    -0.248 NA
ATOM     54  C   UNL A   1      40.849  32.136  31.140  1.00  0.00     0.031 C 
ATOM     55  C   UNL A   1      45.309  28.600  31.456  1.00  0.00     0.029 A 
ATOM     56  C   UNL A   1      44.470  29.703  31.628  1.00  0.00     0.049 A 
ATOM     57  H   UNL A   1      44.762  31.530  30.621  1.00  0.00     0.167 HD
ATOM     58  C   UNL A   1      42.378  30.857  32.337  1.00  0.00     0.074 A 
ATOM     59  C   UNL A   1      42.141  31.812  31.257  1.00  0.00     0.031 C 
ATOM     60  C   UNL A   1      43.390  29.965  32.557  1.00  0.00     0.037 A 
BRANCH  47  61
ATOM     61  C   UNL A   1      45.005  31.482  27.647  1.00  0.00     0.058 A 
ATOM     62  C   UNL A   1      46.243  31.765  27.024  1.00  0.00     0.135 A 
ATOM     63  C   UNL A   1      44.204  32.613  27.921  1.00  0.00     0.135 A 
ATOM     64  F   UNL A   1      47.075  30.773  26.668  1.00  0.00    -0.206 F 
ATOM     65  C   UNL A   1      46.711  33.066  26.835  1.00  0.00     0.059 A 
ATOM     66  C   UNL A   1      44.630  33.917  27.692  1.00  0.00     0.059 A 
ATOM     67  F   UNL A   1      43.006  32.531  28.504  1.00  0.00    -0.206 F 
ATOM     68  C   UNL A   1      45.906  34.136  27.205  1.00  0.00     0.060 A 
BRANCH  68  69
ATOM     69  S   UNL A   1      46.562  35.810  27.111  1.00  0.00     0.124 S 
ATOM     70  O   UNL A   1      46.967  35.879  25.712  1.00  0.00    -0.237 OA
ATOM     71  O   UNL A   1      45.400  36.610  27.484  1.00  0.00    -0.237 OA
ATOM     72  O   UNL A   1      47.647  35.798  28.087  1.00  0.00    -0.744 OA
ENDBRANCH  68  69
ENDBRANCH  47  61
BRANCH  48  73
ATOM     73  C   UNL A   1      37.680  31.468  31.899  1.00  0.00     0.058 A 
ATOM     74  C   UNL A   1      36.988  31.732  33.094  1.00  0.00     0.135 A 
ATOM     75  C   UNL A   1      37.263  32.205  30.770  1.00  0.00     0.135 A 
ATOM     76  F   UNL A   1      37.334  31.097  34.224  1.00  0.00    -0.206 F 
ATOM     77  C   UNL A   1      35.968  32.689  33.173  1.00  0.00     0.059 A 
ATOM     78  C   UNL A   1      36.243  33.154  30.820  1.00  0.00     0.059 A 
ATOM     79  F   UNL A   1      37.894  32.083  29.592  1.00  0.00    -0.206 F 
ATOM     80  C   UNL A   1      35.612  33.407  32.032  1.00  0.00     0.060 A 
BRANCH  80  81
ATOM     81  S   UNL A   1      34.400  34.746  32.158  1.00  0.00     0.124 S 
ATOM     82  O   UNL A   1      34.137  35.047  30.754  1.00  0.00    -0.237 OA
ATOM     83  O   UNL A   1      33.310  34.108  32.888  1.00  0.00    -0.237 OA
ATOM     84  O   UNL A   1      35.116  35.784  32.894  1.00  0.00    -0.744 OA
ENDBRANCH  80  81
ENDBRANCH  48  73
BRANCH  60  85
ATOM     85  C   UNL A   1      43.283  29.013  33.721  1.00  0.00     0.058 A 
ATOM     86  C   UNL A   1      43.569  29.352  35.056  1.00  0.00     0.135 A 
ATOM     87  C   UNL A   1      42.665  27.774  33.495  1.00  0.00     0.135 A 
ATOM     88  F   UNL A   1      44.070  30.552  35.372  1.00  0.00    -0.206 F 
ATOM     89  C   UNL A   1      43.271  28.490  36.113  1.00  0.00     0.059 A 
ATOM     90  C   UNL A   1      42.331  26.912  34.535  1.00  0.00     0.059 A 
ATOM     91  F   UNL A   1      42.310  27.419  32.248  1.00  0.00    -0.206 F 
ATOM     92  C   UNL A   1      42.642  27.275  35.844  1.00  0.00     0.060 A 
BRANCH  92  93
ATOM     93  S   UNL A   1      42.154  26.211  37.219  1.00  0.00     0.124 S 
ATOM     94  O   UNL A   1      40.807  26.689  37.513  1.00  0.00    -0.237 OA
ATOM     95  O   UNL A   1      42.239  24.876  36.635  1.00  0.00    -0.237 OA
ATOM     96  O   UNL A   1      43.155  26.497  38.244  1.00  0.00    -0.744 OA
ENDBRANCH  92  93
ENDBRANCH  60  85
ENDBRANCH  34  35
ENDBRANCH  26  29
ENDBRANCH  24  25
ENDBRANCH   1  24
TORSDOF 16
ENDMDL
MODEL 3
REMARK VINA RESULT:     -11.9      3.985     11.982
REMARK SMILES Nc1nn(-c2cc(Cl)ccc2Cl)nc1C(=O)NCCCCNC(=O)c1ccc(-c2c3nc(c(-c4c(F)cc(S(=O)(=O)[O-])cc4F)c4ccc([nH]4)c(-c4c(F)cc(S(=O)(=O)[O-])cc4F)c4nc(c(-c5c(F)cc(S(=O)(=O)[O-])cc5F)c5ccc2[nH]5)C=C4)C=C3)cc1
REMARK SMILES IDX 20 1 19 2 18 3 17 4 15 5 16 6 14 8 2 9 3 10 4 11 13 12 1 13
REMARK SMILES IDX 5 16 6 17 11 18 7 19 10 20 12 21 8 22 9 23 21 24 22 25 23 26
REMARK SMILES IDX 24 28 25 29 26 30 90 31 27 32 89 33 28 34 29 35 30 36 83 37
REMARK SMILES IDX 31 38 88 39 82 40 84 41 32 42 87 43 81 44 80 45 33 47 67 48
REMARK SMILES IDX 46 49 66 50 47 51 50 52 65 53 85 54 48 55 49 56 64 58 86 59
REMARK SMILES IDX 51 60 34 61 35 62 44 63 36 64 37 65 43 66 45 67 38 68 39 69
REMARK SMILES IDX 40 70 41 71 42 72 68 73 69 74 78 75 70 76 71 77 77 78 79 79
REMARK SMILES IDX 72 80 73 81 74 82 75 83 76 84 52 85 53 86 62 87 54 88 55 89
REMARK SMILES IDX 61 90 63 91 56 92 57 93 58 94 59 95 60 96
REMARK H PARENT 17 7 1 14 1 15 22 27 84 46 50 57
REMARK Flexibility Score: inf
ROOT
ATOM      1  C   UNL A   1      46.464  24.194  25.470  1.00  0.00     0.023 C 
ENDROOT
BRANCH   1   2
ATOM      2  C   UNL A   1      46.017  22.832  24.928  1.00  0.00     0.023 C 
BRANCH   2   3
ATOM      3  C   UNL A   1      45.342  21.859  25.898  1.00  0.00     0.116 C 
BRANCH   3   4
ATOM      4  N   UNL A   1      45.041  20.562  25.334  1.00  0.00    -0.351 N 
ATOM      5  C   UNL A   1      43.938  19.741  25.472  1.00  0.00     0.275 C 
ATOM      6  O   UNL A   1      44.040  18.629  24.945  1.00  0.00    -0.267 OA
ATOM      7  H   UNL A   1      45.745  20.200  24.748  1.00  0.00     0.163 HD
BRANCH   5   8
ATOM      8  C   UNL A   1      42.722  20.128  26.208  1.00  0.00     0.194 A 
ATOM      9  C   UNL A   1      42.069  19.601  27.363  1.00  0.00     0.179 A 
ATOM     10  N   UNL A   1      41.033  20.366  27.685  1.00  0.00    -0.130 NA
ATOM     11  N   UNL A   1      41.193  21.425  26.872  1.00  0.00    -0.147 N 
ATOM     12  N   UNL A   1      42.034  21.236  25.830  1.00  0.00    -0.141 NA
BRANCH   9  13
ATOM     13  N   UNL A   1      42.367  18.541  28.123  1.00  0.00    -0.380 N 
ATOM     14  H   UNL A   1      43.053  17.900  27.828  1.00  0.00     0.158 HD
ATOM     15  H   UNL A   1      41.899  18.402  28.978  1.00  0.00     0.158 HD
ENDBRANCH   9  13
BRANCH  11  16
ATOM     16  C   UNL A   1      40.462  22.625  27.046  1.00  0.00     0.106 A 
ATOM     17  C   UNL A   1      39.234  22.765  26.375  1.00  0.00     0.052 A 
ATOM     18  C   UNL A   1      40.933  23.667  27.862  1.00  0.00     0.068 A 
ATOM     19  C   UNL A   1      38.462  23.910  26.573  1.00  0.00     0.043 A 
ATOM     20  C   UNL A   1      40.160  24.826  28.018  1.00  0.00     0.024 A 
ATOM     21  Cl  UNL A   1      42.495  23.708  28.606  1.00  0.00    -0.082 Cl
ATOM     22  Cl  UNL A   1      36.915  24.047  25.830  1.00  0.00    -0.084 Cl
ATOM     23  C   UNL A   1      38.921  24.941  27.389  1.00  0.00     0.022 A 
ENDBRANCH  11  16
ENDBRANCH   5   8
ENDBRANCH   3   4
ENDBRANCH   2   3
ENDBRANCH   1   2
BRANCH   1  24
ATOM     24  C   UNL A   1      45.507  25.343  25.197  1.00  0.00     0.116 C 
BRANCH  24  25
ATOM     25  N   UNL A   1      44.205  24.927  24.669  1.00  0.00    -0.352 N 
ATOM     26  C   UNL A   1      42.955  25.357  25.090  1.00  0.00     0.251 C 
ATOM     27  H   UNL A   1      44.219  24.271  23.936  1.00  0.00     0.163 HD
ATOM     28  O   UNL A   1      41.941  24.719  24.820  1.00  0.00    -0.269 OA
BRANCH  26  29
ATOM     29  C   UNL A   1      42.874  26.608  25.864  1.00  0.00     0.039 A 
ATOM     30  C   UNL A   1      42.208  27.745  25.394  1.00  0.00     0.014 A 
ATOM     31  C   UNL A   1      43.435  26.584  27.134  1.00  0.00     0.014 A 
ATOM     32  C   UNL A   1      42.036  28.826  26.258  1.00  0.00     0.010 A 
ATOM     33  C   UNL A   1      43.097  27.554  28.034  1.00  0.00     0.010 A 
ATOM     34  C   UNL A   1      42.470  28.712  27.586  1.00  0.00    -0.014 A 
BRANCH  34  35
ATOM     35  C   UNL A   1      42.224  29.751  28.579  1.00  0.00     0.031 A 
ATOM     36  C   UNL A   1      43.244  30.835  28.621  1.00  0.00     0.074 A 
ATOM     37  C   UNL A   1      41.015  29.871  29.173  1.00  0.00     0.049 A 
ATOM     38  N   UNL A   1      44.085  31.105  29.564  1.00  0.00    -0.248 NA
ATOM     39  C   UNL A   1      43.464  31.623  27.396  1.00  0.00     0.031 C 
ATOM     40  C   UNL A   1      39.804  29.071  28.932  1.00  0.00     0.029 A 
ATOM     41  N   UNL A   1      40.563  30.833  30.017  1.00  0.00    -0.354 N 
ATOM     42  C   UNL A   1      44.758  32.257  29.157  1.00  0.00     0.074 A 
ATOM     43  C   UNL A   1      44.514  32.370  27.745  1.00  0.00     0.031 C 
ATOM     44  C   UNL A   1      38.724  29.731  29.400  1.00  0.00     0.029 A 
ATOM     45  C   UNL A   1      39.178  30.897  30.131  1.00  0.00     0.049 A 
ATOM     46  H   UNL A   1      41.166  31.435  30.510  1.00  0.00     0.167 HD
ATOM     47  C   UNL A   1      45.221  33.165  30.066  1.00  0.00     0.037 A 
ATOM     48  C   UNL A   1      38.458  31.865  30.750  1.00  0.00     0.037 A 
ATOM     49  C   UNL A   1      45.200  32.599  31.397  1.00  0.00     0.049 A 
ATOM     50  C   UNL A   1      39.390  32.563  31.676  1.00  0.00     0.074 A 
ATOM     51  C   UNL A   1      45.767  31.492  31.996  1.00  0.00     0.029 A 
ATOM     52  N   UNL A   1      44.184  32.999  32.234  1.00  0.00    -0.354 N 
ATOM     53  N   UNL A   1      39.957  31.985  32.704  1.00  0.00    -0.248 NA
ATOM     54  C   UNL A   1      40.069  33.751  31.182  1.00  0.00     0.031 C 
ATOM     55  C   UNL A   1      44.764  31.002  32.885  1.00  0.00     0.029 A 
ATOM     56  C   UNL A   1      43.677  31.879  32.838  1.00  0.00     0.049 A 
ATOM     57  H   UNL A   1      43.877  33.923  32.374  1.00  0.00     0.167 HD
ATOM     58  C   UNL A   1      41.260  32.468  32.714  1.00  0.00     0.074 A 
ATOM     59  C   UNL A   1      41.242  33.616  31.810  1.00  0.00     0.031 C 
ATOM     60  C   UNL A   1      42.288  31.722  33.216  1.00  0.00     0.037 A 
BRANCH  47  61
ATOM     61  C   UNL A   1      45.294  34.670  29.857  1.00  0.00     0.058 A 
ATOM     62  C   UNL A   1      44.123  35.348  29.444  1.00  0.00     0.135 A 
ATOM     63  C   UNL A   1      46.487  35.417  29.738  1.00  0.00     0.135 A 
ATOM     64  F   UNL A   1      42.918  34.765  29.552  1.00  0.00    -0.206 F 
ATOM     65  C   UNL A   1      44.155  36.597  28.821  1.00  0.00     0.059 A 
ATOM     66  C   UNL A   1      46.534  36.685  29.167  1.00  0.00     0.059 A 
ATOM     67  F   UNL A   1      47.684  34.936  30.082  1.00  0.00    -0.206 F 
ATOM     68  C   UNL A   1      45.375  37.241  28.658  1.00  0.00     0.060 A 
BRANCH  68  69
ATOM     69  S   UNL A   1      45.446  38.775  27.719  1.00  0.00     0.124 S 
ATOM     70  O   UNL A   1      44.034  39.133  27.649  1.00  0.00    -0.237 OA
ATOM     71  O   UNL A   1      46.279  39.614  28.574  1.00  0.00    -0.237 OA
ATOM     72  O   UNL A   1      46.060  38.366  26.460  1.00  0.00    -0.744 OA
ENDBRANCH  68  69
ENDBRANCH  47  61
BRANCH  48  73
ATOM     73  C   UNL A   1      37.142  32.420  30.330  1.00  0.00     0.058 A 
ATOM     74  C   UNL A   1      36.006  32.330  31.153  1.00  0.00     0.135 A 
ATOM     75  C   UNL A   1      37.031  33.278  29.215  1.00  0.00     0.135 A 
ATOM     76  F   UNL A   1      36.031  31.558  32.249  1.00  0.00    -0.206 F 
ATOM     77  C   UNL A   1      34.842  33.070  30.904  1.00  0.00     0.059 A 
ATOM     78  C   UNL A   1      35.879  34.016  28.941  1.00  0.00     0.059 A 
ATOM     79  F   UNL A   1      38.073  33.491  28.398  1.00  0.00    -0.206 F 
ATOM     80  C   UNL A   1      34.794  33.924  29.803  1.00  0.00     0.060 A 
BRANCH  80  81
ATOM     81  S   UNL A   1      33.353  34.991  29.560  1.00  0.00     0.124 S 
ATOM     82  O   UNL A   1      32.613  34.269  28.530  1.00  0.00    -0.237 OA
ATOM     83  O   UNL A   1      32.749  35.004  30.887  1.00  0.00    -0.237 OA
ATOM     84  O   UNL A   1      33.938  36.260  29.132  1.00  0.00    -0.744 OA
ENDBRANCH  80  81
ENDBRANCH  48  73
BRANCH  60  85
ATOM     85  C   UNL A   1      41.967  30.501  34.041  1.00  0.00     0.058 A 
ATOM     86  C   UNL A   1      41.708  29.226  33.509  1.00  0.00     0.135 A 
ATOM     87  C   UNL A   1      42.137  30.591  35.431  1.00  0.00     0.135 A 
ATOM     88  F   UNL A   1      41.628  29.032  32.187  1.00  0.00    -0.206 F 
ATOM     89  C   UNL A   1      41.605  28.096  34.323  1.00  0.00     0.059 A 
ATOM     90  C   UNL A   1      42.069  29.475  36.258  1.00  0.00     0.059 A 
ATOM     91  F   UNL A   1      42.448  31.772  35.993  1.00  0.00    -0.206 F 
ATOM     92  C   UNL A   1      41.797  28.229  35.698  1.00  0.00     0.060 A 
BRANCH  92  93
ATOM     93  S   UNL A   1      41.777  26.752  36.737  1.00  0.00     0.124 S 
ATOM     94  O   UNL A   1      41.851  25.681  35.749  1.00  0.00    -0.237 OA
ATOM     95  O   UNL A   1      42.964  26.931  37.568  1.00  0.00    -0.237 OA
ATOM     96  O   UNL A   1      40.507  26.855  37.452  1.00  0.00    -0.744 OA
ENDBRANCH  92  93
ENDBRANCH  60  85
ENDBRANCH  34  35
ENDBRANCH  26  29
ENDBRANCH  24  25
ENDBRANCH   1  24
TORSDOF 16
ENDMDL
