MODEL 1
REMARK VINA RESULT:     -11.9      0.000      0.000
REMARK SMILES O=C(NCCCCNC(=O)[C@@H]1CSCN1C(=O)c1cccc(Cl)c1)c1ccc(-c2c3nc(c(-c4c(F)cc(S(=O)(=O)[O-])cc4F)c4ccc([nH]4)c(-c4c(F)cc(S(=O)(=O)[O-])cc4F)c4nc(c(-c5c(F)cc(S(=O)(=O)[O-])cc5F)c5ccc2[nH]5)C=C4)C=C3)cc1
REMARK SMILES IDX 5 1 4 2 3 3 1 4 2 5 25 7 26 8 90 9 27 10 89 11 28 12 29 13
REMARK SMILES IDX 30 14 83 15 31 16 88 17 82 18 84 19 32 20 87 21 81 22 80 23
REMARK SMILES IDX 33 25 67 26 46 27 66 28 47 29 50 30 65 31 85 32 48 33 49 34
REMARK SMILES IDX 64 36 86 37 51 38 34 39 35 40 44 41 36 42 37 43 43 44 45 45
REMARK SMILES IDX 38 46 39 47 40 48 41 49 42 50 68 51 69 52 78 53 70 54 71 55
REMARK SMILES IDX 77 56 79 57 72 58 73 59 74 60 75 61 76 62 52 63 53 64 62 65
REMARK SMILES IDX 54 66 55 67 61 68 63 69 56 70 57 71 58 72 59 73 60 74 6 75
REMARK SMILES IDX 7 76 8 77 9 78 10 80 11 81 12 82 15 83 13 84 14 85 16 86
REMARK SMILES IDX 17 87 18 88 19 89 24 90 20 91 22 92 21 93 23 94
REMARK H PARENT 3 6 84 24 50 35 8 79
REMARK Flexibility Score: inf
ROOT
ATOM      1  C   UNL A   1      38.759  22.791  26.497  1.00  0.00     0.023 C 
ENDROOT
BRANCH   1   2
ATOM      2  C   UNL A   1      40.054  23.375  27.045  1.00  0.00     0.116 C 
BRANCH   2   3
ATOM      3  N   UNL A   1      40.862  24.029  26.028  1.00  0.00    -0.352 N 
ATOM      4  O   UNL A   1      41.868  25.762  24.989  1.00  0.00    -0.269 OA
ATOM      5  C   UNL A   1      41.299  25.334  25.990  1.00  0.00     0.251 C 
ATOM      6  H   UNL A   1      41.132  23.465  25.268  1.00  0.00     0.163 HD
BRANCH   5   7
ATOM      7  C   UNL A   1      41.050  26.222  27.148  1.00  0.00     0.039 A 
ATOM      8  C   UNL A   1      41.857  27.341  27.367  1.00  0.00     0.014 A 
ATOM      9  C   UNL A   1      40.010  25.924  28.033  1.00  0.00     0.014 A 
ATOM     10  C   UNL A   1      41.719  28.069  28.542  1.00  0.00     0.010 A 
ATOM     11  C   UNL A   1      39.818  26.712  29.174  1.00  0.00     0.010 A 
ATOM     12  C   UNL A   1      40.691  27.773  29.454  1.00  0.00    -0.014 A 
BRANCH  12  13
ATOM     13  C   UNL A   1      40.524  28.644  30.646  1.00  0.00     0.031 A 
ATOM     14  C   UNL A   1      41.434  28.531  31.838  1.00  0.00     0.074 A 
ATOM     15  C   UNL A   1      39.570  29.597  30.609  1.00  0.00     0.049 A 
ATOM     16  N   UNL A   1      41.463  29.267  32.920  1.00  0.00    -0.248 NA
ATOM     17  C   UNL A   1      42.437  27.453  31.823  1.00  0.00     0.031 C 
ATOM     18  C   UNL A   1      38.611  29.780  29.515  1.00  0.00     0.029 A 
ATOM     19  N   UNL A   1      39.268  30.603  31.487  1.00  0.00    -0.354 N 
ATOM     20  C   UNL A   1      42.473  28.742  33.717  1.00  0.00     0.074 A 
ATOM     21  C   UNL A   1      43.019  27.606  33.006  1.00  0.00     0.031 C 
ATOM     22  C   UNL A   1      37.867  30.868  29.759  1.00  0.00     0.029 A 
ATOM     23  C   UNL A   1      38.259  31.428  31.049  1.00  0.00     0.049 A 
ATOM     24  H   UNL A   1      39.728  30.725  32.348  1.00  0.00     0.167 HD
ATOM     25  C   UNL A   1      42.910  29.177  34.925  1.00  0.00     0.037 A 
ATOM     26  C   UNL A   1      37.702  32.510  31.620  1.00  0.00     0.037 A 
ATOM     27  C   UNL A   1      42.369  30.318  35.621  1.00  0.00     0.049 A 
ATOM     28  C   UNL A   1      38.218  32.978  32.949  1.00  0.00     0.074 A 
ATOM     29  C   UNL A   1      42.751  30.842  36.846  1.00  0.00     0.029 A 
ATOM     30  N   UNL A   1      41.338  31.119  35.153  1.00  0.00    -0.354 N 
ATOM     31  N   UNL A   1      39.183  32.472  33.680  1.00  0.00    -0.248 NA
ATOM     32  C   UNL A   1      37.571  34.159  33.533  1.00  0.00     0.031 C 
ATOM     33  C   UNL A   1      41.932  31.940  37.130  1.00  0.00     0.029 A 
ATOM     34  C   UNL A   1      41.064  32.124  36.066  1.00  0.00     0.049 A 
ATOM     35  H   UNL A   1      40.868  30.990  34.297  1.00  0.00     0.167 HD
ATOM     36  C   UNL A   1      39.256  33.270  34.813  1.00  0.00     0.074 A 
ATOM     37  C   UNL A   1      38.263  34.315  34.653  1.00  0.00     0.031 C 
ATOM     38  C   UNL A   1      40.062  33.145  35.895  1.00  0.00     0.037 A 
BRANCH  25  39
ATOM     39  C   UNL A   1      44.031  28.419  35.583  1.00  0.00     0.058 A 
ATOM     40  C   UNL A   1      45.375  28.742  35.340  1.00  0.00     0.135 A 
ATOM     41  C   UNL A   1      43.759  27.411  36.523  1.00  0.00     0.135 A 
ATOM     42  F   UNL A   1      45.691  29.686  34.440  1.00  0.00    -0.206 F 
ATOM     43  C   UNL A   1      46.412  28.086  35.998  1.00  0.00     0.059 A 
ATOM     44  C   UNL A   1      44.780  26.756  37.208  1.00  0.00     0.059 A 
ATOM     45  F   UNL A   1      42.492  27.063  36.793  1.00  0.00    -0.206 F 
ATOM     46  C   UNL A   1      46.104  27.096  36.932  1.00  0.00     0.060 A 
BRANCH  46  47
ATOM     47  S   UNL A   1      47.459  26.273  37.799  1.00  0.00     0.124 S 
ATOM     48  O   UNL A   1      46.736  25.297  38.608  1.00  0.00    -0.237 OA
ATOM     49  O   UNL A   1      48.247  25.725  36.699  1.00  0.00    -0.237 OA
ATOM     50  O   UNL A   1      48.095  27.356  38.541  1.00  0.00    -0.744 OA
ENDBRANCH  46  47
ENDBRANCH  25  39
BRANCH  26  51
ATOM     51  C   UNL A   1      36.584  33.212  30.940  1.00  0.00     0.058 A 
ATOM     52  C   UNL A   1      35.264  33.096  31.400  1.00  0.00     0.135 A 
ATOM     53  C   UNL A   1      36.820  34.029  29.824  1.00  0.00     0.135 A 
ATOM     54  F   UNL A   1      34.990  32.326  32.463  1.00  0.00    -0.206 F 
ATOM     55  C   UNL A   1      34.214  33.751  30.766  1.00  0.00     0.059 A 
ATOM     56  C   UNL A   1      35.791  34.714  29.189  1.00  0.00     0.059 A 
ATOM     57  F   UNL A   1      38.070  34.188  29.359  1.00  0.00    -0.206 F 
ATOM     58  C   UNL A   1      34.488  34.557  29.659  1.00  0.00     0.060 A 
BRANCH  58  59
ATOM     59  S   UNL A   1      33.130  35.440  28.860  1.00  0.00     0.124 S 
ATOM     60  O   UNL A   1      33.852  36.428  28.068  1.00  0.00    -0.237 OA
ATOM     61  O   UNL A   1      32.466  34.379  28.110  1.00  0.00    -0.237 OA
ATOM     62  O   UNL A   1      32.369  35.966  29.990  1.00  0.00    -0.744 OA
ENDBRANCH  58  59
ENDBRANCH  26  51
BRANCH  38  63
ATOM     63  C   UNL A   1      39.892  34.165  36.984  1.00  0.00     0.058 A 
ATOM     64  C   UNL A   1      39.112  33.895  38.120  1.00  0.00     0.135 A 
ATOM     65  C   UNL A   1      40.509  35.422  36.890  1.00  0.00     0.135 A 
ATOM     66  F   UNL A   1      38.496  32.710  38.250  1.00  0.00    -0.206 F 
ATOM     67  C   UNL A   1      38.919  34.853  39.110  1.00  0.00     0.059 A 
ATOM     68  C   UNL A   1      40.348  36.385  37.880  1.00  0.00     0.059 A 
ATOM     69  F   UNL A   1      41.272  35.723  35.828  1.00  0.00    -0.206 F 
ATOM     70  C   UNL A   1      39.536  36.098  38.977  1.00  0.00     0.060 A 
BRANCH  70  71
ATOM     71  S   UNL A   1      39.278  37.336  40.264  1.00  0.00     0.124 S 
ATOM     72  O   UNL A   1      40.650  37.720  40.579  1.00  0.00    -0.237 OA
ATOM     73  O   UNL A   1      38.480  38.346  39.576  1.00  0.00    -0.237 OA
ATOM     74  O   UNL A   1      38.575  36.597  41.309  1.00  0.00    -0.744 OA
ENDBRANCH  70  71
ENDBRANCH  38  63
ENDBRANCH  12  13
ENDBRANCH   5   7
ENDBRANCH   2   3
ENDBRANCH   1   2
BRANCH   1  75
ATOM     75  C   UNL A   1      37.706  23.817  26.075  1.00  0.00     0.023 C 
BRANCH  75  76
ATOM     76  C   UNL A   1      36.393  23.222  25.569  1.00  0.00     0.116 C 
BRANCH  76  77
ATOM     77  N   UNL A   1      35.724  22.440  26.592  1.00  0.00    -0.354 N 
ATOM     78  C   UNL A   1      34.387  22.310  26.848  1.00  0.00     0.243 C 
ATOM     79  H   UNL A   1      36.318  21.928  27.187  1.00  0.00     0.163 HD
ATOM     80  O   UNL A   1      34.039  21.623  27.811  1.00  0.00    -0.273 OA
BRANCH  78  81
ATOM     81  C   UNL A   1      33.379  23.092  25.983  1.00  0.00     0.185 C 
ATOM     82  C   UNL A   1      32.413  23.846  26.897  1.00  0.00     0.106 C 
ATOM     83  N   UNL A   1      32.634  22.184  25.112  1.00  0.00    -0.317 N 
ATOM     84  S   UNL A   1      30.760  23.148  26.629  1.00  0.00    -0.138 SA
ATOM     85  C   UNL A   1      31.367  21.756  25.656  1.00  0.00     0.190 C 
BRANCH  83  86
ATOM     86  C   UNL A   1      33.267  21.668  23.996  1.00  0.00     0.255 C 
ATOM     87  O   UNL A   1      33.899  22.353  23.199  1.00  0.00    -0.269 OA
BRANCH  86  88
ATOM     88  C   UNL A   1      33.173  20.221  23.739  1.00  0.00     0.041 A 
ATOM     89  C   UNL A   1      32.297  19.746  22.757  1.00  0.00     0.014 A 
ATOM     90  C   UNL A   1      34.012  19.350  24.438  1.00  0.00     0.034 A 
ATOM     91  C   UNL A   1      32.230  18.377  22.500  1.00  0.00     0.002 A 
ATOM     92  C   UNL A   1      33.940  17.987  24.169  1.00  0.00     0.041 A 
ATOM     93  C   UNL A   1      33.050  17.498  23.209  1.00  0.00     0.020 A 
ATOM     94  Cl  UNL A   1      34.954  16.889  25.020  1.00  0.00    -0.084 Cl
ENDBRANCH  86  88
ENDBRANCH  83  86
ENDBRANCH  78  81
ENDBRANCH  76  77
ENDBRANCH  75  76
ENDBRANCH   1  75
TORSDOF 16
ENDMDL
MODEL 2
REMARK VINA RESULT:     -11.8      7.317     12.565
REMARK SMILES O=C(NCCCCNC(=O)[C@@H]1CSCN1C(=O)c1cccc(Cl)c1)c1ccc(-c2c3nc(c(-c4c(F)cc(S(=O)(=O)[O-])cc4F)c4ccc([nH]4)c(-c4c(F)cc(S(=O)(=O)[O-])cc4F)c4nc(c(-c5c(F)cc(S(=O)(=O)[O-])cc5F)c5ccc2[nH]5)C=C4)C=C3)cc1
REMARK SMILES IDX 5 1 4 2 3 3 1 4 2 5 25 7 26 8 90 9 27 10 89 11 28 12 29 13
REMARK SMILES IDX 30 14 83 15 31 16 88 17 82 18 84 19 32 20 87 21 81 22 80 23
REMARK SMILES IDX 33 25 67 26 46 27 66 28 47 29 50 30 65 31 85 32 48 33 49 34
REMARK SMILES IDX 64 36 86 37 51 38 34 39 35 40 44 41 36 42 37 43 43 44 45 45
REMARK SMILES IDX 38 46 39 47 40 48 41 49 42 50 68 51 69 52 78 53 70 54 71 55
REMARK SMILES IDX 77 56 79 57 72 58 73 59 74 60 75 61 76 62 52 63 53 64 62 65
REMARK SMILES IDX 54 66 55 67 61 68 63 69 56 70 57 71 58 72 59 73 60 74 6 75
REMARK SMILES IDX 7 76 8 77 9 78 10 80 11 81 12 82 15 83 13 84 14 85 16 86
REMARK SMILES IDX 17 87 18 88 19 89 24 90 20 91 22 92 21 93 23 94
REMARK H PARENT 3 6 84 24 50 35 8 79
REMARK Flexibility Score: inf
ROOT
ATOM      1  C   UNL A   1      34.672  30.553  27.440  1.00  0.00     0.023 C 
ENDROOT
BRANCH   1   2
ATOM      2  C   UNL A   1      35.721  31.178  28.350  1.00  0.00     0.116 C 
BRANCH   2   3
ATOM      3  N   UNL A   1      35.582  30.779  29.741  1.00  0.00    -0.352 N 
ATOM      4  O   UNL A   1      36.177  29.764  31.668  1.00  0.00    -0.269 OA
ATOM      5  C   UNL A   1      36.503  30.148  30.548  1.00  0.00     0.251 C 
ATOM      6  H   UNL A   1      34.717  30.988  30.162  1.00  0.00     0.163 HD
BRANCH   5   7
ATOM      7  C   UNL A   1      37.873  29.908  30.042  1.00  0.00     0.039 A 
ATOM      8  C   UNL A   1      38.108  29.779  28.672  1.00  0.00     0.014 A 
ATOM      9  C   UNL A   1      38.931  29.792  30.949  1.00  0.00     0.014 A 
ATOM     10  C   UNL A   1      39.364  29.390  28.223  1.00  0.00     0.010 A 
ATOM     11  C   UNL A   1      40.216  29.485  30.485  1.00  0.00     0.010 A 
ATOM     12  C   UNL A   1      40.436  29.251  29.120  1.00  0.00    -0.014 A 
BRANCH  12  13
ATOM     13  C   UNL A   1      41.782  28.931  28.578  1.00  0.00     0.031 A 
ATOM     14  C   UNL A   1      42.878  29.960  28.531  1.00  0.00     0.074 A 
ATOM     15  C   UNL A   1      42.024  27.664  28.185  1.00  0.00     0.049 A 
ATOM     16  N   UNL A   1      44.124  29.815  28.156  1.00  0.00    -0.248 NA
ATOM     17  C   UNL A   1      42.538  31.329  28.950  1.00  0.00     0.031 C 
ATOM     18  C   UNL A   1      41.027  26.589  28.160  1.00  0.00     0.029 A 
ATOM     19  N   UNL A   1      43.177  27.056  27.765  1.00  0.00    -0.354 N 
ATOM     20  C   UNL A   1      44.714  31.066  28.284  1.00  0.00     0.074 A 
ATOM     21  C   UNL A   1      43.683  31.969  28.747  1.00  0.00     0.031 C 
ATOM     22  C   UNL A   1      41.623  25.443  27.804  1.00  0.00     0.029 A 
ATOM     23  C   UNL A   1      43.030  25.710  27.524  1.00  0.00     0.049 A 
ATOM     24  H   UNL A   1      44.029  27.535  27.649  1.00  0.00     0.167 HD
ATOM     25  C   UNL A   1      46.001  31.423  28.046  1.00  0.00     0.037 A 
ATOM     26  C   UNL A   1      43.923  24.791  27.116  1.00  0.00     0.037 A 
ATOM     27  C   UNL A   1      47.025  30.513  27.596  1.00  0.00     0.049 A 
ATOM     28  C   UNL A   1      45.343  25.212  26.878  1.00  0.00     0.074 A 
ATOM     29  C   UNL A   1      48.360  30.779  27.336  1.00  0.00     0.029 A 
ATOM     30  N   UNL A   1      46.835  29.162  27.348  1.00  0.00    -0.354 N 
ATOM     31  N   UNL A   1      45.882  26.400  27.017  1.00  0.00    -0.248 NA
ATOM     32  C   UNL A   1      46.276  24.172  26.427  1.00  0.00     0.031 C 
ATOM     33  C   UNL A   1      48.968  29.595  26.903  1.00  0.00     0.029 A 
ATOM     34  C   UNL A   1      48.022  28.583  26.929  1.00  0.00     0.049 A 
ATOM     35  H   UNL A   1      45.981  28.684  27.454  1.00  0.00     0.167 HD
ATOM     36  C   UNL A   1      47.217  26.252  26.665  1.00  0.00     0.074 A 
ATOM     37  C   UNL A   1      47.412  24.852  26.344  1.00  0.00     0.031 C 
ATOM     38  C   UNL A   1      48.191  27.191  26.600  1.00  0.00     0.037 A 
BRANCH  25  39
ATOM     39  C   UNL A   1      46.385  32.860  28.264  1.00  0.00     0.058 A 
ATOM     40  C   UNL A   1      46.914  33.300  29.488  1.00  0.00     0.135 A 
ATOM     41  C   UNL A   1      46.293  33.793  27.218  1.00  0.00     0.135 A 
ATOM     42  F   UNL A   1      47.008  32.454  30.526  1.00  0.00    -0.206 F 
ATOM     43  C   UNL A   1      47.331  34.616  29.670  1.00  0.00     0.059 A 
ATOM     44  C   UNL A   1      46.723  35.109  27.372  1.00  0.00     0.059 A 
ATOM     45  F   UNL A   1      45.794  33.427  26.028  1.00  0.00    -0.206 F 
ATOM     46  C   UNL A   1      47.233  35.512  28.605  1.00  0.00     0.060 A 
BRANCH  46  47
ATOM     47  S   UNL A   1      47.805  37.209  28.849  1.00  0.00     0.124 S 
ATOM     48  O   UNL A   1      46.545  37.911  29.069  1.00  0.00    -0.237 OA
ATOM     49  O   UNL A   1      48.672  37.083  30.016  1.00  0.00    -0.237 OA
ATOM     50  O   UNL A   1      48.488  37.521  27.597  1.00  0.00    -0.744 OA
ENDBRANCH  46  47
ENDBRANCH  25  39
BRANCH  26  51
ATOM     51  C   UNL A   1      43.490  23.388  26.895  1.00  0.00     0.058 A 
ATOM     52  C   UNL A   1      43.216  22.532  27.972  1.00  0.00     0.135 A 
ATOM     53  C   UNL A   1      43.326  22.882  25.597  1.00  0.00     0.135 A 
ATOM     54  F   UNL A   1      43.359  22.971  29.231  1.00  0.00    -0.206 F 
ATOM     55  C   UNL A   1      42.811  21.217  27.769  1.00  0.00     0.059 A 
ATOM     56  C   UNL A   1      42.898  21.579  25.369  1.00  0.00     0.059 A 
ATOM     57  F   UNL A   1      43.556  23.669  24.534  1.00  0.00    -0.206 F 
ATOM     58  C   UNL A   1      42.657  20.749  26.462  1.00  0.00     0.060 A 
BRANCH  58  59
ATOM     59  S   UNL A   1      42.092  19.055  26.199  1.00  0.00     0.124 S 
ATOM     60  O   UNL A   1      43.022  18.593  25.177  1.00  0.00    -0.237 OA
ATOM     61  O   UNL A   1      42.252  18.463  27.524  1.00  0.00    -0.237 OA
ATOM     62  O   UNL A   1      40.709  19.231  25.766  1.00  0.00    -0.744 OA
ENDBRANCH  58  59
ENDBRANCH  26  51
BRANCH  38  63
ATOM     63  C   UNL A   1      49.550  26.723  26.162  1.00  0.00     0.058 A 
ATOM     64  C   UNL A   1      50.458  26.166  27.077  1.00  0.00     0.135 A 
ATOM     65  C   UNL A   1      49.949  26.837  24.822  1.00  0.00     0.135 A 
ATOM     66  F   UNL A   1      50.125  26.045  28.371  1.00  0.00    -0.206 F 
ATOM     67  C   UNL A   1      51.732  25.770  26.683  1.00  0.00     0.059 A 
ATOM     68  C   UNL A   1      51.209  26.425  24.402  1.00  0.00     0.059 A 
ATOM     69  F   UNL A   1      49.112  27.354  23.908  1.00  0.00    -0.206 F 
ATOM     70  C   UNL A   1      52.101  25.911  25.344  1.00  0.00     0.060 A 
BRANCH  70  71
ATOM     71  S   UNL A   1      53.756  25.398  24.841  1.00  0.00     0.124 S 
ATOM     72  O   UNL A   1      54.580  26.021  25.871  1.00  0.00    -0.237 OA
ATOM     73  O   UNL A   1      53.667  23.942  24.895  1.00  0.00    -0.237 OA
ATOM     74  O   UNL A   1      53.891  25.962  23.501  1.00  0.00    -0.744 OA
ENDBRANCH  70  71
ENDBRANCH  38  63
ENDBRANCH  12  13
ENDBRANCH   5   7
ENDBRANCH   2   3
ENDBRANCH   1   2
BRANCH   1  75
ATOM     75  C   UNL A   1      34.793  29.040  27.247  1.00  0.00     0.023 C 
BRANCH  75  76
ATOM     76  C   UNL A   1      33.780  28.432  26.279  1.00  0.00     0.116 C 
BRANCH  76  77
ATOM     77  N   UNL A   1      33.949  28.938  24.929  1.00  0.00    -0.354 N 
ATOM     78  C   UNL A   1      33.630  28.350  23.736  1.00  0.00     0.243 C 
ATOM     79  H   UNL A   1      34.353  29.834  24.862  1.00  0.00     0.163 HD
ATOM     80  O   UNL A   1      33.910  28.949  22.695  1.00  0.00    -0.273 OA
BRANCH  78  81
ATOM     81  C   UNL A   1      33.014  26.937  23.738  1.00  0.00     0.185 C 
ATOM     82  C   UNL A   1      33.810  26.043  22.788  1.00  0.00     0.106 C 
ATOM     83  N   UNL A   1      31.613  26.985  23.321  1.00  0.00    -0.317 N 
ATOM     84  S   UNL A   1      32.698  25.569  21.435  1.00  0.00    -0.138 SA
ATOM     85  C   UNL A   1      31.410  26.738  21.913  1.00  0.00     0.190 C 
BRANCH  83  86
ATOM     86  C   UNL A   1      30.670  27.451  24.218  1.00  0.00     0.255 C 
ATOM     87  O   UNL A   1      30.668  27.162  25.411  1.00  0.00    -0.269 OA
BRANCH  86  88
ATOM     88  C   UNL A   1      29.602  28.335  23.723  1.00  0.00     0.041 A 
ATOM     89  C   UNL A   1      28.320  27.819  23.501  1.00  0.00     0.014 A 
ATOM     90  C   UNL A   1      29.872  29.693  23.543  1.00  0.00     0.034 A 
ATOM     91  C   UNL A   1      27.305  28.664  23.055  1.00  0.00     0.002 A 
ATOM     92  C   UNL A   1      28.849  30.529  23.103  1.00  0.00     0.041 A 
ATOM     93  C   UNL A   1      27.572  30.020  22.853  1.00  0.00     0.020 A 
ATOM     94  Cl  UNL A   1      29.154  32.205  22.864  1.00  0.00    -0.084 Cl
ENDBRANCH  86  88
ENDBRANCH  83  86
ENDBRANCH  78  81
ENDBRANCH  76  77
ENDBRANCH  75  76
ENDBRANCH   1  75
TORSDOF 16
ENDMDL
MODEL 3
REMARK VINA RESULT:     -11.8      5.241      9.920
REMARK SMILES O=C(NCCCCNC(=O)[C@@H]1CSCN1C(=O)c1cccc(Cl)c1)c1ccc(-c2c3nc(c(-c4c(F)cc(S(=O)(=O)[O-])cc4F)c4ccc([nH]4)c(-c4c(F)cc(S(=O)(=O)[O-])cc4F)c4nc(c(-c5c(F)cc(S(=O)(=O)[O-])cc5F)c5ccc2[nH]5)C=C4)C=C3)cc1
REMARK SMILES IDX 5 1 4 2 3 3 1 4 2 5 25 7 26 8 90 9 27 10 89 11 28 12 29 13
REMARK SMILES IDX 30 14 83 15 31 16 88 17 82 18 84 19 32 20 87 21 81 22 80 23
REMARK SMILES IDX 33 25 67 26 46 27 66 28 47 29 50 30 65 31 85 32 48 33 49 34
REMARK SMILES IDX 64 36 86 37 51 38 34 39 35 40 44 41 36 42 37 43 43 44 45 45
REMARK SMILES IDX 38 46 39 47 40 48 41 49 42 50 68 51 69 52 78 53 70 54 71 55
REMARK SMILES IDX 77 56 79 57 72 58 73 59 74 60 75 61 76 62 52 63 53 64 62 65
REMARK SMILES IDX 54 66 55 67 61 68 63 69 56 70 57 71 58 72 59 73 60 74 6 75
REMARK SMILES IDX 7 76 8 77 9 78 10 80 11 81 12 82 15 83 13 84 14 85 16 86
REMARK SMILES IDX 17 87 18 88 19 89 24 90 20 91 22 92 21 93 23 94
REMARK H PARENT 3 6 84 24 50 35 8 79
REMARK Flexibility Score: inf
ROOT
ATOM      1  C   UNL A   1      33.225  27.551  26.266  1.00  0.00     0.023 C 
ENDROOT
BRANCH   1   2
ATOM      2  C   UNL A   1      34.389  28.419  26.723  1.00  0.00     0.116 C 
BRANCH   2   3
ATOM      3  N   UNL A   1      33.965  29.645  27.381  1.00  0.00    -0.352 N 
ATOM      4  O   UNL A   1      34.127  31.381  28.815  1.00  0.00    -0.269 OA
ATOM      5  C   UNL A   1      34.681  30.446  28.243  1.00  0.00     0.251 C 
ATOM      6  H   UNL A   1      33.047  29.941  27.185  1.00  0.00     0.163 HD
BRANCH   5   7
ATOM      7  C   UNL A   1      36.109  30.151  28.499  1.00  0.00     0.039 A 
ATOM      8  C   UNL A   1      37.066  30.383  27.510  1.00  0.00     0.014 A 
ATOM      9  C   UNL A   1      36.491  29.621  29.735  1.00  0.00     0.014 A 
ATOM     10  C   UNL A   1      38.373  29.950  27.702  1.00  0.00     0.010 A 
ATOM     11  C   UNL A   1      37.827  29.265  29.957  1.00  0.00     0.010 A 
ATOM     12  C   UNL A   1      38.773  29.398  28.931  1.00  0.00    -0.014 A 
BRANCH  12  13
ATOM     13  C   UNL A   1      40.203  29.042  29.119  1.00  0.00     0.031 A 
ATOM     14  C   UNL A   1      40.739  27.693  28.724  1.00  0.00     0.074 A 
ATOM     15  C   UNL A   1      41.036  29.990  29.596  1.00  0.00     0.049 A 
ATOM     16  N   UNL A   1      41.973  27.260  28.757  1.00  0.00    -0.248 NA
ATOM     17  C   UNL A   1      39.770  26.698  28.235  1.00  0.00     0.031 C 
ATOM     18  C   UNL A   1      40.621  31.325  30.038  1.00  0.00     0.029 A 
ATOM     19  N   UNL A   1      42.395  29.995  29.758  1.00  0.00    -0.354 N 
ATOM     20  C   UNL A   1      41.933  25.947  28.305  1.00  0.00     0.074 A 
ATOM     21  C   UNL A   1      40.546  25.642  28.027  1.00  0.00     0.031 C 
ATOM     22  C   UNL A   1      41.708  32.038  30.366  1.00  0.00     0.029 A 
ATOM     23  C   UNL A   1      42.890  31.196  30.208  1.00  0.00     0.049 A 
ATOM     24  H   UNL A   1      42.965  29.214  29.570  1.00  0.00     0.167 HD
ATOM     25  C   UNL A   1      42.962  25.081  28.129  1.00  0.00     0.037 A 
ATOM     26  C   UNL A   1      44.151  31.581  30.473  1.00  0.00     0.037 A 
ATOM     27  C   UNL A   1      44.343  25.397  28.395  1.00  0.00     0.049 A 
ATOM     28  C   UNL A   1      45.270  30.607  30.251  1.00  0.00     0.074 A 
ATOM     29  C   UNL A   1      45.458  24.588  28.239  1.00  0.00     0.029 A 
ATOM     30  N   UNL A   1      44.803  26.618  28.865  1.00  0.00    -0.354 N 
ATOM     31  N   UNL A   1      45.210  29.372  29.812  1.00  0.00    -0.248 NA
ATOM     32  C   UNL A   1      46.627  31.073  30.562  1.00  0.00     0.031 C 
ATOM     33  C   UNL A   1      46.586  25.312  28.641  1.00  0.00     0.029 A 
ATOM     34  C   UNL A   1      46.180  26.584  29.013  1.00  0.00     0.049 A 
ATOM     35  H   UNL A   1      44.233  27.396  29.064  1.00  0.00     0.167 HD
ATOM     36  C   UNL A   1      46.519  28.912  29.798  1.00  0.00     0.074 A 
ATOM     37  C   UNL A   1      47.354  30.013  30.238  1.00  0.00     0.031 C 
ATOM     38  C   UNL A   1      46.990  27.686  29.466  1.00  0.00     0.037 A 
BRANCH  25  39
ATOM     39  C   UNL A   1      42.642  23.701  27.623  1.00  0.00     0.058 A 
ATOM     40  C   UNL A   1      42.553  23.426  26.249  1.00  0.00     0.135 A 
ATOM     41  C   UNL A   1      42.497  22.626  28.515  1.00  0.00     0.135 A 
ATOM     42  F   UNL A   1      42.668  24.419  25.352  1.00  0.00    -0.206 F 
ATOM     43  C   UNL A   1      42.322  22.136  25.777  1.00  0.00     0.059 A 
ATOM     44  C   UNL A   1      42.286  21.325  28.066  1.00  0.00     0.059 A 
ATOM     45  F   UNL A   1      42.572  22.832  29.839  1.00  0.00    -0.206 F 
ATOM     46  C   UNL A   1      42.193  21.092  26.694  1.00  0.00     0.060 A 
BRANCH  46  47
ATOM     47  S   UNL A   1      41.922  19.420  26.066  1.00  0.00     0.124 S 
ATOM     48  O   UNL A   1      42.753  19.423  24.865  1.00  0.00    -0.237 OA
ATOM     49  O   UNL A   1      42.403  18.591  27.166  1.00  0.00    -0.237 OA
ATOM     50  O   UNL A   1      40.483  19.372  25.833  1.00  0.00    -0.744 OA
ENDBRANCH  46  47
ENDBRANCH  25  39
BRANCH  26  51
ATOM     51  C   UNL A   1      44.413  32.948  30.990  1.00  0.00     0.058 A 
ATOM     52  C   UNL A   1      44.468  33.207  32.367  1.00  0.00     0.135 A 
ATOM     53  C   UNL A   1      44.633  34.020  30.111  1.00  0.00     0.135 A 
ATOM     54  F   UNL A   1      44.264  32.214  33.245  1.00  0.00    -0.206 F 
ATOM     55  C   UNL A   1      44.713  34.486  32.856  1.00  0.00     0.059 A 
ATOM     56  C   UNL A   1      44.905  35.301  30.576  1.00  0.00     0.059 A 
ATOM     57  F   UNL A   1      44.611  33.817  28.784  1.00  0.00    -0.206 F 
ATOM     58  C   UNL A   1      44.928  35.528  31.951  1.00  0.00     0.060 A 
BRANCH  58  59
ATOM     59  S   UNL A   1      45.287  37.179  32.586  1.00  0.00     0.124 S 
ATOM     60  O   UNL A   1      44.115  37.432  33.415  1.00  0.00    -0.237 OA
ATOM     61  O   UNL A   1      46.544  36.974  33.299  1.00  0.00    -0.237 OA
ATOM     62  O   UNL A   1      45.391  37.984  31.372  1.00  0.00    -0.744 OA
ENDBRANCH  58  59
ENDBRANCH  26  51
BRANCH  38  63
ATOM     63  C   UNL A   1      48.474  27.482  29.570  1.00  0.00     0.058 A 
ATOM     64  C   UNL A   1      49.327  27.779  28.496  1.00  0.00     0.135 A 
ATOM     65  C   UNL A   1      49.047  26.983  30.750  1.00  0.00     0.135 A 
ATOM     66  F   UNL A   1      48.824  28.251  27.344  1.00  0.00    -0.206 F 
ATOM     67  C   UNL A   1      50.697  27.553  28.574  1.00  0.00     0.059 A 
ATOM     68  C   UNL A   1      50.418  26.772  30.858  1.00  0.00     0.059 A 
ATOM     69  F   UNL A   1      48.274  26.693  31.808  1.00  0.00    -0.206 F 
ATOM     70  C   UNL A   1      51.232  27.042  29.758  1.00  0.00     0.060 A 
BRANCH  70  71
ATOM     71  S   UNL A   1      53.010  26.747  29.852  1.00  0.00     0.124 S 
ATOM     72  O   UNL A   1      53.280  26.167  28.540  1.00  0.00    -0.237 OA
ATOM     73  O   UNL A   1      53.542  28.089  30.073  1.00  0.00    -0.237 OA
ATOM     74  O   UNL A   1      53.142  25.834  30.983  1.00  0.00    -0.744 OA
ENDBRANCH  70  71
ENDBRANCH  38  63
ENDBRANCH  12  13
ENDBRANCH   5   7
ENDBRANCH   2   3
ENDBRANCH   1   2
BRANCH   1  75
ATOM     75  C   UNL A   1      33.493  26.702  25.021  1.00  0.00     0.023 C 
BRANCH  75  76
ATOM     76  C   UNL A   1      33.678  25.210  25.288  1.00  0.00     0.116 C 
BRANCH  76  77
ATOM     77  N   UNL A   1      34.228  24.517  24.137  1.00  0.00    -0.354 N 
ATOM     78  C   UNL A   1      35.152  23.510  24.091  1.00  0.00     0.243 C 
ATOM     79  H   UNL A   1      33.887  24.817  23.263  1.00  0.00     0.163 HD
ATOM     80  O   UNL A   1      35.516  23.100  22.987  1.00  0.00    -0.273 OA
BRANCH  78  81
ATOM     81  C   UNL A   1      35.760  22.991  25.409  1.00  0.00     0.185 C 
ATOM     82  C   UNL A   1      37.238  23.378  25.465  1.00  0.00     0.106 C 
ATOM     83  N   UNL A   1      35.623  21.538  25.502  1.00  0.00    -0.317 N 
ATOM     84  S   UNL A   1      38.200  21.841  25.441  1.00  0.00    -0.138 SA
ATOM     85  C   UNL A   1      36.778  20.807  25.038  1.00  0.00     0.190 C 
BRANCH  83  86
ATOM     86  C   UNL A   1      34.383  21.008  25.808  1.00  0.00     0.255 C 
ATOM     87  O   UNL A   1      33.807  21.203  26.873  1.00  0.00    -0.269 OA
BRANCH  86  88
ATOM     88  C   UNL A   1      33.715  20.155  24.810  1.00  0.00     0.041 A 
ATOM     89  C   UNL A   1      32.767  20.711  23.944  1.00  0.00     0.014 A 
ATOM     90  C   UNL A   1      34.089  18.814  24.703  1.00  0.00     0.034 A 
ATOM     91  C   UNL A   1      32.156  19.905  22.985  1.00  0.00     0.002 A 
ATOM     92  C   UNL A   1      33.476  18.020  23.737  1.00  0.00     0.041 A 
ATOM     93  C   UNL A   1      32.509  18.558  22.885  1.00  0.00     0.020 A 
ATOM     94  Cl  UNL A   1      33.909  16.362  23.588  1.00  0.00    -0.084 Cl
ENDBRANCH  86  88
ENDBRANCH  83  86
ENDBRANCH  78  81
ENDBRANCH  76  77
ENDBRANCH  75  76
ENDBRANCH   1  75
TORSDOF 16
ENDMDL
