MODEL 1
REMARK VINA RESULT:     -10.5      0.000      0.000
REMARK SMILES CSc1ccc(CNc2ccc(N3CCOCC3)c(C(=O)NCCCCNC(=O)c3ccc(-c4c5nc(c(-c6c(F)cc(S(=O)(=O)[O-])cc6F)c6ccc([nH]6)c(-c6c(F)cc(S(=O)(=O)[O-])cc6F)c6nc(c(-c7c(F)cc(S(=O)(=O)[O-])cc7F)c7ccc4[nH]7)C=C6)C=C5)cc3)c2)cc1
REMARK SMILES IDX 24 1 23 2 22 3 20 4 21 5 19 7 9 8 10 9 96 10 11 11 12 12
REMARK SMILES IDX 8 13 7 15 6 16 3 17 4 18 98 19 5 20 97 21 2 22 1 23 13 24
REMARK SMILES IDX 14 25 18 26 15 27 17 28 16 29 25 30 26 31 27 32 28 33 29 35
REMARK SMILES IDX 30 36 31 37 95 38 32 39 94 40 33 41 34 42 35 43 88 44 36 45
REMARK SMILES IDX 93 46 87 47 89 48 37 49 92 50 86 51 85 52 38 54 72 55 51 56
REMARK SMILES IDX 71 57 52 58 55 59 70 60 90 61 53 62 54 63 69 65 91 66 56 67
REMARK SMILES IDX 39 68 40 69 49 70 41 71 42 72 48 73 50 74 43 75 44 76 45 77
REMARK SMILES IDX 46 78 47 79 73 80 74 81 83 82 75 83 76 84 82 85 84 86 77 87
REMARK SMILES IDX 78 88 79 89 80 90 81 91 57 92 58 93 67 94 59 95 60 96 66 97
REMARK SMILES IDX 68 98 61 99 62 100 63 101 64 102 65 103
REMARK H PARENT 22 6 8 14 27 34 89 53 55 64
REMARK Flexibility Score: inf
ROOT
ATOM      1  C   UNL A   1      48.493  23.218  38.946  1.00  0.00     0.023 C 
ENDROOT
BRANCH   1   2
ATOM      2  C   UNL A   1      49.601  23.142  37.905  1.00  0.00     0.116 C 
BRANCH   2   3
ATOM      3  N   UNL A   1      50.305  21.868  37.823  1.00  0.00    -0.352 N 
ATOM      4  C   UNL A   1      49.964  20.650  37.251  1.00  0.00     0.253 C 
ATOM      5  O   UNL A   1      50.841  19.792  37.207  1.00  0.00    -0.269 OA
ATOM      6  H   UNL A   1      51.191  21.873  38.254  1.00  0.00     0.163 HD
BRANCH   4   7
ATOM      7  C   UNL A   1      48.582  20.384  36.736  1.00  0.00     0.065 A 
ATOM      8  C   UNL A   1      46.489  19.175  37.161  1.00  0.00     0.035 A 
ATOM      9  C   UNL A   1      46.096  19.468  35.859  1.00  0.00     0.028 A 
ATOM     10  C   UNL A   1      47.688  19.730  37.594  1.00  0.00     0.041 A 
ATOM     11  C   UNL A   1      46.873  20.302  35.050  1.00  0.00     0.029 A 
ATOM     12  C   UNL A   1      48.121  20.797  35.471  1.00  0.00     0.050 A 
BRANCH   8  13
ATOM     13  N   UNL A   1      45.685  18.398  37.962  1.00  0.00    -0.381 N 
ATOM     14  H   UNL A   1      44.772  18.216  37.642  1.00  0.00     0.160 HD
BRANCH  13  15
ATOM     15  C   UNL A   1      46.065  17.823  39.241  1.00  0.00     0.148 C 
BRANCH  15  16
ATOM     16  C   UNL A   1      44.923  17.004  39.786  1.00  0.00    -0.029 A 
ATOM     17  C   UNL A   1      42.842  15.402  40.815  1.00  0.00     0.007 A 
ATOM     18  C   UNL A   1      43.758  16.013  41.675  1.00  0.00     0.015 A 
ATOM     19  C   UNL A   1      42.999  15.570  39.435  1.00  0.00     0.015 A 
ATOM     20  C   UNL A   1      44.792  16.797  41.167  1.00  0.00     0.007 A 
ATOM     21  C   UNL A   1      44.029  16.365  38.923  1.00  0.00     0.007 A 
BRANCH  17  22
ATOM     22  S   UNL A   1      41.556  14.414  41.567  1.00  0.00    -0.130 SA
ATOM     23  C   UNL A   1      41.730  12.835  40.697  1.00  0.00     0.091 C 
ENDBRANCH  17  22
ENDBRANCH  15  16
ENDBRANCH  13  15
ENDBRANCH   8  13
BRANCH  12  24
ATOM     24  N   UNL A   1      48.734  21.747  34.685  1.00  0.00    -0.366 N 
ATOM     25  C   UNL A   1      49.946  21.514  33.899  1.00  0.00     0.145 C 
ATOM     26  C   UNL A   1      48.103  23.062  34.546  1.00  0.00     0.145 C 
ATOM     27  C   UNL A   1      50.888  22.736  33.956  1.00  0.00     0.181 C 
ATOM     28  C   UNL A   1      49.167  24.154  34.699  1.00  0.00     0.181 C 
ATOM     29  O   UNL A   1      50.201  23.981  33.715  1.00  0.00    -0.378 OA
ENDBRANCH  12  24
ENDBRANCH   4   7
ENDBRANCH   2   3
ENDBRANCH   1   2
BRANCH   1  30
ATOM     30  C   UNL A   1      47.064  23.239  38.425  1.00  0.00     0.023 C 
BRANCH  30  31
ATOM     31  C   UNL A   1      46.429  24.613  38.259  1.00  0.00     0.116 C 
BRANCH  31  32
ATOM     32  N   UNL A   1      47.315  25.718  38.597  1.00  0.00    -0.352 N 
ATOM     33  C   UNL A   1      47.283  27.029  38.173  1.00  0.00     0.251 C 
ATOM     34  H   UNL A   1      48.044  25.496  39.221  1.00  0.00     0.163 HD
ATOM     35  O   UNL A   1      48.171  27.802  38.506  1.00  0.00    -0.269 OA
BRANCH  33  36
ATOM     36  C   UNL A   1      46.194  27.481  37.278  1.00  0.00     0.039 A 
ATOM     37  C   UNL A   1      44.886  27.069  37.544  1.00  0.00     0.014 A 
ATOM     38  C   UNL A   1      46.455  28.347  36.214  1.00  0.00     0.014 A 
ATOM     39  C   UNL A   1      43.830  27.599  36.800  1.00  0.00     0.010 A 
ATOM     40  C   UNL A   1      45.396  28.938  35.531  1.00  0.00     0.010 A 
ATOM     41  C   UNL A   1      44.072  28.576  35.820  1.00  0.00    -0.014 A 
BRANCH  41  42
ATOM     42  C   UNL A   1      42.956  29.241  35.096  1.00  0.00     0.031 A 
ATOM     43  C   UNL A   1      42.577  28.784  33.713  1.00  0.00     0.074 A 
ATOM     44  C   UNL A   1      42.337  30.302  35.652  1.00  0.00     0.049 A 
ATOM     45  N   UNL A   1      41.692  29.286  32.891  1.00  0.00    -0.248 NA
ATOM     46  C   UNL A   1      43.313  27.631  33.170  1.00  0.00     0.031 C 
ATOM     47  C   UNL A   1      42.650  30.876  36.962  1.00  0.00     0.029 A 
ATOM     48  N   UNL A   1      41.321  31.097  35.180  1.00  0.00    -0.354 N 
ATOM     49  C   UNL A   1      41.774  28.523  31.733  1.00  0.00     0.074 A 
ATOM     50  C   UNL A   1      42.835  27.561  31.936  1.00  0.00     0.031 C 
ATOM     51  C   UNL A   1      41.831  31.914  37.198  1.00  0.00     0.029 A 
ATOM     52  C   UNL A   1      40.960  32.105  36.043  1.00  0.00     0.049 A 
ATOM     53  H   UNL A   1      40.892  30.958  34.305  1.00  0.00     0.167 HD
ATOM     54  C   UNL A   1      41.019  28.600  30.612  1.00  0.00     0.037 A 
ATOM     55  C   UNL A   1      40.037  33.079  35.916  1.00  0.00     0.037 A 
ATOM     56  C   UNL A   1      39.945  29.542  30.427  1.00  0.00     0.049 A 
ATOM     57  C   UNL A   1      39.204  33.139  34.664  1.00  0.00     0.074 A 
ATOM     58  C   UNL A   1      39.080  29.660  29.354  1.00  0.00     0.029 A 
ATOM     59  N   UNL A   1      39.592  30.528  31.336  1.00  0.00    -0.354 N 
ATOM     60  N   UNL A   1      39.251  32.366  33.606  1.00  0.00    -0.248 NA
ATOM     61  C   UNL A   1      38.190  34.200  34.589  1.00  0.00     0.031 C 
ATOM     62  C   UNL A   1      38.230  30.744  29.595  1.00  0.00     0.029 A 
ATOM     63  C   UNL A   1      38.533  31.270  30.841  1.00  0.00     0.049 A 
ATOM     64  H   UNL A   1      40.029  30.678  32.205  1.00  0.00     0.167 HD
ATOM     65  C   UNL A   1      38.254  32.828  32.752  1.00  0.00     0.074 A 
ATOM     66  C   UNL A   1      37.616  33.941  33.423  1.00  0.00     0.031 C 
ATOM     67  C   UNL A   1      37.901  32.372  31.525  1.00  0.00     0.037 A 
BRANCH  54  68
ATOM     68  C   UNL A   1      41.321  27.632  29.500  1.00  0.00     0.058 A 
ATOM     69  C   UNL A   1      40.473  26.550  29.215  1.00  0.00     0.135 A 
ATOM     70  C   UNL A   1      42.456  27.804  28.691  1.00  0.00     0.135 A 
ATOM     71  F   UNL A   1      39.382  26.328  29.967  1.00  0.00    -0.206 F 
ATOM     72  C   UNL A   1      40.755  25.654  28.189  1.00  0.00     0.059 A 
ATOM     73  C   UNL A   1      42.741  26.937  27.640  1.00  0.00     0.059 A 
ATOM     74  F   UNL A   1      43.302  28.821  28.918  1.00  0.00    -0.206 F 
ATOM     75  C   UNL A   1      41.893  25.856  27.407  1.00  0.00     0.060 A 
BRANCH  75  76
ATOM     76  S   UNL A   1      42.242  24.686  26.077  1.00  0.00     0.124 S 
ATOM     77  O   UNL A   1      41.083  23.801  26.158  1.00  0.00    -0.237 OA
ATOM     78  O   UNL A   1      42.294  25.552  24.904  1.00  0.00    -0.237 OA
ATOM     79  O   UNL A   1      43.515  24.091  26.472  1.00  0.00    -0.744 OA
ENDBRANCH  75  76
ENDBRANCH  54  68
BRANCH  55  80
ATOM     80  C   UNL A   1      39.833  34.060  37.017  1.00  0.00     0.058 A 
ATOM     81  C   UNL A   1      38.973  33.772  38.088  1.00  0.00     0.135 A 
ATOM     82  C   UNL A   1      40.498  35.295  37.027  1.00  0.00     0.135 A 
ATOM     83  F   UNL A   1      38.309  32.607  38.120  1.00  0.00    -0.206 F 
ATOM     84  C   UNL A   1      38.767  34.680  39.123  1.00  0.00     0.059 A 
ATOM     85  C   UNL A   1      40.329  36.208  38.064  1.00  0.00     0.059 A 
ATOM     86  F   UNL A   1      41.345  35.612  36.035  1.00  0.00    -0.206 F 
ATOM     87  C   UNL A   1      39.452  35.895  39.102  1.00  0.00     0.060 A 
BRANCH  87  88
ATOM     88  S   UNL A   1      39.216  37.046  40.475  1.00  0.00     0.124 S 
ATOM     89  O   UNL A   1      38.436  38.102  39.842  1.00  0.00    -0.237 OA
ATOM     90  O   UNL A   1      38.505  36.221  41.447  1.00  0.00    -0.237 OA
ATOM     91  O   UNL A   1      40.581  37.405  40.850  1.00  0.00    -0.744 OA
ENDBRANCH  87  88
ENDBRANCH  55  80
BRANCH  67  92
ATOM     92  C   UNL A   1      36.748  33.049  30.840  1.00  0.00     0.058 A 
ATOM     93  C   UNL A   1      35.420  32.832  31.240  1.00  0.00     0.135 A 
ATOM     94  C   UNL A   1      36.979  33.970  29.805  1.00  0.00     0.135 A 
ATOM     95  F   UNL A   1      35.144  31.956  32.219  1.00  0.00    -0.206 F 
ATOM     96  C   UNL A   1      34.360  33.490  30.624  1.00  0.00     0.059 A 
ATOM     97  C   UNL A   1      35.937  34.660  29.195  1.00  0.00     0.059 A 
ATOM     98  F   UNL A   1      38.231  34.222  29.391  1.00  0.00    -0.206 F 
ATOM     99  C   UNL A   1      34.629  34.403  29.604  1.00  0.00     0.060 A 
BRANCH  99 100
ATOM    100  S   UNL A   1      33.247  35.278  28.838  1.00  0.00     0.124 S 
ATOM    101  O   UNL A   1      32.470  35.680  30.006  1.00  0.00    -0.237 OA
ATOM    102  O   UNL A   1      33.918  36.357  28.121  1.00  0.00    -0.237 OA
ATOM    103  O   UNL A   1      32.628  34.261  27.993  1.00  0.00    -0.744 OA
ENDBRANCH  99 100
ENDBRANCH  67  92
ENDBRANCH  41  42
ENDBRANCH  33  36
ENDBRANCH  31  32
ENDBRANCH  30  31
ENDBRANCH   1  30
TORSDOF 19
ENDMDL
MODEL 2
REMARK VINA RESULT:     -10.3      8.498     16.370
REMARK SMILES CSc1ccc(CNc2ccc(N3CCOCC3)c(C(=O)NCCCCNC(=O)c3ccc(-c4c5nc(c(-c6c(F)cc(S(=O)(=O)[O-])cc6F)c6ccc([nH]6)c(-c6c(F)cc(S(=O)(=O)[O-])cc6F)c6nc(c(-c7c(F)cc(S(=O)(=O)[O-])cc7F)c7ccc4[nH]7)C=C6)C=C5)cc3)c2)cc1
REMARK SMILES IDX 24 1 23 2 22 3 20 4 21 5 19 7 9 8 10 9 96 10 11 11 12 12
REMARK SMILES IDX 8 13 7 15 6 16 3 17 4 18 98 19 5 20 97 21 2 22 1 23 13 24
REMARK SMILES IDX 14 25 18 26 15 27 17 28 16 29 25 30 26 31 27 32 28 33 29 35
REMARK SMILES IDX 30 36 31 37 95 38 32 39 94 40 33 41 34 42 35 43 88 44 36 45
REMARK SMILES IDX 93 46 87 47 89 48 37 49 92 50 86 51 85 52 38 54 72 55 51 56
REMARK SMILES IDX 71 57 52 58 55 59 70 60 90 61 53 62 54 63 69 65 91 66 56 67
REMARK SMILES IDX 39 68 40 69 49 70 41 71 42 72 48 73 50 74 43 75 44 76 45 77
REMARK SMILES IDX 46 78 47 79 73 80 74 81 83 82 75 83 76 84 82 85 84 86 77 87
REMARK SMILES IDX 78 88 79 89 80 90 81 91 57 92 58 93 67 94 59 95 60 96 66 97
REMARK SMILES IDX 68 98 61 99 62 100 63 101 64 102 65 103
REMARK H PARENT 22 6 8 14 27 34 89 53 55 64
REMARK Flexibility Score: inf
ROOT
ATOM      1  C   UNL A   1      45.758  37.420  31.743  1.00  0.00     0.023 C 
ENDROOT
BRANCH   1   2
ATOM      2  C   UNL A   1      45.583  38.701  32.546  1.00  0.00     0.116 C 
BRANCH   2   3
ATOM      3  N   UNL A   1      46.255  39.879  32.012  1.00  0.00    -0.352 N 
ATOM      4  C   UNL A   1      45.779  41.123  31.617  1.00  0.00     0.253 C 
ATOM      5  O   UNL A   1      46.619  41.978  31.350  1.00  0.00    -0.269 OA
ATOM      6  H   UNL A   1      47.229  39.774  31.914  1.00  0.00     0.163 HD
BRANCH   4   7
ATOM      7  C   UNL A   1      44.313  41.400  31.494  1.00  0.00     0.065 A 
ATOM      8  C   UNL A   1      42.293  40.939  30.178  1.00  0.00     0.035 A 
ATOM      9  C   UNL A   1      41.662  41.985  30.843  1.00  0.00     0.028 A 
ATOM     10  C   UNL A   1      43.579  40.613  30.597  1.00  0.00     0.041 A 
ATOM     11  C   UNL A   1      42.299  42.649  31.896  1.00  0.00     0.029 A 
ATOM     12  C   UNL A   1      43.627  42.362  32.262  1.00  0.00     0.050 A 
BRANCH   8  13
ATOM     13  N   UNL A   1      41.631  40.259  29.182  1.00  0.00    -0.381 N 
ATOM     14  H   UNL A   1      40.647  40.291  29.194  1.00  0.00     0.160 HD
BRANCH  13  15
ATOM     15  C   UNL A   1      42.256  39.497  28.115  1.00  0.00     0.148 C 
BRANCH  15  16
ATOM     16  C   UNL A   1      42.454  40.382  26.911  1.00  0.00    -0.029 A 
ATOM     17  C   UNL A   1      42.800  42.109  24.708  1.00  0.00     0.007 A 
ATOM     18  C   UNL A   1      43.799  41.987  25.677  1.00  0.00     0.015 A 
ATOM     19  C   UNL A   1      41.612  41.388  24.870  1.00  0.00     0.015 A 
ATOM     20  C   UNL A   1      43.625  41.140  26.771  1.00  0.00     0.007 A 
ATOM     21  C   UNL A   1      41.440  40.530  25.961  1.00  0.00     0.007 A 
BRANCH  17  22
ATOM     22  S   UNL A   1      43.120  43.224  23.348  1.00  0.00    -0.130 SA
ATOM     23  C   UNL A   1      42.001  42.599  22.069  1.00  0.00     0.091 C 
ENDBRANCH  17  22
ENDBRANCH  15  16
ENDBRANCH  13  15
ENDBRANCH   8  13
BRANCH  12  24
ATOM     24  N   UNL A   1      44.114  42.937  33.415  1.00  0.00    -0.366 N 
ATOM     25  C   UNL A   1      44.838  44.207  33.464  1.00  0.00     0.145 C 
ATOM     26  C   UNL A   1      43.828  42.292  34.699  1.00  0.00     0.145 C 
ATOM     27  C   UNL A   1      46.005  44.142  34.474  1.00  0.00     0.181 C 
ATOM     28  C   UNL A   1      45.107  42.250  35.542  1.00  0.00     0.181 C 
ATOM     29  O   UNL A   1      45.614  43.581  35.743  1.00  0.00    -0.378 OA
ENDBRANCH  12  24
ENDBRANCH   4   7
ENDBRANCH   2   3
ENDBRANCH   1   2
BRANCH   1  30
ATOM     30  C   UNL A   1      44.676  37.098  30.724  1.00  0.00     0.023 C 
BRANCH  30  31
ATOM     31  C   UNL A   1      45.079  37.207  29.259  1.00  0.00     0.116 C 
BRANCH  31  32
ATOM     32  N   UNL A   1      46.468  37.595  29.055  1.00  0.00    -0.352 N 
ATOM     33  C   UNL A   1      47.556  36.817  28.728  1.00  0.00     0.251 C 
ATOM     34  H   UNL A   1      46.656  38.556  29.166  1.00  0.00     0.163 HD
ATOM     35  O   UNL A   1      48.673  37.316  28.678  1.00  0.00    -0.269 OA
BRANCH  33  36
ATOM     36  C   UNL A   1      47.372  35.369  28.483  1.00  0.00     0.039 A 
ATOM     37  C   UNL A   1      47.508  34.480  29.553  1.00  0.00     0.014 A 
ATOM     38  C   UNL A   1      47.019  34.896  27.218  1.00  0.00     0.014 A 
ATOM     39  C   UNL A   1      47.199  33.130  29.372  1.00  0.00     0.010 A 
ATOM     40  C   UNL A   1      46.628  33.569  27.062  1.00  0.00     0.010 A 
ATOM     41  C   UNL A   1      46.708  32.673  28.138  1.00  0.00    -0.014 A 
BRANCH  41  42
ATOM     42  C   UNL A   1      46.261  31.267  27.954  1.00  0.00     0.031 A 
ATOM     43  C   UNL A   1      47.231  30.225  27.468  1.00  0.00     0.074 A 
ATOM     44  C   UNL A   1      44.966  30.946  28.153  1.00  0.00     0.049 A 
ATOM     45  N   UNL A   1      47.014  28.969  27.170  1.00  0.00    -0.248 NA
ATOM     46  C   UNL A   1      48.622  30.659  27.258  1.00  0.00     0.031 C 
ATOM     47  C   UNL A   1      43.916  31.877  28.571  1.00  0.00     0.029 A 
ATOM     48  N   UNL A   1      44.307  29.748  28.018  1.00  0.00    -0.354 N 
ATOM     49  C   UNL A   1      48.232  28.470  26.724  1.00  0.00     0.074 A 
ATOM     50  C   UNL A   1      49.169  29.571  26.736  1.00  0.00     0.031 C 
ATOM     51  C   UNL A   1      42.753  31.214  28.679  1.00  0.00     0.029 A 
ATOM     52  C   UNL A   1      42.964  29.820  28.303  1.00  0.00     0.049 A 
ATOM     53  H   UNL A   1      44.755  28.916  27.742  1.00  0.00     0.167 HD
ATOM     54  C   UNL A   1      48.548  27.204  26.362  1.00  0.00     0.037 A 
ATOM     55  C   UNL A   1      42.006  28.872  28.258  1.00  0.00     0.037 A 
ATOM     56  C   UNL A   1      47.616  26.106  26.378  1.00  0.00     0.049 A 
ATOM     57  C   UNL A   1      42.383  27.470  27.860  1.00  0.00     0.074 A 
ATOM     58  C   UNL A   1      47.852  24.774  26.089  1.00  0.00     0.029 A 
ATOM     59  N   UNL A   1      46.271  26.213  26.700  1.00  0.00    -0.354 N 
ATOM     60  N   UNL A   1      43.555  27.001  27.507  1.00  0.00    -0.248 NA
ATOM     61  C   UNL A   1      41.309  26.467  27.859  1.00  0.00     0.031 C 
ATOM     62  C   UNL A   1      46.641  24.082  26.196  1.00  0.00     0.029 A 
ATOM     63  C   UNL A   1      45.660  24.974  26.600  1.00  0.00     0.049 A 
ATOM     64  H   UNL A   1      45.817  27.047  26.962  1.00  0.00     0.167 HD
ATOM     65  C   UNL A   1      43.366  25.643  27.269  1.00  0.00     0.074 A 
ATOM     66  C   UNL A   1      41.969  25.366  27.529  1.00  0.00     0.031 C 
ATOM     67  C   UNL A   1      44.268  24.712  26.871  1.00  0.00     0.037 A 
BRANCH  54  68
ATOM     68  C   UNL A   1      49.962  26.936  25.924  1.00  0.00     0.058 A 
ATOM     69  C   UNL A   1      50.350  27.054  24.579  1.00  0.00     0.135 A 
ATOM     70  C   UNL A   1      50.947  26.586  26.860  1.00  0.00     0.135 A 
ATOM     71  F   UNL A   1      49.446  27.371  23.638  1.00  0.00    -0.206 F 
ATOM     72  C   UNL A   1      51.657  26.804  24.174  1.00  0.00     0.059 A 
ATOM     73  C   UNL A   1      52.268  26.360  26.482  1.00  0.00     0.059 A 
ATOM     74  F   UNL A   1      50.632  26.458  28.159  1.00  0.00    -0.206 F 
ATOM     75  C   UNL A   1      52.609  26.456  25.134  1.00  0.00     0.060 A 
BRANCH  75  76
ATOM     76  S   UNL A   1      54.301  26.139  24.592  1.00  0.00     0.124 S 
ATOM     77  O   UNL A   1      54.460  24.730  24.942  1.00  0.00    -0.237 OA
ATOM     78  O   UNL A   1      54.232  26.430  23.163  1.00  0.00    -0.237 OA
ATOM     79  O   UNL A   1      55.094  27.076  25.382  1.00  0.00    -0.744 OA
ENDBRANCH  75  76
ENDBRANCH  54  68
BRANCH  55  80
ATOM     80  C   UNL A   1      40.605  29.211  28.627  1.00  0.00     0.058 A 
ATOM     81  C   UNL A   1      40.224  29.338  29.971  1.00  0.00     0.135 A 
ATOM     82  C   UNL A   1      39.623  29.425  27.647  1.00  0.00     0.135 A 
ATOM     83  F   UNL A   1      41.125  29.136  30.945  1.00  0.00    -0.206 F 
ATOM     84  C   UNL A   1      38.917  29.649  30.334  1.00  0.00     0.059 A 
ATOM     85  C   UNL A   1      38.316  29.763  27.984  1.00  0.00     0.059 A 
ATOM     86  F   UNL A   1      39.939  29.332  26.346  1.00  0.00    -0.206 F 
ATOM     87  C   UNL A   1      37.970  29.862  29.331  1.00  0.00     0.060 A 
BRANCH  87  88
ATOM     88  S   UNL A   1      36.288  30.314  29.810  1.00  0.00     0.124 S 
ATOM     89  O   UNL A   1      35.515  29.804  28.685  1.00  0.00    -0.237 OA
ATOM     90  O   UNL A   1      36.127  29.600  31.073  1.00  0.00    -0.237 OA
ATOM     91  O   UNL A   1      36.352  31.769  29.927  1.00  0.00    -0.744 OA
ENDBRANCH  87  88
ENDBRANCH  55  80
BRANCH  67  92
ATOM     92  C   UNL A   1      43.785  23.296  26.728  1.00  0.00     0.058 A 
ATOM     93  C   UNL A   1      43.417  22.526  27.842  1.00  0.00     0.135 A 
ATOM     94  C   UNL A   1      43.634  22.722  25.455  1.00  0.00     0.135 A 
ATOM     95  F   UNL A   1      43.547  23.024  29.082  1.00  0.00    -0.206 F 
ATOM     96  C   UNL A   1      42.936  21.228  27.699  1.00  0.00     0.059 A 
ATOM     97  C   UNL A   1      43.129  21.437  25.288  1.00  0.00     0.059 A 
ATOM     98  F   UNL A   1      43.962  23.421  24.356  1.00  0.00    -0.206 F 
ATOM     99  C   UNL A   1      42.794  20.693  26.418  1.00  0.00     0.060 A 
BRANCH  99 100
ATOM    100  S   UNL A   1      42.135  19.022  26.245  1.00  0.00     0.124 S 
ATOM    101  O   UNL A   1      42.326  18.489  27.590  1.00  0.00    -0.237 OA
ATOM    102  O   UNL A   1      40.751  19.270  25.852  1.00  0.00    -0.237 OA
ATOM    103  O   UNL A   1      42.977  18.429  25.210  1.00  0.00    -0.744 OA
ENDBRANCH  99 100
ENDBRANCH  67  92
ENDBRANCH  41  42
ENDBRANCH  33  36
ENDBRANCH  31  32
ENDBRANCH  30  31
ENDBRANCH   1  30
TORSDOF 19
ENDMDL
MODEL 3
REMARK VINA RESULT:     -10.2      5.827     11.926
REMARK SMILES CSc1ccc(CNc2ccc(N3CCOCC3)c(C(=O)NCCCCNC(=O)c3ccc(-c4c5nc(c(-c6c(F)cc(S(=O)(=O)[O-])cc6F)c6ccc([nH]6)c(-c6c(F)cc(S(=O)(=O)[O-])cc6F)c6nc(c(-c7c(F)cc(S(=O)(=O)[O-])cc7F)c7ccc4[nH]7)C=C6)C=C5)cc3)c2)cc1
REMARK SMILES IDX 24 1 23 2 22 3 20 4 21 5 19 7 9 8 10 9 96 10 11 11 12 12
REMARK SMILES IDX 8 13 7 15 6 16 3 17 4 18 98 19 5 20 97 21 2 22 1 23 13 24
REMARK SMILES IDX 14 25 18 26 15 27 17 28 16 29 25 30 26 31 27 32 28 33 29 35
REMARK SMILES IDX 30 36 31 37 95 38 32 39 94 40 33 41 34 42 35 43 88 44 36 45
REMARK SMILES IDX 93 46 87 47 89 48 37 49 92 50 86 51 85 52 38 54 72 55 51 56
REMARK SMILES IDX 71 57 52 58 55 59 70 60 90 61 53 62 54 63 69 65 91 66 56 67
REMARK SMILES IDX 39 68 40 69 49 70 41 71 42 72 48 73 50 74 43 75 44 76 45 77
REMARK SMILES IDX 46 78 47 79 73 80 74 81 83 82 75 83 76 84 82 85 84 86 77 87
REMARK SMILES IDX 78 88 79 89 80 90 81 91 57 92 58 93 67 94 59 95 60 96 66 97
REMARK SMILES IDX 68 98 61 99 62 100 63 101 64 102 65 103
REMARK H PARENT 22 6 8 14 27 34 89 53 55 64
REMARK Flexibility Score: inf
ROOT
ATOM      1  C   UNL A   1      42.365  26.766  25.443  1.00  0.00     0.023 C 
ENDROOT
BRANCH   1   2
ATOM      2  C   UNL A   1      41.045  26.241  25.991  1.00  0.00     0.116 C 
BRANCH   2   3
ATOM      3  N   UNL A   1      41.123  25.544  27.269  1.00  0.00    -0.352 N 
ATOM      4  C   UNL A   1      40.645  24.310  27.687  1.00  0.00     0.253 C 
ATOM      5  O   UNL A   1      41.005  23.921  28.795  1.00  0.00    -0.269 OA
ATOM      6  H   UNL A   1      41.607  26.043  27.968  1.00  0.00     0.163 HD
BRANCH   4   7
ATOM      7  C   UNL A   1      39.711  23.501  26.840  1.00  0.00     0.065 A 
ATOM      8  C   UNL A   1      37.465  23.426  25.852  1.00  0.00     0.035 A 
ATOM      9  C   UNL A   1      37.673  22.081  25.568  1.00  0.00     0.028 A 
ATOM     10  C   UNL A   1      38.537  24.125  26.396  1.00  0.00     0.041 A 
ATOM     11  C   UNL A   1      38.915  21.485  25.804  1.00  0.00     0.029 A 
ATOM     12  C   UNL A   1      39.970  22.181  26.424  1.00  0.00     0.050 A 
BRANCH   8  13
ATOM     13  N   UNL A   1      36.254  24.011  25.562  1.00  0.00    -0.381 N 
ATOM     14  H   UNL A   1      35.963  24.751  26.142  1.00  0.00     0.160 HD
BRANCH  13  15
ATOM     15  C   UNL A   1      35.368  23.633  24.475  1.00  0.00     0.148 C 
BRANCH  15  16
ATOM     16  C   UNL A   1      34.237  24.624  24.376  1.00  0.00    -0.029 A 
ATOM     17  C   UNL A   1      32.093  26.453  24.273  1.00  0.00     0.007 A 
ATOM     18  C   UNL A   1      33.267  26.775  24.959  1.00  0.00     0.015 A 
ATOM     19  C   UNL A   1      31.987  25.194  23.672  1.00  0.00     0.015 A 
ATOM     20  C   UNL A   1      34.324  25.868  25.018  1.00  0.00     0.007 A 
ATOM     21  C   UNL A   1      33.050  24.287  23.721  1.00  0.00     0.007 A 
BRANCH  17  22
ATOM     22  S   UNL A   1      30.797  27.684  24.261  1.00  0.00    -0.130 SA
ATOM     23  C   UNL A   1      30.483  27.893  22.490  1.00  0.00     0.091 C 
ENDBRANCH  17  22
ENDBRANCH  15  16
ENDBRANCH  13  15
ENDBRANCH   8  13
BRANCH  12  24
ATOM     24  N   UNL A   1      41.206  21.576  26.459  1.00  0.00    -0.366 N 
ATOM     25  C   UNL A   1      42.458  22.228  26.075  1.00  0.00     0.145 C 
ATOM     26  C   UNL A   1      41.310  20.213  26.989  1.00  0.00     0.145 C 
ATOM     27  C   UNL A   1      43.375  21.259  25.299  1.00  0.00     0.181 C 
ATOM     28  C   UNL A   1      42.194  19.374  26.061  1.00  0.00     0.181 C 
ATOM     29  O   UNL A   1      43.496  19.973  25.939  1.00  0.00    -0.378 OA
ENDBRANCH  12  24
ENDBRANCH   4   7
ENDBRANCH   2   3
ENDBRANCH   1   2
BRANCH   1  30
ATOM     30  C   UNL A   1      43.411  25.728  25.067  1.00  0.00     0.023 C 
BRANCH  30  31
ATOM     31  C   UNL A   1      44.860  26.097  25.358  1.00  0.00     0.116 C 
BRANCH  31  32
ATOM     32  N   UNL A   1      45.557  25.134  26.199  1.00  0.00    -0.352 N 
ATOM     33  C   UNL A   1      45.675  25.093  27.571  1.00  0.00     0.251 C 
ATOM     34  H   UNL A   1      46.009  24.405  25.716  1.00  0.00     0.163 HD
ATOM     35  O   UNL A   1      46.377  24.240  28.100  1.00  0.00    -0.269 OA
BRANCH  33  36
ATOM     36  C   UNL A   1      44.985  26.111  28.395  1.00  0.00     0.039 A 
ATOM     37  C   UNL A   1      43.976  25.700  29.270  1.00  0.00     0.014 A 
ATOM     38  C   UNL A   1      45.366  27.453  28.343  1.00  0.00     0.014 A 
ATOM     39  C   UNL A   1      43.414  26.621  30.157  1.00  0.00     0.010 A 
ATOM     40  C   UNL A   1      44.867  28.349  29.284  1.00  0.00     0.010 A 
ATOM     41  C   UNL A   1      43.890  27.942  30.206  1.00  0.00    -0.014 A 
BRANCH  41  42
ATOM     42  C   UNL A   1      43.392  28.909  31.219  1.00  0.00     0.031 A 
ATOM     43  C   UNL A   1      44.135  29.095  32.513  1.00  0.00     0.074 A 
ATOM     44  C   UNL A   1      42.231  29.562  31.005  1.00  0.00     0.049 A 
ATOM     45  N   UNL A   1      43.818  29.828  33.550  1.00  0.00    -0.248 NA
ATOM     46  C   UNL A   1      45.384  28.334  32.677  1.00  0.00     0.031 C 
ATOM     47  C   UNL A   1      41.388  29.425  29.815  1.00  0.00     0.029 A 
ATOM     48  N   UNL A   1      41.551  30.464  31.787  1.00  0.00    -0.354 N 
ATOM     49  C   UNL A   1      44.816  29.604  34.491  1.00  0.00     0.074 A 
ATOM     50  C   UNL A   1      45.717  28.625  33.926  1.00  0.00     0.031 C 
ATOM     51  C   UNL A   1      40.318  30.228  29.936  1.00  0.00     0.029 A 
ATOM     52  C   UNL A   1      40.377  30.909  31.226  1.00  0.00     0.049 A 
ATOM     53  H   UNL A   1      41.874  30.762  32.668  1.00  0.00     0.167 HD
ATOM     54  C   UNL A   1      44.980  30.180  35.706  1.00  0.00     0.037 A 
ATOM     55  C   UNL A   1      39.448  31.763  31.699  1.00  0.00     0.037 A 
ATOM     56  C   UNL A   1      44.094  31.175  36.251  1.00  0.00     0.049 A 
ATOM     57  C   UNL A   1      39.656  32.396  33.048  1.00  0.00     0.074 A 
ATOM     58  C   UNL A   1      44.206  31.865  37.445  1.00  0.00     0.029 A 
ATOM     59  N   UNL A   1      42.931  31.621  35.640  1.00  0.00    -0.354 N 
ATOM     60  N   UNL A   1      40.642  32.224  33.896  1.00  0.00    -0.248 NA
ATOM     61  C   UNL A   1      38.631  33.345  33.504  1.00  0.00     0.031 C 
ATOM     62  C   UNL A   1      43.090  32.698  37.576  1.00  0.00     0.029 A 
ATOM     63  C   UNL A   1      42.307  32.564  36.440  1.00  0.00     0.049 A 
ATOM     64  H   UNL A   1      42.598  31.313  34.766  1.00  0.00     0.167 HD
ATOM     65  C   UNL A   1      40.370  33.062  34.972  1.00  0.00     0.074 A 
ATOM     66  C   UNL A   1      39.133  33.749  34.662  1.00  0.00     0.031 C 
ATOM     67  C   UNL A   1      41.079  33.246  36.113  1.00  0.00     0.037 A 
BRANCH  54  68
ATOM     68  C   UNL A   1      46.168  29.753  36.525  1.00  0.00     0.058 A 
ATOM     69  C   UNL A   1      46.086  28.695  37.445  1.00  0.00     0.135 A 
ATOM     70  C   UNL A   1      47.410  30.389  36.369  1.00  0.00     0.135 A 
ATOM     71  F   UNL A   1      44.918  28.062  37.646  1.00  0.00    -0.206 F 
ATOM     72  C   UNL A   1      47.183  28.303  38.204  1.00  0.00     0.059 A 
ATOM     73  C   UNL A   1      48.529  29.993  37.096  1.00  0.00     0.059 A 
ATOM     74  F   UNL A   1      47.547  31.406  35.504  1.00  0.00    -0.206 F 
ATOM     75  C   UNL A   1      48.402  28.959  38.022  1.00  0.00     0.060 A 
BRANCH  75  76
ATOM     76  S   UNL A   1      49.817  28.435  39.012  1.00  0.00     0.124 S 
ATOM     77  O   UNL A   1      49.829  26.996  38.764  1.00  0.00    -0.237 OA
ATOM     78  O   UNL A   1      50.915  29.189  38.414  1.00  0.00    -0.237 OA
ATOM     79  O   UNL A   1      49.452  28.835  40.368  1.00  0.00    -0.744 OA
ENDBRANCH  75  76
ENDBRANCH  54  68
BRANCH  55  80
ATOM     80  C   UNL A   1      38.250  32.090  30.878  1.00  0.00     0.058 A 
ATOM     81  C   UNL A   1      37.041  31.402  31.062  1.00  0.00     0.135 A 
ATOM     82  C   UNL A   1      38.284  33.102  29.907  1.00  0.00     0.135 A 
ATOM     83  F   UNL A   1      36.960  30.421  31.975  1.00  0.00    -0.206 F 
ATOM     84  C   UNL A   1      35.913  31.692  30.301  1.00  0.00     0.059 A 
ATOM     85  C   UNL A   1      37.162  33.428  29.151  1.00  0.00     0.059 A 
ATOM     86  F   UNL A   1      39.411  33.802  29.703  1.00  0.00    -0.206 F 
ATOM     87  C   UNL A   1      35.983  32.709  29.349  1.00  0.00     0.060 A 
BRANCH  87  88
ATOM     88  S   UNL A   1      34.499  33.112  28.401  1.00  0.00     0.124 S 
ATOM     89  O   UNL A   1      33.650  33.709  29.423  1.00  0.00    -0.237 OA
ATOM     90  O   UNL A   1      35.021  34.026  27.389  1.00  0.00    -0.237 OA
ATOM     91  O   UNL A   1      34.063  31.814  27.894  1.00  0.00    -0.744 OA
ENDBRANCH  87  88
ENDBRANCH  55  80
BRANCH  67  92
ATOM     92  C   UNL A   1      40.560  34.257  37.097  1.00  0.00     0.058 A 
ATOM     93  C   UNL A   1      39.668  33.900  38.120  1.00  0.00     0.135 A 
ATOM     94  C   UNL A   1      41.006  35.588  37.049  1.00  0.00     0.135 A 
ATOM     95  F   UNL A   1      39.205  32.643  38.206  1.00  0.00    -0.206 F 
ATOM     96  C   UNL A   1      39.220  34.834  39.048  1.00  0.00     0.059 A 
ATOM     97  C   UNL A   1      40.593  36.530  37.985  1.00  0.00     0.059 A 
ATOM     98  F   UNL A   1      41.869  35.979  36.097  1.00  0.00    -0.206 F 
ATOM     99  C   UNL A   1      39.689  36.146  38.974  1.00  0.00     0.060 A 
BRANCH  99 100
ATOM    100  S   UNL A   1      39.129  37.338  40.208  1.00  0.00     0.124 S 
ATOM    101  O   UNL A   1      38.397  36.481  41.135  1.00  0.00    -0.237 OA
ATOM    102  O   UNL A   1      40.385  37.886  40.709  1.00  0.00    -0.237 OA
ATOM    103  O   UNL A   1      38.310  38.268  39.435  1.00  0.00    -0.744 OA
ENDBRANCH  99 100
ENDBRANCH  67  92
ENDBRANCH  41  42
ENDBRANCH  33  36
ENDBRANCH  31  32
ENDBRANCH  30  31
ENDBRANCH   1  30
TORSDOF 19
ENDMDL
