MODEL 1
REMARK VINA RESULT:     -13.5      0.000      0.000
REMARK SMILES Cc1sc(NC(=O)[C@@H]2CC=CC[C@H]2C(=O)NCCCCNC(=O)c2ccc(-c3c4nc(c(-c5c(F)cc(S(=O)(=O)[O-])cc5F)c5ccc([nH]5)c(-c5c(F)cc(S(=O)(=O)[O-])cc5F)c5nc(c(-c6c(F)cc(S(=O)(=O)[O-])cc6F)c6ccc3[nH]6)C=C5)C=C4)cc2)nc1-c1ccc(C(C)C)cc1
REMARK SMILES IDX 18 1 17 2 16 3 14 4 15 5 13 7 8 8 9 9 10 10 12 11 11 12 6 13
REMARK SMILES IDX 5 14 7 16 4 17 1 18 2 19 3 20 91 21 90 22 92 23 93 24 100 25
REMARK SMILES IDX 94 26 99 27 95 28 96 29 97 30 98 31 19 32 20 33 21 34 22 35
REMARK SMILES IDX 23 37 24 38 25 39 89 40 26 41 88 42 27 43 28 44 29 45 82 46
REMARK SMILES IDX 30 47 87 48 81 49 83 50 31 51 86 52 80 53 79 54 32 56 66 57
REMARK SMILES IDX 45 58 65 59 46 60 49 61 64 62 84 63 47 64 48 65 63 67 85 68
REMARK SMILES IDX 50 69 33 70 34 71 43 72 35 73 36 74 42 75 44 76 37 77 38 78
REMARK SMILES IDX 39 79 40 80 41 81 67 82 68 83 77 84 69 85 70 86 76 87 78 88
REMARK SMILES IDX 71 89 72 90 73 91 74 92 75 93 51 94 52 95 61 96 53 97 54 98
REMARK SMILES IDX 60 99 62 100 55 101 56 102 57 103 58 104 59 105
REMARK H PARENT 16 6 5 15 21 36 83 55 49 66
REMARK Flexibility Score: inf
ROOT
ATOM      1  C   UNL A   1      35.723  23.632  25.378  1.00  0.00     0.023 C 
ENDROOT
BRANCH   1   2
ATOM      2  C   UNL A   1      34.961  24.975  25.258  1.00  0.00     0.116 C 
BRANCH   2   3
ATOM      3  N   UNL A   1      33.790  25.268  26.073  1.00  0.00    -0.356 N 
ATOM      4  C   UNL A   1      32.872  26.273  26.168  1.00  0.00     0.224 C 
ATOM      5  O   UNL A   1      31.882  26.015  26.870  1.00  0.00    -0.275 OA
ATOM      6  H   UNL A   1      33.615  24.554  26.727  1.00  0.00     0.163 HD
BRANCH   4   7
ATOM      7  C   UNL A   1      32.933  27.651  25.486  1.00  0.00     0.095 C 
ATOM      8  C   UNL A   1      31.674  28.161  24.708  1.00  0.00     0.095 C 
ATOM      9  C   UNL A   1      31.474  29.695  24.906  1.00  0.00     0.041 C 
ATOM     10  C   UNL A   1      31.743  30.211  26.284  1.00  0.00    -0.030 C 
ATOM     11  C   UNL A   1      33.563  28.567  26.560  1.00  0.00     0.041 C 
ATOM     12  C   UNL A   1      32.719  29.699  27.036  1.00  0.00    -0.030 C 
BRANCH   8  13
ATOM     13  C   UNL A   1      31.686  27.926  23.134  1.00  0.00     0.230 C 
ATOM     14  N   UNL A   1      31.560  26.740  22.450  1.00  0.00    -0.302 N 
ATOM     15  H   UNL A   1      31.434  26.863  21.481  1.00  0.00     0.172 HD
ATOM     16  O   UNL A   1      31.779  28.920  22.393  1.00  0.00    -0.274 OA
BRANCH  14  17
ATOM     17  C   UNL A   1      31.574  25.426  22.832  1.00  0.00     0.190 A 
ATOM     18  C   UNL A   1      30.736  22.825  25.521  1.00  0.00     0.059 C 
ATOM     19  C   UNL A   1      31.198  23.590  24.335  1.00  0.00     0.031 A 
ATOM     20  S   UNL A   1      30.304  24.856  23.721  1.00  0.00    -0.101 S 
ATOM     21  C   UNL A   1      32.205  23.391  23.407  1.00  0.00     0.086 A 
ATOM     22  N   UNL A   1      32.481  24.499  22.583  1.00  0.00    -0.220 NA
BRANCH  21  23
ATOM     23  C   UNL A   1      32.725  22.044  23.319  1.00  0.00     0.001 A 
ATOM     24  C   UNL A   1      33.455  21.508  24.380  1.00  0.00     0.011 A 
ATOM     25  C   UNL A   1      32.078  21.185  22.414  1.00  0.00     0.011 A 
ATOM     26  C   UNL A   1      33.470  20.125  24.582  1.00  0.00     0.004 A 
ATOM     27  C   UNL A   1      32.084  19.810  22.631  1.00  0.00     0.004 A 
ATOM     28  C   UNL A   1      32.750  19.266  23.738  1.00  0.00    -0.045 A 
BRANCH  28  29
ATOM     29  C   UNL A   1      32.731  17.763  23.946  1.00  0.00     0.013 C 
ATOM     30  C   UNL A   1      33.763  17.115  23.038  1.00  0.00     0.012 C 
ATOM     31  C   UNL A   1      32.906  17.302  25.391  1.00  0.00     0.012 C 
ENDBRANCH  28  29
ENDBRANCH  21  23
ENDBRANCH  14  17
ENDBRANCH   8  13
ENDBRANCH   4   7
ENDBRANCH   2   3
ENDBRANCH   1   2
BRANCH   1  32
ATOM     32  C   UNL A   1      37.262  23.441  25.341  1.00  0.00     0.023 C 
BRANCH  32  33
ATOM     33  C   UNL A   1      38.173  24.065  26.401  1.00  0.00     0.116 C 
BRANCH  33  34
ATOM     34  N   UNL A   1      39.558  23.664  26.218  1.00  0.00    -0.352 N 
ATOM     35  C   UNL A   1      40.746  24.236  26.617  1.00  0.00     0.251 C 
ATOM     36  H   UNL A   1      39.668  22.826  25.714  1.00  0.00     0.163 HD
ATOM     37  O   UNL A   1      41.781  23.803  26.106  1.00  0.00    -0.269 OA
BRANCH  35  38
ATOM     38  C   UNL A   1      40.857  25.336  27.621  1.00  0.00     0.039 A 
ATOM     39  C   UNL A   1      39.785  25.529  28.508  1.00  0.00     0.014 A 
ATOM     40  C   UNL A   1      41.895  26.269  27.627  1.00  0.00     0.014 A 
ATOM     41  C   UNL A   1      39.764  26.612  29.406  1.00  0.00     0.010 A 
ATOM     42  C   UNL A   1      41.886  27.338  28.548  1.00  0.00     0.010 A 
ATOM     43  C   UNL A   1      40.826  27.524  29.460  1.00  0.00    -0.014 A 
BRANCH  43  44
ATOM     44  C   UNL A   1      40.867  28.629  30.480  1.00  0.00     0.031 A 
ATOM     45  C   UNL A   1      41.663  28.479  31.762  1.00  0.00     0.074 A 
ATOM     46  C   UNL A   1      40.071  29.716  30.333  1.00  0.00     0.049 A 
ATOM     47  N   UNL A   1      41.652  29.230  32.837  1.00  0.00    -0.248 NA
ATOM     48  C   UNL A   1      42.572  27.326  31.854  1.00  0.00     0.031 C 
ATOM     49  C   UNL A   1      39.184  29.968  29.195  1.00  0.00     0.029 A 
ATOM     50  N   UNL A   1      39.798  30.762  31.192  1.00  0.00    -0.354 N 
ATOM     51  C   UNL A   1      42.553  28.649  33.727  1.00  0.00     0.074 A 
ATOM     52  C   UNL A   1      43.050  27.449  33.087  1.00  0.00     0.031 C 
ATOM     53  C   UNL A   1      38.407  31.032  29.460  1.00  0.00     0.029 A 
ATOM     54  C   UNL A   1      38.726  31.536  30.792  1.00  0.00     0.049 A 
ATOM     55  H   UNL A   1      40.316  30.938  32.010  1.00  0.00     0.167 HD
ATOM     56  C   UNL A   1      42.954  29.089  34.947  1.00  0.00     0.037 A 
ATOM     57  C   UNL A   1      38.023  32.490  31.440  1.00  0.00     0.037 A 
ATOM     58  C   UNL A   1      42.494  30.307  35.569  1.00  0.00     0.049 A 
ATOM     59  C   UNL A   1      38.430  32.910  32.831  1.00  0.00     0.074 A 
ATOM     60  C   UNL A   1      42.967  30.914  36.721  1.00  0.00     0.029 A 
ATOM     61  N   UNL A   1      41.445  31.086  35.112  1.00  0.00    -0.354 N 
ATOM     62  N   UNL A   1      39.387  32.433  33.589  1.00  0.00    -0.248 NA
ATOM     63  C   UNL A   1      37.670  34.009  33.449  1.00  0.00     0.031 C 
ATOM     64  C   UNL A   1      42.166  32.028  36.993  1.00  0.00     0.029 A 
ATOM     65  C   UNL A   1      41.227  32.142  35.983  1.00  0.00     0.049 A 
ATOM     66  H   UNL A   1      40.931  30.916  34.290  1.00  0.00     0.167 HD
ATOM     67  C   UNL A   1      39.373  33.205  34.748  1.00  0.00     0.074 A 
ATOM     68  C   UNL A   1      38.309  34.172  34.599  1.00  0.00     0.031 C 
ATOM     69  C   UNL A   1      40.184  33.124  35.832  1.00  0.00     0.037 A 
BRANCH  56  70
ATOM     70  C   UNL A   1      43.987  28.293  35.703  1.00  0.00     0.058 A 
ATOM     71  C   UNL A   1      45.360  28.539  35.544  1.00  0.00     0.135 A 
ATOM     72  C   UNL A   1      43.601  27.384  36.705  1.00  0.00     0.135 A 
ATOM     73  F   UNL A   1      45.786  29.400  34.605  1.00  0.00    -0.206 F 
ATOM     74  C   UNL A   1      46.311  27.911  36.340  1.00  0.00     0.059 A 
ATOM     75  C   UNL A   1      44.536  26.760  37.530  1.00  0.00     0.059 A 
ATOM     76  F   UNL A   1      42.301  27.117  36.910  1.00  0.00    -0.206 F 
ATOM     77  C   UNL A   1      45.890  27.028  37.337  1.00  0.00     0.060 A 
BRANCH  77  78
ATOM     78  S   UNL A   1      47.140  26.267  38.395  1.00  0.00     0.124 S 
ATOM     79  O   UNL A   1      47.637  27.423  39.136  1.00  0.00    -0.237 OA
ATOM     80  O   UNL A   1      46.352  25.311  39.169  1.00  0.00    -0.237 OA
ATOM     81  O   UNL A   1      48.079  25.678  37.447  1.00  0.00    -0.744 OA
ENDBRANCH  77  78
ENDBRANCH  56  70
BRANCH  57  82
ATOM     82  C   UNL A   1      36.808  33.096  30.817  1.00  0.00     0.058 A 
ATOM     83  C   UNL A   1      36.920  34.053  29.798  1.00  0.00     0.135 A 
ATOM     84  C   UNL A   1      35.517  32.786  31.274  1.00  0.00     0.135 A 
ATOM     85  F   UNL A   1      38.130  34.398  29.334  1.00  0.00    -0.206 F 
ATOM     86  C   UNL A   1      35.802  34.705  29.284  1.00  0.00     0.059 A 
ATOM     87  C   UNL A   1      34.382  33.407  30.761  1.00  0.00     0.059 A 
ATOM     88  F   UNL A   1      35.334  31.875  32.236  1.00  0.00    -0.206 F 
ATOM     89  C   UNL A   1      34.537  34.380  29.779  1.00  0.00     0.060 A 
BRANCH  89  90
ATOM     90  S   UNL A   1      33.092  35.237  29.117  1.00  0.00     0.124 S 
ATOM     91  O   UNL A   1      32.609  34.275  28.131  1.00  0.00    -0.237 OA
ATOM     92  O   UNL A   1      32.264  35.401  30.308  1.00  0.00    -0.237 OA
ATOM     93  O   UNL A   1      33.651  36.470  28.574  1.00  0.00    -0.744 OA
ENDBRANCH  89  90
ENDBRANCH  57  82
BRANCH  69  94
ATOM     94  C   UNL A   1      40.012  34.145  36.925  1.00  0.00     0.058 A 
ATOM     95  C   UNL A   1      40.528  35.444  36.816  1.00  0.00     0.135 A 
ATOM     96  C   UNL A   1      39.258  33.835  38.070  1.00  0.00     0.135 A 
ATOM     97  F   UNL A   1      41.265  35.791  35.749  1.00  0.00    -0.206 F 
ATOM     98  C   UNL A   1      40.310  36.399  37.806  1.00  0.00     0.059 A 
ATOM     99  C   UNL A   1      39.006  34.780  39.060  1.00  0.00     0.059 A 
ATOM    100  F   UNL A   1      38.736  32.607  38.223  1.00  0.00    -0.206 F 
ATOM    101  C   UNL A   1      39.541  36.059  38.922  1.00  0.00     0.060 A 
BRANCH 101 102
ATOM    102  S   UNL A   1      39.215  37.324  40.170  1.00  0.00     0.124 S 
ATOM    103  O   UNL A   1      38.505  36.558  41.188  1.00  0.00    -0.237 OA
ATOM    104  O   UNL A   1      40.560  37.762  40.530  1.00  0.00    -0.237 OA
ATOM    105  O   UNL A   1      38.411  38.310  39.454  1.00  0.00    -0.744 OA
ENDBRANCH 101 102
ENDBRANCH  69  94
ENDBRANCH  43  44
ENDBRANCH  35  38
ENDBRANCH  33  34
ENDBRANCH  32  33
ENDBRANCH   1  32
TORSDOF 18
ENDMDL
MODEL 2
REMARK VINA RESULT:     -12.6      1.763      8.866
REMARK SMILES Cc1sc(NC(=O)[C@@H]2CC=CC[C@H]2C(=O)NCCCCNC(=O)c2ccc(-c3c4nc(c(-c5c(F)cc(S(=O)(=O)[O-])cc5F)c5ccc([nH]5)c(-c5c(F)cc(S(=O)(=O)[O-])cc5F)c5nc(c(-c6c(F)cc(S(=O)(=O)[O-])cc6F)c6ccc3[nH]6)C=C5)C=C4)cc2)nc1-c1ccc(C(C)C)cc1
REMARK SMILES IDX 18 1 17 2 16 3 14 4 15 5 13 7 8 8 9 9 10 10 12 11 11 12 6 13
REMARK SMILES IDX 5 14 7 16 4 17 1 18 2 19 3 20 91 21 90 22 92 23 93 24 100 25
REMARK SMILES IDX 94 26 99 27 95 28 96 29 97 30 98 31 19 32 20 33 21 34 22 35
REMARK SMILES IDX 23 37 24 38 25 39 89 40 26 41 88 42 27 43 28 44 29 45 82 46
REMARK SMILES IDX 30 47 87 48 81 49 83 50 31 51 86 52 80 53 79 54 32 56 66 57
REMARK SMILES IDX 45 58 65 59 46 60 49 61 64 62 84 63 47 64 48 65 63 67 85 68
REMARK SMILES IDX 50 69 33 70 34 71 43 72 35 73 36 74 42 75 44 76 37 77 38 78
REMARK SMILES IDX 39 79 40 80 41 81 67 82 68 83 77 84 69 85 70 86 76 87 78 88
REMARK SMILES IDX 71 89 72 90 73 91 74 92 75 93 51 94 52 95 61 96 53 97 54 98
REMARK SMILES IDX 60 99 62 100 55 101 56 102 57 103 58 104 59 105
REMARK H PARENT 16 6 5 15 21 36 83 55 49 66
REMARK Flexibility Score: inf
ROOT
ATOM      1  C   UNL A   1      38.987  22.541  26.211  1.00  0.00     0.023 C 
ENDROOT
BRANCH   1   2
ATOM      2  C   UNL A   1      37.909  21.729  25.450  1.00  0.00     0.116 C 
BRANCH   2   3
ATOM      3  N   UNL A   1      37.456  22.114  24.122  1.00  0.00    -0.356 N 
ATOM      4  C   UNL A   1      36.362  22.729  23.585  1.00  0.00     0.224 C 
ATOM      5  O   UNL A   1      36.479  23.067  22.396  1.00  0.00    -0.275 OA
ATOM      6  H   UNL A   1      38.109  21.866  23.429  1.00  0.00     0.163 HD
BRANCH   4   7
ATOM      7  C   UNL A   1      35.040  23.058  24.299  1.00  0.00     0.095 C 
ATOM      8  C   UNL A   1      34.138  21.877  24.793  1.00  0.00     0.095 C 
ATOM      9  C   UNL A   1      33.477  22.211  26.166  1.00  0.00     0.041 C 
ATOM     10  C   UNL A   1      34.346  22.929  27.147  1.00  0.00    -0.030 C 
ATOM     11  C   UNL A   1      35.429  24.165  25.306  1.00  0.00     0.041 C 
ATOM     12  C   UNL A   1      35.233  23.843  26.747  1.00  0.00    -0.030 C 
BRANCH   8  13
ATOM     13  C   UNL A   1      32.946  21.461  23.826  1.00  0.00     0.230 C 
ATOM     14  N   UNL A   1      32.139  22.277  23.069  1.00  0.00    -0.302 N 
ATOM     15  H   UNL A   1      31.579  21.782  22.428  1.00  0.00     0.172 HD
ATOM     16  O   UNL A   1      32.706  20.250  23.677  1.00  0.00    -0.274 OA
BRANCH  14  17
ATOM     17  C   UNL A   1      31.950  23.632  23.020  1.00  0.00     0.190 A 
ATOM     18  C   UNL A   1      33.518  27.109  22.635  1.00  0.00     0.059 C 
ATOM     19  C   UNL A   1      32.649  25.923  22.844  1.00  0.00     0.031 A 
ATOM     20  S   UNL A   1      32.886  24.515  21.984  1.00  0.00    -0.101 S 
ATOM     21  C   UNL A   1      31.459  25.724  23.520  1.00  0.00     0.086 A 
ATOM     22  N   UNL A   1      31.093  24.375  23.696  1.00  0.00    -0.220 NA
BRANCH  21  23
ATOM     23  C   UNL A   1      30.694  26.915  23.819  1.00  0.00     0.001 A 
ATOM     24  C   UNL A   1      31.305  27.993  24.460  1.00  0.00     0.011 A 
ATOM     25  C   UNL A   1      29.545  27.130  23.038  1.00  0.00     0.011 A 
ATOM     26  C   UNL A   1      30.820  29.288  24.256  1.00  0.00     0.004 A 
ATOM     27  C   UNL A   1      29.077  28.424  22.826  1.00  0.00     0.004 A 
ATOM     28  C   UNL A   1      29.730  29.521  23.404  1.00  0.00    -0.045 A 
BRANCH  28  29
ATOM     29  C   UNL A   1      29.195  30.919  23.147  1.00  0.00     0.013 C 
ATOM     30  C   UNL A   1      28.938  31.094  21.659  1.00  0.00     0.012 C 
ATOM     31  C   UNL A   1      27.965  31.306  23.965  1.00  0.00     0.012 C 
ENDBRANCH  28  29
ENDBRANCH  21  23
ENDBRANCH  14  17
ENDBRANCH   8  13
ENDBRANCH   4   7
ENDBRANCH   2   3
ENDBRANCH   1   2
BRANCH   1  32
ATOM     32  C   UNL A   1      40.359  22.010  26.707  1.00  0.00     0.023 C 
BRANCH  32  33
ATOM     33  C   UNL A   1      41.468  22.961  27.165  1.00  0.00     0.116 C 
BRANCH  33  34
ATOM     34  N   UNL A   1      41.763  23.963  26.155  1.00  0.00    -0.352 N 
ATOM     35  C   UNL A   1      41.565  25.326  26.120  1.00  0.00     0.251 C 
ATOM     36  H   UNL A   1      42.184  23.600  25.342  1.00  0.00     0.163 HD
ATOM     37  O   UNL A   1      41.688  25.887  25.029  1.00  0.00    -0.269 OA
BRANCH  35  38
ATOM     38  C   UNL A   1      41.216  26.159  27.310  1.00  0.00     0.039 A 
ATOM     39  C   UNL A   1      42.129  27.148  27.713  1.00  0.00     0.014 A 
ATOM     40  C   UNL A   1      40.112  25.909  28.126  1.00  0.00     0.014 A 
ATOM     41  C   UNL A   1      41.928  27.895  28.888  1.00  0.00     0.010 A 
ATOM     42  C   UNL A   1      39.896  26.679  29.288  1.00  0.00     0.010 A 
ATOM     43  C   UNL A   1      40.794  27.691  29.685  1.00  0.00    -0.014 A 
BRANCH  43  44
ATOM     44  C   UNL A   1      40.512  28.548  30.889  1.00  0.00     0.031 A 
ATOM     45  C   UNL A   1      39.497  29.672  30.827  1.00  0.00     0.074 A 
ATOM     46  C   UNL A   1      41.272  28.421  32.004  1.00  0.00     0.049 A 
ATOM     47  N   UNL A   1      39.271  30.634  31.689  1.00  0.00    -0.248 NA
ATOM     48  C   UNL A   1      38.639  29.734  29.633  1.00  0.00     0.031 C 
ATOM     49  C   UNL A   1      42.345  27.440  32.189  1.00  0.00     0.029 A 
ATOM     50  N   UNL A   1      41.331  29.184  33.153  1.00  0.00    -0.354 N 
ATOM     51  C   UNL A   1      38.246  31.408  31.150  1.00  0.00     0.074 A 
ATOM     52  C   UNL A   1      37.932  30.836  29.858  1.00  0.00     0.031 C 
ATOM     53  C   UNL A   1      43.009  27.714  33.325  1.00  0.00     0.029 A 
ATOM     54  C   UNL A   1      42.423  28.896  33.949  1.00  0.00     0.049 A 
ATOM     55  H   UNL A   1      40.660  29.867  33.383  1.00  0.00     0.167 HD
ATOM     56  C   UNL A   1      37.603  32.474  31.692  1.00  0.00     0.037 A 
ATOM     57  C   UNL A   1      42.948  29.543  35.011  1.00  0.00     0.037 A 
ATOM     58  C   UNL A   1      37.882  33.019  32.998  1.00  0.00     0.049 A 
ATOM     59  C   UNL A   1      42.268  30.776  35.552  1.00  0.00     0.074 A 
ATOM     60  C   UNL A   1      37.174  33.985  33.694  1.00  0.00     0.029 A 
ATOM     61  N   UNL A   1      38.961  32.671  33.791  1.00  0.00    -0.354 N 
ATOM     62  N   UNL A   1      41.207  31.399  35.098  1.00  0.00    -0.248 NA
ATOM     63  C   UNL A   1      42.847  31.387  36.760  1.00  0.00     0.031 C 
ATOM     64  C   UNL A   1      37.857  34.264  34.882  1.00  0.00     0.029 A 
ATOM     65  C   UNL A   1      38.964  33.435  34.948  1.00  0.00     0.049 A 
ATOM     66  H   UNL A   1      39.629  31.983  33.567  1.00  0.00     0.167 HD
ATOM     67  C   UNL A   1      40.967  32.441  35.991  1.00  0.00     0.074 A 
ATOM     68  C   UNL A   1      41.996  32.374  37.004  1.00  0.00     0.031 C 
ATOM     69  C   UNL A   1      39.971  33.361  35.975  1.00  0.00     0.037 A 
BRANCH  56  70
ATOM     70  C   UNL A   1      36.482  33.119  30.916  1.00  0.00     0.058 A 
ATOM     71  C   UNL A   1      35.141  32.962  31.302  1.00  0.00     0.135 A 
ATOM     72  C   UNL A   1      36.758  34.021  29.873  1.00  0.00     0.135 A 
ATOM     73  F   UNL A   1      34.819  32.116  32.294  1.00  0.00    -0.206 F 
ATOM     74  C   UNL A   1      34.116  33.666  30.680  1.00  0.00     0.059 A 
ATOM     75  C   UNL A   1      35.749  34.754  29.251  1.00  0.00     0.059 A 
ATOM     76  F   UNL A   1      38.023  34.219  29.469  1.00  0.00    -0.206 F 
ATOM     77  C   UNL A   1      34.430  34.567  29.661  1.00  0.00     0.060 A 
BRANCH  77  78
ATOM     78  S   UNL A   1      33.089  35.513  28.905  1.00  0.00     0.124 S 
ATOM     79  O   UNL A   1      32.415  34.483  28.118  1.00  0.00    -0.237 OA
ATOM     80  O   UNL A   1      32.355  35.998  30.070  1.00  0.00    -0.237 OA
ATOM     81  O   UNL A   1      33.784  36.537  28.134  1.00  0.00    -0.744 OA
ENDBRANCH  77  78
ENDBRANCH  56  70
BRANCH  57  82
ATOM     82  C   UNL A   1      44.229  29.084  35.626  1.00  0.00     0.058 A 
ATOM     83  C   UNL A   1      45.462  29.589  35.191  1.00  0.00     0.135 A 
ATOM     84  C   UNL A   1      44.253  28.081  36.610  1.00  0.00     0.135 A 
ATOM     85  F   UNL A   1      45.499  30.537  34.243  1.00  0.00    -0.206 F 
ATOM     86  C   UNL A   1      46.668  29.091  35.679  1.00  0.00     0.059 A 
ATOM     87  C   UNL A   1      45.443  27.583  37.130  1.00  0.00     0.059 A 
ATOM     88  F   UNL A   1      43.113  27.561  37.081  1.00  0.00    -0.206 F 
ATOM     89  C   UNL A   1      46.648  28.082  36.644  1.00  0.00     0.060 A 
BRANCH  89  90
ATOM     90  S   UNL A   1      48.214  27.433  37.264  1.00  0.00     0.124 S 
ATOM     91  O   UNL A   1      47.786  26.184  37.886  1.00  0.00    -0.237 OA
ATOM     92  O   UNL A   1      48.995  27.302  36.038  1.00  0.00    -0.237 OA
ATOM     93  O   UNL A   1      48.669  28.471  38.183  1.00  0.00    -0.744 OA
ENDBRANCH  89  90
ENDBRANCH  57  82
BRANCH  69  94
ATOM     94  C   UNL A   1      39.889  34.337  37.117  1.00  0.00     0.058 A 
ATOM     95  C   UNL A   1      40.446  35.622  37.038  1.00  0.00     0.135 A 
ATOM     96  C   UNL A   1      39.180  34.003  38.284  1.00  0.00     0.135 A 
ATOM     97  F   UNL A   1      41.143  35.989  35.951  1.00  0.00    -0.206 F 
ATOM     98  C   UNL A   1      40.311  36.540  38.076  1.00  0.00     0.059 A 
ATOM     99  C   UNL A   1      39.010  34.913  39.324  1.00  0.00     0.059 A 
ATOM    100  F   UNL A   1      38.621  32.789  38.411  1.00  0.00    -0.206 F 
ATOM    101  C   UNL A   1      39.584  36.178  39.213  1.00  0.00     0.060 A 
BRANCH 101 102
ATOM    102  S   UNL A   1      39.365  37.398  40.528  1.00  0.00     0.124 S 
ATOM    103  O   UNL A   1      40.694  37.996  40.601  1.00  0.00    -0.237 OA
ATOM    104  O   UNL A   1      38.314  38.254  39.988  1.00  0.00    -0.237 OA
ATOM    105  O   UNL A   1      38.977  36.590  41.681  1.00  0.00    -0.744 OA
ENDBRANCH 101 102
ENDBRANCH  69  94
ENDBRANCH  43  44
ENDBRANCH  35  38
ENDBRANCH  33  34
ENDBRANCH  32  33
ENDBRANCH   1  32
TORSDOF 18
ENDMDL
MODEL 3
REMARK VINA RESULT:     -12.6      1.732      4.186
REMARK SMILES Cc1sc(NC(=O)[C@@H]2CC=CC[C@H]2C(=O)NCCCCNC(=O)c2ccc(-c3c4nc(c(-c5c(F)cc(S(=O)(=O)[O-])cc5F)c5ccc([nH]5)c(-c5c(F)cc(S(=O)(=O)[O-])cc5F)c5nc(c(-c6c(F)cc(S(=O)(=O)[O-])cc6F)c6ccc3[nH]6)C=C5)C=C4)cc2)nc1-c1ccc(C(C)C)cc1
REMARK SMILES IDX 18 1 17 2 16 3 14 4 15 5 13 7 8 8 9 9 10 10 12 11 11 12 6 13
REMARK SMILES IDX 5 14 7 16 4 17 1 18 2 19 3 20 91 21 90 22 92 23 93 24 100 25
REMARK SMILES IDX 94 26 99 27 95 28 96 29 97 30 98 31 19 32 20 33 21 34 22 35
REMARK SMILES IDX 23 37 24 38 25 39 89 40 26 41 88 42 27 43 28 44 29 45 82 46
REMARK SMILES IDX 30 47 87 48 81 49 83 50 31 51 86 52 80 53 79 54 32 56 66 57
REMARK SMILES IDX 45 58 65 59 46 60 49 61 64 62 84 63 47 64 48 65 63 67 85 68
REMARK SMILES IDX 50 69 33 70 34 71 43 72 35 73 36 74 42 75 44 76 37 77 38 78
REMARK SMILES IDX 39 79 40 80 41 81 67 82 68 83 77 84 69 85 70 86 76 87 78 88
REMARK SMILES IDX 71 89 72 90 73 91 74 92 75 93 51 94 52 95 61 96 53 97 54 98
REMARK SMILES IDX 60 99 62 100 55 101 56 102 57 103 58 104 59 105
REMARK H PARENT 16 6 5 15 21 36 83 55 49 66
REMARK Flexibility Score: inf
ROOT
ATOM      1  C   UNL A   1      38.750  22.340  26.238  1.00  0.00     0.023 C 
ENDROOT
BRANCH   1   2
ATOM      2  C   UNL A   1      37.769  21.523  25.360  1.00  0.00     0.116 C 
BRANCH   2   3
ATOM      3  N   UNL A   1      37.344  21.991  24.048  1.00  0.00    -0.356 N 
ATOM      4  C   UNL A   1      36.287  22.686  23.536  1.00  0.00     0.224 C 
ATOM      5  O   UNL A   1      36.429  23.069  22.364  1.00  0.00    -0.275 OA
ATOM      6  H   UNL A   1      37.987  21.739  23.347  1.00  0.00     0.163 HD
BRANCH   4   7
ATOM      7  C   UNL A   1      34.981  23.052  24.260  1.00  0.00     0.095 C 
ATOM      8  C   UNL A   1      34.044  21.897  24.751  1.00  0.00     0.095 C 
ATOM      9  C   UNL A   1      33.401  22.242  26.129  1.00  0.00     0.041 C 
ATOM     10  C   UNL A   1      34.298  22.926  27.110  1.00  0.00    -0.030 C 
ATOM     11  C   UNL A   1      35.410  24.139  25.272  1.00  0.00     0.041 C 
ATOM     12  C   UNL A   1      35.211  23.813  26.712  1.00  0.00    -0.030 C 
BRANCH   8  13
ATOM     13  C   UNL A   1      32.833  21.525  23.788  1.00  0.00     0.230 C 
ATOM     14  N   UNL A   1      32.033  22.373  23.061  1.00  0.00    -0.302 N 
ATOM     15  H   UNL A   1      31.457  21.904  22.414  1.00  0.00     0.172 HD
ATOM     16  O   UNL A   1      32.571  20.322  23.613  1.00  0.00    -0.274 OA
BRANCH  14  17
ATOM     17  C   UNL A   1      31.867  23.732  23.047  1.00  0.00     0.190 A 
ATOM     18  C   UNL A   1      33.497  27.191  22.767  1.00  0.00     0.059 C 
ATOM     19  C   UNL A   1      32.606  26.015  22.938  1.00  0.00     0.031 A 
ATOM     20  S   UNL A   1      32.825  24.627  22.042  1.00  0.00    -0.101 S 
ATOM     21  C   UNL A   1      31.407  25.818  23.601  1.00  0.00     0.086 A 
ATOM     22  N   UNL A   1      31.018  24.472  23.737  1.00  0.00    -0.220 NA
BRANCH  21  23
ATOM     23  C   UNL A   1      30.661  27.014  23.926  1.00  0.00     0.001 A 
ATOM     24  C   UNL A   1      31.326  28.138  24.416  1.00  0.00     0.011 A 
ATOM     25  C   UNL A   1      29.415  27.162  23.292  1.00  0.00     0.011 A 
ATOM     26  C   UNL A   1      30.787  29.410  24.201  1.00  0.00     0.004 A 
ATOM     27  C   UNL A   1      28.894  28.433  23.067  1.00  0.00     0.004 A 
ATOM     28  C   UNL A   1      29.591  29.574  23.488  1.00  0.00    -0.045 A 
BRANCH  28  29
ATOM     29  C   UNL A   1      28.994  30.944  23.221  1.00  0.00     0.013 C 
ATOM     30  C   UNL A   1      29.077  31.249  21.734  1.00  0.00     0.012 C 
ATOM     31  C   UNL A   1      27.575  31.151  23.745  1.00  0.00     0.012 C 
ENDBRANCH  28  29
ENDBRANCH  21  23
ENDBRANCH  14  17
ENDBRANCH   8  13
ENDBRANCH   4   7
ENDBRANCH   2   3
ENDBRANCH   1   2
BRANCH   1  32
ATOM     32  C   UNL A   1      40.057  21.815  26.891  1.00  0.00     0.023 C 
BRANCH  32  33
ATOM     33  C   UNL A   1      41.157  22.769  27.362  1.00  0.00     0.116 C 
BRANCH  33  34
ATOM     34  N   UNL A   1      41.668  23.577  26.267  1.00  0.00    -0.352 N 
ATOM     35  C   UNL A   1      41.778  24.940  26.098  1.00  0.00     0.251 C 
ATOM     36  H   UNL A   1      41.998  23.051  25.503  1.00  0.00     0.163 HD
ATOM     37  O   UNL A   1      42.024  25.349  24.962  1.00  0.00    -0.269 OA
BRANCH  35  38
ATOM     38  C   UNL A   1      41.623  25.941  27.195  1.00  0.00     0.039 A 
ATOM     39  C   UNL A   1      42.662  26.866  27.395  1.00  0.00     0.014 A 
ATOM     40  C   UNL A   1      40.579  25.912  28.120  1.00  0.00     0.014 A 
ATOM     41  C   UNL A   1      42.642  27.766  28.477  1.00  0.00     0.010 A 
ATOM     42  C   UNL A   1      40.546  26.834  29.187  1.00  0.00     0.010 A 
ATOM     43  C   UNL A   1      41.572  27.783  29.380  1.00  0.00    -0.014 A 
BRANCH  43  44
ATOM     44  C   UNL A   1      41.486  28.803  30.483  1.00  0.00     0.031 A 
ATOM     45  C   UNL A   1      42.235  28.608  31.787  1.00  0.00     0.074 A 
ATOM     46  C   UNL A   1      40.617  29.837  30.382  1.00  0.00     0.049 A 
ATOM     47  N   UNL A   1      42.121  29.268  32.914  1.00  0.00    -0.248 NA
ATOM     48  C   UNL A   1      43.224  27.520  31.834  1.00  0.00     0.031 C 
ATOM     49  C   UNL A   1      39.763  30.116  29.224  1.00  0.00     0.029 A 
ATOM     50  N   UNL A   1      40.229  30.789  31.304  1.00  0.00    -0.354 N 
ATOM     51  C   UNL A   1      43.025  28.684  33.800  1.00  0.00     0.074 A 
ATOM     52  C   UNL A   1      43.638  27.578  33.095  1.00  0.00     0.031 C 
ATOM     53  C   UNL A   1      38.897  31.096  29.533  1.00  0.00     0.029 A 
ATOM     54  C   UNL A   1      39.120  31.514  30.913  1.00  0.00     0.049 A 
ATOM     55  H   UNL A   1      40.697  30.937  32.157  1.00  0.00     0.167 HD
ATOM     56  C   UNL A   1      43.339  29.052  35.068  1.00  0.00     0.037 A 
ATOM     57  C   UNL A   1      38.320  32.359  31.598  1.00  0.00     0.037 A 
ATOM     58  C   UNL A   1      42.763  30.180  35.758  1.00  0.00     0.049 A 
ATOM     59  C   UNL A   1      38.634  32.695  33.034  1.00  0.00     0.074 A 
ATOM     60  C   UNL A   1      43.139  30.725  36.975  1.00  0.00     0.029 A 
ATOM     61  N   UNL A   1      41.679  30.916  35.312  1.00  0.00    -0.354 N 
ATOM     62  N   UNL A   1      39.591  32.229  33.800  1.00  0.00    -0.248 NA
ATOM     63  C   UNL A   1      37.768  33.684  33.697  1.00  0.00     0.031 C 
ATOM     64  C   UNL A   1      42.246  31.754  37.293  1.00  0.00     0.029 A 
ATOM     65  C   UNL A   1      41.344  31.881  36.250  1.00  0.00     0.049 A 
ATOM     66  H   UNL A   1      41.214  30.776  34.456  1.00  0.00     0.167 HD
ATOM     67  C   UNL A   1      39.470  32.903  35.013  1.00  0.00     0.074 A 
ATOM     68  C   UNL A   1      38.343  33.799  34.887  1.00  0.00     0.031 C 
ATOM     69  C   UNL A   1      40.238  32.794  36.124  1.00  0.00     0.037 A 
BRANCH  56  70
ATOM     70  C   UNL A   1      44.397  28.274  35.810  1.00  0.00     0.058 A 
ATOM     71  C   UNL A   1      45.753  28.628  35.732  1.00  0.00     0.135 A 
ATOM     72  C   UNL A   1      44.038  27.267  36.724  1.00  0.00     0.135 A 
ATOM     73  F   UNL A   1      46.153  29.585  34.879  1.00  0.00    -0.206 F 
ATOM     74  C   UNL A   1      46.715  28.007  36.522  1.00  0.00     0.059 A 
ATOM     75  C   UNL A   1      44.982  26.649  37.542  1.00  0.00     0.059 A 
ATOM     76  F   UNL A   1      42.754  26.896  36.849  1.00  0.00    -0.206 F 
ATOM     77  C   UNL A   1      46.319  27.024  37.431  1.00  0.00     0.060 A 
BRANCH  77  78
ATOM     78  S   UNL A   1      47.577  26.273  38.487  1.00  0.00     0.124 S 
ATOM     79  O   UNL A   1      48.106  27.441  39.186  1.00  0.00    -0.237 OA
ATOM     80  O   UNL A   1      46.791  25.352  39.302  1.00  0.00    -0.237 OA
ATOM     81  O   UNL A   1      48.490  25.644  37.538  1.00  0.00    -0.744 OA
ENDBRANCH  77  78
ENDBRANCH  56  70
BRANCH  57  82
ATOM     82  C   UNL A   1      37.091  32.925  30.965  1.00  0.00     0.058 A 
ATOM     83  C   UNL A   1      37.176  33.931  29.992  1.00  0.00     0.135 A 
ATOM     84  C   UNL A   1      35.806  32.524  31.369  1.00  0.00     0.135 A 
ATOM     85  F   UNL A   1      38.377  34.363  29.580  1.00  0.00    -0.206 F 
ATOM     86  C   UNL A   1      36.037  34.542  29.473  1.00  0.00     0.059 A 
ATOM     87  C   UNL A   1      34.653  33.103  30.849  1.00  0.00     0.059 A 
ATOM     88  F   UNL A   1      35.649  31.561  32.285  1.00  0.00    -0.206 F 
ATOM     89  C   UNL A   1      34.780  34.126  29.915  1.00  0.00     0.060 A 
BRANCH  89  90
ATOM     90  S   UNL A   1      33.308  34.930  29.247  1.00  0.00     0.124 S 
ATOM     91  O   UNL A   1      32.465  35.030  30.434  1.00  0.00    -0.237 OA
ATOM     92  O   UNL A   1      33.851  36.188  28.742  1.00  0.00    -0.237 OA
ATOM     93  O   UNL A   1      32.849  33.997  28.223  1.00  0.00    -0.744 OA
ENDBRANCH  89  90
ENDBRANCH  57  82
BRANCH  69  94
ATOM     94  C   UNL A   1      39.942  33.709  37.283  1.00  0.00     0.058 A 
ATOM     95  C   UNL A   1      40.569  34.956  37.424  1.00  0.00     0.135 A 
ATOM     96  C   UNL A   1      38.965  33.358  38.230  1.00  0.00     0.135 A 
ATOM     97  F   UNL A   1      41.519  35.336  36.554  1.00  0.00    -0.206 F 
ATOM     98  C   UNL A   1      40.243  35.821  38.465  1.00  0.00     0.059 A 
ATOM     99  C   UNL A   1      38.605  34.217  39.265  1.00  0.00     0.059 A 
ATOM    100  F   UNL A   1      38.330  32.179  38.140  1.00  0.00    -0.206 F 
ATOM    101  C   UNL A   1      39.255  35.445  39.378  1.00  0.00     0.060 A 
BRANCH 101 102
ATOM    102  S   UNL A   1      38.799  36.601  40.689  1.00  0.00     0.124 S 
ATOM    103  O   UNL A   1      37.870  35.799  41.480  1.00  0.00    -0.237 OA
ATOM    104  O   UNL A   1      40.085  36.884  41.318  1.00  0.00    -0.237 OA
ATOM    105  O   UNL A   1      38.201  37.719  39.966  1.00  0.00    -0.744 OA
ENDBRANCH 101 102
ENDBRANCH  69  94
ENDBRANCH  43  44
ENDBRANCH  35  38
ENDBRANCH  33  34
ENDBRANCH  32  33
ENDBRANCH   1  32
TORSDOF 18
ENDMDL
