MODEL 1
REMARK VINA RESULT:     -12.9      0.000      0.000
REMARK SMILES O=C(NCCCCNC(=O)[C@H]1CC2(CCN(C(=O)C3CC3)CC2)CN1C(=O)CCn1cccn1)c1ccc(-c2c3nc(c(-c4c(F)cc(S(=O)(=O)[O-])cc4F)c4ccc([nH]4)c(-c4c(F)cc(S(=O)(=O)[O-])cc4F)c4nc(c(-c5c(F)cc(S(=O)(=O)[O-])cc5F)c5ccc2[nH]5)C=C4)C=C3)cc1
REMARK SMILES IDX 6 1 5 2 4 3 3 4 1 5 2 6 35 8 36 9 100 10 37 11 99 12 38 13
REMARK SMILES IDX 39 14 40 15 93 16 41 17 98 18 92 19 94 20 42 21 97 22 91 23
REMARK SMILES IDX 90 24 43 26 77 27 56 28 76 29 57 30 60 31 75 32 95 33 58 34
REMARK SMILES IDX 59 35 74 37 96 38 61 39 44 40 45 41 54 42 46 43 47 44 53 45
REMARK SMILES IDX 55 46 48 47 49 48 50 49 51 50 52 51 78 52 79 53 88 54 80 55
REMARK SMILES IDX 81 56 87 57 89 58 82 59 83 60 84 61 85 62 86 63 62 64 63 65
REMARK SMILES IDX 72 66 64 67 65 68 71 69 73 70 66 71 67 72 68 73 69 74 70 75
REMARK SMILES IDX 7 76 8 77 9 78 10 80 11 81 12 82 25 83 13 84 24 85 14 86
REMARK SMILES IDX 23 87 15 88 22 89 16 90 17 91 18 92 26 93 27 94 28 95 29 96
REMARK SMILES IDX 30 97 31 98 34 99 32 100 33 101 19 102 20 103 21 104
REMARK H PARENT 3 7 94 25 60 36 8 79
REMARK Flexibility Score: inf
ROOT
ATOM      1  C   UNL A   1      38.974  21.674  26.040  1.00  0.00     0.023 C 
ENDROOT
BRANCH   1   2
ATOM      2  C   UNL A   1      39.361  20.232  25.684  1.00  0.00     0.023 C 
BRANCH   2   3
ATOM      3  C   UNL A   1      40.567  19.669  26.437  1.00  0.00     0.116 C 
BRANCH   3   4
ATOM      4  N   UNL A   1      41.827  19.729  25.725  1.00  0.00    -0.352 N 
ATOM      5  O   UNL A   1      43.859  20.283  25.048  1.00  0.00    -0.269 OA
ATOM      6  C   UNL A   1      42.871  20.614  25.709  1.00  0.00     0.251 C 
ATOM      7  H   UNL A   1      41.961  18.965  25.119  1.00  0.00     0.163 HD
BRANCH   6   8
ATOM      8  C   UNL A   1      42.854  21.947  26.364  1.00  0.00     0.039 A 
ATOM      9  C   UNL A   1      43.258  22.199  27.675  1.00  0.00     0.014 A 
ATOM     10  C   UNL A   1      42.387  23.019  25.582  1.00  0.00     0.014 A 
ATOM     11  C   UNL A   1      43.083  23.458  28.236  1.00  0.00     0.010 A 
ATOM     12  C   UNL A   1      42.253  24.293  26.125  1.00  0.00     0.010 A 
ATOM     13  C   UNL A   1      42.565  24.501  27.467  1.00  0.00    -0.014 A 
BRANCH  13  14
ATOM     14  C   UNL A   1      42.542  25.835  28.062  1.00  0.00     0.031 A 
ATOM     15  C   UNL A   1      43.689  26.708  27.674  1.00  0.00     0.074 A 
ATOM     16  C   UNL A   1      41.500  26.321  28.765  1.00  0.00     0.049 A 
ATOM     17  N   UNL A   1      44.570  27.277  28.432  1.00  0.00    -0.248 NA
ATOM     18  C   UNL A   1      43.949  26.873  26.234  1.00  0.00     0.031 C 
ATOM     19  C   UNL A   1      40.190  25.694  28.955  1.00  0.00     0.029 A 
ATOM     20  N   UNL A   1      41.348  27.545  29.350  1.00  0.00    -0.354 N 
ATOM     21  C   UNL A   1      45.363  28.049  27.582  1.00  0.00     0.074 A 
ATOM     22  C   UNL A   1      45.048  27.624  26.244  1.00  0.00     0.031 C 
ATOM     23  C   UNL A   1      39.317  26.626  29.398  1.00  0.00     0.029 A 
ATOM     24  C   UNL A   1      40.027  27.873  29.629  1.00  0.00     0.049 A 
ATOM     25  H   UNL A   1      42.104  28.140  29.555  1.00  0.00     0.167 HD
ATOM     26  C   UNL A   1      46.039  29.145  28.026  1.00  0.00     0.037 A 
ATOM     27  C   UNL A   1      39.540  29.103  29.933  1.00  0.00     0.037 A 
ATOM     28  C   UNL A   1      46.214  29.109  29.456  1.00  0.00     0.049 A 
ATOM     29  C   UNL A   1      40.677  29.936  30.401  1.00  0.00     0.074 A 
ATOM     30  C   UNL A   1      46.792  28.228  30.351  1.00  0.00     0.029 A 
ATOM     31  N   UNL A   1      45.463  29.968  30.221  1.00  0.00    -0.354 N 
ATOM     32  N   UNL A   1      41.329  29.736  31.513  1.00  0.00    -0.248 NA
ATOM     33  C   UNL A   1      41.358  30.774  29.425  1.00  0.00     0.031 C 
ATOM     34  C   UNL A   1      45.985  28.304  31.524  1.00  0.00     0.029 A 
ATOM     35  C   UNL A   1      44.991  29.254  31.288  1.00  0.00     0.049 A 
ATOM     36  H   UNL A   1      45.295  30.920  30.034  1.00  0.00     0.167 HD
ATOM     37  C   UNL A   1      42.645  30.055  31.216  1.00  0.00     0.074 A 
ATOM     38  C   UNL A   1      42.582  30.791  29.958  1.00  0.00     0.031 C 
ATOM     39  C   UNL A   1      43.683  29.454  31.870  1.00  0.00     0.037 A 
BRANCH  26  40
ATOM     40  C   UNL A   1      46.174  30.437  27.235  1.00  0.00     0.058 A 
ATOM     41  C   UNL A   1      47.438  31.065  27.169  1.00  0.00     0.135 A 
ATOM     42  C   UNL A   1      45.083  31.241  26.834  1.00  0.00     0.135 A 
ATOM     43  F   UNL A   1      48.555  30.393  27.490  1.00  0.00    -0.206 F 
ATOM     44  C   UNL A   1      47.586  32.423  26.879  1.00  0.00     0.059 A 
ATOM     45  C   UNL A   1      45.215  32.580  26.488  1.00  0.00     0.059 A 
ATOM     46  F   UNL A   1      43.819  30.806  26.849  1.00  0.00    -0.206 F 
ATOM     47  C   UNL A   1      46.460  33.178  26.575  1.00  0.00     0.060 A 
BRANCH  47  48
ATOM     48  S   UNL A   1      46.612  34.961  26.379  1.00  0.00     0.124 S 
ATOM     49  O   UNL A   1      45.321  35.414  26.882  1.00  0.00    -0.237 OA
ATOM     50  O   UNL A   1      47.769  35.261  27.217  1.00  0.00    -0.237 OA
ATOM     51  O   UNL A   1      46.826  35.122  24.944  1.00  0.00    -0.744 OA
ENDBRANCH  47  48
ENDBRANCH  26  40
BRANCH  27  52
ATOM     52  C   UNL A   1      38.228  29.688  29.542  1.00  0.00     0.058 A 
ATOM     53  C   UNL A   1      37.317  30.152  30.508  1.00  0.00     0.135 A 
ATOM     54  C   UNL A   1      37.951  30.052  28.208  1.00  0.00     0.135 A 
ATOM     55  F   UNL A   1      37.513  29.878  31.807  1.00  0.00    -0.206 F 
ATOM     56  C   UNL A   1      36.223  30.961  30.176  1.00  0.00     0.059 A 
ATOM     57  C   UNL A   1      36.859  30.839  27.852  1.00  0.00     0.059 A 
ATOM     58  F   UNL A   1      38.787  29.728  27.210  1.00  0.00    -0.206 F 
ATOM     59  C   UNL A   1      36.012  31.313  28.845  1.00  0.00     0.060 A 
BRANCH  59  60
ATOM     60  S   UNL A   1      34.705  32.490  28.425  1.00  0.00     0.124 S 
ATOM     61  O   UNL A   1      34.362  33.038  29.733  1.00  0.00    -0.237 OA
ATOM     62  O   UNL A   1      35.386  33.399  27.511  1.00  0.00    -0.237 OA
ATOM     63  O   UNL A   1      33.677  31.651  27.813  1.00  0.00    -0.744 OA
ENDBRANCH  59  60
ENDBRANCH  27  52
BRANCH  39  64
ATOM     64  C   UNL A   1      43.398  28.731  33.157  1.00  0.00     0.058 A 
ATOM     65  C   UNL A   1      43.295  29.353  34.412  1.00  0.00     0.135 A 
ATOM     66  C   UNL A   1      43.068  27.368  33.084  1.00  0.00     0.135 A 
ATOM     67  F   UNL A   1      43.487  30.673  34.547  1.00  0.00    -0.206 F 
ATOM     68  C   UNL A   1      42.920  28.640  35.552  1.00  0.00     0.059 A 
ATOM     69  C   UNL A   1      42.660  26.646  34.201  1.00  0.00     0.059 A 
ATOM     70  F   UNL A   1      43.086  26.732  31.900  1.00  0.00    -0.206 F 
ATOM     71  C   UNL A   1      42.601  27.287  35.437  1.00  0.00     0.060 A 
BRANCH  71  72
ATOM     72  S   UNL A   1      42.028  26.389  36.894  1.00  0.00     0.124 S 
ATOM     73  O   UNL A   1      43.108  26.632  37.847  1.00  0.00    -0.237 OA
ATOM     74  O   UNL A   1      40.758  27.051  37.196  1.00  0.00    -0.237 OA
ATOM     75  O   UNL A   1      41.906  25.016  36.425  1.00  0.00    -0.744 OA
ENDBRANCH  71  72
ENDBRANCH  39  64
ENDBRANCH  13  14
ENDBRANCH   6   8
ENDBRANCH   3   4
ENDBRANCH   2   3
ENDBRANCH   1   2
BRANCH   1  76
ATOM     76  C   UNL A   1      37.537  22.069  25.692  1.00  0.00     0.116 C 
BRANCH  76  77
ATOM     77  N   UNL A   1      37.505  23.105  24.682  1.00  0.00    -0.354 N 
ATOM     78  C   UNL A   1      36.398  23.354  23.920  1.00  0.00     0.242 C 
ATOM     79  H   UNL A   1      38.311  23.651  24.537  1.00  0.00     0.163 HD
ATOM     80  O   UNL A   1      36.397  22.975  22.750  1.00  0.00    -0.273 OA
BRANCH  78  81
ATOM     81  C   UNL A   1      35.166  23.962  24.609  1.00  0.00     0.175 C 
ATOM     82  C   UNL A   1      34.422  25.145  23.975  1.00  0.00     0.044 C 
ATOM     83  N   UNL A   1      34.022  23.160  25.071  1.00  0.00    -0.330 N 
ATOM     84  C   UNL A   1      33.201  25.377  24.936  1.00  0.00    -0.006 C 
ATOM     85  C   UNL A   1      33.199  24.098  25.827  1.00  0.00     0.127 C 
ATOM     86  C   UNL A   1      31.848  25.474  24.196  1.00  0.00     0.030 C 
ATOM     87  C   UNL A   1      33.399  26.658  25.764  1.00  0.00     0.030 C 
ATOM     88  C   UNL A   1      31.626  26.782  23.437  1.00  0.00     0.120 C 
ATOM     89  C   UNL A   1      33.225  27.917  24.911  1.00  0.00     0.120 C 
ATOM     90  N   UNL A   1      31.913  27.954  24.260  1.00  0.00    -0.342 N 
ATOM     91  C   UNL A   1      31.162  29.122  24.405  1.00  0.00     0.225 C 
ATOM     92  O   UNL A   1      31.567  30.037  25.132  1.00  0.00    -0.275 OA
BRANCH  83  93
ATOM     93  C   UNL A   1      33.348  22.169  24.361  1.00  0.00     0.225 C 
ATOM     94  O   UNL A   1      33.244  22.221  23.128  1.00  0.00    -0.275 OA
BRANCH  93  95
ATOM     95  C   UNL A   1      32.659  21.020  25.062  1.00  0.00     0.124 C 
BRANCH  95  96
ATOM     96  C   UNL A   1      33.589  19.846  25.343  1.00  0.00     0.154 C 
BRANCH  96  97
ATOM     97  N   UNL A   1      33.528  18.749  24.397  1.00  0.00    -0.272 N 
ATOM     98  C   UNL A   1      34.450  17.748  24.251  1.00  0.00     0.108 A 
ATOM     99  N   UNL A   1      32.560  18.705  23.463  1.00  0.00    -0.182 NA
ATOM    100  C   UNL A   1      34.027  16.985  23.187  1.00  0.00     0.042 A 
ATOM    101  C   UNL A   1      32.854  17.618  22.744  1.00  0.00     0.135 A 
ENDBRANCH  96  97
ENDBRANCH  95  96
ENDBRANCH  93  95
ENDBRANCH  83  93
BRANCH  91 102
ATOM    102  C   UNL A   1      29.849  29.401  23.750  1.00  0.00     0.079 C 
ATOM    103  C   UNL A   1      29.217  30.680  23.291  1.00  0.00     0.014 C 
ATOM    104  C   UNL A   1      29.762  29.708  22.275  1.00  0.00     0.014 C 
ENDBRANCH  91 102
ENDBRANCH  78  81
ENDBRANCH  76  77
ENDBRANCH   1  76
TORSDOF 19
ENDMDL
MODEL 2
REMARK VINA RESULT:     -12.8      2.706      9.693
REMARK SMILES O=C(NCCCCNC(=O)[C@H]1CC2(CCN(C(=O)C3CC3)CC2)CN1C(=O)CCn1cccn1)c1ccc(-c2c3nc(c(-c4c(F)cc(S(=O)(=O)[O-])cc4F)c4ccc([nH]4)c(-c4c(F)cc(S(=O)(=O)[O-])cc4F)c4nc(c(-c5c(F)cc(S(=O)(=O)[O-])cc5F)c5ccc2[nH]5)C=C4)C=C3)cc1
REMARK SMILES IDX 6 1 5 2 4 3 3 4 1 5 2 6 35 8 36 9 100 10 37 11 99 12 38 13
REMARK SMILES IDX 39 14 40 15 93 16 41 17 98 18 92 19 94 20 42 21 97 22 91 23
REMARK SMILES IDX 90 24 43 26 77 27 56 28 76 29 57 30 60 31 75 32 95 33 58 34
REMARK SMILES IDX 59 35 74 37 96 38 61 39 44 40 45 41 54 42 46 43 47 44 53 45
REMARK SMILES IDX 55 46 48 47 49 48 50 49 51 50 52 51 78 52 79 53 88 54 80 55
REMARK SMILES IDX 81 56 87 57 89 58 82 59 83 60 84 61 85 62 86 63 62 64 63 65
REMARK SMILES IDX 72 66 64 67 65 68 71 69 73 70 66 71 67 72 68 73 69 74 70 75
REMARK SMILES IDX 7 76 8 77 9 78 10 80 11 81 12 82 25 83 13 84 24 85 14 86
REMARK SMILES IDX 23 87 15 88 22 89 16 90 17 91 18 92 26 93 27 94 28 95 29 96
REMARK SMILES IDX 30 97 31 98 34 99 32 100 33 101 19 102 20 103 21 104
REMARK H PARENT 3 7 94 25 60 36 8 79
REMARK Flexibility Score: inf
ROOT
ATOM      1  C   UNL A   1      33.990  31.633  27.812  1.00  0.00     0.023 C 
ENDROOT
BRANCH   1   2
ATOM      2  C   UNL A   1      33.090  32.875  27.849  1.00  0.00     0.023 C 
BRANCH   2   3
ATOM      3  C   UNL A   1      33.698  34.109  28.517  1.00  0.00     0.116 C 
BRANCH   3   4
ATOM      4  N   UNL A   1      33.483  34.210  29.946  1.00  0.00    -0.352 N 
ATOM      5  O   UNL A   1      33.773  34.247  32.139  1.00  0.00    -0.269 OA
ATOM      6  C   UNL A   1      34.245  33.923  31.047  1.00  0.00     0.251 C 
ATOM      7  H   UNL A   1      32.593  34.563  30.176  1.00  0.00     0.163 HD
BRANCH   6   8
ATOM      8  C   UNL A   1      35.540  33.196  31.007  1.00  0.00     0.039 A 
ATOM      9  C   UNL A   1      36.787  33.793  30.819  1.00  0.00     0.014 A 
ATOM     10  C   UNL A   1      35.476  31.801  31.169  1.00  0.00     0.014 A 
ATOM     11  C   UNL A   1      37.926  33.012  30.669  1.00  0.00     0.010 A 
ATOM     12  C   UNL A   1      36.620  31.016  31.066  1.00  0.00     0.010 A 
ATOM     13  C   UNL A   1      37.841  31.623  30.776  1.00  0.00    -0.014 A 
BRANCH  13  14
ATOM     14  C   UNL A   1      39.090  30.864  30.758  1.00  0.00     0.031 A 
ATOM     15  C   UNL A   1      39.738  30.704  32.092  1.00  0.00     0.074 A 
ATOM     16  C   UNL A   1      39.549  30.208  29.674  1.00  0.00     0.049 A 
ATOM     17  N   UNL A   1      40.920  31.072  32.471  1.00  0.00    -0.248 NA
ATOM     18  C   UNL A   1      38.908  30.160  33.180  1.00  0.00     0.031 C 
ATOM     19  C   UNL A   1      38.861  30.020  28.395  1.00  0.00     0.029 A 
ATOM     20  N   UNL A   1      40.679  29.456  29.534  1.00  0.00    -0.354 N 
ATOM     21  C   UNL A   1      41.062  30.608  33.780  1.00  0.00     0.074 A 
ATOM     22  C   UNL A   1      39.747  30.220  34.213  1.00  0.00     0.031 C 
ATOM     23  C   UNL A   1      39.470  29.027  27.710  1.00  0.00     0.029 A 
ATOM     24  C   UNL A   1      40.648  28.594  28.445  1.00  0.00     0.049 A 
ATOM     25  H   UNL A   1      41.445  29.518  30.149  1.00  0.00     0.167 HD
ATOM     26  C   UNL A   1      42.284  30.351  34.324  1.00  0.00     0.037 A 
ATOM     27  C   UNL A   1      41.473  27.541  28.214  1.00  0.00     0.037 A 
ATOM     28  C   UNL A   1      43.331  31.038  33.609  1.00  0.00     0.049 A 
ATOM     29  C   UNL A   1      42.699  27.742  29.029  1.00  0.00     0.074 A 
ATOM     30  C   UNL A   1      43.602  32.356  33.295  1.00  0.00     0.029 A 
ATOM     31  N   UNL A   1      44.163  30.293  32.809  1.00  0.00    -0.354 N 
ATOM     32  N   UNL A   1      43.574  28.687  28.823  1.00  0.00    -0.248 NA
ATOM     33  C   UNL A   1      42.757  27.119  30.342  1.00  0.00     0.031 C 
ATOM     34  C   UNL A   1      44.214  32.317  32.008  1.00  0.00     0.029 A 
ATOM     35  C   UNL A   1      44.316  30.976  31.634  1.00  0.00     0.049 A 
ATOM     36  H   UNL A   1      44.572  29.427  33.039  1.00  0.00     0.167 HD
ATOM     37  C   UNL A   1      43.996  29.064  30.089  1.00  0.00     0.074 A 
ATOM     38  C   UNL A   1      43.546  27.992  30.972  1.00  0.00     0.031 C 
ATOM     39  C   UNL A   1      44.423  30.336  30.343  1.00  0.00     0.037 A 
BRANCH  26  40
ATOM     40  C   UNL A   1      42.578  29.166  35.230  1.00  0.00     0.058 A 
ATOM     41  C   UNL A   1      43.332  29.379  36.405  1.00  0.00     0.135 A 
ATOM     42  C   UNL A   1      42.447  27.815  34.837  1.00  0.00     0.135 A 
ATOM     43  F   UNL A   1      43.497  30.616  36.899  1.00  0.00    -0.206 F 
ATOM     44  C   UNL A   1      44.027  28.351  37.047  1.00  0.00     0.059 A 
ATOM     45  C   UNL A   1      43.085  26.769  35.494  1.00  0.00     0.059 A 
ATOM     46  F   UNL A   1      41.778  27.440  33.742  1.00  0.00    -0.206 F 
ATOM     47  C   UNL A   1      43.923  27.054  36.558  1.00  0.00     0.060 A 
BRANCH  47  48
ATOM     48  S   UNL A   1      44.952  25.755  37.260  1.00  0.00     0.124 S 
ATOM     49  O   UNL A   1      43.977  24.686  37.438  1.00  0.00    -0.237 OA
ATOM     50  O   UNL A   1      45.944  25.553  36.209  1.00  0.00    -0.237 OA
ATOM     51  O   UNL A   1      45.461  26.360  38.487  1.00  0.00    -0.744 OA
ENDBRANCH  47  48
ENDBRANCH  26  40
BRANCH  27  52
ATOM     52  C   UNL A   1      41.132  26.233  27.593  1.00  0.00     0.058 A 
ATOM     53  C   UNL A   1      42.017  25.591  26.708  1.00  0.00     0.135 A 
ATOM     54  C   UNL A   1      40.052  25.454  28.057  1.00  0.00     0.135 A 
ATOM     55  F   UNL A   1      43.090  26.243  26.235  1.00  0.00    -0.206 F 
ATOM     56  C   UNL A   1      41.865  24.247  26.341  1.00  0.00     0.059 A 
ATOM     57  C   UNL A   1      39.868  24.123  27.690  1.00  0.00     0.059 A 
ATOM     58  F   UNL A   1      39.184  25.936  28.959  1.00  0.00    -0.206 F 
ATOM     59  C   UNL A   1      40.793  23.517  26.852  1.00  0.00     0.060 A 
BRANCH  59  60
ATOM     60  S   UNL A   1      40.679  21.743  26.519  1.00  0.00     0.124 S 
ATOM     61  O   UNL A   1      41.857  21.515  25.689  1.00  0.00    -0.237 OA
ATOM     62  O   UNL A   1      40.722  21.172  27.860  1.00  0.00    -0.237 OA
ATOM     63  O   UNL A   1      39.397  21.610  25.830  1.00  0.00    -0.744 OA
ENDBRANCH  59  60
ENDBRANCH  27  52
BRANCH  39  64
ATOM     64  C   UNL A   1      44.787  31.216  29.180  1.00  0.00     0.058 A 
ATOM     65  C   UNL A   1      43.871  32.001  28.459  1.00  0.00     0.135 A 
ATOM     66  C   UNL A   1      46.149  31.382  28.885  1.00  0.00     0.135 A 
ATOM     67  F   UNL A   1      42.563  31.982  28.753  1.00  0.00    -0.206 F 
ATOM     68  C   UNL A   1      44.291  32.881  27.460  1.00  0.00     0.059 A 
ATOM     69  C   UNL A   1      46.592  32.278  27.916  1.00  0.00     0.059 A 
ATOM     70  F   UNL A   1      47.078  30.707  29.585  1.00  0.00    -0.206 F 
ATOM     71  C   UNL A   1      45.654  33.015  27.197  1.00  0.00     0.060 A 
BRANCH  71  72
ATOM     72  S   UNL A   1      46.201  34.220  25.969  1.00  0.00     0.124 S 
ATOM     73  O   UNL A   1      46.032  35.483  26.684  1.00  0.00    -0.237 OA
ATOM     74  O   UNL A   1      47.585  33.815  25.722  1.00  0.00    -0.237 OA
ATOM     75  O   UNL A   1      45.292  34.010  24.852  1.00  0.00    -0.744 OA
ENDBRANCH  71  72
ENDBRANCH  39  64
ENDBRANCH  13  14
ENDBRANCH   6   8
ENDBRANCH   3   4
ENDBRANCH   2   3
ENDBRANCH   1   2
BRANCH   1  76
ATOM     76  C   UNL A   1      33.448  30.458  26.995  1.00  0.00     0.116 C 
BRANCH  76  77
ATOM     77  N   UNL A   1      33.171  29.313  27.835  1.00  0.00    -0.354 N 
ATOM     78  C   UNL A   1      32.405  28.262  27.417  1.00  0.00     0.242 C 
ATOM     79  H   UNL A   1      33.549  29.290  28.744  1.00  0.00     0.163 HD
ATOM     80  O   UNL A   1      31.257  28.168  27.850  1.00  0.00    -0.273 OA
BRANCH  78  81
ATOM     81  C   UNL A   1      32.969  27.345  26.321  1.00  0.00     0.175 C 
ATOM     82  C   UNL A   1      32.887  25.818  26.463  1.00  0.00     0.044 C 
ATOM     83  N   UNL A   1      32.629  27.486  24.896  1.00  0.00    -0.330 N 
ATOM     84  C   UNL A   1      33.476  25.286  25.108  1.00  0.00    -0.006 C 
ATOM     85  C   UNL A   1      33.526  26.561  24.212  1.00  0.00     0.127 C 
ATOM     86  C   UNL A   1      32.582  24.226  24.424  1.00  0.00     0.030 C 
ATOM     87  C   UNL A   1      34.873  24.679  25.326  1.00  0.00     0.030 C 
ATOM     88  C   UNL A   1      32.599  22.850  25.087  1.00  0.00     0.120 C 
ATOM     89  C   UNL A   1      34.800  23.335  26.056  1.00  0.00     0.120 C 
ATOM     90  N   UNL A   1      33.956  22.375  25.339  1.00  0.00    -0.342 N 
ATOM     91  C   UNL A   1      34.497  21.111  25.093  1.00  0.00     0.225 C 
ATOM     92  O   UNL A   1      35.672  20.866  25.393  1.00  0.00    -0.275 OA
BRANCH  83  93
ATOM     93  C   UNL A   1      31.359  27.647  24.346  1.00  0.00     0.225 C 
ATOM     94  O   UNL A   1      30.382  27.037  24.799  1.00  0.00    -0.275 OA
BRANCH  93  95
ATOM     95  C   UNL A   1      31.124  28.522  23.135  1.00  0.00     0.124 C 
BRANCH  95  96
ATOM     96  C   UNL A   1      29.675  28.521  22.667  1.00  0.00     0.154 C 
BRANCH  96  97
ATOM     97  N   UNL A   1      29.081  29.824  22.437  1.00  0.00    -0.272 N 
ATOM     98  C   UNL A   1      28.624  30.691  23.392  1.00  0.00     0.108 A 
ATOM     99  N   UNL A   1      28.817  30.242  21.185  1.00  0.00    -0.182 NA
ATOM    100  C   UNL A   1      28.073  31.755  22.717  1.00  0.00     0.042 A 
ATOM    101  C   UNL A   1      28.225  31.428  21.359  1.00  0.00     0.135 A 
ENDBRANCH  96  97
ENDBRANCH  95  96
ENDBRANCH  93  95
ENDBRANCH  83  93
BRANCH  91 102
ATOM    102  C   UNL A   1      33.778  19.963  24.465  1.00  0.00     0.079 C 
ATOM    103  C   UNL A   1      34.057  18.490  24.472  1.00  0.00     0.014 C 
ATOM    104  C   UNL A   1      32.914  19.039  25.289  1.00  0.00     0.014 C 
ENDBRANCH  91 102
ENDBRANCH  78  81
ENDBRANCH  76  77
ENDBRANCH   1  76
TORSDOF 19
ENDMDL
MODEL 3
REMARK VINA RESULT:     -12.3      2.535      9.608
REMARK SMILES O=C(NCCCCNC(=O)[C@H]1CC2(CCN(C(=O)C3CC3)CC2)CN1C(=O)CCn1cccn1)c1ccc(-c2c3nc(c(-c4c(F)cc(S(=O)(=O)[O-])cc4F)c4ccc([nH]4)c(-c4c(F)cc(S(=O)(=O)[O-])cc4F)c4nc(c(-c5c(F)cc(S(=O)(=O)[O-])cc5F)c5ccc2[nH]5)C=C4)C=C3)cc1
REMARK SMILES IDX 6 1 5 2 4 3 3 4 1 5 2 6 35 8 36 9 100 10 37 11 99 12 38 13
REMARK SMILES IDX 39 14 40 15 93 16 41 17 98 18 92 19 94 20 42 21 97 22 91 23
REMARK SMILES IDX 90 24 43 26 77 27 56 28 76 29 57 30 60 31 75 32 95 33 58 34
REMARK SMILES IDX 59 35 74 37 96 38 61 39 44 40 45 41 54 42 46 43 47 44 53 45
REMARK SMILES IDX 55 46 48 47 49 48 50 49 51 50 52 51 78 52 79 53 88 54 80 55
REMARK SMILES IDX 81 56 87 57 89 58 82 59 83 60 84 61 85 62 86 63 62 64 63 65
REMARK SMILES IDX 72 66 64 67 65 68 71 69 73 70 66 71 67 72 68 73 69 74 70 75
REMARK SMILES IDX 7 76 8 77 9 78 10 80 11 81 12 82 25 83 13 84 24 85 14 86
REMARK SMILES IDX 23 87 15 88 22 89 16 90 17 91 18 92 26 93 27 94 28 95 29 96
REMARK SMILES IDX 30 97 31 98 34 99 32 100 33 101 19 102 20 103 21 104
REMARK H PARENT 3 7 94 25 60 36 8 79
REMARK Flexibility Score: inf
ROOT
ATOM      1  C   UNL A   1      32.070  29.118  25.609  1.00  0.00     0.023 C 
ENDROOT
BRANCH   1   2
ATOM      2  C   UNL A   1      32.357  30.467  26.282  1.00  0.00     0.023 C 
BRANCH   2   3
ATOM      3  C   UNL A   1      33.664  30.543  27.072  1.00  0.00     0.116 C 
BRANCH   3   4
ATOM      4  N   UNL A   1      33.642  31.421  28.224  1.00  0.00    -0.352 N 
ATOM      5  O   UNL A   1      34.232  32.706  29.926  1.00  0.00    -0.269 OA
ATOM      6  C   UNL A   1      34.590  31.849  29.115  1.00  0.00     0.251 C 
ATOM      7  H   UNL A   1      32.748  31.792  28.407  1.00  0.00     0.163 HD
BRANCH   6   8
ATOM      8  C   UNL A   1      35.968  31.301  29.204  1.00  0.00     0.039 A 
ATOM      9  C   UNL A   1      36.289  29.944  29.235  1.00  0.00     0.014 A 
ATOM     10  C   UNL A   1      37.010  32.244  29.263  1.00  0.00     0.014 A 
ATOM     11  C   UNL A   1      37.600  29.535  29.448  1.00  0.00     0.010 A 
ATOM     12  C   UNL A   1      38.331  31.839  29.431  1.00  0.00     0.010 A 
ATOM     13  C   UNL A   1      38.617  30.482  29.563  1.00  0.00    -0.014 A 
BRANCH  13  14
ATOM     14  C   UNL A   1      39.993  29.993  29.637  1.00  0.00     0.031 A 
ATOM     15  C   UNL A   1      40.562  29.947  31.016  1.00  0.00     0.074 A 
ATOM     16  C   UNL A   1      40.653  29.459  28.590  1.00  0.00     0.049 A 
ATOM     17  N   UNL A   1      41.613  30.542  31.481  1.00  0.00    -0.248 NA
ATOM     18  C   UNL A   1      39.783  29.230  32.039  1.00  0.00     0.031 C 
ATOM     19  C   UNL A   1      40.113  29.155  27.263  1.00  0.00     0.029 A 
ATOM     20  N   UNL A   1      41.920  28.955  28.534  1.00  0.00    -0.354 N 
ATOM     21  C   UNL A   1      41.752  30.096  32.796  1.00  0.00     0.074 A 
ATOM     22  C   UNL A   1      40.515  29.443  33.131  1.00  0.00     0.031 C 
ATOM     23  C   UNL A   1      40.959  28.317  26.625  1.00  0.00     0.029 A 
ATOM     24  C   UNL A   1      42.144  28.121  27.446  1.00  0.00     0.049 A 
ATOM     25  H   UNL A   1      42.611  29.161  29.204  1.00  0.00     0.167 HD
ATOM     26  C   UNL A   1      42.958  30.085  33.429  1.00  0.00     0.037 A 
ATOM     27  C   UNL A   1      43.181  27.261  27.277  1.00  0.00     0.037 A 
ATOM     28  C   UNL A   1      43.892  30.980  32.794  1.00  0.00     0.049 A 
ATOM     29  C   UNL A   1      44.278  27.695  28.180  1.00  0.00     0.074 A 
ATOM     30  C   UNL A   1      43.911  32.331  32.502  1.00  0.00     0.029 A 
ATOM     31  N   UNL A   1      44.914  30.431  32.058  1.00  0.00    -0.354 N 
ATOM     32  N   UNL A   1      44.955  28.800  28.040  1.00  0.00    -0.248 NA
ATOM     33  C   UNL A   1      44.366  27.076  29.494  1.00  0.00     0.031 C 
ATOM     34  C   UNL A   1      44.610  32.436  31.263  1.00  0.00     0.029 A 
ATOM     35  C   UNL A   1      45.009  31.150  30.898  1.00  0.00     0.049 A 
ATOM     36  H   UNL A   1      45.473  29.663  32.318  1.00  0.00     0.167 HD
ATOM     37  C   UNL A   1      45.198  29.235  29.333  1.00  0.00     0.074 A 
ATOM     38  C   UNL A   1      44.913  28.082  30.180  1.00  0.00     0.031 C 
ATOM     39  C   UNL A   1      45.337  30.564  29.618  1.00  0.00     0.037 A 
BRANCH  26  40
ATOM     40  C   UNL A   1      43.420  28.970  34.355  1.00  0.00     0.058 A 
ATOM     41  C   UNL A   1      43.270  27.630  33.934  1.00  0.00     0.135 A 
ATOM     42  C   UNL A   1      43.684  29.140  35.733  1.00  0.00     0.135 A 
ATOM     43  F   UNL A   1      43.052  27.338  32.642  1.00  0.00    -0.206 F 
ATOM     44  C   UNL A   1      43.229  26.562  34.832  1.00  0.00     0.059 A 
ATOM     45  C   UNL A   1      43.703  28.084  36.637  1.00  0.00     0.059 A 
ATOM     46  F   UNL A   1      43.839  30.342  36.298  1.00  0.00    -0.206 F 
ATOM     47  C   UNL A   1      43.412  26.808  36.188  1.00  0.00     0.060 A 
BRANCH  47  48
ATOM     48  S   UNL A   1      43.182  25.473  37.372  1.00  0.00     0.124 S 
ATOM     49  O   UNL A   1      43.512  26.144  38.624  1.00  0.00    -0.237 OA
ATOM     50  O   UNL A   1      41.776  25.133  37.177  1.00  0.00    -0.237 OA
ATOM     51  O   UNL A   1      44.134  24.462  36.924  1.00  0.00    -0.744 OA
ENDBRANCH  47  48
ENDBRANCH  26  40
BRANCH  27  52
ATOM     52  C   UNL A   1      43.159  25.920  26.632  1.00  0.00     0.058 A 
ATOM     53  C   UNL A   1      43.878  25.666  25.450  1.00  0.00     0.135 A 
ATOM     54  C   UNL A   1      42.652  24.787  27.301  1.00  0.00     0.135 A 
ATOM     55  F   UNL A   1      44.420  26.680  24.758  1.00  0.00    -0.206 F 
ATOM     56  C   UNL A   1      44.115  24.366  24.984  1.00  0.00     0.059 A 
ATOM     57  C   UNL A   1      42.859  23.487  26.846  1.00  0.00     0.059 A 
ATOM     58  F   UNL A   1      42.013  24.901  28.475  1.00  0.00    -0.206 F 
ATOM     59  C   UNL A   1      43.614  23.281  25.700  1.00  0.00     0.060 A 
BRANCH  59  60
ATOM     60  S   UNL A   1      44.054  21.599  25.203  1.00  0.00     0.124 S 
ATOM     61  O   UNL A   1      44.222  21.745  23.761  1.00  0.00    -0.237 OA
ATOM     62  O   UNL A   1      45.273  21.358  25.966  1.00  0.00    -0.237 OA
ATOM     63  O   UNL A   1      42.897  20.810  25.618  1.00  0.00    -0.744 OA
ENDBRANCH  59  60
ENDBRANCH  27  52
BRANCH  39  64
ATOM     64  C   UNL A   1      45.598  31.517  28.485  1.00  0.00     0.058 A 
ATOM     65  C   UNL A   1      44.602  32.060  27.657  1.00  0.00     0.135 A 
ATOM     66  C   UNL A   1      46.902  32.015  28.335  1.00  0.00     0.135 A 
ATOM     67  F   UNL A   1      43.314  31.718  27.810  1.00  0.00    -0.206 F 
ATOM     68  C   UNL A   1      44.898  33.025  26.693  1.00  0.00     0.059 A 
ATOM     69  C   UNL A   1      47.214  33.001  27.403  1.00  0.00     0.059 A 
ATOM     70  F   UNL A   1      47.887  31.582  29.141  1.00  0.00    -0.206 F 
ATOM     71  C   UNL A   1      46.207  33.492  26.575  1.00  0.00     0.060 A 
BRANCH  71  72
ATOM     72  S   UNL A   1      46.572  34.805  25.392  1.00  0.00     0.124 S 
ATOM     73  O   UNL A   1      47.963  34.527  25.045  1.00  0.00    -0.237 OA
ATOM     74  O   UNL A   1      45.595  34.557  24.331  1.00  0.00    -0.237 OA
ATOM     75  O   UNL A   1      46.351  36.026  26.154  1.00  0.00    -0.744 OA
ENDBRANCH  71  72
ENDBRANCH  39  64
ENDBRANCH  13  14
ENDBRANCH   6   8
ENDBRANCH   3   4
ENDBRANCH   2   3
ENDBRANCH   1   2
BRANCH   1  76
ATOM     76  C   UNL A   1      33.273  28.180  25.486  1.00  0.00     0.116 C 
BRANCH  76  77
ATOM     77  N   UNL A   1      33.236  27.139  26.490  1.00  0.00    -0.354 N 
ATOM     78  C   UNL A   1      32.555  25.968  26.309  1.00  0.00     0.242 C 
ATOM     79  H   UNL A   1      33.719  27.279  27.336  1.00  0.00     0.163 HD
ATOM     80  O   UNL A   1      31.486  25.817  26.898  1.00  0.00    -0.273 OA
BRANCH  78  81
ATOM     81  C   UNL A   1      33.090  24.972  25.268  1.00  0.00     0.175 C 
ATOM     82  C   UNL A   1      32.996  23.459  25.515  1.00  0.00     0.044 C 
ATOM     83  N   UNL A   1      32.728  25.020  23.843  1.00  0.00    -0.330 N 
ATOM     84  C   UNL A   1      33.556  22.830  24.190  1.00  0.00    -0.006 C 
ATOM     85  C   UNL A   1      33.602  24.040  23.209  1.00  0.00     0.127 C 
ATOM     86  C   UNL A   1      32.639  21.736  23.595  1.00  0.00     0.030 C 
ATOM     87  C   UNL A   1      34.950  22.223  24.426  1.00  0.00     0.030 C 
ATOM     88  C   UNL A   1      32.654  20.408  24.351  1.00  0.00     0.120 C 
ATOM     89  C   UNL A   1      34.876  20.933  25.246  1.00  0.00     0.120 C 
ATOM     90  N   UNL A   1      34.011  19.936  24.611  1.00  0.00    -0.342 N 
ATOM     91  C   UNL A   1      34.535  18.653  24.443  1.00  0.00     0.225 C 
ATOM     92  O   UNL A   1      35.712  18.416  24.738  1.00  0.00    -0.275 OA
BRANCH  83  93
ATOM     93  C   UNL A   1      31.449  25.157  23.305  1.00  0.00     0.225 C 
ATOM     94  O   UNL A   1      30.482  24.555  23.788  1.00  0.00    -0.275 OA
BRANCH  93  95
ATOM     95  C   UNL A   1      31.194  25.996  22.073  1.00  0.00     0.124 C 
BRANCH  95  96
ATOM     96  C   UNL A   1      31.338  27.491  22.325  1.00  0.00     0.154 C 
BRANCH  96  97
ATOM     97  N   UNL A   1      30.101  28.232  22.474  1.00  0.00    -0.272 N 
ATOM     98  C   UNL A   1      28.989  27.830  23.164  1.00  0.00     0.108 A 
ATOM     99  N   UNL A   1      29.910  29.383  21.804  1.00  0.00    -0.182 NA
ATOM    100  C   UNL A   1      28.038  28.804  22.965  1.00  0.00     0.042 A 
ATOM    101  C   UNL A   1      28.662  29.740  22.124  1.00  0.00     0.135 A 
ENDBRANCH  96  97
ENDBRANCH  95  96
ENDBRANCH  93  95
ENDBRANCH  83  93
BRANCH  91 102
ATOM    102  C   UNL A   1      33.793  17.472  23.907  1.00  0.00     0.079 C 
ATOM    103  C   UNL A   1      33.946  16.003  24.158  1.00  0.00     0.014 C 
ATOM    104  C   UNL A   1      32.773  16.744  24.748  1.00  0.00     0.014 C 
ENDBRANCH  91 102
ENDBRANCH  78  81
ENDBRANCH  76  77
ENDBRANCH   1  76
TORSDOF 19
ENDMDL
