MODEL 1
REMARK VINA RESULT:     -10.8      0.000      0.000
REMARK SMILES CC(C)[C@H]([NH2+]Cc1ccc(N(C)C)cc1)C(=O)NCCCCNC(=O)c1ccc(-c2c3nc(c(-c4c(F)cc(S(=O)(=O)[O-])cc4F)c4ccc([nH]4)c(-c4c(F)cc(S(=O)(=O)[O-])cc4F)c4nc(c(-c5c(F)cc(S(=O)(=O)[O-])cc5F)c5ccc2[nH]5)C=C4)C=C3)cc1
REMARK SMILES IDX 20 1 19 2 18 3 16 4 17 5 4 7 2 8 1 9 3 10 5 11 6 14 7 15
REMARK SMILES IDX 8 16 15 17 9 18 14 19 10 20 11 21 12 22 13 23 21 24 22 25
REMARK SMILES IDX 23 26 24 27 25 29 26 30 27 31 91 32 28 33 90 34 29 35 30 36
REMARK SMILES IDX 31 37 84 38 32 39 89 40 83 41 85 42 33 43 88 44 82 45 81 46
REMARK SMILES IDX 34 48 68 49 47 50 67 51 48 52 51 53 66 54 86 55 49 56 50 57
REMARK SMILES IDX 65 59 87 60 52 61 35 62 36 63 45 64 37 65 38 66 44 67 46 68
REMARK SMILES IDX 39 69 40 70 41 71 42 72 43 73 69 74 70 75 79 76 71 77 72 78
REMARK SMILES IDX 78 79 80 80 73 81 74 82 75 83 76 84 77 85 53 86 54 87 63 88
REMARK SMILES IDX 55 89 56 90 62 91 64 92 57 93 58 94 59 95 60 96 61 97
REMARK H PARENT 18 6 5 12 5 13 23 28 85 47 51 58
REMARK Flexibility Score: inf
ROOT
ATOM      1  C   UNL A   1      33.179  30.316  27.233  1.00  0.00     0.023 C 
ENDROOT
BRANCH   1   2
ATOM      2  C   UNL A   1      33.212  29.675  25.849  1.00  0.00     0.116 C 
BRANCH   2   3
ATOM      3  N   UNL A   1      32.012  29.949  25.076  1.00  0.00    -0.351 N 
ATOM      4  C   UNL A   1      31.216  29.086  24.377  1.00  0.00     0.278 C 
ATOM      5  O   UNL A   1      30.267  29.555  23.741  1.00  0.00    -0.268 OA
ATOM      6  H   UNL A   1      31.732  30.892  25.053  1.00  0.00     0.163 HD
BRANCH   4   7
ATOM      7  C   UNL A   1      31.475  27.559  24.391  1.00  0.00     0.275 C 
BRANCH   7   8
ATOM      8  C   UNL A   1      32.328  27.165  23.144  1.00  0.00     0.051 C 
ATOM      9  C   UNL A   1      33.602  26.417  23.555  1.00  0.00     0.014 C 
ATOM     10  C   UNL A   1      31.562  26.325  22.115  1.00  0.00     0.014 C 
ENDBRANCH   7   8
BRANCH   7  11
ATOM     11  N   UNL A   1      30.212  26.789  24.453  1.00  0.00    -0.332 N 
ATOM     12  H   UNL A   1      30.181  26.171  23.642  1.00  0.00     0.347 HD
ATOM     13  H   UNL A   1      29.463  27.481  24.472  1.00  0.00     0.347 HD
BRANCH  11  14
ATOM     14  C   UNL A   1      30.029  25.969  25.653  1.00  0.00     0.297 C 
BRANCH  14  15
ATOM     15  C   UNL A   1      30.937  24.753  25.635  1.00  0.00     0.006 A 
ATOM     16  C   UNL A   1      30.909  23.803  24.606  1.00  0.00     0.012 A 
ATOM     17  C   UNL A   1      31.768  24.492  26.723  1.00  0.00     0.012 A 
ATOM     18  C   UNL A   1      31.722  22.660  24.643  1.00  0.00     0.026 A 
ATOM     19  C   UNL A   1      32.573  23.341  26.752  1.00  0.00     0.026 A 
ATOM     20  C   UNL A   1      32.594  22.398  25.707  1.00  0.00     0.036 A 
BRANCH  20  21
ATOM     21  N   UNL A   1      33.413  21.275  25.748  1.00  0.00    -0.378 N 
ATOM     22  C   UNL A   1      33.008  19.979  25.216  1.00  0.00     0.143 C 
ATOM     23  C   UNL A   1      34.825  21.415  26.085  1.00  0.00     0.143 C 
ENDBRANCH  20  21
ENDBRANCH  14  15
ENDBRANCH  11  14
ENDBRANCH   7  11
ENDBRANCH   4   7
ENDBRANCH   2   3
ENDBRANCH   1   2
BRANCH   1  24
ATOM     24  C   UNL A   1      34.412  31.134  27.593  1.00  0.00     0.023 C 
BRANCH  24  25
ATOM     25  C   UNL A   1      35.554  30.320  28.177  1.00  0.00     0.116 C 
BRANCH  25  26
ATOM     26  N   UNL A   1      35.545  30.311  29.632  1.00  0.00    -0.352 N 
ATOM     27  C   UNL A   1      36.545  29.972  30.506  1.00  0.00     0.251 C 
ATOM     28  H   UNL A   1      34.697  30.589  30.050  1.00  0.00     0.163 HD
ATOM     29  O   UNL A   1      36.293  29.847  31.704  1.00  0.00    -0.269 OA
BRANCH  27  30
ATOM     30  C   UNL A   1      37.912  29.738  30.001  1.00  0.00     0.039 A 
ATOM     31  C   UNL A   1      38.893  29.295  30.888  1.00  0.00     0.014 A 
ATOM     32  C   UNL A   1      38.223  29.940  28.653  1.00  0.00     0.014 A 
ATOM     33  C   UNL A   1      40.172  29.010  30.411  1.00  0.00     0.010 A 
ATOM     34  C   UNL A   1      39.461  29.549  28.160  1.00  0.00     0.010 A 
ATOM     35  C   UNL A   1      40.457  29.102  29.036  1.00  0.00    -0.014 A 
BRANCH  35  36
ATOM     36  C   UNL A   1      41.800  28.744  28.519  1.00  0.00     0.031 A 
ATOM     37  C   UNL A   1      42.883  29.786  28.426  1.00  0.00     0.074 A 
ATOM     38  C   UNL A   1      42.033  27.480  28.112  1.00  0.00     0.049 A 
ATOM     39  N   UNL A   1      44.128  29.649  28.048  1.00  0.00    -0.248 NA
ATOM     40  C   UNL A   1      42.517  31.169  28.775  1.00  0.00     0.031 C 
ATOM     41  C   UNL A   1      41.036  26.406  28.079  1.00  0.00     0.029 A 
ATOM     42  N   UNL A   1      43.179  26.880  27.660  1.00  0.00    -0.354 N 
ATOM     43  C   UNL A   1      44.686  30.921  28.109  1.00  0.00     0.074 A 
ATOM     44  C   UNL A   1      43.629  31.829  28.488  1.00  0.00     0.031 C 
ATOM     45  C   UNL A   1      41.627  25.269  27.681  1.00  0.00     0.029 A 
ATOM     46  C   UNL A   1      43.032  25.538  27.399  1.00  0.00     0.049 A 
ATOM     47  H   UNL A   1      44.028  27.364  27.535  1.00  0.00     0.167 HD
ATOM     48  C   UNL A   1      45.971  31.293  27.899  1.00  0.00     0.037 A 
ATOM     49  C   UNL A   1      43.933  24.625  26.987  1.00  0.00     0.037 A 
ATOM     50  C   UNL A   1      47.020  30.374  27.539  1.00  0.00     0.049 A 
ATOM     51  C   UNL A   1      45.361  25.056  26.791  1.00  0.00     0.074 A 
ATOM     52  C   UNL A   1      48.367  30.632  27.358  1.00  0.00     0.029 A 
ATOM     53  N   UNL A   1      46.838  29.019  27.301  1.00  0.00    -0.354 N 
ATOM     54  N   UNL A   1      45.890  26.249  26.933  1.00  0.00    -0.248 NA
ATOM     55  C   UNL A   1      46.317  24.015  26.396  1.00  0.00     0.031 C 
ATOM     56  C   UNL A   1      48.990  29.444  26.961  1.00  0.00     0.029 A 
ATOM     57  C   UNL A   1      48.044  28.432  26.955  1.00  0.00     0.049 A 
ATOM     58  H   UNL A   1      45.978  28.544  27.368  1.00  0.00     0.167 HD
ATOM     59  C   UNL A   1      47.247  26.096  26.670  1.00  0.00     0.074 A 
ATOM     60  C   UNL A   1      47.457  24.691  26.384  1.00  0.00     0.031 C 
ATOM     61  C   UNL A   1      48.231  27.031  26.667  1.00  0.00     0.037 A 
BRANCH  48  62
ATOM     62  C   UNL A   1      46.313  32.751  28.059  1.00  0.00     0.058 A 
ATOM     63  C   UNL A   1      46.804  33.267  29.271  1.00  0.00     0.135 A 
ATOM     64  C   UNL A   1      46.178  33.640  26.981  1.00  0.00     0.135 A 
ATOM     65  F   UNL A   1      46.938  32.469  30.343  1.00  0.00    -0.206 F 
ATOM     66  C   UNL A   1      47.120  34.614  29.415  1.00  0.00     0.059 A 
ATOM     67  C   UNL A   1      46.519  34.986  27.093  1.00  0.00     0.059 A 
ATOM     68  F   UNL A   1      45.710  33.205  25.801  1.00  0.00    -0.206 F 
ATOM     69  C   UNL A   1      46.977  35.466  28.320  1.00  0.00     0.060 A 
BRANCH  69  70
ATOM     70  S   UNL A   1      47.403  37.209  28.521  1.00  0.00     0.124 S 
ATOM     71  O   UNL A   1      48.664  37.117  29.250  1.00  0.00    -0.237 OA
ATOM     72  O   UNL A   1      47.503  37.666  27.139  1.00  0.00    -0.237 OA
ATOM     73  O   UNL A   1      46.279  37.750  29.279  1.00  0.00    -0.744 OA
ENDBRANCH  69  70
ENDBRANCH  48  62
BRANCH  49  74
ATOM     74  C   UNL A   1      43.518  23.212  26.780  1.00  0.00     0.058 A 
ATOM     75  C   UNL A   1      43.423  22.663  25.492  1.00  0.00     0.135 A 
ATOM     76  C   UNL A   1      43.225  22.374  27.868  1.00  0.00     0.135 A 
ATOM     77  F   UNL A   1      43.691  23.421  24.418  1.00  0.00    -0.206 F 
ATOM     78  C   UNL A   1      43.031  21.344  25.288  1.00  0.00     0.059 A 
ATOM     79  C   UNL A   1      42.860  21.043  27.691  1.00  0.00     0.059 A 
ATOM     80  F   UNL A   1      43.320  22.843  29.122  1.00  0.00    -0.206 F 
ATOM     81  C   UNL A   1      42.754  20.541  26.394  1.00  0.00     0.060 A 
BRANCH  81  82
ATOM     82  S   UNL A   1      42.290  18.817  26.121  1.00  0.00     0.124 S 
ATOM     83  O   UNL A   1      42.533  18.235  27.435  1.00  0.00    -0.237 OA
ATOM     84  O   UNL A   1      40.890  18.936  25.724  1.00  0.00    -0.237 OA
ATOM     85  O   UNL A   1      43.199  18.387  25.063  1.00  0.00    -0.744 OA
ENDBRANCH  81  82
ENDBRANCH  49  74
BRANCH  61  86
ATOM     86  C   UNL A   1      49.628  26.550  26.376  1.00  0.00     0.058 A 
ATOM     87  C   UNL A   1      50.429  25.955  27.363  1.00  0.00     0.135 A 
ATOM     88  C   UNL A   1      50.167  26.682  25.086  1.00  0.00     0.135 A 
ATOM     89  F   UNL A   1      49.963  25.803  28.613  1.00  0.00    -0.206 F 
ATOM     90  C   UNL A   1      51.737  25.561  27.097  1.00  0.00     0.059 A 
ATOM     91  C   UNL A   1      51.459  26.262  24.788  1.00  0.00     0.059 A 
ATOM     92  F   UNL A   1      49.439  27.227  24.099  1.00  0.00    -0.206 F 
ATOM     93  C   UNL A   1      52.245  25.725  25.807  1.00  0.00     0.060 A 
BRANCH  93  94
ATOM     94  S   UNL A   1      53.947  25.227  25.478  1.00  0.00     0.124 S 
ATOM     95  O   UNL A   1      53.761  23.877  24.957  1.00  0.00    -0.237 OA
ATOM     96  O   UNL A   1      54.385  26.227  24.509  1.00  0.00    -0.237 OA
ATOM     97  O   UNL A   1      54.585  25.312  26.789  1.00  0.00    -0.744 OA
ENDBRANCH  93  94
ENDBRANCH  61  86
ENDBRANCH  35  36
ENDBRANCH  27  30
ENDBRANCH  25  26
ENDBRANCH  24  25
ENDBRANCH   1  24
TORSDOF 19
ENDMDL
MODEL 2
REMARK VINA RESULT:     -10.8      6.682     12.388
REMARK SMILES CC(C)[C@H]([NH2+]Cc1ccc(N(C)C)cc1)C(=O)NCCCCNC(=O)c1ccc(-c2c3nc(c(-c4c(F)cc(S(=O)(=O)[O-])cc4F)c4ccc([nH]4)c(-c4c(F)cc(S(=O)(=O)[O-])cc4F)c4nc(c(-c5c(F)cc(S(=O)(=O)[O-])cc5F)c5ccc2[nH]5)C=C4)C=C3)cc1
REMARK SMILES IDX 20 1 19 2 18 3 16 4 17 5 4 7 2 8 1 9 3 10 5 11 6 14 7 15
REMARK SMILES IDX 8 16 15 17 9 18 14 19 10 20 11 21 12 22 13 23 21 24 22 25
REMARK SMILES IDX 23 26 24 27 25 29 26 30 27 31 91 32 28 33 90 34 29 35 30 36
REMARK SMILES IDX 31 37 84 38 32 39 89 40 83 41 85 42 33 43 88 44 82 45 81 46
REMARK SMILES IDX 34 48 68 49 47 50 67 51 48 52 51 53 66 54 86 55 49 56 50 57
REMARK SMILES IDX 65 59 87 60 52 61 35 62 36 63 45 64 37 65 38 66 44 67 46 68
REMARK SMILES IDX 39 69 40 70 41 71 42 72 43 73 69 74 70 75 79 76 71 77 72 78
REMARK SMILES IDX 78 79 80 80 73 81 74 82 75 83 76 84 77 85 53 86 54 87 63 88
REMARK SMILES IDX 55 89 56 90 62 91 64 92 57 93 58 94 59 95 60 96 61 97
REMARK H PARENT 18 6 5 12 5 13 23 28 85 47 51 58
REMARK Flexibility Score: inf
ROOT
ATOM      1  C   UNL A   1      38.817  21.613  26.076  1.00  0.00     0.023 C 
ENDROOT
BRANCH   1   2
ATOM      2  C   UNL A   1      37.866  22.770  25.779  1.00  0.00     0.116 C 
BRANCH   2   3
ATOM      3  N   UNL A   1      37.581  22.910  24.361  1.00  0.00    -0.351 N 
ATOM      4  C   UNL A   1      36.379  23.069  23.731  1.00  0.00     0.278 C 
ATOM      5  O   UNL A   1      36.370  23.111  22.496  1.00  0.00    -0.268 OA
ATOM      6  H   UNL A   1      38.367  22.886  23.769  1.00  0.00     0.163 HD
BRANCH   4   7
ATOM      7  C   UNL A   1      35.061  23.214  24.531  1.00  0.00     0.275 C 
BRANCH   7   8
ATOM      8  C   UNL A   1      34.213  21.913  24.375  1.00  0.00     0.051 C 
ATOM      9  C   UNL A   1      33.670  21.437  25.728  1.00  0.00     0.014 C 
ATOM     10  C   UNL A   1      33.049  22.052  23.387  1.00  0.00     0.014 C 
ENDBRANCH   7   8
BRANCH   7  11
ATOM     11  N   UNL A   1      34.299  24.414  24.120  1.00  0.00    -0.332 N 
ATOM     12  H   UNL A   1      33.614  24.127  23.420  1.00  0.00     0.347 HD
ATOM     13  H   UNL A   1      34.990  25.079  23.772  1.00  0.00     0.347 HD
BRANCH  11  14
ATOM     14  C   UNL A   1      33.582  25.107  25.194  1.00  0.00     0.297 C 
BRANCH  14  15
ATOM     15  C   UNL A   1      32.532  26.051  24.637  1.00  0.00     0.006 A 
ATOM     16  C   UNL A   1      32.112  27.201  25.318  1.00  0.00     0.012 A 
ATOM     17  C   UNL A   1      31.868  25.730  23.455  1.00  0.00     0.012 A 
ATOM     18  C   UNL A   1      31.099  28.026  24.805  1.00  0.00     0.026 A 
ATOM     19  C   UNL A   1      30.852  26.561  22.954  1.00  0.00     0.026 A 
ATOM     20  C   UNL A   1      30.447  27.745  23.598  1.00  0.00     0.036 A 
BRANCH  20  21
ATOM     21  N   UNL A   1      29.451  28.562  23.074  1.00  0.00    -0.378 N 
ATOM     22  C   UNL A   1      28.039  28.201  23.092  1.00  0.00     0.143 C 
ATOM     23  C   UNL A   1      29.752  29.946  22.726  1.00  0.00     0.143 C 
ENDBRANCH  20  21
ENDBRANCH  14  15
ENDBRANCH  11  14
ENDBRANCH   7  11
ENDBRANCH   4   7
ENDBRANCH   2   3
ENDBRANCH   1   2
BRANCH   1  24
ATOM     24  C   UNL A   1      40.031  21.979  26.919  1.00  0.00     0.023 C 
BRANCH  24  25
ATOM     25  C   UNL A   1      40.198  23.468  27.164  1.00  0.00     0.116 C 
BRANCH  25  26
ATOM     26  N   UNL A   1      41.069  24.100  26.184  1.00  0.00    -0.352 N 
ATOM     27  C   UNL A   1      41.478  25.406  26.097  1.00  0.00     0.251 C 
ATOM     28  H   UNL A   1      41.416  23.503  25.482  1.00  0.00     0.163 HD
ATOM     29  O   UNL A   1      42.067  25.795  25.090  1.00  0.00    -0.269 OA
BRANCH  27  30
ATOM     30  C   UNL A   1      41.188  26.339  27.202  1.00  0.00     0.039 A 
ATOM     31  C   UNL A   1      40.181  26.018  28.112  1.00  0.00     0.014 A 
ATOM     32  C   UNL A   1      41.917  27.524  27.350  1.00  0.00     0.014 A 
ATOM     33  C   UNL A   1      39.940  26.861  29.195  1.00  0.00     0.010 A 
ATOM     34  C   UNL A   1      41.752  28.302  28.489  1.00  0.00     0.010 A 
ATOM     35  C   UNL A   1      40.746  27.993  29.413  1.00  0.00    -0.014 A 
BRANCH  35  36
ATOM     36  C   UNL A   1      40.529  28.859  30.597  1.00  0.00     0.031 A 
ATOM     37  C   UNL A   1      41.383  28.697  31.826  1.00  0.00     0.074 A 
ATOM     38  C   UNL A   1      39.542  29.777  30.568  1.00  0.00     0.049 A 
ATOM     39  N   UNL A   1      41.372  29.393  32.933  1.00  0.00    -0.248 NA
ATOM     40  C   UNL A   1      42.357  27.594  31.827  1.00  0.00     0.031 C 
ATOM     41  C   UNL A   1      38.599  29.969  29.462  1.00  0.00     0.029 A 
ATOM     42  N   UNL A   1      39.175  30.729  31.483  1.00  0.00    -0.354 N 
ATOM     43  C   UNL A   1      42.329  28.810  33.758  1.00  0.00     0.074 A 
ATOM     44  C   UNL A   1      42.848  27.660  33.055  1.00  0.00     0.031 C 
ATOM     45  C   UNL A   1      37.796  31.008  29.743  1.00  0.00     0.029 A 
ATOM     46  C   UNL A   1      38.144  31.534  31.058  1.00  0.00     0.049 A 
ATOM     47  H   UNL A   1      39.608  30.828  32.362  1.00  0.00     0.167 HD
ATOM     48  C   UNL A   1      42.757  29.216  34.976  1.00  0.00     0.037 A 
ATOM     49  C   UNL A   1      37.553  32.584  31.658  1.00  0.00     0.037 A 
ATOM     50  C   UNL A   1      42.243  30.376  35.658  1.00  0.00     0.049 A 
ATOM     51  C   UNL A   1      38.067  33.035  32.998  1.00  0.00     0.074 A 
ATOM     52  C   UNL A   1      42.645  30.912  36.869  1.00  0.00     0.029 A 
ATOM     53  N   UNL A   1      41.212  31.178  35.190  1.00  0.00    -0.354 N 
ATOM     54  N   UNL A   1      39.029  32.522  33.728  1.00  0.00    -0.248 NA
ATOM     55  C   UNL A   1      37.428  34.218  33.587  1.00  0.00     0.031 C 
ATOM     56  C   UNL A   1      41.823  32.006  37.157  1.00  0.00     0.029 A 
ATOM     57  C   UNL A   1      40.949  32.192  36.096  1.00  0.00     0.049 A 
ATOM     58  H   UNL A   1      40.737  31.046  34.338  1.00  0.00     0.167 HD
ATOM     59  C   UNL A   1      39.129  33.335  34.852  1.00  0.00     0.074 A 
ATOM     60  C   UNL A   1      38.144  34.386  34.690  1.00  0.00     0.031 C 
ATOM     61  C   UNL A   1      39.959  33.226  35.920  1.00  0.00     0.037 A 
BRANCH  48  62
ATOM     62  C   UNL A   1      43.836  28.405  35.645  1.00  0.00     0.058 A 
ATOM     63  C   UNL A   1      43.533  27.369  36.546  1.00  0.00     0.135 A 
ATOM     64  C   UNL A   1      45.190  28.646  35.362  1.00  0.00     0.135 A 
ATOM     65  F   UNL A   1      42.256  27.105  36.869  1.00  0.00    -0.206 F 
ATOM     66  C   UNL A   1      44.532  26.622  37.161  1.00  0.00     0.059 A 
ATOM     67  C   UNL A   1      46.206  27.889  35.941  1.00  0.00     0.059 A 
ATOM     68  F   UNL A   1      45.540  29.624  34.514  1.00  0.00    -0.206 F 
ATOM     69  C   UNL A   1      45.866  26.887  36.851  1.00  0.00     0.060 A 
BRANCH  69  70
ATOM     70  S   UNL A   1      47.149  25.899  37.649  1.00  0.00     0.124 S 
ATOM     71  O   UNL A   1      47.518  26.753  38.773  1.00  0.00    -0.237 OA
ATOM     72  O   UNL A   1      46.430  24.675  37.991  1.00  0.00    -0.237 OA
ATOM     73  O   UNL A   1      48.165  25.756  36.610  1.00  0.00    -0.744 OA
ENDBRANCH  69  70
ENDBRANCH  48  62
BRANCH  49  74
ATOM     74  C   UNL A   1      36.444  33.303  30.975  1.00  0.00     0.058 A 
ATOM     75  C   UNL A   1      35.124  33.218  31.444  1.00  0.00     0.135 A 
ATOM     76  C   UNL A   1      36.684  34.106  29.849  1.00  0.00     0.135 A 
ATOM     77  F   UNL A   1      34.840  32.462  32.516  1.00  0.00    -0.206 F 
ATOM     78  C   UNL A   1      34.079  33.882  30.809  1.00  0.00     0.059 A 
ATOM     79  C   UNL A   1      35.661  34.805  29.216  1.00  0.00     0.059 A 
ATOM     80  F   UNL A   1      37.932  34.240  29.373  1.00  0.00    -0.206 F 
ATOM     81  C   UNL A   1      34.359  34.677  29.697  1.00  0.00     0.060 A 
BRANCH  81  82
ATOM     82  S   UNL A   1      33.003  35.572  28.907  1.00  0.00     0.124 S 
ATOM     83  O   UNL A   1      33.720  36.618  28.189  1.00  0.00    -0.237 OA
ATOM     84  O   UNL A   1      32.392  34.535  28.082  1.00  0.00    -0.237 OA
ATOM     85  O   UNL A   1      32.194  36.021  30.036  1.00  0.00    -0.744 OA
ENDBRANCH  81  82
ENDBRANCH  49  74
BRANCH  61  86
ATOM     86  C   UNL A   1      39.856  34.292  36.977  1.00  0.00     0.058 A 
ATOM     87  C   UNL A   1      39.013  34.154  38.091  1.00  0.00     0.135 A 
ATOM     88  C   UNL A   1      40.617  35.468  36.873  1.00  0.00     0.135 A 
ATOM     89  F   UNL A   1      38.263  33.050  38.240  1.00  0.00    -0.206 F 
ATOM     90  C   UNL A   1      38.885  35.167  39.036  1.00  0.00     0.059 A 
ATOM     91  C   UNL A   1      40.532  36.478  37.825  1.00  0.00     0.059 A 
ATOM     92  F   UNL A   1      41.453  35.645  35.838  1.00  0.00    -0.206 F 
ATOM     93  C   UNL A   1      39.645  36.330  38.890  1.00  0.00     0.060 A 
BRANCH  93  94
ATOM     94  S   UNL A   1      39.458  37.644  40.110  1.00  0.00     0.124 S 
ATOM     95  O   UNL A   1      38.290  38.354  39.598  1.00  0.00    -0.237 OA
ATOM     96  O   UNL A   1      39.254  36.898  41.347  1.00  0.00    -0.237 OA
ATOM     97  O   UNL A   1      40.722  38.371  40.024  1.00  0.00    -0.744 OA
ENDBRANCH  93  94
ENDBRANCH  61  86
ENDBRANCH  35  36
ENDBRANCH  27  30
ENDBRANCH  25  26
ENDBRANCH  24  25
ENDBRANCH   1  24
TORSDOF 19
ENDMDL
MODEL 3
REMARK VINA RESULT:     -10.7      0.738      8.355
REMARK SMILES CC(C)[C@H]([NH2+]Cc1ccc(N(C)C)cc1)C(=O)NCCCCNC(=O)c1ccc(-c2c3nc(c(-c4c(F)cc(S(=O)(=O)[O-])cc4F)c4ccc([nH]4)c(-c4c(F)cc(S(=O)(=O)[O-])cc4F)c4nc(c(-c5c(F)cc(S(=O)(=O)[O-])cc5F)c5ccc2[nH]5)C=C4)C=C3)cc1
REMARK SMILES IDX 20 1 19 2 18 3 16 4 17 5 4 7 2 8 1 9 3 10 5 11 6 14 7 15
REMARK SMILES IDX 8 16 15 17 9 18 14 19 10 20 11 21 12 22 13 23 21 24 22 25
REMARK SMILES IDX 23 26 24 27 25 29 26 30 27 31 91 32 28 33 90 34 29 35 30 36
REMARK SMILES IDX 31 37 84 38 32 39 89 40 83 41 85 42 33 43 88 44 82 45 81 46
REMARK SMILES IDX 34 48 68 49 47 50 67 51 48 52 51 53 66 54 86 55 49 56 50 57
REMARK SMILES IDX 65 59 87 60 52 61 35 62 36 63 45 64 37 65 38 66 44 67 46 68
REMARK SMILES IDX 39 69 40 70 41 71 42 72 43 73 69 74 70 75 79 76 71 77 72 78
REMARK SMILES IDX 78 79 80 80 73 81 74 82 75 83 76 84 77 85 53 86 54 87 63 88
REMARK SMILES IDX 55 89 56 90 62 91 64 92 57 93 58 94 59 95 60 96 61 97
REMARK H PARENT 18 6 5 12 5 13 23 28 85 47 51 58
REMARK Flexibility Score: inf
ROOT
ATOM      1  C   UNL A   1      33.324  29.980  26.152  1.00  0.00     0.023 C 
ENDROOT
BRANCH   1   2
ATOM      2  C   UNL A   1      31.812  29.775  26.195  1.00  0.00     0.116 C 
BRANCH   2   3
ATOM      3  N   UNL A   1      31.172  30.066  24.923  1.00  0.00    -0.351 N 
ATOM      4  C   UNL A   1      30.974  29.249  23.846  1.00  0.00     0.278 C 
ATOM      5  O   UNL A   1      30.450  29.732  22.838  1.00  0.00    -0.268 OA
ATOM      6  H   UNL A   1      30.831  30.984  24.824  1.00  0.00     0.163 HD
BRANCH   4   7
ATOM      7  C   UNL A   1      31.374  27.753  23.883  1.00  0.00     0.275 C 
BRANCH   7   8
ATOM      8  C   UNL A   1      32.139  27.387  22.573  1.00  0.00     0.051 C 
ATOM      9  C   UNL A   1      33.647  27.260  22.825  1.00  0.00     0.014 C 
ATOM     10  C   UNL A   1      31.631  26.106  21.902  1.00  0.00     0.014 C 
ENDBRANCH   7   8
BRANCH   7  11
ATOM     11  N   UNL A   1      30.200  26.877  24.093  1.00  0.00    -0.332 N 
ATOM     12  H   UNL A   1      30.222  26.148  23.380  1.00  0.00     0.347 HD
ATOM     13  H   UNL A   1      29.384  27.485  24.037  1.00  0.00     0.347 HD
BRANCH  11  14
ATOM     14  C   UNL A   1      30.124  26.224  25.403  1.00  0.00     0.297 C 
BRANCH  14  15
ATOM     15  C   UNL A   1      31.064  25.035  25.483  1.00  0.00     0.006 A 
ATOM     16  C   UNL A   1      30.751  23.785  24.933  1.00  0.00     0.012 A 
ATOM     17  C   UNL A   1      32.245  25.133  26.216  1.00  0.00     0.012 A 
ATOM     18  C   UNL A   1      31.616  22.688  25.071  1.00  0.00     0.026 A 
ATOM     19  C   UNL A   1      33.100  24.027  26.351  1.00  0.00     0.026 A 
ATOM     20  C   UNL A   1      32.828  22.775  25.768  1.00  0.00     0.036 A 
BRANCH  20  21
ATOM     21  N   UNL A   1      33.697  21.698  25.900  1.00  0.00    -0.378 N 
ATOM     22  C   UNL A   1      34.253  20.984  24.756  1.00  0.00     0.143 C 
ATOM     23  C   UNL A   1      34.307  21.408  27.193  1.00  0.00     0.143 C 
ENDBRANCH  20  21
ENDBRANCH  14  15
ENDBRANCH  11  14
ENDBRANCH   7  11
ENDBRANCH   4   7
ENDBRANCH   2   3
ENDBRANCH   1   2
BRANCH   1  24
ATOM     24  C   UNL A   1      34.142  28.871  26.801  1.00  0.00     0.023 C 
BRANCH  24  25
ATOM     25  C   UNL A   1      35.454  29.336  27.410  1.00  0.00     0.116 C 
BRANCH  25  26
ATOM     26  N   UNL A   1      35.312  29.728  28.805  1.00  0.00    -0.352 N 
ATOM     27  C   UNL A   1      36.259  29.775  29.795  1.00  0.00     0.251 C 
ATOM     28  H   UNL A   1      34.405  29.998  29.076  1.00  0.00     0.163 HD
ATOM     29  O   UNL A   1      35.914  29.954  30.962  1.00  0.00    -0.269 OA
BRANCH  27  30
ATOM     30  C   UNL A   1      37.683  29.589  29.457  1.00  0.00     0.039 A 
ATOM     31  C   UNL A   1      38.573  29.210  30.462  1.00  0.00     0.014 A 
ATOM     32  C   UNL A   1      38.140  29.775  28.148  1.00  0.00     0.014 A 
ATOM     33  C   UNL A   1      39.908  28.971  30.143  1.00  0.00     0.010 A 
ATOM     34  C   UNL A   1      39.442  29.427  27.811  1.00  0.00     0.010 A 
ATOM     35  C   UNL A   1      40.348  29.044  28.808  1.00  0.00    -0.014 A 
BRANCH  35  36
ATOM     36  C   UNL A   1      41.755  28.733  28.458  1.00  0.00     0.031 A 
ATOM     37  C   UNL A   1      42.148  27.338  28.050  1.00  0.00     0.074 A 
ATOM     38  C   UNL A   1      42.682  29.709  28.533  1.00  0.00     0.049 A 
ATOM     39  N   UNL A   1      43.314  26.891  27.662  1.00  0.00    -0.248 NA
ATOM     40  C   UNL A   1      41.105  26.301  28.109  1.00  0.00     0.031 C 
ATOM     41  C   UNL A   1      42.433  31.077  28.996  1.00  0.00     0.029 A 
ATOM     42  N   UNL A   1      44.015  29.707  28.212  1.00  0.00    -0.354 N 
ATOM     43  C   UNL A   1      43.145  25.529  27.439  1.00  0.00     0.074 A 
ATOM     44  C   UNL A   1      41.785  25.207  27.804  1.00  0.00     0.031 C 
ATOM     45  C   UNL A   1      43.562  31.794  28.879  1.00  0.00     0.029 A 
ATOM     46  C   UNL A   1      44.621  30.931  28.367  1.00  0.00     0.049 A 
ATOM     47  H   UNL A   1      44.493  28.904  27.899  1.00  0.00     0.167 HD
ATOM     48  C   UNL A   1      44.033  24.636  26.944  1.00  0.00     0.037 A 
ATOM     49  C   UNL A   1      45.886  31.317  28.114  1.00  0.00     0.037 A 
ATOM     50  C   UNL A   1      45.381  24.974  26.567  1.00  0.00     0.049 A 
ATOM     51  C   UNL A   1      46.846  30.313  27.536  1.00  0.00     0.074 A 
ATOM     52  C   UNL A   1      46.348  24.161  26.001  1.00  0.00     0.029 A 
ATOM     53  N   UNL A   1      45.955  26.228  26.720  1.00  0.00    -0.354 N 
ATOM     54  N   UNL A   1      46.645  29.047  27.253  1.00  0.00    -0.248 NA
ATOM     55  C   UNL A   1      48.198  30.794  27.225  1.00  0.00     0.031 C 
ATOM     56  C   UNL A   1      47.521  24.910  25.860  1.00  0.00     0.029 A 
ATOM     57  C   UNL A   1      47.268  26.207  26.280  1.00  0.00     0.049 A 
ATOM     58  H   UNL A   1      45.497  27.018  27.088  1.00  0.00     0.167 HD
ATOM     59  C   UNL A   1      47.838  28.587  26.706  1.00  0.00     0.074 A 
ATOM     60  C   UNL A   1      48.744  29.718  26.679  1.00  0.00     0.031 C 
ATOM     61  C   UNL A   1      48.157  27.343  26.266  1.00  0.00     0.037 A 
BRANCH  48  62
ATOM     62  C   UNL A   1      43.574  23.210  26.778  1.00  0.00     0.058 A 
ATOM     63  C   UNL A   1      43.350  22.371  27.883  1.00  0.00     0.135 A 
ATOM     64  C   UNL A   1      43.327  22.684  25.500  1.00  0.00     0.135 A 
ATOM     65  F   UNL A   1      43.587  22.814  29.129  1.00  0.00    -0.206 F 
ATOM     66  C   UNL A   1      42.925  21.056  27.726  1.00  0.00     0.059 A 
ATOM     67  C   UNL A   1      42.870  21.381  25.320  1.00  0.00     0.059 A 
ATOM     68  F   UNL A   1      43.527  23.437  24.408  1.00  0.00    -0.206 F 
ATOM     69  C   UNL A   1      42.685  20.569  26.440  1.00  0.00     0.060 A 
BRANCH  69  70
ATOM     70  S   UNL A   1      42.121  18.864  26.255  1.00  0.00     0.124 S 
ATOM     71  O   UNL A   1      42.279  18.357  27.614  1.00  0.00    -0.237 OA
ATOM     72  O   UNL A   1      40.746  19.039  25.799  1.00  0.00    -0.237 OA
ATOM     73  O   UNL A   1      43.040  18.307  25.267  1.00  0.00    -0.744 OA
ENDBRANCH  69  70
ENDBRANCH  48  62
BRANCH  49  74
ATOM     74  C   UNL A   1      46.299  32.724  28.364  1.00  0.00     0.058 A 
ATOM     75  C   UNL A   1      46.825  33.119  29.604  1.00  0.00     0.135 A 
ATOM     76  C   UNL A   1      46.192  33.701  27.362  1.00  0.00     0.135 A 
ATOM     77  F   UNL A   1      46.945  32.224  30.597  1.00  0.00    -0.206 F 
ATOM     78  C   UNL A   1      47.208  34.433  29.850  1.00  0.00     0.059 A 
ATOM     79  C   UNL A   1      46.598  35.015  27.573  1.00  0.00     0.059 A 
ATOM     80  F   UNL A   1      45.716  33.372  26.151  1.00  0.00    -0.206 F 
ATOM     81  C   UNL A   1      47.094  35.374  28.826  1.00  0.00     0.060 A 
BRANCH  81  82
ATOM     82  S   UNL A   1      47.637  37.068  29.139  1.00  0.00     0.124 S 
ATOM     83  O   UNL A   1      48.787  36.852  30.009  1.00  0.00    -0.237 OA
ATOM     84  O   UNL A   1      47.935  37.548  27.793  1.00  0.00    -0.237 OA
ATOM     85  O   UNL A   1      46.474  37.682  29.772  1.00  0.00    -0.744 OA
ENDBRANCH  81  82
ENDBRANCH  49  74
BRANCH  61  86
ATOM     86  C   UNL A   1      49.534  27.156  25.686  1.00  0.00     0.058 A 
ATOM     87  C   UNL A   1      49.795  27.338  24.319  1.00  0.00     0.135 A 
ATOM     88  C   UNL A   1      50.608  26.796  26.516  1.00  0.00     0.135 A 
ATOM     89  F   UNL A   1      48.804  27.684  23.481  1.00  0.00    -0.206 F 
ATOM     90  C   UNL A   1      51.059  27.114  23.785  1.00  0.00     0.059 A 
ATOM     91  C   UNL A   1      51.888  26.601  26.009  1.00  0.00     0.059 A 
ATOM     92  F   UNL A   1      50.419  26.626  27.835  1.00  0.00    -0.206 F 
ATOM     93  C   UNL A   1      52.099  26.738  24.639  1.00  0.00     0.060 A 
BRANCH  93  94
ATOM     94  S   UNL A   1      53.730  26.431  23.932  1.00  0.00     0.124 S 
ATOM     95  O   UNL A   1      53.390  26.073  22.559  1.00  0.00    -0.237 OA
ATOM     96  O   UNL A   1      54.395  27.719  24.106  1.00  0.00    -0.237 OA
ATOM     97  O   UNL A   1      54.256  25.343  24.752  1.00  0.00    -0.744 OA
ENDBRANCH  93  94
ENDBRANCH  61  86
ENDBRANCH  35  36
ENDBRANCH  27  30
ENDBRANCH  25  26
ENDBRANCH  24  25
ENDBRANCH   1  24
TORSDOF 19
ENDMDL
