MODEL 1
REMARK VINA RESULT:     -11.9      0.000      0.000
REMARK SMILES C=CCn1nc(C(=O)NCCCCNC(=O)c2ccc(-c3c4nc(c(-c5c(F)cc(S(=O)(=O)[O-])cc5F)c5ccc([nH]5)c(-c5c(F)cc(S(=O)(=O)[O-])cc5F)c5nc(c(-c6c(F)cc(S(=O)(=O)[O-])cc6F)c6ccc3[nH]6)C=C5)C=C4)cc2)c2c1CC[C@@H]([NH2+]Cc1nc(C)cc(=O)[nH]1)C2
REMARK SMILES IDX 11 1 10 2 9 3 7 4 8 5 6 7 4 8 5 9 84 10 83 11 85 12 98 13
REMARK SMILES IDX 86 14 87 15 3 16 2 17 1 18 88 19 89 22 90 23 91 24 97 25
REMARK SMILES IDX 92 26 95 27 93 29 94 30 96 31 12 32 13 33 14 34 15 35 16 37
REMARK SMILES IDX 17 38 18 39 82 40 19 41 81 42 20 43 21 44 22 45 75 46 23 47
REMARK SMILES IDX 80 48 74 49 76 50 24 51 79 52 73 53 72 54 25 56 59 57 38 58
REMARK SMILES IDX 58 59 39 60 42 61 57 62 77 63 40 64 41 65 56 67 78 68 43 69
REMARK SMILES IDX 26 70 27 71 36 72 28 73 29 74 35 75 37 76 30 77 31 78 32 79
REMARK SMILES IDX 33 80 34 81 60 82 61 83 70 84 62 85 63 86 69 87 71 88 64 89
REMARK SMILES IDX 65 90 66 91 67 92 68 93 44 94 45 95 54 96 46 97 47 98 53 99
REMARK SMILES IDX 55 100 48 101 49 102 50 103 51 104 52 105
REMARK H PARENT 9 6 88 20 88 21 97 28 14 36 76 55 42 66
REMARK Flexibility Score: inf
ROOT
ATOM      1  C   UNL A   1      40.506  21.308  27.381  1.00  0.00     0.023 C 
ENDROOT
BRANCH   1   2
ATOM      2  C   UNL A   1      39.487  21.482  26.235  1.00  0.00     0.116 C 
BRANCH   2   3
ATOM      3  N   UNL A   1      38.819  22.772  26.265  1.00  0.00    -0.351 N 
ATOM      4  C   UNL A   1      37.562  23.267  25.989  1.00  0.00     0.272 C 
ATOM      5  O   UNL A   1      37.444  24.459  26.309  1.00  0.00    -0.267 OA
ATOM      6  H   UNL A   1      39.428  23.485  26.565  1.00  0.00     0.163 HD
BRANCH   4   7
ATOM      7  C   UNL A   1      36.427  22.538  25.344  1.00  0.00     0.153 A 
ATOM      8  N   UNL A   1      35.044  20.877  25.173  1.00  0.00    -0.265 N 
ATOM      9  N   UNL A   1      36.126  21.310  25.839  1.00  0.00    -0.167 NA
ATOM     10  C   UNL A   1      34.581  21.794  24.284  1.00  0.00     0.043 A 
ATOM     11  C   UNL A   1      35.474  22.849  24.323  1.00  0.00     0.012 A 
ATOM     12  C   UNL A   1      33.312  21.730  23.507  1.00  0.00     0.062 C 
ATOM     13  C   UNL A   1      35.263  24.024  23.458  1.00  0.00     0.105 C 
ATOM     14  C   UNL A   1      33.260  22.861  22.466  1.00  0.00     0.072 C 
ATOM     15  C   UNL A   1      33.801  24.207  22.990  1.00  0.00     0.187 C 
BRANCH   8  16
ATOM     16  C   UNL A   1      34.457  19.583  25.515  1.00  0.00     0.171 C 
BRANCH  16  17
ATOM     17  C   UNL A   1      34.710  18.540  24.461  1.00  0.00    -0.011 C 
ATOM     18  C   UNL A   1      33.746  17.846  23.841  1.00  0.00     0.006 C 
ENDBRANCH  16  17
ENDBRANCH   8  16
BRANCH  15  19
ATOM     19  N   UNL A   1      33.014  24.791  24.105  1.00  0.00    -0.337 N 
ATOM     20  H   UNL A   1      33.450  25.668  24.393  1.00  0.00     0.346 HD
ATOM     21  H   UNL A   1      33.003  24.117  24.870  1.00  0.00     0.346 HD
BRANCH  19  22
ATOM     22  C   UNL A   1      31.624  25.058  23.715  1.00  0.00     0.337 C 
BRANCH  22  23
ATOM     23  C   UNL A   1      31.325  26.552  23.779  1.00  0.00     0.164 A 
ATOM     24  N   UNL A   1      31.617  27.215  24.854  1.00  0.00    -0.234 NA
ATOM     25  N   UNL A   1      30.721  27.124  22.695  1.00  0.00    -0.306 N 
ATOM     26  C   UNL A   1      31.333  28.558  24.869  1.00  0.00     0.045 A 
ATOM     27  C   UNL A   1      30.351  28.435  22.669  1.00  0.00     0.251 A 
ATOM     28  H   UNL A   1      30.547  26.567  21.902  1.00  0.00     0.171 HD
ATOM     29  C   UNL A   1      31.787  29.299  26.091  1.00  0.00     0.067 C 
ATOM     30  C   UNL A   1      30.713  29.201  23.870  1.00  0.00     0.095 A 
ATOM     31  O   UNL A   1      29.772  28.958  21.729  1.00  0.00    -0.270 OA
ENDBRANCH  22  23
ENDBRANCH  19  22
ENDBRANCH  15  19
ENDBRANCH   4   7
ENDBRANCH   2   3
ENDBRANCH   1   2
BRANCH   1  32
ATOM     32  C   UNL A   1      41.686  20.369  27.120  1.00  0.00     0.023 C 
BRANCH  32  33
ATOM     33  C   UNL A   1      41.837  19.970  25.654  1.00  0.00     0.116 C 
BRANCH  33  34
ATOM     34  N   UNL A   1      43.184  19.499  25.315  1.00  0.00    -0.352 N 
ATOM     35  C   UNL A   1      44.256  20.275  24.904  1.00  0.00     0.251 C 
ATOM     36  H   UNL A   1      43.343  18.530  25.387  1.00  0.00     0.163 HD
ATOM     37  O   UNL A   1      45.179  19.795  24.262  1.00  0.00    -0.269 OA
BRANCH  35  38
ATOM     38  C   UNL A   1      44.259  21.696  25.290  1.00  0.00     0.039 A 
ATOM     39  C   UNL A   1      43.368  22.612  24.725  1.00  0.00     0.014 A 
ATOM     40  C   UNL A   1      45.132  22.069  26.311  1.00  0.00     0.014 A 
ATOM     41  C   UNL A   1      43.297  23.894  25.269  1.00  0.00     0.010 A 
ATOM     42  C   UNL A   1      44.974  23.289  26.921  1.00  0.00     0.010 A 
ATOM     43  C   UNL A   1      44.085  24.218  26.387  1.00  0.00    -0.014 A 
BRANCH  43  44
ATOM     44  C   UNL A   1      43.872  25.469  27.115  1.00  0.00     0.031 A 
ATOM     45  C   UNL A   1      44.885  26.527  26.820  1.00  0.00     0.074 A 
ATOM     46  C   UNL A   1      42.733  25.739  27.790  1.00  0.00     0.049 A 
ATOM     47  N   UNL A   1      45.782  27.011  27.613  1.00  0.00    -0.248 NA
ATOM     48  C   UNL A   1      45.025  26.989  25.427  1.00  0.00     0.031 C 
ATOM     49  C   UNL A   1      41.516  24.922  27.880  1.00  0.00     0.029 A 
ATOM     50  N   UNL A   1      42.372  26.867  28.459  1.00  0.00    -0.354 N 
ATOM     51  C   UNL A   1      46.429  28.017  26.896  1.00  0.00     0.074 A 
ATOM     52  C   UNL A   1      46.079  27.804  25.518  1.00  0.00     0.031 C 
ATOM     53  C   UNL A   1      40.494  25.674  28.347  1.00  0.00     0.029 A 
ATOM     54  C   UNL A   1      41.011  26.968  28.750  1.00  0.00     0.049 A 
ATOM     55  H   UNL A   1      43.021  27.559  28.720  1.00  0.00     0.167 HD
ATOM     56  C   UNL A   1      46.988  29.089  27.531  1.00  0.00     0.037 A 
ATOM     57  C   UNL A   1      40.363  28.047  29.264  1.00  0.00     0.037 A 
ATOM     58  C   UNL A   1      47.129  28.822  28.943  1.00  0.00     0.049 A 
ATOM     59  C   UNL A   1      41.400  28.912  29.886  1.00  0.00     0.074 A 
ATOM     60  C   UNL A   1      47.780  27.859  29.692  1.00  0.00     0.029 A 
ATOM     61  N   UNL A   1      46.210  29.392  29.791  1.00  0.00    -0.354 N 
ATOM     62  N   UNL A   1      42.085  28.574  30.943  1.00  0.00    -0.248 NA
ATOM     63  C   UNL A   1      42.001  29.943  29.056  1.00  0.00     0.031 C 
ATOM     64  C   UNL A   1      46.885  27.561  30.763  1.00  0.00     0.029 A 
ATOM     65  C   UNL A   1      45.789  28.418  30.660  1.00  0.00     0.049 A 
ATOM     66  H   UNL A   1      45.910  30.329  29.779  1.00  0.00     0.167 HD
ATOM     67  C   UNL A   1      43.376  29.005  30.679  1.00  0.00     0.074 A 
ATOM     68  C   UNL A   1      43.245  29.913  29.539  1.00  0.00     0.031 C 
ATOM     69  C   UNL A   1      44.457  28.365  31.217  1.00  0.00     0.037 A 
BRANCH  56  70
ATOM     70  C   UNL A   1      47.043  30.502  26.978  1.00  0.00     0.058 A 
ATOM     71  C   UNL A   1      48.268  31.205  27.022  1.00  0.00     0.135 A 
ATOM     72  C   UNL A   1      45.912  31.291  26.673  1.00  0.00     0.135 A 
ATOM     73  F   UNL A   1      49.418  30.565  27.291  1.00  0.00    -0.206 F 
ATOM     74  C   UNL A   1      48.347  32.591  26.877  1.00  0.00     0.059 A 
ATOM     75  C   UNL A   1      45.976  32.667  26.471  1.00  0.00     0.059 A 
ATOM     76  F   UNL A   1      44.672  30.794  26.642  1.00  0.00    -0.206 F 
ATOM     77  C   UNL A   1      47.190  33.316  26.618  1.00  0.00     0.060 A 
BRANCH  77  78
ATOM     78  S   UNL A   1      47.272  35.111  26.520  1.00  0.00     0.124 S 
ATOM     79  O   UNL A   1      48.557  35.307  25.860  1.00  0.00    -0.237 OA
ATOM     80  O   UNL A   1      46.088  35.423  25.726  1.00  0.00    -0.237 OA
ATOM     81  O   UNL A   1      47.208  35.525  27.919  1.00  0.00    -0.744 OA
ENDBRANCH  77  78
ENDBRANCH  56  70
BRANCH  57  82
ATOM     82  C   UNL A   1      38.989  28.557  28.988  1.00  0.00     0.058 A 
ATOM     83  C   UNL A   1      38.046  28.677  30.028  1.00  0.00     0.135 A 
ATOM     84  C   UNL A   1      38.680  29.233  27.793  1.00  0.00     0.135 A 
ATOM     85  F   UNL A   1      38.256  28.067  31.204  1.00  0.00    -0.206 F 
ATOM     86  C   UNL A   1      36.912  29.490  29.921  1.00  0.00     0.059 A 
ATOM     87  C   UNL A   1      37.550  30.043  27.659  1.00  0.00     0.059 A 
ATOM     88  F   UNL A   1      39.522  29.210  26.748  1.00  0.00    -0.206 F 
ATOM     89  C   UNL A   1      36.690  30.197  28.741  1.00  0.00     0.060 A 
BRANCH  89  90
ATOM     90  S   UNL A   1      35.362  31.425  28.679  1.00  0.00     0.124 S 
ATOM     91  O   UNL A   1      35.179  31.744  30.091  1.00  0.00    -0.237 OA
ATOM     92  O   UNL A   1      35.952  32.477  27.859  1.00  0.00    -0.237 OA
ATOM     93  O   UNL A   1      34.259  30.699  28.055  1.00  0.00    -0.744 OA
ENDBRANCH  89  90
ENDBRANCH  57  82
BRANCH  69  94
ATOM     94  C   UNL A   1      44.222  27.390  32.345  1.00  0.00     0.058 A 
ATOM     95  C   UNL A   1      44.095  25.996  32.201  1.00  0.00     0.135 A 
ATOM     96  C   UNL A   1      44.241  27.896  33.653  1.00  0.00     0.135 A 
ATOM     97  F   UNL A   1      44.179  25.412  30.998  1.00  0.00    -0.206 F 
ATOM     98  C   UNL A   1      43.930  25.155  33.305  1.00  0.00     0.059 A 
ATOM     99  C   UNL A   1      44.116  27.074  34.768  1.00  0.00     0.059 A 
ATOM    100  F   UNL A   1      44.423  29.211  33.864  1.00  0.00    -0.206 F 
ATOM    101  C   UNL A   1      43.936  25.706  34.586  1.00  0.00     0.060 A 
BRANCH 101 102
ATOM    102  S   UNL A   1      43.748  24.622  36.017  1.00  0.00     0.124 S 
ATOM    103  O   UNL A   1      43.941  23.301  35.429  1.00  0.00    -0.237 OA
ATOM    104  O   UNL A   1      44.810  25.081  36.906  1.00  0.00    -0.237 OA
ATOM    105  O   UNL A   1      42.392  24.904  36.484  1.00  0.00    -0.744 OA
ENDBRANCH 101 102
ENDBRANCH  69  94
ENDBRANCH  43  44
ENDBRANCH  35  38
ENDBRANCH  33  34
ENDBRANCH  32  33
ENDBRANCH   1  32
TORSDOF 19
ENDMDL
MODEL 2
REMARK VINA RESULT:     -11.9      2.710      9.650
REMARK SMILES C=CCn1nc(C(=O)NCCCCNC(=O)c2ccc(-c3c4nc(c(-c5c(F)cc(S(=O)(=O)[O-])cc5F)c5ccc([nH]5)c(-c5c(F)cc(S(=O)(=O)[O-])cc5F)c5nc(c(-c6c(F)cc(S(=O)(=O)[O-])cc6F)c6ccc3[nH]6)C=C5)C=C4)cc2)c2c1CC[C@@H]([NH2+]Cc1nc(C)cc(=O)[nH]1)C2
REMARK SMILES IDX 11 1 10 2 9 3 7 4 8 5 6 7 4 8 5 9 84 10 83 11 85 12 98 13
REMARK SMILES IDX 86 14 87 15 3 16 2 17 1 18 88 19 89 22 90 23 91 24 97 25
REMARK SMILES IDX 92 26 95 27 93 29 94 30 96 31 12 32 13 33 14 34 15 35 16 37
REMARK SMILES IDX 17 38 18 39 82 40 19 41 81 42 20 43 21 44 22 45 75 46 23 47
REMARK SMILES IDX 80 48 74 49 76 50 24 51 79 52 73 53 72 54 25 56 59 57 38 58
REMARK SMILES IDX 58 59 39 60 42 61 57 62 77 63 40 64 41 65 56 67 78 68 43 69
REMARK SMILES IDX 26 70 27 71 36 72 28 73 29 74 35 75 37 76 30 77 31 78 32 79
REMARK SMILES IDX 33 80 34 81 60 82 61 83 70 84 62 85 63 86 69 87 71 88 64 89
REMARK SMILES IDX 65 90 66 91 67 92 68 93 44 94 45 95 54 96 46 97 47 98 53 99
REMARK SMILES IDX 55 100 48 101 49 102 50 103 51 104 52 105
REMARK H PARENT 9 6 88 20 88 21 97 28 14 36 76 55 42 66
REMARK Flexibility Score: inf
ROOT
ATOM      1  C   UNL A   1      33.963  30.715  26.811  1.00  0.00     0.023 C 
ENDROOT
BRANCH   1   2
ATOM      2  C   UNL A   1      34.058  29.275  27.355  1.00  0.00     0.116 C 
BRANCH   2   3
ATOM      3  N   UNL A   1      32.775  28.749  27.788  1.00  0.00    -0.351 N 
ATOM      4  C   UNL A   1      31.754  27.997  27.246  1.00  0.00     0.272 C 
ATOM      5  O   UNL A   1      30.898  27.687  28.087  1.00  0.00    -0.267 OA
ATOM      6  H   UNL A   1      32.583  28.994  28.721  1.00  0.00     0.163 HD
BRANCH   4   7
ATOM      7  C   UNL A   1      31.593  27.593  25.815  1.00  0.00     0.153 A 
ATOM      8  N   UNL A   1      31.290  28.012  23.709  1.00  0.00    -0.265 N 
ATOM      9  N   UNL A   1      31.316  28.580  24.925  1.00  0.00    -0.167 NA
ATOM     10  C   UNL A   1      31.588  26.687  23.750  1.00  0.00     0.043 A 
ATOM     11  C   UNL A   1      31.732  26.368  25.088  1.00  0.00     0.012 A 
ATOM     12  C   UNL A   1      31.823  25.784  22.590  1.00  0.00     0.062 C 
ATOM     13  C   UNL A   1      32.054  24.985  25.484  1.00  0.00     0.105 C 
ATOM     14  C   UNL A   1      31.928  24.321  23.057  1.00  0.00     0.072 C 
ATOM     15  C   UNL A   1      32.722  24.149  24.369  1.00  0.00     0.187 C 
BRANCH   8  16
ATOM     16  C   UNL A   1      31.049  28.841  22.531  1.00  0.00     0.171 C 
BRANCH  16  17
ATOM     17  C   UNL A   1      29.594  29.175  22.350  1.00  0.00    -0.011 C 
ATOM     18  C   UNL A   1      29.130  30.403  22.079  1.00  0.00     0.006 C 
ENDBRANCH  16  17
ENDBRANCH   8  16
BRANCH  15  19
ATOM     19  N   UNL A   1      34.151  24.537  24.274  1.00  0.00    -0.337 N 
ATOM     20  H   UNL A   1      34.536  24.613  25.217  1.00  0.00     0.346 HD
ATOM     21  H   UNL A   1      34.205  25.428  23.782  1.00  0.00     0.346 HD
BRANCH  19  22
ATOM     22  C   UNL A   1      34.938  23.553  23.520  1.00  0.00     0.337 C 
BRANCH  22  23
ATOM     23  C   UNL A   1      36.105  23.041  24.357  1.00  0.00     0.164 A 
ATOM     24  N   UNL A   1      36.780  23.873  25.086  1.00  0.00    -0.234 NA
ATOM     25  N   UNL A   1      36.410  21.712  24.270  1.00  0.00    -0.306 N 
ATOM     26  C   UNL A   1      37.822  23.369  25.825  1.00  0.00     0.045 A 
ATOM     27  C   UNL A   1      37.470  21.160  24.925  1.00  0.00     0.251 A 
ATOM     28  H   UNL A   1      35.843  21.131  23.715  1.00  0.00     0.171 HD
ATOM     29  C   UNL A   1      38.502  24.351  26.732  1.00  0.00     0.067 C 
ATOM     30  C   UNL A   1      38.218  22.090  25.783  1.00  0.00     0.095 A 
ATOM     31  O   UNL A   1      37.789  19.983  24.829  1.00  0.00    -0.270 OA
ENDBRANCH  22  23
ENDBRANCH  19  22
ENDBRANCH  15  19
ENDBRANCH   4   7
ENDBRANCH   2   3
ENDBRANCH   1   2
BRANCH   1  32
ATOM     32  C   UNL A   1      33.256  31.744  27.696  1.00  0.00     0.023 C 
BRANCH  32  33
ATOM     33  C   UNL A   1      34.180  32.847  28.208  1.00  0.00     0.116 C 
BRANCH  33  34
ATOM     34  N   UNL A   1      34.074  33.070  29.654  1.00  0.00    -0.352 N 
ATOM     35  C   UNL A   1      34.810  32.442  30.647  1.00  0.00     0.251 C 
ATOM     36  H   UNL A   1      33.412  33.736  29.951  1.00  0.00     0.163 HD
ATOM     37  O   UNL A   1      34.397  32.370  31.794  1.00  0.00    -0.269 OA
BRANCH  35  38
ATOM     38  C   UNL A   1      36.123  31.887  30.276  1.00  0.00     0.039 A 
ATOM     39  C   UNL A   1      37.233  32.708  30.060  1.00  0.00     0.014 A 
ATOM     40  C   UNL A   1      36.231  30.498  30.236  1.00  0.00     0.014 A 
ATOM     41  C   UNL A   1      38.482  32.111  29.898  1.00  0.00     0.010 A 
ATOM     42  C   UNL A   1      37.475  29.918  30.199  1.00  0.00     0.010 A 
ATOM     43  C   UNL A   1      38.601  30.713  29.996  1.00  0.00    -0.014 A 
BRANCH  43  44
ATOM     44  C   UNL A   1      39.916  30.076  30.055  1.00  0.00     0.031 A 
ATOM     45  C   UNL A   1      40.404  29.810  31.441  1.00  0.00     0.074 A 
ATOM     46  C   UNL A   1      40.523  29.545  28.970  1.00  0.00     0.049 A 
ATOM     47  N   UNL A   1      41.397  30.363  32.054  1.00  0.00    -0.248 NA
ATOM     48  C   UNL A   1      39.589  28.941  32.312  1.00  0.00     0.031 C 
ATOM     49  C   UNL A   1      40.003  29.437  27.601  1.00  0.00     0.029 A 
ATOM     50  N   UNL A   1      41.706  28.879  28.881  1.00  0.00    -0.354 N 
ATOM     51  C   UNL A   1      41.489  29.728  33.293  1.00  0.00     0.074 A 
ATOM     52  C   UNL A   1      40.239  29.039  33.474  1.00  0.00     0.031 C 
ATOM     53  C   UNL A   1      40.744  28.552  26.899  1.00  0.00     0.029 A 
ATOM     54  C   UNL A   1      41.888  28.159  27.700  1.00  0.00     0.049 A 
ATOM     55  H   UNL A   1      42.383  28.905  29.595  1.00  0.00     0.167 HD
ATOM     56  C   UNL A   1      42.684  29.615  33.941  1.00  0.00     0.037 A 
ATOM     57  C   UNL A   1      42.896  27.290  27.421  1.00  0.00     0.037 A 
ATOM     58  C   UNL A   1      43.654  30.523  33.375  1.00  0.00     0.049 A 
ATOM     59  C   UNL A   1      43.995  27.587  28.376  1.00  0.00     0.074 A 
ATOM     60  C   UNL A   1      43.718  31.893  33.197  1.00  0.00     0.029 A 
ATOM     61  N   UNL A   1      44.597  29.995  32.526  1.00  0.00    -0.354 N 
ATOM     62  N   UNL A   1      44.683  28.695  28.365  1.00  0.00    -0.248 NA
ATOM     63  C   UNL A   1      44.008  26.857  29.633  1.00  0.00     0.031 C 
ATOM     64  C   UNL A   1      44.314  32.067  31.912  1.00  0.00     0.029 A 
ATOM     65  C   UNL A   1      44.662  30.808  31.424  1.00  0.00     0.049 A 
ATOM     66  H   UNL A   1      45.129  29.182  32.681  1.00  0.00     0.167 HD
ATOM     67  C   UNL A   1      44.838  29.027  29.702  1.00  0.00     0.074 A 
ATOM     68  C   UNL A   1      44.473  27.816  30.437  1.00  0.00     0.031 C 
ATOM     69  C   UNL A   1      44.965  30.330  30.094  1.00  0.00     0.037 A 
BRANCH  56  70
ATOM     70  C   UNL A   1      43.104  28.438  34.804  1.00  0.00     0.058 A 
ATOM     71  C   UNL A   1      43.586  28.684  36.109  1.00  0.00     0.135 A 
ATOM     72  C   UNL A   1      43.323  27.127  34.324  1.00  0.00     0.135 A 
ATOM     73  F   UNL A   1      43.429  29.889  36.683  1.00  0.00    -0.206 F 
ATOM     74  C   UNL A   1      44.313  27.740  36.836  1.00  0.00     0.059 A 
ATOM     75  C   UNL A   1      44.000  26.153  35.054  1.00  0.00     0.059 A 
ATOM     76  F   UNL A   1      42.977  26.742  33.092  1.00  0.00    -0.206 F 
ATOM     77  C   UNL A   1      44.530  26.481  36.290  1.00  0.00     0.060 A 
BRANCH  77  78
ATOM     78  S   UNL A   1      45.544  25.291  37.182  1.00  0.00     0.124 S 
ATOM     79  O   UNL A   1      46.373  26.170  37.997  1.00  0.00    -0.237 OA
ATOM     80  O   UNL A   1      44.536  24.514  37.897  1.00  0.00    -0.237 OA
ATOM     81  O   UNL A   1      46.238  24.576  36.114  1.00  0.00    -0.744 OA
ENDBRANCH  77  78
ENDBRANCH  56  70
BRANCH  57  82
ATOM     82  C   UNL A   1      42.874  26.026  26.630  1.00  0.00     0.058 A 
ATOM     83  C   UNL A   1      43.717  25.865  25.511  1.00  0.00     0.135 A 
ATOM     84  C   UNL A   1      42.285  24.851  27.134  1.00  0.00     0.135 A 
ATOM     85  F   UNL A   1      44.321  26.929  24.963  1.00  0.00    -0.206 F 
ATOM     86  C   UNL A   1      44.026  24.608  24.982  1.00  0.00     0.059 A 
ATOM     87  C   UNL A   1      42.573  23.586  26.616  1.00  0.00     0.059 A 
ATOM     88  F   UNL A   1      41.489  24.885  28.213  1.00  0.00    -0.206 F 
ATOM     89  C   UNL A   1      43.473  23.468  25.563  1.00  0.00     0.060 A 
BRANCH  89  90
ATOM     90  S   UNL A   1      44.050  21.835  25.037  1.00  0.00     0.124 S 
ATOM     91  O   UNL A   1      45.269  21.677  25.823  1.00  0.00    -0.237 OA
ATOM     92  O   UNL A   1      42.933  20.977  25.416  1.00  0.00    -0.237 OA
ATOM     93  O   UNL A   1      44.249  21.995  23.600  1.00  0.00    -0.744 OA
ENDBRANCH  89  90
ENDBRANCH  57  82
BRANCH  69  94
ATOM     94  C   UNL A   1      45.251  31.370  29.039  1.00  0.00     0.058 A 
ATOM     95  C   UNL A   1      46.521  31.654  28.502  1.00  0.00     0.135 A 
ATOM     96  C   UNL A   1      44.155  32.031  28.465  1.00  0.00     0.135 A 
ATOM     97  F   UNL A   1      47.611  30.989  28.909  1.00  0.00    -0.206 F 
ATOM     98  C   UNL A   1      46.694  32.600  27.487  1.00  0.00     0.059 A 
ATOM     99  C   UNL A   1      44.301  32.948  27.429  1.00  0.00     0.059 A 
ATOM    100  F   UNL A   1      42.908  31.759  28.887  1.00  0.00    -0.206 F 
ATOM    101  C   UNL A   1      45.577  33.246  26.961  1.00  0.00     0.060 A 
BRANCH 101 102
ATOM    102  S   UNL A   1      45.794  34.450  25.634  1.00  0.00     0.124 S 
ATOM    103  O   UNL A   1      47.238  34.428  25.432  1.00  0.00    -0.237 OA
ATOM    104  O   UNL A   1      44.993  33.881  24.554  1.00  0.00    -0.237 OA
ATOM    105  O   UNL A   1      45.263  35.687  26.205  1.00  0.00    -0.744 OA
ENDBRANCH 101 102
ENDBRANCH  69  94
ENDBRANCH  43  44
ENDBRANCH  35  38
ENDBRANCH  33  34
ENDBRANCH  32  33
ENDBRANCH   1  32
TORSDOF 19
ENDMDL
MODEL 3
REMARK VINA RESULT:     -11.8      3.873      9.656
REMARK SMILES C=CCn1nc(C(=O)NCCCCNC(=O)c2ccc(-c3c4nc(c(-c5c(F)cc(S(=O)(=O)[O-])cc5F)c5ccc([nH]5)c(-c5c(F)cc(S(=O)(=O)[O-])cc5F)c5nc(c(-c6c(F)cc(S(=O)(=O)[O-])cc6F)c6ccc3[nH]6)C=C5)C=C4)cc2)c2c1CC[C@@H]([NH2+]Cc1nc(C)cc(=O)[nH]1)C2
REMARK SMILES IDX 11 1 10 2 9 3 7 4 8 5 6 7 4 8 5 9 84 10 83 11 85 12 98 13
REMARK SMILES IDX 86 14 87 15 3 16 2 17 1 18 88 19 89 22 90 23 91 24 97 25
REMARK SMILES IDX 92 26 95 27 93 29 94 30 96 31 12 32 13 33 14 34 15 35 16 37
REMARK SMILES IDX 17 38 18 39 82 40 19 41 81 42 20 43 21 44 22 45 75 46 23 47
REMARK SMILES IDX 80 48 74 49 76 50 24 51 79 52 73 53 72 54 25 56 59 57 38 58
REMARK SMILES IDX 58 59 39 60 42 61 57 62 77 63 40 64 41 65 56 67 78 68 43 69
REMARK SMILES IDX 26 70 27 71 36 72 28 73 29 74 35 75 37 76 30 77 31 78 32 79
REMARK SMILES IDX 33 80 34 81 60 82 61 83 70 84 62 85 63 86 69 87 71 88 64 89
REMARK SMILES IDX 65 90 66 91 67 92 68 93 44 94 45 95 54 96 46 97 47 98 53 99
REMARK SMILES IDX 55 100 48 101 49 102 50 103 51 104 52 105
REMARK H PARENT 9 6 88 20 88 21 97 28 14 36 76 55 42 66
REMARK Flexibility Score: inf
ROOT
ATOM      1  C   UNL A   1      32.011  30.204  27.032  1.00  0.00     0.023 C 
ENDROOT
BRANCH   1   2
ATOM      2  C   UNL A   1      33.447  29.692  26.795  1.00  0.00     0.116 C 
BRANCH   2   3
ATOM      3  N   UNL A   1      33.771  29.553  25.385  1.00  0.00    -0.351 N 
ATOM      4  C   UNL A   1      33.108  29.223  24.222  1.00  0.00     0.272 C 
ATOM      5  O   UNL A   1      33.814  29.379  23.216  1.00  0.00    -0.267 OA
ATOM      6  H   UNL A   1      34.720  29.749  25.214  1.00  0.00     0.163 HD
BRANCH   4   7
ATOM      7  C   UNL A   1      31.716  28.692  24.097  1.00  0.00     0.153 A 
ATOM      8  N   UNL A   1      29.744  28.627  23.197  1.00  0.00    -0.265 N 
ATOM      9  N   UNL A   1      30.904  29.304  23.198  1.00  0.00    -0.167 NA
ATOM     10  C   UNL A   1      29.770  27.554  24.029  1.00  0.00     0.043 A 
ATOM     11  C   UNL A   1      30.996  27.594  24.668  1.00  0.00     0.012 A 
ATOM     12  C   UNL A   1      28.738  26.487  24.150  1.00  0.00     0.062 C 
ATOM     13  C   UNL A   1      31.345  26.559  25.658  1.00  0.00     0.105 C 
ATOM     14  C   UNL A   1      29.048  25.570  25.347  1.00  0.00     0.072 C 
ATOM     15  C   UNL A   1      30.548  25.244  25.501  1.00  0.00     0.187 C 
BRANCH   8  16
ATOM     16  C   UNL A   1      28.672  29.034  22.291  1.00  0.00     0.171 C 
BRANCH  16  17
ATOM     17  C   UNL A   1      28.316  30.487  22.437  1.00  0.00    -0.011 C 
ATOM     18  C   UNL A   1      27.635  30.997  23.473  1.00  0.00     0.006 C 
ENDBRANCH  16  17
ENDBRANCH   8  16
BRANCH  15  19
ATOM     19  N   UNL A   1      31.125  24.469  24.374  1.00  0.00    -0.337 N 
ATOM     20  H   UNL A   1      32.075  24.800  24.198  1.00  0.00     0.346 HD
ATOM     21  H   UNL A   1      30.530  24.609  23.557  1.00  0.00     0.346 HD
BRANCH  19  22
ATOM     22  C   UNL A   1      31.170  23.030  24.662  1.00  0.00     0.337 C 
BRANCH  22  23
ATOM     23  C   UNL A   1      32.613  22.551  24.787  1.00  0.00     0.164 A 
ATOM     24  N   UNL A   1      33.564  23.421  24.923  1.00  0.00    -0.234 NA
ATOM     25  N   UNL A   1      32.840  21.205  24.714  1.00  0.00    -0.306 N 
ATOM     26  C   UNL A   1      34.847  22.946  25.033  1.00  0.00     0.045 A 
ATOM     27  C   UNL A   1      34.094  20.673  24.749  1.00  0.00     0.251 A 
ATOM     28  H   UNL A   1      32.070  20.598  24.633  1.00  0.00     0.171 HD
ATOM     29  C   UNL A   1      35.898  23.984  25.295  1.00  0.00     0.067 C 
ATOM     30  C   UNL A   1      35.175  21.650  24.941  1.00  0.00     0.095 A 
ATOM     31  O   UNL A   1      34.326  19.477  24.643  1.00  0.00    -0.270 OA
ENDBRANCH  22  23
ENDBRANCH  19  22
ENDBRANCH  15  19
ENDBRANCH   4   7
ENDBRANCH   2   3
ENDBRANCH   1   2
BRANCH   1  32
ATOM     32  C   UNL A   1      31.765  31.699  26.820  1.00  0.00     0.023 C 
BRANCH  32  33
ATOM     33  C   UNL A   1      32.960  32.573  27.194  1.00  0.00     0.116 C 
BRANCH  33  34
ATOM     34  N   UNL A   1      32.577  33.883  27.732  1.00  0.00    -0.352 N 
ATOM     35  C   UNL A   1      33.091  34.498  28.863  1.00  0.00     0.251 C 
ATOM     36  H   UNL A   1      31.883  34.377  27.239  1.00  0.00     0.163 HD
ATOM     37  O   UNL A   1      32.458  35.355  29.463  1.00  0.00    -0.269 OA
BRANCH  35  38
ATOM     38  C   UNL A   1      34.439  34.103  29.303  1.00  0.00     0.039 A 
ATOM     39  C   UNL A   1      34.635  33.229  30.375  1.00  0.00     0.014 A 
ATOM     40  C   UNL A   1      35.511  34.571  28.544  1.00  0.00     0.014 A 
ATOM     41  C   UNL A   1      35.922  32.751  30.618  1.00  0.00     0.010 A 
ATOM     42  C   UNL A   1      36.752  34.006  28.708  1.00  0.00     0.010 A 
ATOM     43  C   UNL A   1      36.974  33.123  29.762  1.00  0.00    -0.014 A 
BRANCH  43  44
ATOM     44  C   UNL A   1      38.279  32.468  29.852  1.00  0.00     0.031 A 
ATOM     45  C   UNL A   1      38.280  31.044  29.399  1.00  0.00     0.074 A 
ATOM     46  C   UNL A   1      39.426  33.147  30.076  1.00  0.00     0.049 A 
ATOM     47  N   UNL A   1      38.457  29.984  30.115  1.00  0.00    -0.248 NA
ATOM     48  C   UNL A   1      37.872  30.753  28.013  1.00  0.00     0.031 C 
ATOM     49  C   UNL A   1      39.612  34.598  30.203  1.00  0.00     0.029 A 
ATOM     50  N   UNL A   1      40.705  32.688  30.129  1.00  0.00    -0.354 N 
ATOM     51  C   UNL A   1      38.438  28.910  29.225  1.00  0.00     0.074 A 
ATOM     52  C   UNL A   1      37.862  29.418  28.009  1.00  0.00     0.031 C 
ATOM     53  C   UNL A   1      40.922  34.905  30.075  1.00  0.00     0.029 A 
ATOM     54  C   UNL A   1      41.688  33.674  30.029  1.00  0.00     0.049 A 
ATOM     55  H   UNL A   1      40.922  31.733  30.231  1.00  0.00     0.167 HD
ATOM     56  C   UNL A   1      39.137  27.766  29.484  1.00  0.00     0.037 A 
ATOM     57  C   UNL A   1      43.028  33.481  29.898  1.00  0.00     0.037 A 
ATOM     58  C   UNL A   1      39.524  27.714  30.874  1.00  0.00     0.049 A 
ATOM     59  C   UNL A   1      43.305  32.089  30.341  1.00  0.00     0.074 A 
ATOM     60  C   UNL A   1      38.842  27.740  32.076  1.00  0.00     0.029 A 
ATOM     61  N   UNL A   1      40.827  28.023  31.181  1.00  0.00    -0.354 N 
ATOM     62  N   UNL A   1      43.168  31.680  31.572  1.00  0.00    -0.248 NA
ATOM     63  C   UNL A   1      43.277  31.045  29.329  1.00  0.00     0.031 C 
ATOM     64  C   UNL A   1      39.645  28.547  32.936  1.00  0.00     0.029 A 
ATOM     65  C   UNL A   1      40.808  28.888  32.245  1.00  0.00     0.049 A 
ATOM     66  H   UNL A   1      41.630  27.684  30.722  1.00  0.00     0.167 HD
ATOM     67  C   UNL A   1      42.599  30.422  31.464  1.00  0.00     0.074 A 
ATOM     68  C   UNL A   1      42.765  30.050  30.058  1.00  0.00     0.031 C 
ATOM     69  C   UNL A   1      41.792  29.926  32.449  1.00  0.00     0.037 A 
BRANCH  56  70
ATOM     70  C   UNL A   1      39.808  26.895  28.437  1.00  0.00     0.058 A 
ATOM     71  C   UNL A   1      39.595  25.499  28.470  1.00  0.00     0.135 A 
ATOM     72  C   UNL A   1      40.859  27.318  27.592  1.00  0.00     0.135 A 
ATOM     73  F   UNL A   1      38.618  24.972  29.227  1.00  0.00    -0.206 F 
ATOM     74  C   UNL A   1      40.420  24.593  27.801  1.00  0.00     0.059 A 
ATOM     75  C   UNL A   1      41.660  26.435  26.874  1.00  0.00     0.059 A 
ATOM     76  F   UNL A   1      41.227  28.599  27.484  1.00  0.00    -0.206 F 
ATOM     77  C   UNL A   1      41.463  25.073  27.018  1.00  0.00     0.060 A 
BRANCH  77  78
ATOM     78  S   UNL A   1      42.585  23.908  26.227  1.00  0.00     0.124 S 
ATOM     79  O   UNL A   1      43.032  24.676  25.071  1.00  0.00    -0.237 OA
ATOM     80  O   UNL A   1      43.576  23.689  27.275  1.00  0.00    -0.237 OA
ATOM     81  O   UNL A   1      41.727  22.764  25.934  1.00  0.00    -0.744 OA
ENDBRANCH  77  78
ENDBRANCH  56  70
BRANCH  57  82
ATOM     82  C   UNL A   1      44.034  34.267  29.129  1.00  0.00     0.058 A 
ATOM     83  C   UNL A   1      45.360  34.385  29.593  1.00  0.00     0.135 A 
ATOM     84  C   UNL A   1      43.814  34.635  27.788  1.00  0.00     0.135 A 
ATOM     85  F   UNL A   1      45.664  34.057  30.858  1.00  0.00    -0.206 F 
ATOM     86  C   UNL A   1      46.416  34.758  28.755  1.00  0.00     0.059 A 
ATOM     87  C   UNL A   1      44.852  35.019  26.935  1.00  0.00     0.059 A 
ATOM     88  F   UNL A   1      42.596  34.534  27.235  1.00  0.00    -0.206 F 
ATOM     89  C   UNL A   1      46.156  35.042  27.416  1.00  0.00     0.060 A 
BRANCH  89  90
ATOM     90  S   UNL A   1      47.541  35.294  26.278  1.00  0.00     0.124 S 
ATOM     91  O   UNL A   1      47.497  36.736  26.062  1.00  0.00    -0.237 OA
ATOM     92  O   UNL A   1      48.673  34.801  27.055  1.00  0.00    -0.237 OA
ATOM     93  O   UNL A   1      47.181  34.478  25.122  1.00  0.00    -0.744 OA
ENDBRANCH  89  90
ENDBRANCH  57  82
BRANCH  69  94
ATOM     94  C   UNL A   1      41.785  30.626  33.786  1.00  0.00     0.058 A 
ATOM     95  C   UNL A   1      40.968  31.720  34.127  1.00  0.00     0.135 A 
ATOM     96  C   UNL A   1      42.572  30.078  34.809  1.00  0.00     0.135 A 
ATOM     97  F   UNL A   1      40.100  32.238  33.246  1.00  0.00    -0.206 F 
ATOM     98  C   UNL A   1      40.985  32.280  35.407  1.00  0.00     0.059 A 
ATOM     99  C   UNL A   1      42.577  30.595  36.101  1.00  0.00     0.059 A 
ATOM    100  F   UNL A   1      43.328  28.992  34.570  1.00  0.00    -0.206 F 
ATOM    101  C   UNL A   1      41.798  31.712  36.387  1.00  0.00     0.060 A 
BRANCH 101 102
ATOM    102  S   UNL A   1      41.805  32.417  38.049  1.00  0.00     0.124 S 
ATOM    103  O   UNL A   1      40.383  32.467  38.367  1.00  0.00    -0.237 OA
ATOM    104  O   UNL A   1      42.590  31.444  38.803  1.00  0.00    -0.237 OA
ATOM    105  O   UNL A   1      42.449  33.716  37.866  1.00  0.00    -0.744 OA
ENDBRANCH 101 102
ENDBRANCH  69  94
ENDBRANCH  43  44
ENDBRANCH  35  38
ENDBRANCH  33  34
ENDBRANCH  32  33
ENDBRANCH   1  32
TORSDOF 19
ENDMDL
