MODEL 1
REMARK VINA RESULT:     -12.6      0.000      0.000
REMARK SMILES O=C1Nc2ccc(Br)cc2/C1=N/c1ccc(C(=O)NCCCCNC(=O)c2ccc(-c3c4nc(c(-c5c(F)cc(S(=O)(=O)[O-])cc5F)c5ccc([nH]5)c(-c5c(F)cc(S(=O)(=O)[O-])cc5F)c5nc(c(-c6c(F)cc(S(=O)(=O)[O-])cc6F)c6ccc3[nH]6)C=C5)C=C4)cc2)cc1
REMARK SMILES IDX 22 1 21 2 20 3 19 4 17 5 18 6 16 8 13 9 14 10 94 11 15 12
REMARK SMILES IDX 93 13 12 14 1 15 2 16 3 17 11 18 4 19 10 21 5 22 9 23 6 24
REMARK SMILES IDX 7 25 8 26 23 27 24 28 25 29 26 31 27 32 28 33 92 34 29 35
REMARK SMILES IDX 91 36 30 37 31 38 32 39 85 40 33 41 90 42 84 43 86 44 34 45
REMARK SMILES IDX 89 46 83 47 82 48 35 50 69 51 48 52 68 53 49 54 52 55 67 56
REMARK SMILES IDX 87 57 50 58 51 59 66 61 88 62 53 63 36 64 37 65 46 66 38 67
REMARK SMILES IDX 39 68 45 69 47 70 40 71 41 72 42 73 43 74 44 75 70 76 71 77
REMARK SMILES IDX 80 78 72 79 73 80 79 81 81 82 74 83 75 84 76 85 77 86 78 87
REMARK SMILES IDX 54 88 55 89 64 90 56 91 57 92 63 93 65 94 58 95 59 96 60 97
REMARK SMILES IDX 61 98 62 99
REMARK H PARENT 19 7 3 20 24 30 86 49 52 60
REMARK Flexibility Score: inf
ROOT
ATOM      1  C   UNL A   1      33.248  28.270  25.654  1.00  0.00     0.023 C 
ENDROOT
BRANCH   1   2
ATOM      2  C   UNL A   1      32.716  29.523  24.954  1.00  0.00     0.023 C 
BRANCH   2   3
ATOM      3  C   UNL A   1      31.195  29.681  25.032  1.00  0.00     0.116 C 
BRANCH   3   4
ATOM      4  N   UNL A   1      30.642  29.907  23.711  1.00  0.00    -0.352 N 
ATOM      5  C   UNL A   1      30.400  29.053  22.665  1.00  0.00     0.251 C 
ATOM      6  O   UNL A   1      29.886  29.517  21.646  1.00  0.00    -0.269 OA
ATOM      7  H   UNL A   1      30.394  30.843  23.532  1.00  0.00     0.163 HD
BRANCH   5   8
ATOM      8  C   UNL A   1      30.679  27.592  22.730  1.00  0.00     0.039 A 
ATOM      9  C   UNL A   1      31.174  24.841  23.070  1.00  0.00     0.064 A 
ATOM     10  C   UNL A   1      30.173  25.469  23.809  1.00  0.00     0.029 A 
ATOM     11  C   UNL A   1      31.860  25.571  22.099  1.00  0.00     0.029 A 
ATOM     12  C   UNL A   1      29.931  26.836  23.646  1.00  0.00     0.016 A 
ATOM     13  C   UNL A   1      31.603  26.932  21.917  1.00  0.00     0.016 A 
BRANCH   9  14
ATOM     14  N   UNL A   1      31.430  23.477  23.230  1.00  0.00    -0.243 NA
ATOM     15  O   UNL A   1      33.363  25.135  25.057  1.00  0.00    -0.267 OA
ATOM     16  C   UNL A   1      33.376  23.945  24.870  1.00  0.00     0.275 C 
ATOM     17  N   UNL A   1      34.264  23.023  25.397  1.00  0.00    -0.320 N 
ATOM     18  C   UNL A   1      32.410  23.111  23.993  1.00  0.00     0.138 C 
ATOM     19  C   UNL A   1      33.964  21.736  24.969  1.00  0.00     0.051 A 
ATOM     20  H   UNL A   1      35.011  23.251  25.996  1.00  0.00     0.170 HD
ATOM     21  C   UNL A   1      32.847  21.726  24.138  1.00  0.00     0.031 A 
ATOM     22  C   UNL A   1      34.644  20.573  25.262  1.00  0.00     0.028 A 
ATOM     23  C   UNL A   1      32.356  20.576  23.555  1.00  0.00     0.028 A 
ATOM     24  C   UNL A   1      34.170  19.388  24.684  1.00  0.00     0.018 A 
ATOM     25  C   UNL A   1      33.038  19.395  23.841  1.00  0.00     0.018 A 
ATOM     26  Br  UNL A   1      32.447  17.773  23.068  1.00  0.00    -0.051 Br
ENDBRANCH   9  14
ENDBRANCH   5   8
ENDBRANCH   3   4
ENDBRANCH   2   3
ENDBRANCH   1   2
BRANCH   1  27
ATOM     27  C   UNL A   1      33.669  28.480  27.103  1.00  0.00     0.116 C 
BRANCH  27  28
ATOM     28  N   UNL A   1      33.553  29.864  27.537  1.00  0.00    -0.352 N 
ATOM     29  C   UNL A   1      34.493  30.641  28.170  1.00  0.00     0.251 C 
ATOM     30  H   UNL A   1      32.690  30.300  27.353  1.00  0.00     0.163 HD
ATOM     31  O   UNL A   1      34.197  31.755  28.588  1.00  0.00    -0.269 OA
BRANCH  29  32
ATOM     32  C   UNL A   1      35.852  30.098  28.373  1.00  0.00     0.039 A 
ATOM     33  C   UNL A   1      36.768  30.157  27.321  1.00  0.00     0.014 A 
ATOM     34  C   UNL A   1      36.230  29.579  29.615  1.00  0.00     0.014 A 
ATOM     35  C   UNL A   1      38.087  29.755  27.536  1.00  0.00     0.010 A 
ATOM     36  C   UNL A   1      37.562  29.253  29.848  1.00  0.00     0.010 A 
ATOM     37  C   UNL A   1      38.504  29.336  28.811  1.00  0.00    -0.014 A 
BRANCH  37  38
ATOM     38  C   UNL A   1      39.924  28.989  29.080  1.00  0.00     0.031 A 
ATOM     39  C   UNL A   1      40.863  30.025  29.634  1.00  0.00     0.074 A 
ATOM     40  C   UNL A   1      40.379  27.759  28.762  1.00  0.00     0.049 A 
ATOM     41  N   UNL A   1      42.143  29.930  29.879  1.00  0.00    -0.248 NA
ATOM     42  C   UNL A   1      40.295  31.352  29.926  1.00  0.00     0.031 C 
ATOM     43  C   UNL A   1      39.577  26.689  28.163  1.00  0.00     0.029 A 
ATOM     44  N   UNL A   1      41.629  27.206  28.884  1.00  0.00    -0.354 N 
ATOM     45  C   UNL A   1      42.537  31.183  30.334  1.00  0.00     0.074 A 
ATOM     46  C   UNL A   1      41.371  32.036  30.285  1.00  0.00     0.031 C 
ATOM     47  C   UNL A   1      40.350  25.605  27.987  1.00  0.00     0.029 A 
ATOM     48  C   UNL A   1      41.710  25.914  28.419  1.00  0.00     0.049 A 
ATOM     49  H   UNL A   1      42.396  27.689  29.268  1.00  0.00     0.167 HD
ATOM     50  C   UNL A   1      43.756  31.579  30.772  1.00  0.00     0.037 A 
ATOM     51  C   UNL A   1      42.762  25.076  28.336  1.00  0.00     0.037 A 
ATOM     52  C   UNL A   1      44.904  30.712  30.843  1.00  0.00     0.049 A 
ATOM     53  C   UNL A   1      44.104  25.538  28.840  1.00  0.00     0.074 A 
ATOM     54  C   UNL A   1      46.162  30.996  31.346  1.00  0.00     0.029 A 
ATOM     55  N   UNL A   1      44.939  29.401  30.394  1.00  0.00    -0.354 N 
ATOM     56  N   UNL A   1      44.438  26.700  29.349  1.00  0.00    -0.248 NA
ATOM     57  C   UNL A   1      45.211  24.574  28.767  1.00  0.00     0.031 C 
ATOM     58  C   UNL A   1      46.974  29.876  31.145  1.00  0.00     0.029 A 
ATOM     59  C   UNL A   1      46.206  28.871  30.579  1.00  0.00     0.049 A 
ATOM     60  H   UNL A   1      44.177  28.918  30.001  1.00  0.00     0.167 HD
ATOM     61  C   UNL A   1      45.784  26.597  29.683  1.00  0.00     0.074 A 
ATOM     62  C   UNL A   1      46.199  25.255  29.332  1.00  0.00     0.031 C 
ATOM     63  C   UNL A   1      46.602  27.529  30.233  1.00  0.00     0.037 A 
BRANCH  50  64
ATOM     64  C   UNL A   1      43.919  33.009  31.209  1.00  0.00     0.058 A 
ATOM     65  C   UNL A   1      43.713  33.406  32.540  1.00  0.00     0.135 A 
ATOM     66  C   UNL A   1      44.344  33.987  30.295  1.00  0.00     0.135 A 
ATOM     67  F   UNL A   1      43.292  32.517  33.454  1.00  0.00    -0.206 F 
ATOM     68  C   UNL A   1      43.903  34.723  32.945  1.00  0.00     0.059 A 
ATOM     69  C   UNL A   1      44.569  35.305  30.684  1.00  0.00     0.059 A 
ATOM     70  F   UNL A   1      44.552  33.665  29.008  1.00  0.00    -0.206 F 
ATOM     71  C   UNL A   1      44.336  35.664  32.010  1.00  0.00     0.060 A 
BRANCH  71  72
ATOM     72  S   UNL A   1      44.604  37.363  32.559  1.00  0.00     0.124 S 
ATOM     73  O   UNL A   1      43.462  37.565  33.447  1.00  0.00    -0.237 OA
ATOM     74  O   UNL A   1      45.905  37.277  33.212  1.00  0.00    -0.237 OA
ATOM     75  O   UNL A   1      44.576  38.131  31.319  1.00  0.00    -0.744 OA
ENDBRANCH  71  72
ENDBRANCH  50  64
BRANCH  51  76
ATOM     76  C   UNL A   1      42.589  23.715  27.759  1.00  0.00     0.058 A 
ATOM     77  C   UNL A   1      42.391  22.595  28.581  1.00  0.00     0.135 A 
ATOM     78  C   UNL A   1      42.622  23.506  26.372  1.00  0.00     0.135 A 
ATOM     79  F   UNL A   1      42.356  22.740  29.915  1.00  0.00    -0.206 F 
ATOM     80  C   UNL A   1      42.255  21.315  28.053  1.00  0.00     0.059 A 
ATOM     81  C   UNL A   1      42.458  22.240  25.817  1.00  0.00     0.059 A 
ATOM     82  F   UNL A   1      42.791  24.543  25.539  1.00  0.00    -0.206 F 
ATOM     83  C   UNL A   1      42.290  21.148  26.667  1.00  0.00     0.060 A 
BRANCH  83  84
ATOM     84  S   UNL A   1      42.079  19.488  25.989  1.00  0.00     0.124 S 
ATOM     85  O   UNL A   1      40.636  19.432  25.793  1.00  0.00    -0.237 OA
ATOM     86  O   UNL A   1      42.888  19.547  24.775  1.00  0.00    -0.237 OA
ATOM     87  O   UNL A   1      42.607  18.625  27.042  1.00  0.00    -0.744 OA
ENDBRANCH  83  84
ENDBRANCH  51  76
BRANCH  63  88
ATOM     88  C   UNL A   1      48.021  27.123  30.529  1.00  0.00     0.058 A 
ATOM     89  C   UNL A   1      49.068  27.376  29.630  1.00  0.00     0.135 A 
ATOM     90  C   UNL A   1      48.343  26.522  31.758  1.00  0.00     0.135 A 
ATOM     91  F   UNL A   1      48.816  27.942  28.439  1.00  0.00    -0.206 F 
ATOM     92  C   UNL A   1      50.382  27.026  29.928  1.00  0.00     0.059 A 
ATOM     93  C   UNL A   1      49.653  26.194  32.090  1.00  0.00     0.059 A 
ATOM     94  F   UNL A   1      47.381  26.268  32.659  1.00  0.00    -0.206 F 
ATOM     95  C   UNL A   1      50.664  26.439  31.163  1.00  0.00     0.060 A 
BRANCH  95  96
ATOM     96  S   UNL A   1      52.377  26.025  31.552  1.00  0.00     0.124 S 
ATOM     97  O   UNL A   1      52.239  24.675  32.089  1.00  0.00    -0.237 OA
ATOM     98  O   UNL A   1      53.026  26.125  30.248  1.00  0.00    -0.237 OA
ATOM     99  O   UNL A   1      52.765  27.048  32.518  1.00  0.00    -0.744 OA
ENDBRANCH  95  96
ENDBRANCH  63  88
ENDBRANCH  37  38
ENDBRANCH  29  32
ENDBRANCH  27  28
ENDBRANCH   1  27
TORSDOF 15
ENDMDL
MODEL 2
REMARK VINA RESULT:     -12.3      3.166      9.534
REMARK SMILES O=C1Nc2ccc(Br)cc2/C1=N/c1ccc(C(=O)NCCCCNC(=O)c2ccc(-c3c4nc(c(-c5c(F)cc(S(=O)(=O)[O-])cc5F)c5ccc([nH]5)c(-c5c(F)cc(S(=O)(=O)[O-])cc5F)c5nc(c(-c6c(F)cc(S(=O)(=O)[O-])cc6F)c6ccc3[nH]6)C=C5)C=C4)cc2)cc1
REMARK SMILES IDX 22 1 21 2 20 3 19 4 17 5 18 6 16 8 13 9 14 10 94 11 15 12
REMARK SMILES IDX 93 13 12 14 1 15 2 16 3 17 11 18 4 19 10 21 5 22 9 23 6 24
REMARK SMILES IDX 7 25 8 26 23 27 24 28 25 29 26 31 27 32 28 33 92 34 29 35
REMARK SMILES IDX 91 36 30 37 31 38 32 39 85 40 33 41 90 42 84 43 86 44 34 45
REMARK SMILES IDX 89 46 83 47 82 48 35 50 69 51 48 52 68 53 49 54 52 55 67 56
REMARK SMILES IDX 87 57 50 58 51 59 66 61 88 62 53 63 36 64 37 65 46 66 38 67
REMARK SMILES IDX 39 68 45 69 47 70 40 71 41 72 42 73 43 74 44 75 70 76 71 77
REMARK SMILES IDX 80 78 72 79 73 80 79 81 81 82 74 83 75 84 76 85 77 86 78 87
REMARK SMILES IDX 54 88 55 89 64 90 56 91 57 92 63 93 65 94 58 95 59 96 60 97
REMARK SMILES IDX 61 98 62 99
REMARK H PARENT 19 7 3 20 24 30 86 49 52 60
REMARK Flexibility Score: inf
ROOT
ATOM      1  C   UNL A   1      35.589  23.008  25.657  1.00  0.00     0.023 C 
ENDROOT
BRANCH   1   2
ATOM      2  C   UNL A   1      35.663  21.536  26.073  1.00  0.00     0.023 C 
BRANCH   2   3
ATOM      3  C   UNL A   1      35.505  20.553  24.910  1.00  0.00     0.116 C 
BRANCH   3   4
ATOM      4  N   UNL A   1      34.332  19.724  25.106  1.00  0.00    -0.352 N 
ATOM      5  C   UNL A   1      32.992  19.996  24.989  1.00  0.00     0.251 C 
ATOM      6  O   UNL A   1      32.195  19.079  25.189  1.00  0.00    -0.269 OA
ATOM      7  H   UNL A   1      34.532  18.797  25.369  1.00  0.00     0.163 HD
BRANCH   5   8
ATOM      8  C   UNL A   1      32.469  21.329  24.580  1.00  0.00     0.039 A 
ATOM      9  C   UNL A   1      31.291  23.797  23.908  1.00  0.00     0.064 A 
ATOM     10  C   UNL A   1      31.062  23.230  25.159  1.00  0.00     0.029 A 
ATOM     11  C   UNL A   1      32.182  23.173  23.033  1.00  0.00     0.029 A 
ATOM     12  C   UNL A   1      31.640  22.001  25.491  1.00  0.00     0.016 A 
ATOM     13  C   UNL A   1      32.780  21.958  23.372  1.00  0.00     0.016 A 
BRANCH   9  14
ATOM     14  N   UNL A   1      30.713  25.021  23.561  1.00  0.00    -0.243 NA
ATOM     15  O   UNL A   1      33.319  25.520  25.230  1.00  0.00    -0.267 OA
ATOM     16  C   UNL A   1      32.521  26.343  24.856  1.00  0.00     0.275 C 
ATOM     17  N   UNL A   1      32.548  27.705  25.096  1.00  0.00    -0.320 N 
ATOM     18  C   UNL A   1      31.246  26.112  24.009  1.00  0.00     0.138 C 
ATOM     19  C   UNL A   1      31.466  28.341  24.499  1.00  0.00     0.051 A 
ATOM     20  H   UNL A   1      33.242  28.164  25.622  1.00  0.00     0.170 HD
ATOM     21  C   UNL A   1      30.661  27.435  23.815  1.00  0.00     0.031 A 
ATOM     22  C   UNL A   1      31.148  29.682  24.548  1.00  0.00     0.028 A 
ATOM     23  C   UNL A   1      29.506  27.806  23.158  1.00  0.00     0.028 A 
ATOM     24  C   UNL A   1      29.980  30.090  23.890  1.00  0.00     0.018 A 
ATOM     25  C   UNL A   1      29.171  29.158  23.205  1.00  0.00     0.018 A 
ATOM     26  Br  UNL A   1      27.594  29.752  22.348  1.00  0.00    -0.051 Br
ENDBRANCH   9  14
ENDBRANCH   5   8
ENDBRANCH   3   4
ENDBRANCH   2   3
ENDBRANCH   1   2
BRANCH   1  27
ATOM     27  C   UNL A   1      36.936  23.655  25.361  1.00  0.00     0.116 C 
BRANCH  27  28
ATOM     28  N   UNL A   1      38.053  22.730  25.484  1.00  0.00    -0.352 N 
ATOM     29  C   UNL A   1      39.277  22.945  26.070  1.00  0.00     0.251 C 
ATOM     30  H   UNL A   1      37.913  21.835  25.098  1.00  0.00     0.163 HD
ATOM     31  O   UNL A   1      40.164  22.103  25.979  1.00  0.00    -0.269 OA
BRANCH  29  32
ATOM     32  C   UNL A   1      39.520  24.220  26.775  1.00  0.00     0.039 A 
ATOM     33  C   UNL A   1      38.992  24.396  28.056  1.00  0.00     0.014 A 
ATOM     34  C   UNL A   1      40.307  25.216  26.189  1.00  0.00     0.014 A 
ATOM     35  C   UNL A   1      39.311  25.547  28.778  1.00  0.00     0.010 A 
ATOM     36  C   UNL A   1      40.686  26.325  26.940  1.00  0.00     0.010 A 
ATOM     37  C   UNL A   1      40.191  26.502  28.242  1.00  0.00    -0.014 A 
BRANCH  37  38
ATOM     38  C   UNL A   1      40.611  27.689  29.030  1.00  0.00     0.031 A 
ATOM     39  C   UNL A   1      41.923  27.681  29.767  1.00  0.00     0.074 A 
ATOM     40  C   UNL A   1      39.779  28.746  29.134  1.00  0.00     0.049 A 
ATOM     41  N   UNL A   1      42.433  28.594  30.551  1.00  0.00    -0.248 NA
ATOM     42  C   UNL A   1      42.759  26.478  29.626  1.00  0.00     0.031 C 
ATOM     43  C   UNL A   1      38.455  28.845  28.515  1.00  0.00     0.029 A 
ATOM     44  N   UNL A   1      39.916  29.932  29.811  1.00  0.00    -0.354 N 
ATOM     45  C   UNL A   1      43.636  28.071  31.010  1.00  0.00     0.074 A 
ATOM     46  C   UNL A   1      43.758  26.741  30.457  1.00  0.00     0.031 C 
ATOM     47  C   UNL A   1      37.911  30.032  28.826  1.00  0.00     0.029 A 
ATOM     48  C   UNL A   1      38.825  30.763  29.699  1.00  0.00     0.049 A 
ATOM     49  H   UNL A   1      40.720  30.167  30.329  1.00  0.00     0.167 HD
ATOM     50  C   UNL A   1      44.564  28.655  31.804  1.00  0.00     0.037 A 
ATOM     51  C   UNL A   1      38.580  31.969  30.248  1.00  0.00     0.037 A 
ATOM     52  C   UNL A   1      44.446  29.992  32.328  1.00  0.00     0.049 A 
ATOM     53  C   UNL A   1      39.634  32.601  31.119  1.00  0.00     0.074 A 
ATOM     54  C   UNL A   1      45.368  30.704  33.076  1.00  0.00     0.029 A 
ATOM     55  N   UNL A   1      43.342  30.814  32.165  1.00  0.00    -0.354 N 
ATOM     56  N   UNL A   1      40.805  32.127  31.472  1.00  0.00    -0.248 NA
ATOM     57  C   UNL A   1      39.338  33.934  31.661  1.00  0.00     0.031 C 
ATOM     58  C   UNL A   1      44.796  31.933  33.417  1.00  0.00     0.029 A 
ATOM     59  C   UNL A   1      43.545  32.015  32.826  1.00  0.00     0.049 A 
ATOM     60  H   UNL A   1      42.533  30.580  31.657  1.00  0.00     0.167 HD
ATOM     61  C   UNL A   1      41.397  33.115  32.252  1.00  0.00     0.074 A 
ATOM     62  C   UNL A   1      40.461  34.218  32.307  1.00  0.00     0.031 C 
ATOM     63  C   UNL A   1      42.607  33.109  32.864  1.00  0.00     0.037 A 
BRANCH  50  64
ATOM     64  C   UNL A   1      45.790  27.860  32.162  1.00  0.00     0.058 A 
ATOM     65  C   UNL A   1      46.957  27.905  31.382  1.00  0.00     0.135 A 
ATOM     66  C   UNL A   1      45.818  27.085  33.333  1.00  0.00     0.135 A 
ATOM     67  F   UNL A   1      46.983  28.616  30.243  1.00  0.00    -0.206 F 
ATOM     68  C   UNL A   1      48.100  27.197  31.740  1.00  0.00     0.059 A 
ATOM     69  C   UNL A   1      46.960  26.392  33.726  1.00  0.00     0.059 A 
ATOM     70  F   UNL A   1      44.729  27.002  34.115  1.00  0.00    -0.206 F 
ATOM     71  C   UNL A   1      48.093  26.447  32.916  1.00  0.00     0.060 A 
BRANCH  71  72
ATOM     72  S   UNL A   1      49.593  25.556  33.378  1.00  0.00     0.124 S 
ATOM     73  O   UNL A   1      50.332  25.558  32.119  1.00  0.00    -0.237 OA
ATOM     74  O   UNL A   1      50.142  26.399  34.435  1.00  0.00    -0.237 OA
ATOM     75  O   UNL A   1      49.098  24.254  33.811  1.00  0.00    -0.744 OA
ENDBRANCH  71  72
ENDBRANCH  50  64
BRANCH  51  76
ATOM     76  C   UNL A   1      37.289  32.660  29.987  1.00  0.00     0.058 A 
ATOM     77  C   UNL A   1      37.186  33.672  29.021  1.00  0.00     0.135 A 
ATOM     78  C   UNL A   1      36.129  32.324  30.702  1.00  0.00     0.135 A 
ATOM     79  F   UNL A   1      38.267  34.035  28.313  1.00  0.00    -0.206 F 
ATOM     80  C   UNL A   1      35.989  34.343  28.788  1.00  0.00     0.059 A 
ATOM     81  C   UNL A   1      34.912  32.959  30.467  1.00  0.00     0.059 A 
ATOM     82  F   UNL A   1      36.165  31.352  31.626  1.00  0.00    -0.206 F 
ATOM     83  C   UNL A   1      34.856  33.978  29.517  1.00  0.00     0.060 A 
BRANCH  83  84
ATOM     84  S   UNL A   1      33.300  34.831  29.185  1.00  0.00     0.124 S 
ATOM     85  O   UNL A   1      32.652  33.908  28.262  1.00  0.00    -0.237 OA
ATOM     86  O   UNL A   1      32.711  34.923  30.518  1.00  0.00    -0.237 OA
ATOM     87  O   UNL A   1      33.730  36.102  28.609  1.00  0.00    -0.744 OA
ENDBRANCH  83  84
ENDBRANCH  51  76
BRANCH  63  88
ATOM     88  C   UNL A   1      43.012  34.348  33.618  1.00  0.00     0.058 A 
ATOM     89  C   UNL A   1      42.823  34.470  35.002  1.00  0.00     0.135 A 
ATOM     90  C   UNL A   1      43.652  35.405  32.948  1.00  0.00     0.135 A 
ATOM     91  F   UNL A   1      42.210  33.494  35.691  1.00  0.00    -0.206 F 
ATOM     92  C   UNL A   1      43.231  35.607  35.694  1.00  0.00     0.059 A 
ATOM     93  C   UNL A   1      44.098  36.535  33.624  1.00  0.00     0.059 A 
ATOM     94  F   UNL A   1      43.869  35.335  31.625  1.00  0.00    -0.206 F 
ATOM     95  C   UNL A   1      43.872  36.632  34.996  1.00  0.00     0.060 A 
BRANCH  95  96
ATOM     96  S   UNL A   1      44.430  38.084  35.912  1.00  0.00     0.124 S 
ATOM     97  O   UNL A   1      44.033  39.167  35.017  1.00  0.00    -0.237 OA
ATOM     98  O   UNL A   1      43.672  37.979  37.155  1.00  0.00    -0.237 OA
ATOM     99  O   UNL A   1      45.868  37.873  36.042  1.00  0.00    -0.744 OA
ENDBRANCH  95  96
ENDBRANCH  63  88
ENDBRANCH  37  38
ENDBRANCH  29  32
ENDBRANCH  27  28
ENDBRANCH   1  27
TORSDOF 15
ENDMDL
MODEL 3
REMARK VINA RESULT:     -12.3      0.601      8.187
REMARK SMILES O=C1Nc2ccc(Br)cc2/C1=N/c1ccc(C(=O)NCCCCNC(=O)c2ccc(-c3c4nc(c(-c5c(F)cc(S(=O)(=O)[O-])cc5F)c5ccc([nH]5)c(-c5c(F)cc(S(=O)(=O)[O-])cc5F)c5nc(c(-c6c(F)cc(S(=O)(=O)[O-])cc6F)c6ccc3[nH]6)C=C5)C=C4)cc2)cc1
REMARK SMILES IDX 22 1 21 2 20 3 19 4 17 5 18 6 16 8 13 9 14 10 94 11 15 12
REMARK SMILES IDX 93 13 12 14 1 15 2 16 3 17 11 18 4 19 10 21 5 22 9 23 6 24
REMARK SMILES IDX 7 25 8 26 23 27 24 28 25 29 26 31 27 32 28 33 92 34 29 35
REMARK SMILES IDX 91 36 30 37 31 38 32 39 85 40 33 41 90 42 84 43 86 44 34 45
REMARK SMILES IDX 89 46 83 47 82 48 35 50 69 51 48 52 68 53 49 54 52 55 67 56
REMARK SMILES IDX 87 57 50 58 51 59 66 61 88 62 53 63 36 64 37 65 46 66 38 67
REMARK SMILES IDX 39 68 45 69 47 70 40 71 41 72 42 73 43 74 44 75 70 76 71 77
REMARK SMILES IDX 80 78 72 79 73 80 79 81 81 82 74 83 75 84 76 85 77 86 78 87
REMARK SMILES IDX 54 88 55 89 64 90 56 91 57 92 63 93 65 94 58 95 59 96 60 97
REMARK SMILES IDX 61 98 62 99
REMARK H PARENT 19 7 3 20 24 30 86 49 52 60
REMARK Flexibility Score: inf
ROOT
ATOM      1  C   UNL A   1      33.183  28.054  25.712  1.00  0.00     0.023 C 
ENDROOT
BRANCH   1   2
ATOM      2  C   UNL A   1      32.740  29.337  25.005  1.00  0.00     0.023 C 
BRANCH   2   3
ATOM      3  C   UNL A   1      31.233  29.596  25.072  1.00  0.00     0.116 C 
BRANCH   3   4
ATOM      4  N   UNL A   1      30.698  29.813  23.743  1.00  0.00    -0.352 N 
ATOM      5  C   UNL A   1      30.476  28.953  22.697  1.00  0.00     0.251 C 
ATOM      6  O   UNL A   1      29.973  29.409  21.669  1.00  0.00    -0.269 OA
ATOM      7  H   UNL A   1      30.446  30.747  23.556  1.00  0.00     0.163 HD
BRANCH   5   8
ATOM      8  C   UNL A   1      30.763  27.494  22.773  1.00  0.00     0.039 A 
ATOM      9  C   UNL A   1      31.280  24.750  23.134  1.00  0.00     0.064 A 
ATOM     10  C   UNL A   1      30.298  25.383  23.894  1.00  0.00     0.029 A 
ATOM     11  C   UNL A   1      31.934  25.470  22.133  1.00  0.00     0.029 A 
ATOM     12  C   UNL A   1      30.046  26.747  23.720  1.00  0.00     0.016 A 
ATOM     13  C   UNL A   1      31.665  26.827  21.942  1.00  0.00     0.016 A 
BRANCH   9  14
ATOM     14  N   UNL A   1      31.547  23.389  23.304  1.00  0.00    -0.243 NA
ATOM     15  O   UNL A   1      33.622  25.082  24.931  1.00  0.00    -0.267 OA
ATOM     16  C   UNL A   1      33.618  23.888  24.771  1.00  0.00     0.275 C 
ATOM     17  N   UNL A   1      34.545  22.976  25.245  1.00  0.00    -0.320 N 
ATOM     18  C   UNL A   1      32.584  23.038  23.994  1.00  0.00     0.138 C 
ATOM     19  C   UNL A   1      34.210  21.680  24.872  1.00  0.00     0.051 A 
ATOM     20  H   UNL A   1      35.338  23.215  25.777  1.00  0.00     0.170 HD
ATOM     21  C   UNL A   1      33.030  21.655  24.135  1.00  0.00     0.031 A 
ATOM     22  C   UNL A   1      34.911  20.522  25.137  1.00  0.00     0.028 A 
ATOM     23  C   UNL A   1      32.493  20.494  23.619  1.00  0.00     0.028 A 
ATOM     24  C   UNL A   1      34.390  19.326  24.625  1.00  0.00     0.018 A 
ATOM     25  C   UNL A   1      33.195  19.318  23.876  1.00  0.00     0.018 A 
ATOM     26  Br  UNL A   1      32.542  17.680  23.190  1.00  0.00    -0.051 Br
ENDBRANCH   9  14
ENDBRANCH   5   8
ENDBRANCH   3   4
ENDBRANCH   2   3
ENDBRANCH   1   2
BRANCH   1  27
ATOM     27  C   UNL A   1      34.001  28.273  26.978  1.00  0.00     0.116 C 
BRANCH  27  28
ATOM     28  N   UNL A   1      33.819  29.598  27.553  1.00  0.00    -0.352 N 
ATOM     29  C   UNL A   1      34.733  30.365  28.233  1.00  0.00     0.251 C 
ATOM     30  H   UNL A   1      32.925  29.994  27.441  1.00  0.00     0.163 HD
ATOM     31  O   UNL A   1      34.386  31.411  28.771  1.00  0.00    -0.269 OA
BRANCH  29  32
ATOM     32  C   UNL A   1      36.128  29.892  28.340  1.00  0.00     0.039 A 
ATOM     33  C   UNL A   1      36.984  30.059  27.250  1.00  0.00     0.014 A 
ATOM     34  C   UNL A   1      36.598  29.330  29.531  1.00  0.00     0.014 A 
ATOM     35  C   UNL A   1      38.332  29.722  27.377  1.00  0.00     0.010 A 
ATOM     36  C   UNL A   1      37.956  29.069  29.680  1.00  0.00     0.010 A 
ATOM     37  C   UNL A   1      38.838  29.261  28.605  1.00  0.00    -0.014 A 
BRANCH  37  38
ATOM     38  C   UNL A   1      40.286  28.982  28.785  1.00  0.00     0.031 A 
ATOM     39  C   UNL A   1      40.844  27.630  28.431  1.00  0.00     0.074 A 
ATOM     40  C   UNL A   1      41.082  29.924  29.330  1.00  0.00     0.049 A 
ATOM     41  N   UNL A   1      42.063  27.179  28.571  1.00  0.00    -0.248 NA
ATOM     42  C   UNL A   1      39.903  26.647  27.868  1.00  0.00     0.031 C 
ATOM     43  C   UNL A   1      40.643  31.251  29.770  1.00  0.00     0.029 A 
ATOM     44  N   UNL A   1      42.423  29.908  29.621  1.00  0.00    -0.354 N 
ATOM     45  C   UNL A   1      42.032  25.860  28.135  1.00  0.00     0.074 A 
ATOM     46  C   UNL A   1      40.664  25.566  27.771  1.00  0.00     0.031 C 
ATOM     47  C   UNL A   1      41.696  31.925  30.258  1.00  0.00     0.029 A 
ATOM     48  C   UNL A   1      42.877  31.067  30.206  1.00  0.00     0.049 A 
ATOM     49  H   UNL A   1      43.005  29.137  29.431  1.00  0.00     0.167 HD
ATOM     50  C   UNL A   1      43.056  24.981  28.029  1.00  0.00     0.037 A 
ATOM     51  C   UNL A   1      44.101  31.398  30.662  1.00  0.00     0.037 A 
ATOM     52  C   UNL A   1      44.421  25.293  28.369  1.00  0.00     0.049 A 
ATOM     53  C   UNL A   1      45.225  30.406  30.523  1.00  0.00     0.074 A 
ATOM     54  C   UNL A   1      45.544  24.497  28.222  1.00  0.00     0.029 A 
ATOM     55  N   UNL A   1      44.848  26.488  28.926  1.00  0.00    -0.354 N 
ATOM     56  N   UNL A   1      45.195  29.192  30.026  1.00  0.00    -0.248 NA
ATOM     57  C   UNL A   1      46.550  30.828  30.996  1.00  0.00     0.031 C 
ATOM     58  C   UNL A   1      46.640  25.189  28.747  1.00  0.00     0.029 A 
ATOM     59  C   UNL A   1      46.213  26.441  29.159  1.00  0.00     0.049 A 
ATOM     60  H   UNL A   1      44.267  27.257  29.127  1.00  0.00     0.167 HD
ATOM     61  C   UNL A   1      46.501  28.718  30.101  1.00  0.00     0.074 A 
ATOM     62  C   UNL A   1      47.297  29.780  30.677  1.00  0.00     0.031 C 
ATOM     63  C   UNL A   1      46.995  27.512  29.726  1.00  0.00     0.037 A 
BRANCH  50  64
ATOM     64  C   UNL A   1      42.750  23.596  27.528  1.00  0.00     0.058 A 
ATOM     65  C   UNL A   1      42.794  23.274  26.162  1.00  0.00     0.135 A 
ATOM     66  C   UNL A   1      42.463  22.560  28.433  1.00  0.00     0.135 A 
ATOM     67  F   UNL A   1      43.046  24.227  25.251  1.00  0.00    -0.206 F 
ATOM     68  C   UNL A   1      42.546  21.982  25.710  1.00  0.00     0.059 A 
ATOM     69  C   UNL A   1      42.242  21.254  28.005  1.00  0.00     0.059 A 
ATOM     70  F   UNL A   1      42.404  22.811  29.751  1.00  0.00    -0.206 F 
ATOM     71  C   UNL A   1      42.276  20.978  26.640  1.00  0.00     0.060 A 
BRANCH  71  72
ATOM     72  S   UNL A   1      41.984  19.302  26.036  1.00  0.00     0.124 S 
ATOM     73  O   UNL A   1      42.388  18.502  27.189  1.00  0.00    -0.237 OA
ATOM     74  O   UNL A   1      40.554  19.320  25.749  1.00  0.00    -0.237 OA
ATOM     75  O   UNL A   1      42.855  19.202  24.870  1.00  0.00    -0.744 OA
ENDBRANCH  71  72
ENDBRANCH  50  64
BRANCH  51  76
ATOM     76  C   UNL A   1      44.330  32.729  31.287  1.00  0.00     0.058 A 
ATOM     77  C   UNL A   1      44.776  33.823  30.530  1.00  0.00     0.135 A 
ATOM     78  C   UNL A   1      44.110  32.934  32.658  1.00  0.00     0.135 A 
ATOM     79  F   UNL A   1      45.006  33.679  29.215  1.00  0.00    -0.206 F 
ATOM     80  C   UNL A   1      45.019  35.064  31.110  1.00  0.00     0.059 A 
ATOM     81  C   UNL A   1      44.316  34.174  33.257  1.00  0.00     0.059 A 
ATOM     82  F   UNL A   1      43.667  31.928  33.427  1.00  0.00    -0.206 F 
ATOM     83  C   UNL A   1      44.785  35.230  32.476  1.00  0.00     0.060 A 
BRANCH  83  84
ATOM     84  S   UNL A   1      45.070  36.853  33.214  1.00  0.00     0.124 S 
ATOM     85  O   UNL A   1      43.755  37.468  33.087  1.00  0.00    -0.237 OA
ATOM     86  O   UNL A   1      45.486  36.505  34.570  1.00  0.00    -0.237 OA
ATOM     87  O   UNL A   1      46.118  37.424  32.373  1.00  0.00    -0.744 OA
ENDBRANCH  83  84
ENDBRANCH  51  76
BRANCH  63  88
ATOM     88  C   UNL A   1      48.474  27.285  29.885  1.00  0.00     0.058 A 
ATOM     89  C   UNL A   1      49.390  27.618  28.876  1.00  0.00     0.135 A 
ATOM     90  C   UNL A   1      48.985  26.778  31.092  1.00  0.00     0.135 A 
ATOM     91  F   UNL A   1      48.956  28.099  27.700  1.00  0.00    -0.206 F 
ATOM     92  C   UNL A   1      50.759  27.434  29.047  1.00  0.00     0.059 A 
ATOM     93  C   UNL A   1      50.352  26.617  31.298  1.00  0.00     0.059 A 
ATOM     94  F   UNL A   1      48.155  26.454  32.096  1.00  0.00    -0.206 F 
ATOM     95  C   UNL A   1      51.230  26.936  30.264  1.00  0.00     0.060 A 
BRANCH  95  96
ATOM     96  S   UNL A   1      53.010  26.738  30.485  1.00  0.00     0.124 S 
ATOM     97  O   UNL A   1      53.069  25.580  31.371  1.00  0.00    -0.237 OA
ATOM     98  O   UNL A   1      53.472  26.516  29.119  1.00  0.00    -0.237 OA
ATOM     99  O   UNL A   1      53.422  28.005  31.082  1.00  0.00    -0.744 OA
ENDBRANCH  95  96
ENDBRANCH  63  88
ENDBRANCH  37  38
ENDBRANCH  29  32
ENDBRANCH  27  28
ENDBRANCH   1  27
TORSDOF 15
ENDMDL
