MODEL 1
REMARK VINA RESULT:     -10.0      0.000      0.000
REMARK SMILES CC(C)(C(=O)NCCCCNC(=O)c1ccc(-c2c3nc(c(-c4c(F)cc(S(=O)(=O)[O-])cc4F)c4ccc([nH]4)c(-c4c(F)cc(S(=O)(=O)[O-])cc4F)c4nc(c(-c5c(F)cc(S(=O)(=O)[O-])cc5F)c5ccc2[nH]5)C=C4)C=C3)cc1)c1ccc(NS(=O)(=O)c2c(F)cc(F)cc2F)cc1
REMARK SMILES IDX 8 1 7 2 6 3 4 4 5 5 2 7 1 8 3 9 80 10 81 11 98 12 82 13
REMARK SMILES IDX 97 14 83 15 84 16 85 18 86 19 87 20 88 21 89 22 95 23 90 24
REMARK SMILES IDX 91 25 94 26 96 27 92 28 93 29 9 30 10 31 11 32 12 33 13 35
REMARK SMILES IDX 14 36 15 37 79 38 16 39 78 40 17 41 18 42 19 43 72 44 20 45
REMARK SMILES IDX 77 46 71 47 73 48 21 49 76 50 70 51 69 52 22 54 56 55 35 56
REMARK SMILES IDX 55 57 36 58 39 59 54 60 74 61 37 62 38 63 53 65 75 66 40 67
REMARK SMILES IDX 23 68 24 69 33 70 25 71 26 72 32 73 34 74 27 75 28 76 29 77
REMARK SMILES IDX 30 78 31 79 57 80 58 81 67 82 59 83 60 84 66 85 68 86 61 87
REMARK SMILES IDX 62 88 63 89 64 90 65 91 41 92 42 93 51 94 43 95 44 96 50 97
REMARK SMILES IDX 52 98 45 99 46 100 47 101 48 102 49 103
REMARK H PARENT 6 6 84 17 11 34 73 53 39 64
REMARK Flexibility Score: inf
ROOT
ATOM      1  C   UNL A   1      36.584  33.484  28.574  1.00  0.00     0.023 C 
ENDROOT
BRANCH   1   2
ATOM      2  C   UNL A   1      36.907  32.990  29.981  1.00  0.00     0.116 C 
BRANCH   2   3
ATOM      3  N   UNL A   1      37.026  34.082  30.926  1.00  0.00    -0.355 N 
ATOM      4  C   UNL A   1      37.014  34.146  32.284  1.00  0.00     0.230 C 
ATOM      5  O   UNL A   1      37.390  35.233  32.737  1.00  0.00    -0.274 OA
ATOM      6  H   UNL A   1      37.137  34.959  30.496  1.00  0.00     0.163 HD
BRANCH   4   7
ATOM      7  C   UNL A   1      36.623  32.945  33.205  1.00  0.00     0.068 C 
ATOM      8  C   UNL A   1      36.268  33.397  34.637  1.00  0.00     0.026 C 
ATOM      9  C   UNL A   1      35.417  32.258  32.531  1.00  0.00     0.026 C 
BRANCH   7  10
ATOM     10  C   UNL A   1      37.808  31.948  33.403  1.00  0.00    -0.033 A 
ATOM     11  C   UNL A   1      37.648  30.586  33.090  1.00  0.00     0.007 A 
ATOM     12  C   UNL A   1      39.089  32.360  33.818  1.00  0.00     0.007 A 
ATOM     13  C   UNL A   1      38.691  29.672  33.243  1.00  0.00     0.027 A 
ATOM     14  C   UNL A   1      40.161  31.454  33.888  1.00  0.00     0.027 A 
ATOM     15  C   UNL A   1      39.967  30.109  33.572  1.00  0.00     0.049 A 
BRANCH  15  16
ATOM     16  N   UNL A   1      41.048  29.169  33.653  1.00  0.00    -0.279 N 
ATOM     17  H   UNL A   1      41.410  28.769  32.828  1.00  0.00     0.180 HD
BRANCH  16  18
ATOM     18  S   UNL A   1      41.712  28.736  35.170  1.00  0.00     0.267 S 
ATOM     19  O   UNL A   1      42.860  29.587  35.384  1.00  0.00    -0.201 OA
ATOM     20  O   UNL A   1      40.603  28.824  36.103  1.00  0.00    -0.201 OA
BRANCH  18  21
ATOM     21  C   UNL A   1      42.271  27.076  35.100  1.00  0.00     0.159 A 
ATOM     22  C   UNL A   1      41.796  26.155  36.031  1.00  0.00     0.149 A 
ATOM     23  C   UNL A   1      43.161  26.646  34.121  1.00  0.00     0.149 A 
ATOM     24  F   UNL A   1      40.910  26.511  36.971  1.00  0.00    -0.205 F 
ATOM     25  C   UNL A   1      42.287  24.853  36.063  1.00  0.00     0.080 A 
ATOM     26  C   UNL A   1      43.635  25.334  34.120  1.00  0.00     0.080 A 
ATOM     27  F   UNL A   1      43.603  27.461  33.156  1.00  0.00    -0.205 F 
ATOM     28  C   UNL A   1      43.213  24.457  35.109  1.00  0.00     0.129 A 
ATOM     29  F   UNL A   1      43.701  23.211  35.142  1.00  0.00    -0.207 F 
ENDBRANCH  18  21
ENDBRANCH  16  18
ENDBRANCH  15  16
ENDBRANCH   7  10
ENDBRANCH   4   7
ENDBRANCH   2   3
ENDBRANCH   1   2
BRANCH   1  30
ATOM     30  C   UNL A   1      35.152  33.206  28.108  1.00  0.00     0.023 C 
BRANCH  30  31
ATOM     31  C   UNL A   1      34.349  32.256  28.990  1.00  0.00     0.116 C 
BRANCH  31  32
ATOM     32  N   UNL A   1      33.851  31.094  28.269  1.00  0.00    -0.352 N 
ATOM     33  C   UNL A   1      34.537  29.986  27.836  1.00  0.00     0.251 C 
ATOM     34  H   UNL A   1      32.888  31.105  28.064  1.00  0.00     0.163 HD
ATOM     35  O   UNL A   1      33.976  29.154  27.129  1.00  0.00    -0.269 OA
BRANCH  33  36
ATOM     36  C   UNL A   1      35.960  29.825  28.198  1.00  0.00     0.039 A 
ATOM     37  C   UNL A   1      36.283  29.389  29.484  1.00  0.00     0.014 A 
ATOM     38  C   UNL A   1      36.966  30.067  27.259  1.00  0.00     0.014 A 
ATOM     39  C   UNL A   1      37.616  29.127  29.806  1.00  0.00     0.010 A 
ATOM     40  C   UNL A   1      38.283  29.732  27.558  1.00  0.00     0.010 A 
ATOM     41  C   UNL A   1      38.622  29.258  28.835  1.00  0.00    -0.014 A 
BRANCH  41  42
ATOM     42  C   UNL A   1      40.031  28.897  29.132  1.00  0.00     0.031 A 
ATOM     43  C   UNL A   1      40.952  29.906  29.762  1.00  0.00     0.074 A 
ATOM     44  C   UNL A   1      40.498  27.684  28.773  1.00  0.00     0.049 A 
ATOM     45  N   UNL A   1      42.227  29.802  30.040  1.00  0.00    -0.248 NA
ATOM     46  C   UNL A   1      40.372  31.216  30.101  1.00  0.00     0.031 C 
ATOM     47  C   UNL A   1      39.716  26.639  28.109  1.00  0.00     0.029 A 
ATOM     48  N   UNL A   1      41.746  27.128  28.906  1.00  0.00    -0.354 N 
ATOM     49  C   UNL A   1      42.602  31.032  30.567  1.00  0.00     0.074 A 
ATOM     50  C   UNL A   1      41.435  31.884  30.521  1.00  0.00     0.031 C 
ATOM     51  C   UNL A   1      40.494  25.560  27.919  1.00  0.00     0.029 A 
ATOM     52  C   UNL A   1      41.838  25.850  28.408  1.00  0.00     0.049 A 
ATOM     53  H   UNL A   1      42.504  27.600  29.320  1.00  0.00     0.167 HD
ATOM     54  C   UNL A   1      43.805  31.408  31.065  1.00  0.00     0.037 A 
ATOM     55  C   UNL A   1      42.889  25.008  28.345  1.00  0.00     0.037 A 
ATOM     56  C   UNL A   1      44.954  30.543  31.130  1.00  0.00     0.049 A 
ATOM     57  C   UNL A   1      44.214  25.450  28.903  1.00  0.00     0.074 A 
ATOM     58  C   UNL A   1      46.197  30.806  31.678  1.00  0.00     0.029 A 
ATOM     59  N   UNL A   1      45.003  29.250  30.629  1.00  0.00    -0.354 N 
ATOM     60  N   UNL A   1      44.533  26.592  29.464  1.00  0.00    -0.248 NA
ATOM     61  C   UNL A   1      45.323  24.488  28.824  1.00  0.00     0.031 C 
ATOM     62  C   UNL A   1      47.013  29.691  31.463  1.00  0.00     0.029 A 
ATOM     63  C   UNL A   1      46.264  28.711  30.832  1.00  0.00     0.049 A 
ATOM     64  H   UNL A   1      44.253  28.783  30.194  1.00  0.00     0.167 HD
ATOM     65  C   UNL A   1      45.870  26.475  29.832  1.00  0.00     0.074 A 
ATOM     66  C   UNL A   1      46.295  25.147  29.440  1.00  0.00     0.031 C 
ATOM     67  C   UNL A   1      46.670  27.383  30.443  1.00  0.00     0.037 A 
BRANCH  54  68
ATOM     68  C   UNL A   1      43.939  32.815  31.577  1.00  0.00     0.058 A 
ATOM     69  C   UNL A   1      44.318  33.876  30.738  1.00  0.00     0.135 A 
ATOM     70  C   UNL A   1      43.649  33.117  32.918  1.00  0.00     0.135 A 
ATOM     71  F   UNL A   1      44.621  33.644  29.450  1.00  0.00    -0.206 F 
ATOM     72  C   UNL A   1      44.437  35.177  31.215  1.00  0.00     0.059 A 
ATOM     73  C   UNL A   1      43.732  34.416  33.411  1.00  0.00     0.059 A 
ATOM     74  F   UNL A   1      43.283  32.143  33.766  1.00  0.00    -0.206 F 
ATOM     75  C   UNL A   1      44.142  35.437  32.554  1.00  0.00     0.060 A 
BRANCH  75  76
ATOM     76  S   UNL A   1      44.296  37.132  33.156  1.00  0.00     0.124 S 
ATOM     77  O   UNL A   1      45.590  37.083  33.829  1.00  0.00    -0.237 OA
ATOM     78  O   UNL A   1      44.253  37.906  31.921  1.00  0.00    -0.237 OA
ATOM     79  O   UNL A   1      43.139  37.289  34.032  1.00  0.00    -0.744 OA
ENDBRANCH  75  76
ENDBRANCH  54  68
BRANCH  55  80
ATOM     80  C   UNL A   1      42.722  23.651  27.757  1.00  0.00     0.058 A 
ATOM     81  C   UNL A   1      42.415  22.548  28.566  1.00  0.00     0.135 A 
ATOM     82  C   UNL A   1      42.855  23.431  26.377  1.00  0.00     0.135 A 
ATOM     83  F   UNL A   1      42.283  22.706  29.893  1.00  0.00    -0.206 F 
ATOM     84  C   UNL A   1      42.262  21.272  28.034  1.00  0.00     0.059 A 
ATOM     85  C   UNL A   1      42.681  22.169  25.818  1.00  0.00     0.059 A 
ATOM     86  F   UNL A   1      43.133  24.455  25.556  1.00  0.00    -0.206 F 
ATOM     87  C   UNL A   1      42.394  21.092  26.656  1.00  0.00     0.060 A 
BRANCH  87  88
ATOM     88  S   UNL A   1      42.146  19.441  25.971  1.00  0.00     0.124 S 
ATOM     89  O   UNL A   1      42.672  18.597  27.038  1.00  0.00    -0.237 OA
ATOM     90  O   UNL A   1      40.700  19.402  25.780  1.00  0.00    -0.237 OA
ATOM     91  O   UNL A   1      42.933  19.466  24.741  1.00  0.00    -0.744 OA
ENDBRANCH  87  88
ENDBRANCH  55  80
BRANCH  67  92
ATOM     92  C   UNL A   1      48.079  26.964  30.761  1.00  0.00     0.058 A 
ATOM     93  C   UNL A   1      49.131  27.150  29.852  1.00  0.00     0.135 A 
ATOM     94  C   UNL A   1      48.389  26.417  32.018  1.00  0.00     0.135 A 
ATOM     95  F   UNL A   1      48.889  27.663  28.635  1.00  0.00    -0.206 F 
ATOM     96  C   UNL A   1      50.436  26.789  30.166  1.00  0.00     0.059 A 
ATOM     97  C   UNL A   1      49.691  26.075  32.366  1.00  0.00     0.059 A 
ATOM     98  F   UNL A   1      47.422  26.227  32.930  1.00  0.00    -0.206 F 
ATOM     99  C   UNL A   1      50.708  26.254  31.427  1.00  0.00     0.060 A 
BRANCH  99 100
ATOM    100  S   UNL A   1      52.411  25.822  31.837  1.00  0.00     0.124 S 
ATOM    101  O   UNL A   1      52.270  24.430  32.250  1.00  0.00    -0.237 OA
ATOM    102  O   UNL A   1      53.102  26.041  30.570  1.00  0.00    -0.237 OA
ATOM    103  O   UNL A   1      52.755  26.761  32.901  1.00  0.00    -0.744 OA
ENDBRANCH  99 100
ENDBRANCH  67  92
ENDBRANCH  41  42
ENDBRANCH  33  36
ENDBRANCH  31  32
ENDBRANCH  30  31
ENDBRANCH   1  30
TORSDOF 18
ENDMDL
MODEL 2
REMARK VINA RESULT:      -9.9      5.630     12.500
REMARK SMILES CC(C)(C(=O)NCCCCNC(=O)c1ccc(-c2c3nc(c(-c4c(F)cc(S(=O)(=O)[O-])cc4F)c4ccc([nH]4)c(-c4c(F)cc(S(=O)(=O)[O-])cc4F)c4nc(c(-c5c(F)cc(S(=O)(=O)[O-])cc5F)c5ccc2[nH]5)C=C4)C=C3)cc1)c1ccc(NS(=O)(=O)c2c(F)cc(F)cc2F)cc1
REMARK SMILES IDX 8 1 7 2 6 3 4 4 5 5 2 7 1 8 3 9 80 10 81 11 98 12 82 13
REMARK SMILES IDX 97 14 83 15 84 16 85 18 86 19 87 20 88 21 89 22 95 23 90 24
REMARK SMILES IDX 91 25 94 26 96 27 92 28 93 29 9 30 10 31 11 32 12 33 13 35
REMARK SMILES IDX 14 36 15 37 79 38 16 39 78 40 17 41 18 42 19 43 72 44 20 45
REMARK SMILES IDX 77 46 71 47 73 48 21 49 76 50 70 51 69 52 22 54 56 55 35 56
REMARK SMILES IDX 55 57 36 58 39 59 54 60 74 61 37 62 38 63 53 65 75 66 40 67
REMARK SMILES IDX 23 68 24 69 33 70 25 71 26 72 32 73 34 74 27 75 28 76 29 77
REMARK SMILES IDX 30 78 31 79 57 80 58 81 67 82 59 83 60 84 66 85 68 86 61 87
REMARK SMILES IDX 62 88 63 89 64 90 65 91 41 92 42 93 51 94 43 95 44 96 50 97
REMARK SMILES IDX 52 98 45 99 46 100 47 101 48 102 49 103
REMARK H PARENT 6 6 84 17 11 34 73 53 39 64
REMARK Flexibility Score: inf
ROOT
ATOM      1  C   UNL A   1      36.349  23.846  25.770  1.00  0.00     0.023 C 
ENDROOT
BRANCH   1   2
ATOM      2  C   UNL A   1      35.259  22.812  26.033  1.00  0.00     0.116 C 
BRANCH   2   3
ATOM      3  N   UNL A   1      35.671  21.478  25.645  1.00  0.00    -0.355 N 
ATOM      4  C   UNL A   1      35.008  20.410  25.129  1.00  0.00     0.230 C 
ATOM      5  O   UNL A   1      35.751  19.520  24.697  1.00  0.00    -0.274 OA
ATOM      6  H   UNL A   1      36.631  21.311  25.783  1.00  0.00     0.163 HD
BRANCH   4   7
ATOM      7  C   UNL A   1      33.451  20.322  25.028  1.00  0.00     0.068 C 
ATOM      8  C   UNL A   1      32.988  19.177  24.103  1.00  0.00     0.026 C 
ATOM      9  C   UNL A   1      32.935  20.108  26.466  1.00  0.00     0.026 C 
BRANCH   7  10
ATOM     10  C   UNL A   1      32.832  21.604  24.387  1.00  0.00    -0.033 A 
ATOM     11  C   UNL A   1      33.241  22.025  23.108  1.00  0.00     0.007 A 
ATOM     12  C   UNL A   1      31.804  22.343  25.002  1.00  0.00     0.007 A 
ATOM     13  C   UNL A   1      32.698  23.159  22.503  1.00  0.00     0.027 A 
ATOM     14  C   UNL A   1      31.198  23.433  24.353  1.00  0.00     0.027 A 
ATOM     15  C   UNL A   1      31.629  23.825  23.086  1.00  0.00     0.049 A 
BRANCH  15  16
ATOM     16  N   UNL A   1      31.030  24.944  22.416  1.00  0.00    -0.279 N 
ATOM     17  H   UNL A   1      30.155  24.839  21.975  1.00  0.00     0.180 HD
BRANCH  16  18
ATOM     18  S   UNL A   1      31.825  26.460  22.378  1.00  0.00     0.267 S 
ATOM     19  O   UNL A   1      33.053  26.270  21.639  1.00  0.00    -0.201 OA
ATOM     20  O   UNL A   1      30.839  27.387  21.853  1.00  0.00    -0.201 OA
BRANCH  18  21
ATOM     21  C   UNL A   1      32.241  26.932  24.014  1.00  0.00     0.159 A 
ATOM     22  C   UNL A   1      31.348  27.708  24.749  1.00  0.00     0.149 A 
ATOM     23  C   UNL A   1      33.433  26.531  24.609  1.00  0.00     0.149 A 
ATOM     24  F   UNL A   1      30.172  28.089  24.234  1.00  0.00    -0.205 F 
ATOM     25  C   UNL A   1      31.684  28.178  26.015  1.00  0.00     0.080 A 
ATOM     26  C   UNL A   1      33.768  26.967  25.891  1.00  0.00     0.080 A 
ATOM     27  F   UNL A   1      34.304  25.729  23.985  1.00  0.00    -0.205 F 
ATOM     28  C   UNL A   1      32.900  27.809  26.572  1.00  0.00     0.129 A 
ATOM     29  F   UNL A   1      33.237  28.269  27.783  1.00  0.00    -0.207 F 
ENDBRANCH  18  21
ENDBRANCH  16  18
ENDBRANCH  15  16
ENDBRANCH   7  10
ENDBRANCH   4   7
ENDBRANCH   2   3
ENDBRANCH   1   2
BRANCH   1  30
ATOM     30  C   UNL A   1      37.772  23.283  25.717  1.00  0.00     0.023 C 
BRANCH  30  31
ATOM     31  C   UNL A   1      38.741  23.853  26.747  1.00  0.00     0.116 C 
BRANCH  31  32
ATOM     32  N   UNL A   1      40.118  23.882  26.278  1.00  0.00    -0.352 N 
ATOM     33  C   UNL A   1      41.107  24.795  26.556  1.00  0.00     0.251 C 
ATOM     34  H   UNL A   1      40.377  23.145  25.680  1.00  0.00     0.163 HD
ATOM     35  O   UNL A   1      42.183  24.731  25.969  1.00  0.00    -0.269 OA
BRANCH  33  36
ATOM     36  C   UNL A   1      40.849  25.870  27.535  1.00  0.00     0.039 A 
ATOM     37  C   UNL A   1      39.854  25.683  28.495  1.00  0.00     0.014 A 
ATOM     38  C   UNL A   1      41.614  27.039  27.527  1.00  0.00     0.014 A 
ATOM     39  C   UNL A   1      39.673  26.641  29.495  1.00  0.00     0.010 A 
ATOM     40  C   UNL A   1      41.484  27.954  28.567  1.00  0.00     0.010 A 
ATOM     41  C   UNL A   1      40.512  27.765  29.562  1.00  0.00    -0.014 A 
BRANCH  41  42
ATOM     42  C   UNL A   1      40.396  28.748  30.669  1.00  0.00     0.031 A 
ATOM     43  C   UNL A   1      41.265  28.615  31.891  1.00  0.00     0.074 A 
ATOM     44  C   UNL A   1      39.464  29.720  30.603  1.00  0.00     0.049 A 
ATOM     45  N   UNL A   1      41.269  29.333  32.984  1.00  0.00    -0.248 NA
ATOM     46  C   UNL A   1      42.240  27.512  31.896  1.00  0.00     0.031 C 
ATOM     47  C   UNL A   1      38.529  29.921  29.494  1.00  0.00     0.029 A 
ATOM     48  N   UNL A   1      39.142  30.716  31.491  1.00  0.00    -0.354 N 
ATOM     49  C   UNL A   1      42.229  28.762  33.811  1.00  0.00     0.074 A 
ATOM     50  C   UNL A   1      42.749  27.605  33.115  1.00  0.00     0.031 C 
ATOM     51  C   UNL A   1      37.759  30.990  29.755  1.00  0.00     0.029 A 
ATOM     52  C   UNL A   1      38.114  31.524  31.065  1.00  0.00     0.049 A 
ATOM     53  H   UNL A   1      39.603  30.840  32.351  1.00  0.00     0.167 HD
ATOM     54  C   UNL A   1      42.652  29.176  35.029  1.00  0.00     0.037 A 
ATOM     55  C   UNL A   1      37.521  32.575  31.666  1.00  0.00     0.037 A 
ATOM     56  C   UNL A   1      42.146  30.345  35.702  1.00  0.00     0.049 A 
ATOM     57  C   UNL A   1      38.008  33.015  33.020  1.00  0.00     0.074 A 
ATOM     58  C   UNL A   1      42.557  30.888  36.906  1.00  0.00     0.029 A 
ATOM     59  N   UNL A   1      41.116  31.147  35.232  1.00  0.00    -0.354 N 
ATOM     60  N   UNL A   1      38.967  32.506  33.756  1.00  0.00    -0.248 NA
ATOM     61  C   UNL A   1      37.338  34.175  33.623  1.00  0.00     0.031 C 
ATOM     62  C   UNL A   1      41.743  31.989  37.188  1.00  0.00     0.029 A 
ATOM     63  C   UNL A   1      40.861  32.167  36.134  1.00  0.00     0.049 A 
ATOM     64  H   UNL A   1      40.638  31.012  34.382  1.00  0.00     0.167 HD
ATOM     65  C   UNL A   1      39.035  33.301  34.895  1.00  0.00     0.074 A 
ATOM     66  C   UNL A   1      38.029  34.331  34.744  1.00  0.00     0.031 C 
ATOM     67  C   UNL A   1      39.859  33.191  35.966  1.00  0.00     0.037 A 
BRANCH  54  68
ATOM     68  C   UNL A   1      43.716  28.362  35.712  1.00  0.00     0.058 A 
ATOM     69  C   UNL A   1      45.083  28.599  35.496  1.00  0.00     0.135 A 
ATOM     70  C   UNL A   1      43.366  27.353  36.625  1.00  0.00     0.135 A 
ATOM     71  F   UNL A   1      45.476  29.541  34.623  1.00  0.00    -0.206 F 
ATOM     72  C   UNL A   1      46.064  27.846  36.133  1.00  0.00     0.059 A 
ATOM     73  C   UNL A   1      44.329  26.606  37.296  1.00  0.00     0.059 A 
ATOM     74  F   UNL A   1      42.074  27.081  36.870  1.00  0.00    -0.206 F 
ATOM     75  C   UNL A   1      45.677  26.851  37.032  1.00  0.00     0.060 A 
BRANCH  75  76
ATOM     76  S   UNL A   1      46.961  25.886  37.854  1.00  0.00     0.124 S 
ATOM     77  O   UNL A   1      47.237  24.859  36.855  1.00  0.00    -0.237 OA
ATOM     78  O   UNL A   1      48.016  26.876  38.052  1.00  0.00    -0.237 OA
ATOM     79  O   UNL A   1      46.309  25.417  39.072  1.00  0.00    -0.744 OA
ENDBRANCH  75  76
ENDBRANCH  54  68
BRANCH  55  80
ATOM     80  C   UNL A   1      36.418  33.301  30.979  1.00  0.00     0.058 A 
ATOM     81  C   UNL A   1      35.091  33.171  31.410  1.00  0.00     0.135 A 
ATOM     82  C   UNL A   1      36.669  34.147  29.887  1.00  0.00     0.135 A 
ATOM     83  F   UNL A   1      34.798  32.369  32.446  1.00  0.00    -0.206 F 
ATOM     84  C   UNL A   1      34.047  33.837  30.775  1.00  0.00     0.059 A 
ATOM     85  C   UNL A   1      35.646  34.845  29.252  1.00  0.00     0.059 A 
ATOM     86  F   UNL A   1      37.924  34.321  29.445  1.00  0.00    -0.206 F 
ATOM     87  C   UNL A   1      34.336  34.675  29.697  1.00  0.00     0.060 A 
BRANCH  87  88
ATOM     88  S   UNL A   1      32.981  35.572  28.912  1.00  0.00     0.124 S 
ATOM     89  O   UNL A   1      32.357  34.523  28.113  1.00  0.00    -0.237 OA
ATOM     90  O   UNL A   1      32.215  36.040  30.063  1.00  0.00    -0.237 OA
ATOM     91  O   UNL A   1      33.664  36.618  28.156  1.00  0.00    -0.744 OA
ENDBRANCH  87  88
ENDBRANCH  55  80
BRANCH  67  92
ATOM     92  C   UNL A   1      39.737  34.230  37.046  1.00  0.00     0.058 A 
ATOM     93  C   UNL A   1      39.006  33.994  38.221  1.00  0.00     0.135 A 
ATOM     94  C   UNL A   1      40.407  35.459  36.927  1.00  0.00     0.135 A 
ATOM     95  F   UNL A   1      38.341  32.839  38.383  1.00  0.00    -0.206 F 
ATOM     96  C   UNL A   1      38.924  34.948  39.229  1.00  0.00     0.059 A 
ATOM     97  C   UNL A   1      40.363  36.416  37.935  1.00  0.00     0.059 A 
ATOM     98  F   UNL A   1      41.130  35.731  35.829  1.00  0.00    -0.206 F 
ATOM     99  C   UNL A   1      39.608  36.156  39.079  1.00  0.00     0.060 A 
BRANCH  99 100
ATOM    100  S   UNL A   1      39.523  37.372  40.410  1.00  0.00     0.124 S 
ATOM    101  O   UNL A   1      38.930  36.587  41.487  1.00  0.00    -0.237 OA
ATOM    102  O   UNL A   1      40.926  37.737  40.588  1.00  0.00    -0.237 OA
ATOM    103  O   UNL A   1      38.674  38.423  39.858  1.00  0.00    -0.744 OA
ENDBRANCH  99 100
ENDBRANCH  67  92
ENDBRANCH  41  42
ENDBRANCH  33  36
ENDBRANCH  31  32
ENDBRANCH  30  31
ENDBRANCH   1  30
TORSDOF 18
ENDMDL
MODEL 3
REMARK VINA RESULT:      -9.9      0.622      8.047
REMARK SMILES CC(C)(C(=O)NCCCCNC(=O)c1ccc(-c2c3nc(c(-c4c(F)cc(S(=O)(=O)[O-])cc4F)c4ccc([nH]4)c(-c4c(F)cc(S(=O)(=O)[O-])cc4F)c4nc(c(-c5c(F)cc(S(=O)(=O)[O-])cc5F)c5ccc2[nH]5)C=C4)C=C3)cc1)c1ccc(NS(=O)(=O)c2c(F)cc(F)cc2F)cc1
REMARK SMILES IDX 8 1 7 2 6 3 4 4 5 5 2 7 1 8 3 9 80 10 81 11 98 12 82 13
REMARK SMILES IDX 97 14 83 15 84 16 85 18 86 19 87 20 88 21 89 22 95 23 90 24
REMARK SMILES IDX 91 25 94 26 96 27 92 28 93 29 9 30 10 31 11 32 12 33 13 35
REMARK SMILES IDX 14 36 15 37 79 38 16 39 78 40 17 41 18 42 19 43 72 44 20 45
REMARK SMILES IDX 77 46 71 47 73 48 21 49 76 50 70 51 69 52 22 54 56 55 35 56
REMARK SMILES IDX 55 57 36 58 39 59 54 60 74 61 37 62 38 63 53 65 75 66 40 67
REMARK SMILES IDX 23 68 24 69 33 70 25 71 26 72 32 73 34 74 27 75 28 76 29 77
REMARK SMILES IDX 30 78 31 79 57 80 58 81 67 82 59 83 60 84 66 85 68 86 61 87
REMARK SMILES IDX 62 88 63 89 64 90 65 91 41 92 42 93 51 94 43 95 44 96 50 97
REMARK SMILES IDX 52 98 45 99 46 100 47 101 48 102 49 103
REMARK H PARENT 6 6 84 17 11 34 73 53 39 64
REMARK Flexibility Score: inf
ROOT
ATOM      1  C   UNL A   1      37.201  33.492  28.971  1.00  0.00     0.023 C 
ENDROOT
BRANCH   1   2
ATOM      2  C   UNL A   1      37.424  32.892  30.356  1.00  0.00     0.116 C 
BRANCH   2   3
ATOM      3  N   UNL A   1      37.653  33.912  31.360  1.00  0.00    -0.355 N 
ATOM      4  C   UNL A   1      37.696  33.892  32.718  1.00  0.00     0.230 C 
ATOM      5  O   UNL A   1      38.164  34.920  33.220  1.00  0.00    -0.274 OA
ATOM      6  H   UNL A   1      37.809  34.805  30.979  1.00  0.00     0.163 HD
BRANCH   4   7
ATOM      7  C   UNL A   1      37.256  32.665  33.581  1.00  0.00     0.068 C 
ATOM      8  C   UNL A   1      37.057  33.035  35.066  1.00  0.00     0.026 C 
ATOM      9  C   UNL A   1      35.939  32.151  32.962  1.00  0.00     0.026 C 
BRANCH   7  10
ATOM     10  C   UNL A   1      38.346  31.547  33.609  1.00  0.00    -0.033 A 
ATOM     11  C   UNL A   1      38.072  30.277  33.071  1.00  0.00     0.007 A 
ATOM     12  C   UNL A   1      39.651  31.767  34.089  1.00  0.00     0.007 A 
ATOM     13  C   UNL A   1      39.028  29.261  33.069  1.00  0.00     0.027 A 
ATOM     14  C   UNL A   1      40.638  30.770  34.006  1.00  0.00     0.027 A 
ATOM     15  C   UNL A   1      40.332  29.521  33.468  1.00  0.00     0.049 A 
BRANCH  15  16
ATOM     16  N   UNL A   1      41.324  28.488  33.390  1.00  0.00    -0.279 N 
ATOM     17  H   UNL A   1      41.525  28.067  32.521  1.00  0.00     0.180 HD
BRANCH  16  18
ATOM     18  S   UNL A   1      42.163  27.980  34.794  1.00  0.00     0.267 S 
ATOM     19  O   UNL A   1      43.341  28.810  34.902  1.00  0.00    -0.201 OA
ATOM     20  O   UNL A   1      41.177  28.035  35.859  1.00  0.00    -0.201 OA
BRANCH  18  21
ATOM     21  C   UNL A   1      42.685  26.320  34.582  1.00  0.00     0.159 A 
ATOM     22  C   UNL A   1      42.005  25.300  35.244  1.00  0.00     0.149 A 
ATOM     23  C   UNL A   1      43.748  25.990  33.747  1.00  0.00     0.149 A 
ATOM     24  F   UNL A   1      40.953  25.563  36.029  1.00  0.00    -0.205 F 
ATOM     25  C   UNL A   1      42.448  23.982  35.173  1.00  0.00     0.080 A 
ATOM     26  C   UNL A   1      44.181  24.668  33.640  1.00  0.00     0.080 A 
ATOM     27  F   UNL A   1      44.400  26.911  33.029  1.00  0.00    -0.205 F 
ATOM     28  C   UNL A   1      43.542  23.680  34.375  1.00  0.00     0.129 A 
ATOM     29  F   UNL A   1      43.983  22.418  34.313  1.00  0.00    -0.207 F 
ENDBRANCH  18  21
ENDBRANCH  16  18
ENDBRANCH  15  16
ENDBRANCH   7  10
ENDBRANCH   4   7
ENDBRANCH   2   3
ENDBRANCH   1   2
BRANCH   1  30
ATOM     30  C   UNL A   1      35.775  33.355  28.432  1.00  0.00     0.023 C 
BRANCH  30  31
ATOM     31  C   UNL A   1      34.821  32.544  29.303  1.00  0.00     0.116 C 
BRANCH  31  32
ATOM     32  N   UNL A   1      34.064  31.556  28.549  1.00  0.00    -0.352 N 
ATOM     33  C   UNL A   1      34.495  30.376  27.994  1.00  0.00     0.251 C 
ATOM     34  H   UNL A   1      33.109  31.762  28.421  1.00  0.00     0.163 HD
ATOM     35  O   UNL A   1      33.741  29.722  27.280  1.00  0.00    -0.269 OA
BRANCH  33  36
ATOM     36  C   UNL A   1      35.880  29.925  28.232  1.00  0.00     0.039 A 
ATOM     37  C   UNL A   1      36.821  30.064  27.210  1.00  0.00     0.014 A 
ATOM     38  C   UNL A   1      36.256  29.401  29.472  1.00  0.00     0.014 A 
ATOM     39  C   UNL A   1      38.158  29.745  27.457  1.00  0.00     0.010 A 
ATOM     40  C   UNL A   1      37.599  29.156  29.739  1.00  0.00     0.010 A 
ATOM     41  C   UNL A   1      38.565  29.326  28.734  1.00  0.00    -0.014 A 
BRANCH  41  42
ATOM     42  C   UNL A   1      39.995  29.069  29.041  1.00  0.00     0.031 A 
ATOM     43  C   UNL A   1      40.613  27.740  28.697  1.00  0.00     0.074 A 
ATOM     44  C   UNL A   1      40.716  30.006  29.688  1.00  0.00     0.049 A 
ATOM     45  N   UNL A   1      41.823  27.305  28.941  1.00  0.00    -0.248 NA
ATOM     46  C   UNL A   1      39.751  26.762  28.014  1.00  0.00     0.031 C 
ATOM     47  C   UNL A   1      40.214  31.312  30.119  1.00  0.00     0.029 A 
ATOM     48  N   UNL A   1      42.024  30.001  30.106  1.00  0.00    -0.354 N 
ATOM     49  C   UNL A   1      41.861  26.002  28.459  1.00  0.00     0.074 A 
ATOM     50  C   UNL A   1      40.539  25.699  27.957  1.00  0.00     0.031 C 
ATOM     51  C   UNL A   1      41.208  31.992  30.714  1.00  0.00     0.029 A 
ATOM     52  C   UNL A   1      42.404  31.157  30.745  1.00  0.00     0.049 A 
ATOM     53  H   UNL A   1      42.632  29.241  29.961  1.00  0.00     0.167 HD
ATOM     54  C   UNL A   1      42.909  25.145  28.418  1.00  0.00     0.037 A 
ATOM     55  C   UNL A   1      43.583  31.503  31.301  1.00  0.00     0.037 A 
ATOM     56  C   UNL A   1      44.229  25.465  28.896  1.00  0.00     0.049 A 
ATOM     57  C   UNL A   1      44.731  30.533  31.244  1.00  0.00     0.074 A 
ATOM     58  C   UNL A   1      45.375  24.693  28.837  1.00  0.00     0.029 A 
ATOM     59  N   UNL A   1      44.579  26.652  29.523  1.00  0.00    -0.354 N 
ATOM     60  N   UNL A   1      44.770  29.331  30.719  1.00  0.00    -0.248 NA
ATOM     61  C   UNL A   1      45.999  30.966  31.850  1.00  0.00     0.031 C 
ATOM     62  C   UNL A   1      46.406  25.391  29.474  1.00  0.00     0.029 A 
ATOM     63  C   UNL A   1      45.917  26.623  29.880  1.00  0.00     0.049 A 
ATOM     64  H   UNL A   1      43.967  27.405  29.690  1.00  0.00     0.167 HD
ATOM     65  C   UNL A   1      46.072  28.877  30.905  1.00  0.00     0.074 A 
ATOM     66  C   UNL A   1      46.791  29.938  31.580  1.00  0.00     0.031 C 
ATOM     67  C   UNL A   1      46.622  27.691  30.545  1.00  0.00     0.037 A 
BRANCH  54  68
ATOM     68  C   UNL A   1      42.671  23.778  27.836  1.00  0.00     0.058 A 
ATOM     69  C   UNL A   1      42.601  23.566  26.450  1.00  0.00     0.135 A 
ATOM     70  C   UNL A   1      42.546  22.658  28.675  1.00  0.00     0.135 A 
ATOM     71  F   UNL A   1      42.699  24.602  25.601  1.00  0.00    -0.206 F 
ATOM     72  C   UNL A   1      42.385  22.300  25.916  1.00  0.00     0.059 A 
ATOM     73  C   UNL A   1      42.359  21.378  28.163  1.00  0.00     0.059 A 
ATOM     74  F   UNL A   1      42.603  22.802  30.008  1.00  0.00    -0.206 F 
ATOM     75  C   UNL A   1      42.265  21.211  26.781  1.00  0.00     0.060 A 
BRANCH  75  76
ATOM     76  S   UNL A   1      41.989  19.574  26.073  1.00  0.00     0.124 S 
ATOM     77  O   UNL A   1      40.563  19.626  25.770  1.00  0.00    -0.237 OA
ATOM     78  O   UNL A   1      42.882  19.581  24.918  1.00  0.00    -0.237 OA
ATOM     79  O   UNL A   1      42.369  18.667  27.150  1.00  0.00    -0.744 OA
ENDBRANCH  75  76
ENDBRANCH  54  68
BRANCH  55  80
ATOM     80  C   UNL A   1      43.744  32.841  31.933  1.00  0.00     0.058 A 
ATOM     81  C   UNL A   1      43.950  33.987  31.152  1.00  0.00     0.135 A 
ATOM     82  C   UNL A   1      43.685  33.003  33.326  1.00  0.00     0.135 A 
ATOM     83  F   UNL A   1      44.020  33.883  29.816  1.00  0.00    -0.206 F 
ATOM     84  C   UNL A   1      44.109  35.244  31.727  1.00  0.00     0.059 A 
ATOM     85  C   UNL A   1      43.815  34.253  33.923  1.00  0.00     0.059 A 
ATOM     86  F   UNL A   1      43.474  31.941  34.119  1.00  0.00    -0.206 F 
ATOM     87  C   UNL A   1      44.037  35.367  33.115  1.00  0.00     0.060 A 
BRANCH  87  88
ATOM     88  S   UNL A   1      44.196  37.010  33.847  1.00  0.00     0.124 S 
ATOM     89  O   UNL A   1      45.395  36.853  34.664  1.00  0.00    -0.237 OA
ATOM     90  O   UNL A   1      44.333  37.859  32.667  1.00  0.00    -0.237 OA
ATOM     91  O   UNL A   1      42.947  37.171  34.585  1.00  0.00    -0.744 OA
ENDBRANCH  87  88
ENDBRANCH  55  80
BRANCH  67  92
ATOM     92  C   UNL A   1      48.083  27.486  30.839  1.00  0.00     0.058 A 
ATOM     93  C   UNL A   1      48.522  26.882  32.027  1.00  0.00     0.135 A 
ATOM     94  C   UNL A   1      49.054  27.851  29.891  1.00  0.00     0.135 A 
ATOM     95  F   UNL A   1      47.636  26.521  32.968  1.00  0.00    -0.206 F 
ATOM     96  C   UNL A   1      49.873  26.668  32.276  1.00  0.00     0.059 A 
ATOM     97  C   UNL A   1      50.409  27.619  30.106  1.00  0.00     0.059 A 
ATOM     98  F   UNL A   1      48.688  28.422  28.733  1.00  0.00    -0.206 F 
ATOM     99  C   UNL A   1      50.809  27.037  31.309  1.00  0.00     0.060 A 
BRANCH  99 100
ATOM    100  S   UNL A   1      52.557  26.721  31.629  1.00  0.00     0.124 S 
ATOM    101  O   UNL A   1      52.973  26.082  30.384  1.00  0.00    -0.237 OA
ATOM    102  O   UNL A   1      53.080  28.064  31.859  1.00  0.00    -0.237 OA
ATOM    103  O   UNL A   1      52.537  25.854  32.803  1.00  0.00    -0.744 OA
ENDBRANCH  99 100
ENDBRANCH  67  92
ENDBRANCH  41  42
ENDBRANCH  33  36
ENDBRANCH  31  32
ENDBRANCH  30  31
ENDBRANCH   1  30
TORSDOF 18
ENDMDL
