MODEL 1
REMARK VINA RESULT:     -11.7      0.000      0.000
REMARK SMILES CC(C)c1ccc([C@]2(C(=O)NCCCCNC(=O)c3ccc(-c4c5nc(c(-c6c(F)cc(S(=O)(=O)[O-])cc6F)c6ccc([nH]6)c(-c6c(F)cc(S(=O)(=O)[O-])cc6F)c6nc(c(-c7c(F)cc(S(=O)(=O)[O-])cc7F)c7ccc4[nH]7)C=C6)C=C5)cc3)CCC[C@@H]2C)cc1
REMARK SMILES IDX 14 1 13 2 12 3 11 4 9 5 10 6 8 8 85 9 88 10 86 11 87 12
REMARK SMILES IDX 89 13 7 14 4 15 5 16 91 17 6 18 90 19 2 20 1 21 3 22 15 23
REMARK SMILES IDX 16 24 17 25 18 27 19 28 20 29 84 30 21 31 83 32 22 33 23 34
REMARK SMILES IDX 24 35 77 36 25 37 82 38 76 39 78 40 26 41 81 42 75 43 74 44
REMARK SMILES IDX 27 46 61 47 40 48 60 49 41 50 44 51 59 52 79 53 42 54 43 55
REMARK SMILES IDX 58 57 80 58 45 59 28 60 29 61 38 62 30 63 31 64 37 65 39 66
REMARK SMILES IDX 32 67 33 68 34 69 35 70 36 71 62 72 63 73 72 74 64 75 65 76
REMARK SMILES IDX 71 77 73 78 66 79 67 80 68 81 69 82 70 83 46 84 47 85 56 86
REMARK SMILES IDX 48 87 49 88 55 89 57 90 50 91 51 92 52 93 53 94 54 95
REMARK H PARENT 11 7 16 26 78 45 44 56
REMARK Flexibility Score: inf
ROOT
ATOM      1  C   UNL A   1      34.032  28.454  25.620  1.00  0.00     0.023 C 
ENDROOT
BRANCH   1   2
ATOM      2  C   UNL A   1      33.118  29.291  24.727  1.00  0.00     0.023 C 
BRANCH   2   3
ATOM      3  C   UNL A   1      32.355  28.507  23.670  1.00  0.00     0.116 C 
BRANCH   3   4
ATOM      4  N   UNL A   1      33.174  27.678  22.824  1.00  0.00    -0.355 N 
ATOM      5  C   UNL A   1      33.191  26.339  22.587  1.00  0.00     0.230 C 
ATOM      6  O   UNL A   1      33.632  26.065  21.459  1.00  0.00    -0.274 OA
ATOM      7  H   UNL A   1      33.854  28.178  22.318  1.00  0.00     0.163 HD
BRANCH   5   8
ATOM      8  C   UNL A   1      32.756  25.182  23.597  1.00  0.00     0.077 C 
ATOM      9  C   UNL A   1      32.044  25.731  24.859  1.00  0.00     0.022 C 
ATOM     10  C   UNL A   1      31.682  24.181  23.014  1.00  0.00     0.006 C 
ATOM     11  C   UNL A   1      30.538  25.493  24.719  1.00  0.00     0.002 C 
ATOM     12  C   UNL A   1      30.310  24.736  23.418  1.00  0.00     0.005 C 
ATOM     13  C   UNL A   1      31.674  22.734  23.557  1.00  0.00     0.009 C 
BRANCH   8  14
ATOM     14  C   UNL A   1      34.097  24.473  23.970  1.00  0.00    -0.032 A 
ATOM     15  C   UNL A   1      36.548  23.144  24.599  1.00  0.00    -0.045 A 
ATOM     16  C   UNL A   1      35.944  22.980  23.352  1.00  0.00     0.004 A 
ATOM     17  C   UNL A   1      35.966  24.057  25.490  1.00  0.00     0.004 A 
ATOM     18  C   UNL A   1      34.761  23.657  23.036  1.00  0.00     0.005 A 
ATOM     19  C   UNL A   1      34.766  24.715  25.180  1.00  0.00     0.005 A 
BRANCH  15  20
ATOM     20  C   UNL A   1      37.818  22.412  25.000  1.00  0.00     0.013 C 
ATOM     21  C   UNL A   1      38.494  22.964  26.262  1.00  0.00     0.012 C 
ATOM     22  C   UNL A   1      37.553  20.914  25.160  1.00  0.00     0.012 C 
ENDBRANCH  15  20
ENDBRANCH   8  14
ENDBRANCH   5   8
ENDBRANCH   3   4
ENDBRANCH   2   3
ENDBRANCH   1   2
BRANCH   1  23
ATOM     23  C   UNL A   1      33.726  28.498  27.114  1.00  0.00     0.116 C 
BRANCH  23  24
ATOM     24  N   UNL A   1      33.548  29.838  27.657  1.00  0.00    -0.352 N 
ATOM     25  C   UNL A   1      34.482  30.622  28.300  1.00  0.00     0.251 C 
ATOM     26  H   UNL A   1      32.652  30.231  27.552  1.00  0.00     0.163 HD
ATOM     27  O   UNL A   1      34.168  31.706  28.766  1.00  0.00    -0.269 OA
BRANCH  25  28
ATOM     28  C   UNL A   1      35.859  30.103  28.455  1.00  0.00     0.039 A 
ATOM     29  C   UNL A   1      36.748  30.210  27.383  1.00  0.00     0.014 A 
ATOM     30  C   UNL A   1      36.284  29.573  29.676  1.00  0.00     0.014 A 
ATOM     31  C   UNL A   1      38.084  29.846  27.561  1.00  0.00     0.010 A 
ATOM     32  C   UNL A   1      37.632  29.296  29.875  1.00  0.00     0.010 A 
ATOM     33  C   UNL A   1      38.544  29.418  28.818  1.00  0.00    -0.014 A 
BRANCH  33  34
ATOM     34  C   UNL A   1      39.970  29.066  29.036  1.00  0.00     0.031 A 
ATOM     35  C   UNL A   1      40.908  30.076  29.641  1.00  0.00     0.074 A 
ATOM     36  C   UNL A   1      40.432  27.862  28.641  1.00  0.00     0.049 A 
ATOM     37  N   UNL A   1      42.187  29.971  29.892  1.00  0.00    -0.248 NA
ATOM     38  C   UNL A   1      40.339  31.393  29.975  1.00  0.00     0.031 C 
ATOM     39  C   UNL A   1      39.638  26.824  27.979  1.00  0.00     0.029 A 
ATOM     40  N   UNL A   1      41.684  27.308  28.739  1.00  0.00    -0.354 N 
ATOM     41  C   UNL A   1      42.578  31.209  30.388  1.00  0.00     0.074 A 
ATOM     42  C   UNL A   1      41.417  32.069  30.346  1.00  0.00     0.031 C 
ATOM     43  C   UNL A   1      40.410  25.745  27.769  1.00  0.00     0.029 A 
ATOM     44  C   UNL A   1      41.758  26.023  28.254  1.00  0.00     0.049 A 
ATOM     45  H   UNL A   1      42.455  27.786  29.120  1.00  0.00     0.167 HD
ATOM     46  C   UNL A   1      43.787  31.588  30.865  1.00  0.00     0.037 A 
ATOM     47  C   UNL A   1      42.795  25.163  28.221  1.00  0.00     0.037 A 
ATOM     48  C   UNL A   1      44.925  30.712  30.949  1.00  0.00     0.049 A 
ATOM     49  C   UNL A   1      44.117  25.590  28.800  1.00  0.00     0.074 A 
ATOM     50  C   UNL A   1      46.173  30.970  31.490  1.00  0.00     0.029 A 
ATOM     51  N   UNL A   1      44.953  29.406  30.484  1.00  0.00    -0.354 N 
ATOM     52  N   UNL A   1      44.449  26.739  29.340  1.00  0.00    -0.248 NA
ATOM     53  C   UNL A   1      45.202  24.599  28.779  1.00  0.00     0.031 C 
ATOM     54  C   UNL A   1      46.966  29.829  31.319  1.00  0.00     0.029 A 
ATOM     55  C   UNL A   1      46.198  28.847  30.713  1.00  0.00     0.049 A 
ATOM     56  H   UNL A   1      44.196  28.943  30.054  1.00  0.00     0.167 HD
ATOM     57  C   UNL A   1      45.769  26.596  29.756  1.00  0.00     0.074 A 
ATOM     58  C   UNL A   1      46.170  25.248  29.410  1.00  0.00     0.031 C 
ATOM     59  C   UNL A   1      46.574  27.497  30.372  1.00  0.00     0.037 A 
BRANCH  46  60
ATOM     60  C   UNL A   1      43.932  33.008  31.340  1.00  0.00     0.058 A 
ATOM     61  C   UNL A   1      43.699  33.367  32.678  1.00  0.00     0.135 A 
ATOM     62  C   UNL A   1      44.312  34.024  30.449  1.00  0.00     0.135 A 
ATOM     63  F   UNL A   1      43.315  32.440  33.570  1.00  0.00    -0.206 F 
ATOM     64  C   UNL A   1      43.799  34.687  33.107  1.00  0.00     0.059 A 
ATOM     65  C   UNL A   1      44.447  35.347  30.861  1.00  0.00     0.059 A 
ATOM     66  F   UNL A   1      44.547  33.738  29.158  1.00  0.00    -0.206 F 
ATOM     67  C   UNL A   1      44.169  35.670  32.189  1.00  0.00     0.060 A 
BRANCH  67  68
ATOM     68  S   UNL A   1      44.283  37.380  32.755  1.00  0.00     0.124 S 
ATOM     69  O   UNL A   1      44.139  38.112  31.500  1.00  0.00    -0.237 OA
ATOM     70  O   UNL A   1      43.158  37.481  33.679  1.00  0.00    -0.237 OA
ATOM     71  O   UNL A   1      45.605  37.446  33.372  1.00  0.00    -0.744 OA
ENDBRANCH  67  68
ENDBRANCH  46  60
BRANCH  47  72
ATOM     72  C   UNL A   1      42.609  23.790  27.679  1.00  0.00     0.058 A 
ATOM     73  C   UNL A   1      42.480  22.691  28.542  1.00  0.00     0.135 A 
ATOM     74  C   UNL A   1      42.546  23.548  26.299  1.00  0.00     0.135 A 
ATOM     75  F   UNL A   1      42.538  22.872  29.870  1.00  0.00    -0.206 F 
ATOM     76  C   UNL A   1      42.314  21.398  28.059  1.00  0.00     0.059 A 
ATOM     77  C   UNL A   1      42.358  22.265  25.791  1.00  0.00     0.059 A 
ATOM     78  F   UNL A   1      42.645  24.567  25.432  1.00  0.00    -0.206 F 
ATOM     79  C   UNL A   1      42.254  21.195  26.679  1.00  0.00     0.060 A 
BRANCH  79  80
ATOM     80  S   UNL A   1      41.991  19.518  26.061  1.00  0.00     0.124 S 
ATOM     81  O   UNL A   1      42.418  18.715  27.201  1.00  0.00    -0.237 OA
ATOM     82  O   UNL A   1      40.558  19.516  25.779  1.00  0.00    -0.237 OA
ATOM     83  O   UNL A   1      42.854  19.456  24.885  1.00  0.00    -0.744 OA
ENDBRANCH  79  80
ENDBRANCH  47  72
BRANCH  59  84
ATOM     84  C   UNL A   1      47.954  27.039  30.754  1.00  0.00     0.058 A 
ATOM     85  C   UNL A   1      48.202  26.368  31.961  1.00  0.00     0.135 A 
ATOM     86  C   UNL A   1      49.034  27.245  29.882  1.00  0.00     0.135 A 
ATOM     87  F   UNL A   1      47.204  26.149  32.831  1.00  0.00    -0.206 F 
ATOM     88  C   UNL A   1      49.482  25.947  32.306  1.00  0.00     0.059 A 
ATOM     89  C   UNL A   1      50.316  26.809  30.193  1.00  0.00     0.059 A 
ATOM     90  F   UNL A   1      48.847  27.871  28.708  1.00  0.00    -0.206 F 
ATOM     91  C   UNL A   1      50.534  26.175  31.415  1.00  0.00     0.060 A 
BRANCH  91  92
ATOM     92  S   UNL A   1      52.189  25.612  31.866  1.00  0.00     0.124 S 
ATOM     93  O   UNL A   1      52.478  26.451  33.024  1.00  0.00    -0.237 OA
ATOM     94  O   UNL A   1      51.976  24.196  32.146  1.00  0.00    -0.237 OA
ATOM     95  O   UNL A   1      52.979  25.896  30.671  1.00  0.00    -0.744 OA
ENDBRANCH  91  92
ENDBRANCH  59  84
ENDBRANCH  33  34
ENDBRANCH  25  28
ENDBRANCH  23  24
ENDBRANCH   1  23
TORSDOF 16
ENDMDL
MODEL 2
REMARK VINA RESULT:     -11.5      4.919     10.387
REMARK SMILES CC(C)c1ccc([C@]2(C(=O)NCCCCNC(=O)c3ccc(-c4c5nc(c(-c6c(F)cc(S(=O)(=O)[O-])cc6F)c6ccc([nH]6)c(-c6c(F)cc(S(=O)(=O)[O-])cc6F)c6nc(c(-c7c(F)cc(S(=O)(=O)[O-])cc7F)c7ccc4[nH]7)C=C6)C=C5)cc3)CCC[C@@H]2C)cc1
REMARK SMILES IDX 14 1 13 2 12 3 11 4 9 5 10 6 8 8 85 9 88 10 86 11 87 12
REMARK SMILES IDX 89 13 7 14 4 15 5 16 91 17 6 18 90 19 2 20 1 21 3 22 15 23
REMARK SMILES IDX 16 24 17 25 18 27 19 28 20 29 84 30 21 31 83 32 22 33 23 34
REMARK SMILES IDX 24 35 77 36 25 37 82 38 76 39 78 40 26 41 81 42 75 43 74 44
REMARK SMILES IDX 27 46 61 47 40 48 60 49 41 50 44 51 59 52 79 53 42 54 43 55
REMARK SMILES IDX 58 57 80 58 45 59 28 60 29 61 38 62 30 63 31 64 37 65 39 66
REMARK SMILES IDX 32 67 33 68 34 69 35 70 36 71 62 72 63 73 72 74 64 75 65 76
REMARK SMILES IDX 71 77 73 78 66 79 67 80 68 81 69 82 70 83 46 84 47 85 56 86
REMARK SMILES IDX 48 87 49 88 55 89 57 90 50 91 51 92 52 93 53 94 54 95
REMARK H PARENT 11 7 16 26 78 45 44 56
REMARK Flexibility Score: inf
ROOT
ATOM      1  C   UNL A   1      39.455  22.208  26.615  1.00  0.00     0.023 C 
ENDROOT
BRANCH   1   2
ATOM      2  C   UNL A   1      38.239  22.087  25.699  1.00  0.00     0.023 C 
BRANCH   2   3
ATOM      3  C   UNL A   1      37.363  23.329  25.622  1.00  0.00     0.116 C 
BRANCH   3   4
ATOM      4  N   UNL A   1      36.306  23.384  26.598  1.00  0.00    -0.355 N 
ATOM      5  C   UNL A   1      35.001  23.006  26.563  1.00  0.00     0.230 C 
ATOM      6  O   UNL A   1      34.563  22.711  27.686  1.00  0.00    -0.274 OA
ATOM      7  H   UNL A   1      36.583  23.770  27.460  1.00  0.00     0.163 HD
BRANCH   5   8
ATOM      8  C   UNL A   1      34.052  22.961  25.279  1.00  0.00     0.077 C 
ATOM      9  C   UNL A   1      32.690  23.661  25.522  1.00  0.00     0.022 C 
ATOM     10  C   UNL A   1      34.613  23.744  24.027  1.00  0.00     0.006 C 
ATOM     11  C   UNL A   1      32.713  25.032  24.842  1.00  0.00     0.002 C 
ATOM     12  C   UNL A   1      34.044  25.166  24.116  1.00  0.00     0.005 C 
ATOM     13  C   UNL A   1      34.189  23.258  22.623  1.00  0.00     0.009 C 
BRANCH   8  14
ATOM     14  C   UNL A   1      33.858  21.436  24.998  1.00  0.00    -0.032 A 
ATOM     15  C   UNL A   1      33.569  18.641  24.480  1.00  0.00    -0.045 A 
ATOM     16  C   UNL A   1      34.826  19.199  24.718  1.00  0.00     0.004 A 
ATOM     17  C   UNL A   1      32.451  19.478  24.603  1.00  0.00     0.004 A 
ATOM     18  C   UNL A   1      34.961  20.562  25.002  1.00  0.00     0.005 A 
ATOM     19  C   UNL A   1      32.591  20.849  24.864  1.00  0.00     0.005 A 
BRANCH  15  20
ATOM     20  C   UNL A   1      33.372  17.172  24.142  1.00  0.00     0.013 C 
ATOM     21  C   UNL A   1      34.169  16.692  22.922  1.00  0.00     0.012 C 
ATOM     22  C   UNL A   1      33.685  16.291  25.352  1.00  0.00     0.012 C 
ENDBRANCH  15  20
ENDBRANCH   8  14
ENDBRANCH   5   8
ENDBRANCH   3   4
ENDBRANCH   2   3
ENDBRANCH   1   2
BRANCH   1  23
ATOM     23  C   UNL A   1      39.929  23.629  26.908  1.00  0.00     0.116 C 
BRANCH  23  24
ATOM     24  N   UNL A   1      40.910  24.147  25.966  1.00  0.00    -0.352 N 
ATOM     25  C   UNL A   1      41.500  25.394  25.958  1.00  0.00     0.251 C 
ATOM     26  H   UNL A   1      41.186  23.534  25.247  1.00  0.00     0.163 HD
ATOM     27  O   UNL A   1      42.260  25.715  25.058  1.00  0.00    -0.269 OA
BRANCH  25  28
ATOM     28  C   UNL A   1      41.155  26.349  27.034  1.00  0.00     0.039 A 
ATOM     29  C   UNL A   1      40.293  25.939  28.053  1.00  0.00     0.014 A 
ATOM     30  C   UNL A   1      41.736  27.620  27.067  1.00  0.00     0.014 A 
ATOM     31  C   UNL A   1      40.066  26.784  29.141  1.00  0.00     0.010 A 
ATOM     32  C   UNL A   1      41.578  28.420  28.192  1.00  0.00     0.010 A 
ATOM     33  C   UNL A   1      40.733  28.017  29.236  1.00  0.00    -0.014 A 
BRANCH  33  34
ATOM     34  C   UNL A   1      40.536  28.910  30.406  1.00  0.00     0.031 A 
ATOM     35  C   UNL A   1      41.403  28.750  31.626  1.00  0.00     0.074 A 
ATOM     36  C   UNL A   1      39.545  29.824  30.393  1.00  0.00     0.049 A 
ATOM     37  N   UNL A   1      41.376  29.412  32.753  1.00  0.00    -0.248 NA
ATOM     38  C   UNL A   1      42.413  27.677  31.587  1.00  0.00     0.031 C 
ATOM     39  C   UNL A   1      38.593  30.029  29.298  1.00  0.00     0.029 A 
ATOM     40  N   UNL A   1      39.173  30.754  31.331  1.00  0.00    -0.354 N 
ATOM     41  C   UNL A   1      42.342  28.824  33.561  1.00  0.00     0.074 A 
ATOM     42  C   UNL A   1      42.895  27.713  32.821  1.00  0.00     0.031 C 
ATOM     43  C   UNL A   1      37.776  31.047  29.610  1.00  0.00     0.029 A 
ATOM     44  C   UNL A   1      38.124  31.550  30.934  1.00  0.00     0.049 A 
ATOM     45  H   UNL A   1      39.616  30.842  32.206  1.00  0.00     0.167 HD
ATOM     46  C   UNL A   1      42.753  29.194  34.797  1.00  0.00     0.037 A 
ATOM     47  C   UNL A   1      37.525  32.579  31.564  1.00  0.00     0.037 A 
ATOM     48  C   UNL A   1      42.232  30.330  35.509  1.00  0.00     0.049 A 
ATOM     49  C   UNL A   1      38.030  33.002  32.917  1.00  0.00     0.074 A 
ATOM     50  C   UNL A   1      42.633  30.841  36.731  1.00  0.00     0.029 A 
ATOM     51  N   UNL A   1      41.196  31.136  35.059  1.00  0.00    -0.354 N 
ATOM     52  N   UNL A   1      39.000  32.486  33.634  1.00  0.00    -0.248 NA
ATOM     53  C   UNL A   1      37.370  34.158  33.540  1.00  0.00     0.031 C 
ATOM     54  C   UNL A   1      41.817  31.936  37.035  1.00  0.00     0.029 A 
ATOM     55  C   UNL A   1      40.936  32.134  35.982  1.00  0.00     0.049 A 
ATOM     56  H   UNL A   1      40.717  31.016  34.206  1.00  0.00     0.167 HD
ATOM     57  C   UNL A   1      39.090  33.275  34.776  1.00  0.00     0.074 A 
ATOM     58  C   UNL A   1      38.081  34.306  34.650  1.00  0.00     0.031 C 
ATOM     59  C   UNL A   1      39.935  33.159  35.831  1.00  0.00     0.037 A 
BRANCH  46  60
ATOM     60  C   UNL A   1      43.826  28.364  35.449  1.00  0.00     0.058 A 
ATOM     61  C   UNL A   1      43.515  27.300  36.313  1.00  0.00     0.135 A 
ATOM     62  C   UNL A   1      45.182  28.630  35.203  1.00  0.00     0.135 A 
ATOM     63  F   UNL A   1      42.235  27.012  36.596  1.00  0.00    -0.206 F 
ATOM     64  C   UNL A   1      44.509  26.557  36.941  1.00  0.00     0.059 A 
ATOM     65  C   UNL A   1      46.194  27.880  35.798  1.00  0.00     0.059 A 
ATOM     66  F   UNL A   1      45.537  29.634  34.386  1.00  0.00    -0.206 F 
ATOM     67  C   UNL A   1      45.846  26.859  36.680  1.00  0.00     0.060 A 
BRANCH  67  68
ATOM     68  S   UNL A   1      47.126  25.894  37.511  1.00  0.00     0.124 S 
ATOM     69  O   UNL A   1      47.970  25.502  36.386  1.00  0.00    -0.237 OA
ATOM     70  O   UNL A   1      47.707  26.868  38.429  1.00  0.00    -0.237 OA
ATOM     71  O   UNL A   1      46.378  24.810  38.142  1.00  0.00    -0.744 OA
ENDBRANCH  67  68
ENDBRANCH  46  60
BRANCH  47  72
ATOM     72  C   UNL A   1      36.423  33.323  30.896  1.00  0.00     0.058 A 
ATOM     73  C   UNL A   1      35.100  33.199  31.345  1.00  0.00     0.135 A 
ATOM     74  C   UNL A   1      36.667  34.176  29.809  1.00  0.00     0.135 A 
ATOM     75  F   UNL A   1      34.816  32.392  32.378  1.00  0.00    -0.206 F 
ATOM     76  C   UNL A   1      34.053  33.877  30.730  1.00  0.00     0.059 A 
ATOM     77  C   UNL A   1      35.639  34.883  29.191  1.00  0.00     0.059 A 
ATOM     78  F   UNL A   1      37.917  34.344  29.353  1.00  0.00    -0.206 F 
ATOM     79  C   UNL A   1      34.333  34.719  29.652  1.00  0.00     0.060 A 
BRANCH  79  80
ATOM     80  S   UNL A   1      32.974  35.633  28.890  1.00  0.00     0.124 S 
ATOM     81  O   UNL A   1      32.364  34.606  28.054  1.00  0.00    -0.237 OA
ATOM     82  O   UNL A   1      32.198  36.055  30.053  1.00  0.00    -0.237 OA
ATOM     83  O   UNL A   1      33.653  36.709  28.176  1.00  0.00    -0.744 OA
ENDBRANCH  79  80
ENDBRANCH  47  72
BRANCH  59  84
ATOM     84  C   UNL A   1      39.835  34.203  36.909  1.00  0.00     0.058 A 
ATOM     85  C   UNL A   1      40.530  35.419  36.829  1.00  0.00     0.135 A 
ATOM     86  C   UNL A   1      39.004  33.992  38.022  1.00  0.00     0.135 A 
ATOM     87  F   UNL A   1      41.339  35.667  35.788  1.00  0.00    -0.206 F 
ATOM     88  C   UNL A   1      40.430  36.378  37.831  1.00  0.00     0.059 A 
ATOM     89  C   UNL A   1      38.868  34.948  39.021  1.00  0.00     0.059 A 
ATOM     90  F   UNL A   1      38.307  32.850  38.140  1.00  0.00    -0.206 F 
ATOM     91  C   UNL A   1      39.598  36.131  38.926  1.00  0.00     0.060 A 
BRANCH  91  92
ATOM     92  S   UNL A   1      39.465  37.389  40.214  1.00  0.00     0.124 S 
ATOM     93  O   UNL A   1      40.852  37.825  40.341  1.00  0.00    -0.237 OA
ATOM     94  O   UNL A   1      38.548  38.355  39.620  1.00  0.00    -0.237 OA
ATOM     95  O   UNL A   1      38.932  36.648  41.354  1.00  0.00    -0.744 OA
ENDBRANCH  91  92
ENDBRANCH  59  84
ENDBRANCH  33  34
ENDBRANCH  25  28
ENDBRANCH  23  24
ENDBRANCH   1  23
TORSDOF 16
ENDMDL
MODEL 3
REMARK VINA RESULT:     -11.4      4.883     10.514
REMARK SMILES CC(C)c1ccc([C@]2(C(=O)NCCCCNC(=O)c3ccc(-c4c5nc(c(-c6c(F)cc(S(=O)(=O)[O-])cc6F)c6ccc([nH]6)c(-c6c(F)cc(S(=O)(=O)[O-])cc6F)c6nc(c(-c7c(F)cc(S(=O)(=O)[O-])cc7F)c7ccc4[nH]7)C=C6)C=C5)cc3)CCC[C@@H]2C)cc1
REMARK SMILES IDX 14 1 13 2 12 3 11 4 9 5 10 6 8 8 85 9 88 10 86 11 87 12
REMARK SMILES IDX 89 13 7 14 4 15 5 16 91 17 6 18 90 19 2 20 1 21 3 22 15 23
REMARK SMILES IDX 16 24 17 25 18 27 19 28 20 29 84 30 21 31 83 32 22 33 23 34
REMARK SMILES IDX 24 35 77 36 25 37 82 38 76 39 78 40 26 41 81 42 75 43 74 44
REMARK SMILES IDX 27 46 61 47 40 48 60 49 41 50 44 51 59 52 79 53 42 54 43 55
REMARK SMILES IDX 58 57 80 58 45 59 28 60 29 61 38 62 30 63 31 64 37 65 39 66
REMARK SMILES IDX 32 67 33 68 34 69 35 70 36 71 62 72 63 73 72 74 64 75 65 76
REMARK SMILES IDX 71 77 73 78 66 79 67 80 68 81 69 82 70 83 46 84 47 85 56 86
REMARK SMILES IDX 48 87 49 88 55 89 57 90 50 91 51 92 52 93 53 94 54 95
REMARK H PARENT 11 7 16 26 78 45 44 56
REMARK Flexibility Score: inf
ROOT
ATOM      1  C   UNL A   1      37.413  23.425  26.112  1.00  0.00     0.023 C 
ENDROOT
BRANCH   1   2
ATOM      2  C   UNL A   1      36.131  24.036  25.551  1.00  0.00     0.023 C 
BRANCH   2   3
ATOM      3  C   UNL A   1      34.930  23.102  25.523  1.00  0.00     0.116 C 
BRANCH   3   4
ATOM      4  N   UNL A   1      33.893  23.421  26.469  1.00  0.00    -0.355 N 
ATOM      5  C   UNL A   1      32.658  23.971  26.330  1.00  0.00     0.230 C 
ATOM      6  O   UNL A   1      31.876  23.612  27.225  1.00  0.00    -0.274 OA
ATOM      7  H   UNL A   1      34.123  23.196  27.399  1.00  0.00     0.163 HD
BRANCH   5   8
ATOM      8  C   UNL A   1      32.191  25.003  25.204  1.00  0.00     0.077 C 
ATOM      9  C   UNL A   1      32.957  24.816  23.870  1.00  0.00     0.022 C 
ATOM     10  C   UNL A   1      30.686  24.836  24.753  1.00  0.00     0.006 C 
ATOM     11  C   UNL A   1      32.048  24.086  22.878  1.00  0.00     0.002 C 
ATOM     12  C   UNL A   1      30.699  23.882  23.552  1.00  0.00     0.005 C 
ATOM     13  C   UNL A   1      29.946  26.087  24.230  1.00  0.00     0.009 C 
BRANCH   8  14
ATOM     14  C   UNL A   1      32.479  26.407  25.827  1.00  0.00    -0.032 A 
ATOM     15  C   UNL A   1      32.951  28.972  26.996  1.00  0.00    -0.045 A 
ATOM     16  C   UNL A   1      31.868  28.189  27.399  1.00  0.00     0.004 A 
ATOM     17  C   UNL A   1      33.850  28.415  26.075  1.00  0.00     0.004 A 
ATOM     18  C   UNL A   1      31.658  26.921  26.847  1.00  0.00     0.005 A 
ATOM     19  C   UNL A   1      33.623  27.154  25.505  1.00  0.00     0.005 A 
BRANCH  15  20
ATOM     20  C   UNL A   1      33.208  30.365  27.546  1.00  0.00     0.013 C 
ATOM     21  C   UNL A   1      34.682  30.791  27.526  1.00  0.00     0.012 C 
ATOM     22  C   UNL A   1      32.353  31.402  26.815  1.00  0.00     0.012 C 
ENDBRANCH  15  20
ENDBRANCH   8  14
ENDBRANCH   5   8
ENDBRANCH   3   4
ENDBRANCH   2   3
ENDBRANCH   1   2
BRANCH   1  23
ATOM     23  C   UNL A   1      38.426  24.413  26.685  1.00  0.00     0.116 C 
BRANCH  23  24
ATOM     24  N   UNL A   1      39.704  24.442  25.989  1.00  0.00    -0.352 N 
ATOM     25  C   UNL A   1      40.825  25.180  26.308  1.00  0.00     0.251 C 
ATOM     26  H   UNL A   1      39.777  23.867  25.194  1.00  0.00     0.163 HD
ATOM     27  O   UNL A   1      41.810  25.155  25.587  1.00  0.00    -0.269 OA
BRANCH  25  28
ATOM     28  C   UNL A   1      40.791  26.037  27.514  1.00  0.00     0.039 A 
ATOM     29  C   UNL A   1      41.604  27.171  27.561  1.00  0.00     0.014 A 
ATOM     30  C   UNL A   1      39.911  25.753  28.561  1.00  0.00     0.014 A 
ATOM     31  C   UNL A   1      41.484  28.057  28.633  1.00  0.00     0.010 A 
ATOM     32  C   UNL A   1      39.731  26.680  29.580  1.00  0.00     0.010 A 
ATOM     33  C   UNL A   1      40.522  27.837  29.634  1.00  0.00    -0.014 A 
BRANCH  33  34
ATOM     34  C   UNL A   1      40.352  28.789  30.760  1.00  0.00     0.031 A 
ATOM     35  C   UNL A   1      41.215  28.662  31.987  1.00  0.00     0.074 A 
ATOM     36  C   UNL A   1      39.388  29.730  30.703  1.00  0.00     0.049 A 
ATOM     37  N   UNL A   1      41.208  29.378  33.081  1.00  0.00    -0.248 NA
ATOM     38  C   UNL A   1      42.193  27.560  32.000  1.00  0.00     0.031 C 
ATOM     39  C   UNL A   1      38.442  29.911  29.599  1.00  0.00     0.029 A 
ATOM     40  N   UNL A   1      39.044  30.715  31.596  1.00  0.00    -0.354 N 
ATOM     41  C   UNL A   1      42.157  28.801  33.917  1.00  0.00     0.074 A 
ATOM     42  C   UNL A   1      42.677  27.641  33.230  1.00  0.00     0.031 C 
ATOM     43  C   UNL A   1      37.655  30.966  29.861  1.00  0.00     0.029 A 
ATOM     44  C   UNL A   1      38.019  31.521  31.161  1.00  0.00     0.049 A 
ATOM     45  H   UNL A   1      39.490  30.831  32.466  1.00  0.00     0.167 HD
ATOM     46  C   UNL A   1      42.580  29.217  35.135  1.00  0.00     0.037 A 
ATOM     47  C   UNL A   1      37.450  32.596  31.741  1.00  0.00     0.037 A 
ATOM     48  C   UNL A   1      42.092  30.400  35.791  1.00  0.00     0.049 A 
ATOM     49  C   UNL A   1      37.969  33.068  33.073  1.00  0.00     0.074 A 
ATOM     50  C   UNL A   1      42.510  30.957  36.987  1.00  0.00     0.029 A 
ATOM     51  N   UNL A   1      41.081  31.214  35.302  1.00  0.00    -0.354 N 
ATOM     52  N   UNL A   1      38.923  32.558  33.814  1.00  0.00    -0.248 NA
ATOM     53  C   UNL A   1      37.343  34.270  33.640  1.00  0.00     0.031 C 
ATOM     54  C   UNL A   1      41.725  32.088  37.239  1.00  0.00     0.029 A 
ATOM     55  C   UNL A   1      40.850  32.261  36.177  1.00  0.00     0.049 A 
ATOM     56  H   UNL A   1      40.597  31.068  34.456  1.00  0.00     0.167 HD
ATOM     57  C   UNL A   1      39.037  33.397  34.917  1.00  0.00     0.074 A 
ATOM     58  C   UNL A   1      38.059  34.450  34.741  1.00  0.00     0.031 C 
ATOM     59  C   UNL A   1      39.879  33.308  35.977  1.00  0.00     0.037 A 
BRANCH  46  60
ATOM     60  C   UNL A   1      43.629  28.388  35.825  1.00  0.00     0.058 A 
ATOM     61  C   UNL A   1      45.000  28.609  35.618  1.00  0.00     0.135 A 
ATOM     62  C   UNL A   1      43.259  27.361  36.708  1.00  0.00     0.135 A 
ATOM     63  F   UNL A   1      45.410  29.566  34.770  1.00  0.00    -0.206 F 
ATOM     64  C   UNL A   1      45.967  27.818  36.231  1.00  0.00     0.059 A 
ATOM     65  C   UNL A   1      44.209  26.576  37.356  1.00  0.00     0.059 A 
ATOM     66  F   UNL A   1      41.962  27.105  36.943  1.00  0.00    -0.206 F 
ATOM     67  C   UNL A   1      45.560  26.801  37.094  1.00  0.00     0.060 A 
BRANCH  67  68
ATOM     68  S   UNL A   1      46.824  25.774  37.873  1.00  0.00     0.124 S 
ATOM     69  O   UNL A   1      47.810  26.777  38.267  1.00  0.00    -0.237 OA
ATOM     70  O   UNL A   1      46.090  25.145  38.965  1.00  0.00    -0.237 OA
ATOM     71  O   UNL A   1      47.240  24.874  36.800  1.00  0.00    -0.744 OA
ENDBRANCH  67  68
ENDBRANCH  46  60
BRANCH  47  72
ATOM     72  C   UNL A   1      36.370  33.340  31.037  1.00  0.00     0.058 A 
ATOM     73  C   UNL A   1      35.056  33.329  31.530  1.00  0.00     0.135 A 
ATOM     74  C   UNL A   1      36.626  34.078  29.873  1.00  0.00     0.135 A 
ATOM     75  F   UNL A   1      34.761  32.633  32.638  1.00  0.00    -0.206 F 
ATOM     76  C   UNL A   1      34.029  34.009  30.883  1.00  0.00     0.059 A 
ATOM     77  C   UNL A   1      35.619  34.785  29.221  1.00  0.00     0.059 A 
ATOM     78  F   UNL A   1      37.869  34.136  29.372  1.00  0.00    -0.206 F 
ATOM     79  C   UNL A   1      34.321  34.736  29.728  1.00  0.00     0.060 A 
BRANCH  79  80
ATOM     80  S   UNL A   1      32.990  35.655  28.923  1.00  0.00     0.124 S 
ATOM     81  O   UNL A   1      32.218  36.117  30.070  1.00  0.00    -0.237 OA
ATOM     82  O   UNL A   1      33.726  36.682  28.191  1.00  0.00    -0.237 OA
ATOM     83  O   UNL A   1      32.343  34.645  28.091  1.00  0.00    -0.744 OA
ENDBRANCH  79  80
ENDBRANCH  47  72
BRANCH  59  84
ATOM     84  C   UNL A   1      39.810  34.403  37.005  1.00  0.00     0.058 A 
ATOM     85  C   UNL A   1      40.550  35.588  36.873  1.00  0.00     0.135 A 
ATOM     86  C   UNL A   1      38.965  34.276  38.119  1.00  0.00     0.135 A 
ATOM     87  F   UNL A   1      41.375  35.758  35.828  1.00  0.00    -0.206 F 
ATOM     88  C   UNL A   1      40.479  36.596  37.828  1.00  0.00     0.059 A 
ATOM     89  C   UNL A   1      38.858  35.281  39.071  1.00  0.00     0.059 A 
ATOM     90  F   UNL A   1      38.226  33.166  38.284  1.00  0.00    -0.206 F 
ATOM     91  C   UNL A   1      39.632  36.432  38.927  1.00  0.00     0.060 A 
BRANCH  91  92
ATOM     92  S   UNL A   1      39.536  37.752  40.154  1.00  0.00     0.124 S 
ATOM     93  O   UNL A   1      39.273  36.998  41.375  1.00  0.00    -0.237 OA
ATOM     94  O   UNL A   1      40.857  38.366  40.061  1.00  0.00    -0.237 OA
ATOM     95  O   UNL A   1      38.433  38.579  39.675  1.00  0.00    -0.744 OA
ENDBRANCH  91  92
ENDBRANCH  59  84
ENDBRANCH  33  34
ENDBRANCH  25  28
ENDBRANCH  23  24
ENDBRANCH   1  23
TORSDOF 16
ENDMDL
