MODEL 1
REMARK VINA RESULT:     -11.8      0.000      0.000
REMARK SMILES C=C(C(=O)NCCCCNC(=O)c1ccc(-c2c3nc(c(-c4c(F)cc(S(=O)(=O)[O-])cc4F)c4ccc([nH]4)c(-c4c(F)cc(S(=O)(=O)[O-])cc4F)c4nc(c(-c5c(F)cc(S(=O)(=O)[O-])cc5F)c5ccc2[nH]5)C=C4)C=C3)cc1)[C@@H]1CC[C@]2(C)C[C@@H](O)CC(=C)[C@H]2C1
REMARK SMILES IDX 8 1 7 2 6 3 5 4 3 5 4 6 2 8 1 9 79 10 80 11 91 12 81 13
REMARK SMILES IDX 90 14 82 15 88 16 83 17 84 18 87 19 89 20 85 21 86 22 9 24
REMARK SMILES IDX 10 25 11 26 12 28 13 29 14 30 78 31 15 32 77 33 16 34 17 35
REMARK SMILES IDX 18 36 71 37 19 38 76 39 70 40 72 41 20 42 75 43 69 44 68 45
REMARK SMILES IDX 21 47 55 48 34 49 54 50 35 51 38 52 53 53 73 54 36 55 37 56
REMARK SMILES IDX 52 58 74 59 39 60 22 61 23 62 32 63 24 64 25 65 31 66 33 67
REMARK SMILES IDX 26 68 27 69 28 70 29 71 30 72 56 73 57 74 66 75 58 76 59 77
REMARK SMILES IDX 65 78 67 79 60 80 61 81 62 82 63 83 64 84 40 85 41 86 50 87
REMARK SMILES IDX 42 88 43 89 49 90 51 91 44 92 45 93 46 94 47 95 48 96
REMARK H PARENT 5 7 86 23 10 27 72 46 38 57
REMARK Flexibility Score: inf
ROOT
ATOM      1  C   UNL A   1      33.969  28.033  25.764  1.00  0.00     0.023 C 
ENDROOT
BRANCH   1   2
ATOM      2  C   UNL A   1      33.534  29.041  24.701  1.00  0.00     0.023 C 
BRANCH   2   3
ATOM      3  C   UNL A   1      33.626  28.591  23.245  1.00  0.00     0.116 C 
BRANCH   3   4
ATOM      4  N   UNL A   1      32.346  28.567  22.564  1.00  0.00    -0.352 N 
ATOM      5  C   UNL A   1      31.245  27.775  22.678  1.00  0.00     0.246 C 
ATOM      6  O   UNL A   1      30.265  28.092  22.007  1.00  0.00    -0.270 OA
ATOM      7  H   UNL A   1      32.254  29.267  21.877  1.00  0.00     0.163 HD
BRANCH   5   8
ATOM      8  C   UNL A   1      31.205  26.569  23.563  1.00  0.00     0.013 C 
ATOM      9  C   UNL A   1      30.426  26.581  24.662  1.00  0.00     0.018 C 
BRANCH   8  10
ATOM     10  C   UNL A   1      31.842  25.236  23.135  1.00  0.00     0.025 C 
ATOM     11  C   UNL A   1      30.862  24.051  23.255  1.00  0.00     0.009 C 
ATOM     12  C   UNL A   1      33.262  24.885  23.643  1.00  0.00     0.017 C 
ATOM     13  C   UNL A   1      30.967  23.268  24.561  1.00  0.00     0.008 C 
ATOM     14  C   UNL A   1      33.293  24.107  24.979  1.00  0.00     0.021 C 
ATOM     15  C   UNL A   1      32.411  22.825  24.909  1.00  0.00    -0.024 C 
ATOM     16  C   UNL A   1      34.677  23.763  25.525  1.00  0.00    -0.071 C 
ATOM     17  C   UNL A   1      32.912  21.820  23.842  1.00  0.00     0.012 C 
ATOM     18  C   UNL A   1      32.379  22.127  26.304  1.00  0.00     0.039 C 
ATOM     19  C   UNL A   1      34.635  23.162  26.917  1.00  0.00     0.062 C 
ATOM     20  C   UNL A   1      35.844  23.962  24.893  1.00  0.00     0.008 C 
ATOM     21  C   UNL A   1      33.748  21.910  26.965  1.00  0.00     0.119 C 
BRANCH  21  22
ATOM     22  O   UNL A   1      34.410  20.785  26.382  1.00  0.00    -0.393 OA
ATOM     23  H   UNL A   1      34.539  20.100  27.057  1.00  0.00     0.210 HD
ENDBRANCH  21  22
ENDBRANCH   8  10
ENDBRANCH   5   8
ENDBRANCH   3   4
ENDBRANCH   2   3
ENDBRANCH   1   2
BRANCH   1  24
ATOM     24  C   UNL A   1      33.535  28.315  27.197  1.00  0.00     0.116 C 
BRANCH  24  25
ATOM     25  N   UNL A   1      33.488  29.730  27.531  1.00  0.00    -0.352 N 
ATOM     26  C   UNL A   1      34.486  30.543  28.018  1.00  0.00     0.251 C 
ATOM     27  H   UNL A   1      32.620  30.170  27.386  1.00  0.00     0.163 HD
ATOM     28  O   UNL A   1      34.238  31.712  28.303  1.00  0.00    -0.269 OA
BRANCH  26  29
ATOM     29  C   UNL A   1      35.842  29.994  28.240  1.00  0.00     0.039 A 
ATOM     30  C   UNL A   1      36.771  30.058  27.199  1.00  0.00     0.014 A 
ATOM     31  C   UNL A   1      36.207  29.455  29.476  1.00  0.00     0.014 A 
ATOM     32  C   UNL A   1      38.090  29.657  27.423  1.00  0.00     0.010 A 
ATOM     33  C   UNL A   1      37.537  29.124  29.719  1.00  0.00     0.010 A 
ATOM     34  C   UNL A   1      38.494  29.228  28.698  1.00  0.00    -0.014 A 
BRANCH  34  35
ATOM     35  C   UNL A   1      39.915  28.897  28.986  1.00  0.00     0.031 A 
ATOM     36  C   UNL A   1      40.825  29.933  29.584  1.00  0.00     0.074 A 
ATOM     37  C   UNL A   1      40.399  27.686  28.642  1.00  0.00     0.049 A 
ATOM     38  N   UNL A   1      42.105  29.857  29.842  1.00  0.00    -0.248 NA
ATOM     39  C   UNL A   1      40.224  31.237  29.909  1.00  0.00     0.031 C 
ATOM     40  C   UNL A   1      39.629  26.614  28.007  1.00  0.00     0.029 A 
ATOM     41  N   UNL A   1      41.659  27.155  28.768  1.00  0.00    -0.354 N 
ATOM     42  C   UNL A   1      42.465  31.105  30.341  1.00  0.00     0.074 A 
ATOM     43  C   UNL A   1      41.280  31.933  30.302  1.00  0.00     0.031 C 
ATOM     44  C   UNL A   1      40.425  25.548  27.821  1.00  0.00     0.029 A 
ATOM     45  C   UNL A   1      41.769  25.871  28.288  1.00  0.00     0.049 A 
ATOM     46  H   UNL A   1      42.414  27.649  29.164  1.00  0.00     0.167 HD
ATOM     47  C   UNL A   1      43.669  31.514  30.809  1.00  0.00     0.037 A 
ATOM     48  C   UNL A   1      42.834  25.047  28.227  1.00  0.00     0.037 A 
ATOM     49  C   UNL A   1      44.835  30.673  30.873  1.00  0.00     0.049 A 
ATOM     50  C   UNL A   1      44.159  25.522  28.761  1.00  0.00     0.074 A 
ATOM     51  C   UNL A   1      46.082  30.972  31.395  1.00  0.00     0.029 A 
ATOM     52  N   UNL A   1      44.901  29.371  30.401  1.00  0.00    -0.354 N 
ATOM     53  N   UNL A   1      44.464  26.682  29.295  1.00  0.00    -0.248 NA
ATOM     54  C   UNL A   1      45.282  24.578  28.691  1.00  0.00     0.031 C 
ATOM     55  C   UNL A   1      46.914  29.864  31.198  1.00  0.00     0.029 A 
ATOM     56  C   UNL A   1      46.173  28.858  30.598  1.00  0.00     0.049 A 
ATOM     57  H   UNL A   1      44.154  28.883  29.985  1.00  0.00     0.167 HD
ATOM     58  C   UNL A   1      45.805  26.595  29.650  1.00  0.00     0.074 A 
ATOM     59  C   UNL A   1      46.250  25.267  29.280  1.00  0.00     0.031 C 
ATOM     60  C   UNL A   1      46.596  27.530  30.231  1.00  0.00     0.037 A 
BRANCH  47  61
ATOM     61  C   UNL A   1      43.782  32.934  31.293  1.00  0.00     0.058 A 
ATOM     62  C   UNL A   1      43.585  33.272  32.642  1.00  0.00     0.135 A 
ATOM     63  C   UNL A   1      44.123  33.966  30.404  1.00  0.00     0.135 A 
ATOM     64  F   UNL A   1      43.241  32.328  33.532  1.00  0.00    -0.206 F 
ATOM     65  C   UNL A   1      43.689  34.586  33.086  1.00  0.00     0.059 A 
ATOM     66  C   UNL A   1      44.263  35.284  30.832  1.00  0.00     0.059 A 
ATOM     67  F   UNL A   1      44.324  33.700  29.103  1.00  0.00    -0.206 F 
ATOM     68  C   UNL A   1      44.028  35.586  32.172  1.00  0.00     0.060 A 
BRANCH  68  69
ATOM     69  S   UNL A   1      44.163  37.285  32.766  1.00  0.00     0.124 S 
ATOM     70  O   UNL A   1      43.981  38.040  31.530  1.00  0.00    -0.237 OA
ATOM     71  O   UNL A   1      43.065  37.369  33.725  1.00  0.00    -0.237 OA
ATOM     72  O   UNL A   1      45.502  37.338  33.344  1.00  0.00    -0.744 OA
ENDBRANCH  68  69
ENDBRANCH  47  61
BRANCH  48  73
ATOM     73  C   UNL A   1      42.686  23.677  27.667  1.00  0.00     0.058 A 
ATOM     74  C   UNL A   1      42.351  22.594  28.493  1.00  0.00     0.135 A 
ATOM     75  C   UNL A   1      42.864  23.423  26.298  1.00  0.00     0.135 A 
ATOM     76  F   UNL A   1      42.178  22.785  29.810  1.00  0.00    -0.206 F 
ATOM     77  C   UNL A   1      42.214  21.305  27.989  1.00  0.00     0.059 A 
ATOM     78  C   UNL A   1      42.708  22.147  25.764  1.00  0.00     0.059 A 
ATOM     79  F   UNL A   1      43.168  24.428  25.461  1.00  0.00    -0.206 F 
ATOM     80  C   UNL A   1      42.392  21.092  26.620  1.00  0.00     0.060 A 
BRANCH  80  81
ATOM     81  S   UNL A   1      42.165  19.424  25.968  1.00  0.00     0.124 S 
ATOM     82  O   UNL A   1      40.718  19.369  25.796  1.00  0.00    -0.237 OA
ATOM     83  O   UNL A   1      42.953  19.464  24.740  1.00  0.00    -0.237 OA
ATOM     84  O   UNL A   1      42.708  18.574  27.024  1.00  0.00    -0.744 OA
ENDBRANCH  80  81
ENDBRANCH  48  73
BRANCH  60  85
ATOM     85  C   UNL A   1      48.016  27.141  30.539  1.00  0.00     0.058 A 
ATOM     86  C   UNL A   1      49.057  27.364  29.625  1.00  0.00     0.135 A 
ATOM     87  C   UNL A   1      48.346  26.589  31.787  1.00  0.00     0.135 A 
ATOM     88  F   UNL A   1      48.794  27.883  28.415  1.00  0.00    -0.206 F 
ATOM     89  C   UNL A   1      50.373  27.033  29.930  1.00  0.00     0.059 A 
ATOM     90  C   UNL A   1      49.658  26.275  32.124  1.00  0.00     0.059 A 
ATOM     91  F   UNL A   1      47.388  26.365  32.702  1.00  0.00    -0.206 F 
ATOM     92  C   UNL A   1      50.665  26.491  31.184  1.00  0.00     0.060 A 
BRANCH  92  93
ATOM     93  S   UNL A   1      52.381  26.099  31.581  1.00  0.00     0.124 S 
ATOM     94  O   UNL A   1      52.701  27.135  32.557  1.00  0.00    -0.237 OA
ATOM     95  O   UNL A   1      52.278  24.741  32.106  1.00  0.00    -0.237 OA
ATOM     96  O   UNL A   1      53.062  26.216  30.294  1.00  0.00    -0.744 OA
ENDBRANCH  92  93
ENDBRANCH  60  85
ENDBRANCH  34  35
ENDBRANCH  26  29
ENDBRANCH  24  25
ENDBRANCH   1  24
TORSDOF 16
ENDMDL
MODEL 2
REMARK VINA RESULT:     -11.6      4.894     10.503
REMARK SMILES C=C(C(=O)NCCCCNC(=O)c1ccc(-c2c3nc(c(-c4c(F)cc(S(=O)(=O)[O-])cc4F)c4ccc([nH]4)c(-c4c(F)cc(S(=O)(=O)[O-])cc4F)c4nc(c(-c5c(F)cc(S(=O)(=O)[O-])cc5F)c5ccc2[nH]5)C=C4)C=C3)cc1)[C@@H]1CC[C@]2(C)C[C@@H](O)CC(=C)[C@H]2C1
REMARK SMILES IDX 8 1 7 2 6 3 5 4 3 5 4 6 2 8 1 9 79 10 80 11 91 12 81 13
REMARK SMILES IDX 90 14 82 15 88 16 83 17 84 18 87 19 89 20 85 21 86 22 9 24
REMARK SMILES IDX 10 25 11 26 12 28 13 29 14 30 78 31 15 32 77 33 16 34 17 35
REMARK SMILES IDX 18 36 71 37 19 38 76 39 70 40 72 41 20 42 75 43 69 44 68 45
REMARK SMILES IDX 21 47 55 48 34 49 54 50 35 51 38 52 53 53 73 54 36 55 37 56
REMARK SMILES IDX 52 58 74 59 39 60 22 61 23 62 32 63 24 64 25 65 31 66 33 67
REMARK SMILES IDX 26 68 27 69 28 70 29 71 30 72 56 73 57 74 66 75 58 76 59 77
REMARK SMILES IDX 65 78 67 79 60 80 61 81 62 82 63 83 64 84 40 85 41 86 50 87
REMARK SMILES IDX 42 88 43 89 49 90 51 91 44 92 45 93 46 94 47 95 48 96
REMARK H PARENT 5 7 86 23 10 27 72 46 38 57
REMARK Flexibility Score: inf
ROOT
ATOM      1  C   UNL A   1      40.274  22.121  27.432  1.00  0.00     0.023 C 
ENDROOT
BRANCH   1   2
ATOM      2  C   UNL A   1      39.454  21.935  26.156  1.00  0.00     0.023 C 
BRANCH   2   3
ATOM      3  C   UNL A   1      38.194  22.787  26.016  1.00  0.00     0.116 C 
BRANCH   3   4
ATOM      4  N   UNL A   1      37.792  23.005  24.640  1.00  0.00    -0.352 N 
ATOM      5  C   UNL A   1      36.690  22.651  23.924  1.00  0.00     0.246 C 
ATOM      6  O   UNL A   1      36.612  23.091  22.778  1.00  0.00    -0.270 OA
ATOM      7  H   UNL A   1      38.452  23.515  24.116  1.00  0.00     0.163 HD
BRANCH   5   8
ATOM      8  C   UNL A   1      35.619  21.764  24.476  1.00  0.00     0.013 C 
ATOM      9  C   UNL A   1      35.946  20.540  24.934  1.00  0.00     0.018 C 
BRANCH   8  10
ATOM     10  C   UNL A   1      34.201  22.291  24.752  1.00  0.00     0.025 C 
ATOM     11  C   UNL A   1      33.197  21.884  23.654  1.00  0.00     0.009 C 
ATOM     12  C   UNL A   1      34.022  23.761  25.203  1.00  0.00     0.017 C 
ATOM     13  C   UNL A   1      32.986  22.932  22.564  1.00  0.00     0.008 C 
ATOM     14  C   UNL A   1      33.829  24.770  24.048  1.00  0.00     0.021 C 
ATOM     15  C   UNL A   1      32.658  24.345  23.113  1.00  0.00    -0.024 C 
ATOM     16  C   UNL A   1      33.672  26.234  24.452  1.00  0.00    -0.071 C 
ATOM     17  C   UNL A   1      31.296  24.307  23.850  1.00  0.00     0.012 C 
ATOM     18  C   UNL A   1      32.565  25.323  21.902  1.00  0.00     0.039 C 
ATOM     19  C   UNL A   1      33.667  27.181  23.267  1.00  0.00     0.062 C 
ATOM     20  C   UNL A   1      33.562  26.697  25.707  1.00  0.00     0.008 C 
ATOM     21  C   UNL A   1      32.570  26.817  22.258  1.00  0.00     0.119 C 
BRANCH  21  22
ATOM     22  O   UNL A   1      31.282  27.222  22.725  1.00  0.00    -0.393 OA
ATOM     23  H   UNL A   1      31.251  27.147  23.692  1.00  0.00     0.210 HD
ENDBRANCH  21  22
ENDBRANCH   8  10
ENDBRANCH   5   8
ENDBRANCH   3   4
ENDBRANCH   2   3
ENDBRANCH   1   2
BRANCH   1  24
ATOM     24  C   UNL A   1      41.433  23.109  27.366  1.00  0.00     0.116 C 
BRANCH  24  25
ATOM     25  N   UNL A   1      41.401  23.978  26.200  1.00  0.00    -0.352 N 
ATOM     26  C   UNL A   1      41.286  25.347  26.138  1.00  0.00     0.251 C 
ATOM     27  H   UNL A   1      41.473  23.521  25.331  1.00  0.00     0.163 HD
ATOM     28  O   UNL A   1      41.213  25.906  25.046  1.00  0.00    -0.269 OA
BRANCH  26  29
ATOM     29  C   UNL A   1      41.206  26.138  27.385  1.00  0.00     0.039 A 
ATOM     30  C   UNL A   1      42.238  27.033  27.680  1.00  0.00     0.014 A 
ATOM     31  C   UNL A   1      40.107  26.027  28.238  1.00  0.00     0.014 A 
ATOM     32  C   UNL A   1      42.127  27.877  28.787  1.00  0.00     0.010 A 
ATOM     33  C   UNL A   1      39.964  26.917  29.300  1.00  0.00     0.010 A 
ATOM     34  C   UNL A   1      40.969  27.856  29.582  1.00  0.00    -0.014 A 
BRANCH  34  35
ATOM     35  C   UNL A   1      40.784  28.816  30.702  1.00  0.00     0.031 A 
ATOM     36  C   UNL A   1      41.619  28.695  31.946  1.00  0.00     0.074 A 
ATOM     37  C   UNL A   1      39.815  29.751  30.625  1.00  0.00     0.049 A 
ATOM     38  N   UNL A   1      41.559  29.390  33.052  1.00  0.00    -0.248 NA
ATOM     39  C   UNL A   1      42.639  27.633  31.960  1.00  0.00     0.031 C 
ATOM     40  C   UNL A   1      38.904  29.936  29.492  1.00  0.00     0.029 A 
ATOM     41  N   UNL A   1      39.426  30.716  31.520  1.00  0.00    -0.354 N 
ATOM     42  C   UNL A   1      42.515  28.839  33.898  1.00  0.00     0.074 A 
ATOM     43  C   UNL A   1      43.107  27.722  33.196  1.00  0.00     0.031 C 
ATOM     44  C   UNL A   1      38.081  30.965  29.750  1.00  0.00     0.029 A 
ATOM     45  C   UNL A   1      38.378  31.490  31.079  1.00  0.00     0.049 A 
ATOM     46  H   UNL A   1      39.857  30.842  32.396  1.00  0.00     0.167 HD
ATOM     47  C   UNL A   1      42.882  29.244  35.138  1.00  0.00     0.037 A 
ATOM     48  C   UNL A   1      37.725  32.505  31.680  1.00  0.00     0.037 A 
ATOM     49  C   UNL A   1      42.309  30.376  35.818  1.00  0.00     0.049 A 
ATOM     50  C   UNL A   1      38.157  32.941  33.055  1.00  0.00     0.074 A 
ATOM     51  C   UNL A   1      42.660  30.909  37.045  1.00  0.00     0.029 A 
ATOM     52  N   UNL A   1      41.266  31.150  35.329  1.00  0.00    -0.354 N 
ATOM     53  N   UNL A   1      39.112  32.454  33.812  1.00  0.00    -0.248 NA
ATOM     54  C   UNL A   1      37.428  34.066  33.655  1.00  0.00     0.031 C 
ATOM     55  C   UNL A   1      41.799  31.979  37.319  1.00  0.00     0.029 A 
ATOM     56  C   UNL A   1      40.945  32.142  36.240  1.00  0.00     0.049 A 
ATOM     57  H   UNL A   1      40.819  31.013  34.463  1.00  0.00     0.167 HD
ATOM     58  C   UNL A   1      39.117  33.231  34.964  1.00  0.00     0.074 A 
ATOM     59  C   UNL A   1      38.077  34.227  34.800  1.00  0.00     0.031 C 
ATOM     60  C   UNL A   1      39.912  33.131  36.057  1.00  0.00     0.037 A 
BRANCH  47  61
ATOM     61  C   UNL A   1      43.956  28.457  35.838  1.00  0.00     0.058 A 
ATOM     62  C   UNL A   1      43.648  27.386  36.694  1.00  0.00     0.135 A 
ATOM     63  C   UNL A   1      45.312  28.754  35.627  1.00  0.00     0.135 A 
ATOM     64  F   UNL A   1      42.368  27.068  36.944  1.00  0.00    -0.206 F 
ATOM     65  C   UNL A   1      44.643  26.661  37.340  1.00  0.00     0.059 A 
ATOM     66  C   UNL A   1      46.326  28.023  36.239  1.00  0.00     0.059 A 
ATOM     67  F   UNL A   1      45.664  29.767  34.818  1.00  0.00    -0.206 F 
ATOM     68  C   UNL A   1      45.981  26.988  37.106  1.00  0.00     0.060 A 
BRANCH  68  69
ATOM     69  S   UNL A   1      47.260  26.034  37.951  1.00  0.00     0.124 S 
ATOM     70  O   UNL A   1      48.209  25.797  36.868  1.00  0.00    -0.237 OA
ATOM     71  O   UNL A   1      47.704  26.959  38.990  1.00  0.00    -0.237 OA
ATOM     72  O   UNL A   1      46.545  24.855  38.428  1.00  0.00    -0.744 OA
ENDBRANCH  68  69
ENDBRANCH  47  61
BRANCH  48  73
ATOM     73  C   UNL A   1      36.617  33.201  30.973  1.00  0.00     0.058 A 
ATOM     74  C   UNL A   1      35.283  33.019  31.370  1.00  0.00     0.135 A 
ATOM     75  C   UNL A   1      36.864  34.069  29.898  1.00  0.00     0.135 A 
ATOM     76  F   UNL A   1      34.995  32.194  32.389  1.00  0.00    -0.206 F 
ATOM     77  C   UNL A   1      34.234  33.655  30.718  1.00  0.00     0.059 A 
ATOM     78  C   UNL A   1      35.834  34.738  29.245  1.00  0.00     0.059 A 
ATOM     79  F   UNL A   1      38.124  34.291  29.490  1.00  0.00    -0.206 F 
ATOM     80  C   UNL A   1      34.519  34.517  29.656  1.00  0.00     0.060 A 
BRANCH  80  81
ATOM     81  S   UNL A   1      33.153  35.376  28.847  1.00  0.00     0.124 S 
ATOM     82  O   UNL A   1      32.541  34.298  28.079  1.00  0.00    -0.237 OA
ATOM     83  O   UNL A   1      32.382  35.867  29.985  1.00  0.00    -0.237 OA
ATOM     84  O   UNL A   1      33.824  36.409  28.063  1.00  0.00    -0.744 OA
ENDBRANCH  80  81
ENDBRANCH  48  73
BRANCH  60  85
ATOM     85  C   UNL A   1      39.717  34.145  37.151  1.00  0.00     0.058 A 
ATOM     86  C   UNL A   1      38.959  33.859  38.296  1.00  0.00     0.135 A 
ATOM     87  C   UNL A   1      40.342  35.400  37.074  1.00  0.00     0.135 A 
ATOM     88  F   UNL A   1      38.335  32.677  38.415  1.00  0.00    -0.206 F 
ATOM     89  C   UNL A   1      38.810  34.790  39.319  1.00  0.00     0.059 A 
ATOM     90  C   UNL A   1      40.230  36.336  38.097  1.00  0.00     0.059 A 
ATOM     91  F   UNL A   1      41.087  35.721  36.003  1.00  0.00    -0.206 F 
ATOM     92  C   UNL A   1      39.452  36.026  39.211  1.00  0.00     0.060 A 
BRANCH  92  93
ATOM     93  S   UNL A   1      39.281  37.211  40.561  1.00  0.00     0.124 S 
ATOM     94  O   UNL A   1      38.813  36.356  41.646  1.00  0.00    -0.237 OA
ATOM     95  O   UNL A   1      40.640  37.726  40.700  1.00  0.00    -0.237 OA
ATOM     96  O   UNL A   1      38.304  38.169  40.050  1.00  0.00    -0.744 OA
ENDBRANCH  92  93
ENDBRANCH  60  85
ENDBRANCH  34  35
ENDBRANCH  26  29
ENDBRANCH  24  25
ENDBRANCH   1  24
TORSDOF 16
ENDMDL
MODEL 3
REMARK VINA RESULT:     -11.5      2.968      9.274
REMARK SMILES C=C(C(=O)NCCCCNC(=O)c1ccc(-c2c3nc(c(-c4c(F)cc(S(=O)(=O)[O-])cc4F)c4ccc([nH]4)c(-c4c(F)cc(S(=O)(=O)[O-])cc4F)c4nc(c(-c5c(F)cc(S(=O)(=O)[O-])cc5F)c5ccc2[nH]5)C=C4)C=C3)cc1)[C@@H]1CC[C@]2(C)C[C@@H](O)CC(=C)[C@H]2C1
REMARK SMILES IDX 8 1 7 2 6 3 5 4 3 5 4 6 2 8 1 9 79 10 80 11 91 12 81 13
REMARK SMILES IDX 90 14 82 15 88 16 83 17 84 18 87 19 89 20 85 21 86 22 9 24
REMARK SMILES IDX 10 25 11 26 12 28 13 29 14 30 78 31 15 32 77 33 16 34 17 35
REMARK SMILES IDX 18 36 71 37 19 38 76 39 70 40 72 41 20 42 75 43 69 44 68 45
REMARK SMILES IDX 21 47 55 48 34 49 54 50 35 51 38 52 53 53 73 54 36 55 37 56
REMARK SMILES IDX 52 58 74 59 39 60 22 61 23 62 32 63 24 64 25 65 31 66 33 67
REMARK SMILES IDX 26 68 27 69 28 70 29 71 30 72 56 73 57 74 66 75 58 76 59 77
REMARK SMILES IDX 65 78 67 79 60 80 61 81 62 82 63 83 64 84 40 85 41 86 50 87
REMARK SMILES IDX 42 88 43 89 49 90 51 91 44 92 45 93 46 94 47 95 48 96
REMARK H PARENT 5 7 86 23 10 27 72 46 38 57
REMARK Flexibility Score: inf
ROOT
ATOM      1  C   UNL A   1      35.751  23.501  25.880  1.00  0.00     0.023 C 
ENDROOT
BRANCH   1   2
ATOM      2  C   UNL A   1      35.493  22.070  26.353  1.00  0.00     0.023 C 
BRANCH   2   3
ATOM      3  C   UNL A   1      34.217  21.830  27.157  1.00  0.00     0.116 C 
BRANCH   3   4
ATOM      4  N   UNL A   1      33.258  20.979  26.479  1.00  0.00    -0.352 N 
ATOM      5  C   UNL A   1      32.539  21.115  25.331  1.00  0.00     0.246 C 
ATOM      6  O   UNL A   1      31.877  20.142  24.977  1.00  0.00    -0.270 OA
ATOM      7  H   UNL A   1      33.092  20.127  26.946  1.00  0.00     0.163 HD
BRANCH   5   8
ATOM      8  C   UNL A   1      32.532  22.377  24.528  1.00  0.00     0.013 C 
ATOM      9  C   UNL A   1      33.158  22.404  23.334  1.00  0.00     0.018 C 
BRANCH   8  10
ATOM     10  C   UNL A   1      31.639  23.570  24.910  1.00  0.00     0.025 C 
ATOM     11  C   UNL A   1      30.619  23.918  23.806  1.00  0.00     0.009 C 
ATOM     12  C   UNL A   1      32.293  24.828  25.532  1.00  0.00     0.017 C 
ATOM     13  C   UNL A   1      31.067  25.021  22.851  1.00  0.00     0.008 C 
ATOM     14  C   UNL A   1      32.736  25.896  24.506  1.00  0.00     0.021 C 
ATOM     15  C   UNL A   1      31.562  26.304  23.568  1.00  0.00    -0.024 C 
ATOM     16  C   UNL A   1      33.407  27.142  25.079  1.00  0.00    -0.071 C 
ATOM     17  C   UNL A   1      30.383  26.948  24.342  1.00  0.00     0.012 C 
ATOM     18  C   UNL A   1      32.072  27.298  22.480  1.00  0.00     0.039 C 
ATOM     19  C   UNL A   1      33.973  28.058  24.012  1.00  0.00     0.062 C 
ATOM     20  C   UNL A   1      33.528  27.442  26.382  1.00  0.00     0.008 C 
ATOM     21  C   UNL A   1      32.896  28.484  23.004  1.00  0.00     0.119 C 
BRANCH  21  22
ATOM     22  O   UNL A   1      32.037  29.482  23.558  1.00  0.00    -0.393 OA
ATOM     23  H   UNL A   1      31.148  29.391  23.177  1.00  0.00     0.210 HD
ENDBRANCH  21  22
ENDBRANCH   8  10
ENDBRANCH   5   8
ENDBRANCH   3   4
ENDBRANCH   2   3
ENDBRANCH   1   2
BRANCH   1  24
ATOM     24  C   UNL A   1      36.990  23.726  25.021  1.00  0.00     0.116 C 
BRANCH  24  25
ATOM     25  N   UNL A   1      38.068  22.784  25.281  1.00  0.00    -0.352 N 
ATOM     26  C   UNL A   1      39.205  22.951  26.036  1.00  0.00     0.251 C 
ATOM     27  H   UNL A   1      37.968  21.902  24.857  1.00  0.00     0.163 HD
ATOM     28  O   UNL A   1      40.042  22.052  26.088  1.00  0.00    -0.269 OA
BRANCH  26  29
ATOM     29  C   UNL A   1      39.440  24.227  26.747  1.00  0.00     0.039 A 
ATOM     30  C   UNL A   1      38.915  24.386  28.032  1.00  0.00     0.014 A 
ATOM     31  C   UNL A   1      40.200  25.244  26.167  1.00  0.00     0.014 A 
ATOM     32  C   UNL A   1      39.225  25.532  28.768  1.00  0.00     0.010 A 
ATOM     33  C   UNL A   1      40.566  26.352  26.927  1.00  0.00     0.010 A 
ATOM     34  C   UNL A   1      40.088  26.505  28.238  1.00  0.00    -0.014 A 
BRANCH  34  35
ATOM     35  C   UNL A   1      40.514  27.680  29.043  1.00  0.00     0.031 A 
ATOM     36  C   UNL A   1      41.834  27.664  29.762  1.00  0.00     0.074 A 
ATOM     37  C   UNL A   1      39.679  28.729  29.182  1.00  0.00     0.049 A 
ATOM     38  N   UNL A   1      42.348  28.560  30.565  1.00  0.00    -0.248 NA
ATOM     39  C   UNL A   1      42.677  26.471  29.577  1.00  0.00     0.031 C 
ATOM     40  C   UNL A   1      38.349  28.841  28.576  1.00  0.00     0.029 A 
ATOM     41  N   UNL A   1      39.818  29.900  29.886  1.00  0.00    -0.354 N 
ATOM     42  C   UNL A   1      43.560  28.032  30.995  1.00  0.00     0.074 A 
ATOM     43  C   UNL A   1      43.682  26.718  30.403  1.00  0.00     0.031 C 
ATOM     44  C   UNL A   1      37.807  30.022  28.914  1.00  0.00     0.029 A 
ATOM     45  C   UNL A   1      38.731  30.737  29.789  1.00  0.00     0.049 A 
ATOM     46  H   UNL A   1      40.622  30.120  30.411  1.00  0.00     0.167 HD
ATOM     47  C   UNL A   1      44.497  28.601  31.792  1.00  0.00     0.037 A 
ATOM     48  C   UNL A   1      38.502  31.943  30.347  1.00  0.00     0.037 A 
ATOM     49  C   UNL A   1      44.381  29.922  32.352  1.00  0.00     0.049 A 
ATOM     50  C   UNL A   1      39.561  32.558  31.222  1.00  0.00     0.074 A 
ATOM     51  C   UNL A   1      45.304  30.617  33.113  1.00  0.00     0.029 A 
ATOM     52  N   UNL A   1      43.276  30.749  32.212  1.00  0.00    -0.354 N 
ATOM     53  N   UNL A   1      40.733  32.074  31.560  1.00  0.00    -0.248 NA
ATOM     54  C   UNL A   1      39.270  33.882  31.786  1.00  0.00     0.031 C 
ATOM     55  C   UNL A   1      44.739  31.847  33.471  1.00  0.00     0.029 A 
ATOM     56  C   UNL A   1      43.484  31.938  32.891  1.00  0.00     0.049 A 
ATOM     57  H   UNL A   1      42.462  30.523  31.705  1.00  0.00     0.167 HD
ATOM     58  C   UNL A   1      41.331  33.047  32.352  1.00  0.00     0.074 A 
ATOM     59  C   UNL A   1      40.396  34.151  32.435  1.00  0.00     0.031 C 
ATOM     60  C   UNL A   1      42.545  33.030  32.955  1.00  0.00     0.037 A 
BRANCH  47  61
ATOM     61  C   UNL A   1      45.729  27.798  32.102  1.00  0.00     0.058 A 
ATOM     62  C   UNL A   1      45.823  27.006  33.258  1.00  0.00     0.135 A 
ATOM     63  C   UNL A   1      46.819  27.792  31.217  1.00  0.00     0.135 A 
ATOM     64  F   UNL A   1      44.817  26.986  34.146  1.00  0.00    -0.206 F 
ATOM     65  C   UNL A   1      46.965  26.264  33.542  1.00  0.00     0.059 A 
ATOM     66  C   UNL A   1      47.961  27.034  31.465  1.00  0.00     0.059 A 
ATOM     67  F   UNL A   1      46.785  28.530  30.095  1.00  0.00    -0.206 F 
ATOM     68  C   UNL A   1      48.029  26.285  32.639  1.00  0.00     0.060 A 
BRANCH  68  69
ATOM     69  S   UNL A   1      49.502  25.314  33.022  1.00  0.00     0.124 S 
ATOM     70  O   UNL A   1      50.010  25.017  31.686  1.00  0.00    -0.237 OA
ATOM     71  O   UNL A   1      50.299  26.252  33.808  1.00  0.00    -0.237 OA
ATOM     72  O   UNL A   1      48.974  24.172  33.761  1.00  0.00    -0.744 OA
ENDBRANCH  68  69
ENDBRANCH  47  61
BRANCH  48  73
ATOM     73  C   UNL A   1      37.230  32.663  30.069  1.00  0.00     0.058 A 
ATOM     74  C   UNL A   1      36.074  32.398  30.819  1.00  0.00     0.135 A 
ATOM     75  C   UNL A   1      37.145  33.636  29.061  1.00  0.00     0.135 A 
ATOM     76  F   UNL A   1      36.104  31.472  31.789  1.00  0.00    -0.206 F 
ATOM     77  C   UNL A   1      34.876  33.057  30.570  1.00  0.00     0.059 A 
ATOM     78  C   UNL A   1      35.964  34.327  28.809  1.00  0.00     0.059 A 
ATOM     79  F   UNL A   1      38.227  33.940  28.326  1.00  0.00    -0.206 F 
ATOM     80  C   UNL A   1      34.831  34.023  29.563  1.00  0.00     0.060 A 
BRANCH  80  81
ATOM     81  S   UNL A   1      33.282  34.907  29.279  1.00  0.00     0.124 S 
ATOM     82  O   UNL A   1      32.634  34.056  28.288  1.00  0.00    -0.237 OA
ATOM     83  O   UNL A   1      32.682  34.909  30.610  1.00  0.00    -0.237 OA
ATOM     84  O   UNL A   1      33.725  36.213  28.799  1.00  0.00    -0.744 OA
ENDBRANCH  80  81
ENDBRANCH  48  73
BRANCH  60  85
ATOM     85  C   UNL A   1      42.951  34.254  33.730  1.00  0.00     0.058 A 
ATOM     86  C   UNL A   1      42.790  34.335  35.121  1.00  0.00     0.135 A 
ATOM     87  C   UNL A   1      43.561  35.337  33.075  1.00  0.00     0.135 A 
ATOM     88  F   UNL A   1      42.207  33.330  35.793  1.00  0.00    -0.206 F 
ATOM     89  C   UNL A   1      43.199  35.457  35.834  1.00  0.00     0.059 A 
ATOM     90  C   UNL A   1      44.002  36.457  33.772  1.00  0.00     0.059 A 
ATOM     91  F   UNL A   1      43.748  35.305  31.745  1.00  0.00    -0.206 F 
ATOM     92  C   UNL A   1      43.807  36.513  35.151  1.00  0.00     0.060 A 
BRANCH  92  93
ATOM     93  S   UNL A   1      44.366  37.947  36.093  1.00  0.00     0.124 S 
ATOM     94  O   UNL A   1      45.770  37.621  36.319  1.00  0.00    -0.237 OA
ATOM     95  O   UNL A   1      44.110  39.047  35.168  1.00  0.00    -0.237 OA
ATOM     96  O   UNL A   1      43.517  37.925  37.281  1.00  0.00    -0.744 OA
ENDBRANCH  92  93
ENDBRANCH  60  85
ENDBRANCH  34  35
ENDBRANCH  26  29
ENDBRANCH  24  25
ENDBRANCH   1  24
TORSDOF 16
ENDMDL
