MODEL 1
REMARK VINA RESULT:     -11.8      0.000      0.000
REMARK SMILES Cc1cccc(Nc2ccccc2C(=O)NCCCCNC(=O)c2ccc(-c3c4nc(c(-c5c(F)cc(S(=O)(=O)[O-])cc5F)c5ccc([nH]5)c(-c5c(F)cc(S(=O)(=O)[O-])cc5F)c5nc(c(-c6c(F)cc(S(=O)(=O)[O-])cc6F)c6ccc3[nH]6)C=C5)C=C4)cc2)c1C
REMARK SMILES IDX 19 1 18 2 17 3 16 4 14 5 15 6 13 8 8 9 9 10 10 11 12 12
REMARK SMILES IDX 11 13 7 14 6 16 1 17 2 18 3 19 90 20 4 21 91 22 5 23 20 24
REMARK SMILES IDX 21 25 22 26 23 28 24 29 25 30 89 31 26 32 88 33 27 34 28 35
REMARK SMILES IDX 29 36 82 37 30 38 87 39 81 40 83 41 31 42 86 43 80 44 79 45
REMARK SMILES IDX 32 47 66 48 45 49 65 50 46 51 49 52 64 53 84 54 47 55 48 56
REMARK SMILES IDX 63 58 85 59 50 60 33 61 34 62 43 63 35 64 36 65 42 66 44 67
REMARK SMILES IDX 37 68 38 69 39 70 40 71 41 72 67 73 68 74 77 75 69 76 70 77
REMARK SMILES IDX 76 78 78 79 71 80 72 81 73 82 74 83 75 84 51 85 52 86 61 87
REMARK SMILES IDX 53 88 54 89 60 90 62 91 55 92 56 93 57 94 58 95 59 96
REMARK H PARENT 16 7 7 15 21 27 83 46 49 57
REMARK Flexibility Score: inf
ROOT
ATOM      1  C   UNL A   1      32.575  28.374  26.212  1.00  0.00     0.023 C 
ENDROOT
BRANCH   1   2
ATOM      2  C   UNL A   1      31.480  27.371  26.591  1.00  0.00     0.023 C 
BRANCH   2   3
ATOM      3  C   UNL A   1      31.838  25.894  26.497  1.00  0.00     0.116 C 
BRANCH   3   4
ATOM      4  N   UNL A   1      30.795  24.975  26.876  1.00  0.00    -0.352 N 
ATOM      5  C   UNL A   1      30.595  23.666  26.500  1.00  0.00     0.253 C 
ATOM      6  O   UNL A   1      29.723  23.036  27.106  1.00  0.00    -0.269 OA
ATOM      7  H   UNL A   1      30.124  25.338  27.498  1.00  0.00     0.163 HD
BRANCH   5   8
ATOM      8  C   UNL A   1      31.253  23.006  25.324  1.00  0.00     0.063 A 
ATOM      9  C   UNL A   1      31.098  23.280  23.950  1.00  0.00     0.051 A 
ATOM     10  C   UNL A   1      31.778  22.447  23.024  1.00  0.00     0.027 A 
ATOM     11  C   UNL A   1      32.644  21.430  23.426  1.00  0.00     0.002 A 
ATOM     12  C   UNL A   1      32.157  21.984  25.710  1.00  0.00     0.016 A 
ATOM     13  C   UNL A   1      32.854  21.214  24.776  1.00  0.00     0.001 A 
BRANCH   9  14
ATOM     14  N   UNL A   1      30.435  24.375  23.357  1.00  0.00    -0.355 N 
ATOM     15  H   UNL A   1      29.600  24.118  22.905  1.00  0.00     0.167 HD
BRANCH  14  16
ATOM     16  C   UNL A   1      30.705  25.756  23.266  1.00  0.00     0.042 A 
ATOM     17  C   UNL A   1      29.105  29.234  23.126  1.00  0.00     0.044 C 
ATOM     18  C   UNL A   1      30.108  28.111  23.063  1.00  0.00    -0.046 A 
ATOM     19  C   UNL A   1      31.416  28.407  22.650  1.00  0.00     0.004 A 
ATOM     20  C   UNL A   1      29.758  26.786  23.430  1.00  0.00    -0.025 A 
ATOM     21  C   UNL A   1      32.377  27.411  22.588  1.00  0.00     0.002 A 
ATOM     22  C   UNL A   1      28.400  26.532  24.037  1.00  0.00     0.047 C 
ATOM     23  C   UNL A   1      32.022  26.101  22.891  1.00  0.00     0.026 A 
ENDBRANCH  14  16
ENDBRANCH   9  14
ENDBRANCH   5   8
ENDBRANCH   3   4
ENDBRANCH   2   3
ENDBRANCH   1   2
BRANCH   1  24
ATOM     24  C   UNL A   1      33.700  28.623  27.220  1.00  0.00     0.116 C 
BRANCH  24  25
ATOM     25  N   UNL A   1      33.688  29.937  27.844  1.00  0.00    -0.352 N 
ATOM     26  C   UNL A   1      34.730  30.652  28.397  1.00  0.00     0.251 C 
ATOM     27  H   UNL A   1      32.809  30.380  27.876  1.00  0.00     0.163 HD
ATOM     28  O   UNL A   1      34.527  31.769  28.851  1.00  0.00    -0.269 OA
BRANCH  26  29
ATOM     29  C   UNL A   1      36.083  30.049  28.484  1.00  0.00     0.039 A 
ATOM     30  C   UNL A   1      36.924  30.135  27.370  1.00  0.00     0.014 A 
ATOM     31  C   UNL A   1      36.538  29.436  29.655  1.00  0.00     0.014 A 
ATOM     32  C   UNL A   1      38.250  29.701  27.464  1.00  0.00     0.010 A 
ATOM     33  C   UNL A   1      37.880  29.062  29.767  1.00  0.00     0.010 A 
ATOM     34  C   UNL A   1      38.755  29.209  28.679  1.00  0.00    -0.014 A 
BRANCH  34  35
ATOM     35  C   UNL A   1      40.208  28.917  28.832  1.00  0.00     0.031 A 
ATOM     36  C   UNL A   1      40.776  27.576  28.451  1.00  0.00     0.074 A 
ATOM     37  C   UNL A   1      41.012  29.855  29.376  1.00  0.00     0.049 A 
ATOM     38  N   UNL A   1      42.016  27.163  28.506  1.00  0.00    -0.248 NA
ATOM     39  C   UNL A   1      39.828  26.559  27.970  1.00  0.00     0.031 C 
ATOM     40  C   UNL A   1      40.569  31.161  29.876  1.00  0.00     0.029 A 
ATOM     41  N   UNL A   1      42.364  29.856  29.611  1.00  0.00    -0.354 N 
ATOM     42  C   UNL A   1      41.999  25.839  28.082  1.00  0.00     0.074 A 
ATOM     43  C   UNL A   1      40.617  25.504  27.811  1.00  0.00     0.031 C 
ATOM     44  C   UNL A   1      41.632  31.841  30.337  1.00  0.00     0.029 A 
ATOM     45  C   UNL A   1      42.827  31.018  30.187  1.00  0.00     0.049 A 
ATOM     46  H   UNL A   1      42.950  29.096  29.388  1.00  0.00     0.167 HD
ATOM     47  C   UNL A   1      43.040  24.988  27.915  1.00  0.00     0.037 A 
ATOM     48  C   UNL A   1      44.072  31.383  30.548  1.00  0.00     0.037 A 
ATOM     49  C   UNL A   1      44.418  25.337  28.151  1.00  0.00     0.049 A 
ATOM     50  C   UNL A   1      45.218  30.443  30.284  1.00  0.00     0.074 A 
ATOM     51  C   UNL A   1      45.551  24.573  27.917  1.00  0.00     0.029 A 
ATOM     52  N   UNL A   1      44.856  26.544  28.673  1.00  0.00    -0.354 N 
ATOM     53  N   UNL A   1      45.192  29.234  29.775  1.00  0.00    -0.248 NA
ATOM     54  C   UNL A   1      46.565  30.924  30.621  1.00  0.00     0.031 C 
ATOM     55  C   UNL A   1      46.668  25.304  28.334  1.00  0.00     0.029 A 
ATOM     56  C   UNL A   1      46.237  26.540  28.786  1.00  0.00     0.049 A 
ATOM     57  H   UNL A   1      44.271  27.294  28.926  1.00  0.00     0.167 HD
ATOM     58  C   UNL A   1      46.518  28.821  29.711  1.00  0.00     0.074 A 
ATOM     59  C   UNL A   1      47.322  29.917  30.209  1.00  0.00     0.031 C 
ATOM     60  C   UNL A   1      47.025  27.639  29.281  1.00  0.00     0.037 A 
BRANCH  47  61
ATOM     61  C   UNL A   1      42.744  23.594  27.436  1.00  0.00     0.058 A 
ATOM     62  C   UNL A   1      42.813  23.253  26.077  1.00  0.00     0.135 A 
ATOM     63  C   UNL A   1      42.474  22.567  28.355  1.00  0.00     0.135 A 
ATOM     64  F   UNL A   1      43.054  24.199  25.155  1.00  0.00    -0.206 F 
ATOM     65  C   UNL A   1      42.617  21.946  25.643  1.00  0.00     0.059 A 
ATOM     66  C   UNL A   1      42.297  21.247  27.947  1.00  0.00     0.059 A 
ATOM     67  F   UNL A   1      42.395  22.838  29.668  1.00  0.00    -0.206 F 
ATOM     68  C   UNL A   1      42.366  20.949  26.587  1.00  0.00     0.060 A 
BRANCH  68  69
ATOM     69  S   UNL A   1      42.162  19.249  26.011  1.00  0.00     0.124 S 
ATOM     70  O   UNL A   1      40.726  19.200  25.751  1.00  0.00    -0.237 OA
ATOM     71  O   UNL A   1      43.021  19.214  24.831  1.00  0.00    -0.237 OA
ATOM     72  O   UNL A   1      42.622  18.449  27.142  1.00  0.00    -0.744 OA
ENDBRANCH  68  69
ENDBRANCH  47  61
BRANCH  48  73
ATOM     73  C   UNL A   1      44.316  32.709  31.178  1.00  0.00     0.058 A 
ATOM     74  C   UNL A   1      44.304  32.864  32.573  1.00  0.00     0.135 A 
ATOM     75  C   UNL A   1      44.541  33.853  30.396  1.00  0.00     0.135 A 
ATOM     76  F   UNL A   1      44.091  31.802  33.363  1.00  0.00    -0.206 F 
ATOM     77  C   UNL A   1      44.465  34.110  33.169  1.00  0.00     0.059 A 
ATOM     78  C   UNL A   1      44.733  35.105  30.971  1.00  0.00     0.059 A 
ATOM     79  F   UNL A   1      44.585  33.755  29.058  1.00  0.00    -0.206 F 
ATOM     80  C   UNL A   1      44.674  35.227  32.358  1.00  0.00     0.060 A 
BRANCH  80  81
ATOM     81  S   UNL A   1      44.898  36.840  33.139  1.00  0.00     0.124 S 
ATOM     82  O   UNL A   1      46.349  36.900  33.276  1.00  0.00    -0.237 OA
ATOM     83  O   UNL A   1      44.311  37.745  32.156  1.00  0.00    -0.237 OA
ATOM     84  O   UNL A   1      44.149  36.714  34.386  1.00  0.00    -0.744 OA
ENDBRANCH  80  81
ENDBRANCH  48  73
BRANCH  60  85
ATOM     85  C   UNL A   1      48.521  27.488  29.302  1.00  0.00     0.058 A 
ATOM     86  C   UNL A   1      49.186  26.873  30.375  1.00  0.00     0.135 A 
ATOM     87  C   UNL A   1      49.300  27.964  28.234  1.00  0.00     0.135 A 
ATOM     88  F   UNL A   1      48.490  26.403  31.421  1.00  0.00    -0.206 F 
ATOM     89  C   UNL A   1      50.574  26.777  30.410  1.00  0.00     0.059 A 
ATOM     90  C   UNL A   1      50.686  27.852  28.236  1.00  0.00     0.059 A 
ATOM     91  F   UNL A   1      48.713  28.547  27.177  1.00  0.00    -0.206 F 
ATOM     92  C   UNL A   1      51.316  27.278  29.339  1.00  0.00     0.060 A 
BRANCH  92  93
ATOM     93  S   UNL A   1      53.116  27.163  29.399  1.00  0.00     0.124 S 
ATOM     94  O   UNL A   1      53.507  28.535  29.086  1.00  0.00    -0.237 OA
ATOM     95  O   UNL A   1      53.362  26.733  30.771  1.00  0.00    -0.237 OA
ATOM     96  O   UNL A   1      53.426  26.172  28.373  1.00  0.00    -0.744 OA
ENDBRANCH  92  93
ENDBRANCH  60  85
ENDBRANCH  34  35
ENDBRANCH  26  29
ENDBRANCH  24  25
ENDBRANCH   1  24
TORSDOF 16
ENDMDL
MODEL 2
REMARK VINA RESULT:     -11.7      0.971      8.319
REMARK SMILES Cc1cccc(Nc2ccccc2C(=O)NCCCCNC(=O)c2ccc(-c3c4nc(c(-c5c(F)cc(S(=O)(=O)[O-])cc5F)c5ccc([nH]5)c(-c5c(F)cc(S(=O)(=O)[O-])cc5F)c5nc(c(-c6c(F)cc(S(=O)(=O)[O-])cc6F)c6ccc3[nH]6)C=C5)C=C4)cc2)c1C
REMARK SMILES IDX 19 1 18 2 17 3 16 4 14 5 15 6 13 8 8 9 9 10 10 11 12 12
REMARK SMILES IDX 11 13 7 14 6 16 1 17 2 18 3 19 90 20 4 21 91 22 5 23 20 24
REMARK SMILES IDX 21 25 22 26 23 28 24 29 25 30 89 31 26 32 88 33 27 34 28 35
REMARK SMILES IDX 29 36 82 37 30 38 87 39 81 40 83 41 31 42 86 43 80 44 79 45
REMARK SMILES IDX 32 47 66 48 45 49 65 50 46 51 49 52 64 53 84 54 47 55 48 56
REMARK SMILES IDX 63 58 85 59 50 60 33 61 34 62 43 63 35 64 36 65 42 66 44 67
REMARK SMILES IDX 37 68 38 69 39 70 40 71 41 72 67 73 68 74 77 75 69 76 70 77
REMARK SMILES IDX 76 78 78 79 71 80 72 81 73 82 74 83 75 84 51 85 52 86 61 87
REMARK SMILES IDX 53 88 54 89 60 90 62 91 55 92 56 93 57 94 58 95 59 96
REMARK H PARENT 16 7 7 15 21 27 83 46 49 57
REMARK Flexibility Score: inf
ROOT
ATOM      1  C   UNL A   1      32.399  28.367  26.214  1.00  0.00     0.023 C 
ENDROOT
BRANCH   1   2
ATOM      2  C   UNL A   1      31.372  27.303  26.613  1.00  0.00     0.023 C 
BRANCH   2   3
ATOM      3  C   UNL A   1      31.790  25.847  26.449  1.00  0.00     0.116 C 
BRANCH   3   4
ATOM      4  N   UNL A   1      30.826  24.869  26.886  1.00  0.00    -0.352 N 
ATOM      5  C   UNL A   1      30.680  23.552  26.515  1.00  0.00     0.253 C 
ATOM      6  O   UNL A   1      29.883  22.871  27.169  1.00  0.00    -0.269 OA
ATOM      7  H   UNL A   1      30.174  25.191  27.549  1.00  0.00     0.163 HD
BRANCH   5   8
ATOM      8  C   UNL A   1      31.301  22.933  25.297  1.00  0.00     0.063 A 
ATOM      9  C   UNL A   1      31.082  23.233  23.938  1.00  0.00     0.051 A 
ATOM     10  C   UNL A   1      31.741  22.437  22.966  1.00  0.00     0.027 A 
ATOM     11  C   UNL A   1      32.646  21.433  23.307  1.00  0.00     0.002 A 
ATOM     12  C   UNL A   1      32.244  21.924  25.621  1.00  0.00     0.016 A 
ATOM     13  C   UNL A   1      32.917  21.191  24.642  1.00  0.00     0.001 A 
BRANCH   9  14
ATOM     14  N   UNL A   1      30.370  24.325  23.398  1.00  0.00    -0.355 N 
ATOM     15  H   UNL A   1      29.494  24.067  23.031  1.00  0.00     0.167 HD
BRANCH  14  16
ATOM     16  C   UNL A   1      30.635  25.704  23.267  1.00  0.00     0.042 A 
ATOM     17  C   UNL A   1      29.024  29.172  23.034  1.00  0.00     0.044 C 
ATOM     18  C   UNL A   1      30.030  28.050  22.999  1.00  0.00    -0.046 A 
ATOM     19  C   UNL A   1      31.336  28.338  22.573  1.00  0.00     0.004 A 
ATOM     20  C   UNL A   1      29.685  26.735  23.405  1.00  0.00    -0.025 A 
ATOM     21  C   UNL A   1      32.300  27.343  22.536  1.00  0.00     0.002 A 
ATOM     22  C   UNL A   1      28.331  26.495  24.023  1.00  0.00     0.047 C 
ATOM     23  C   UNL A   1      31.950  26.042  22.877  1.00  0.00     0.026 A 
ENDBRANCH  14  16
ENDBRANCH   9  14
ENDBRANCH   5   8
ENDBRANCH   3   4
ENDBRANCH   2   3
ENDBRANCH   1   2
BRANCH   1  24
ATOM     24  C   UNL A   1      33.522  28.687  27.204  1.00  0.00     0.116 C 
BRANCH  24  25
ATOM     25  N   UNL A   1      33.543  30.058  27.690  1.00  0.00    -0.352 N 
ATOM     26  C   UNL A   1      34.593  30.786  28.209  1.00  0.00     0.251 C 
ATOM     27  H   UNL A   1      32.683  30.536  27.641  1.00  0.00     0.163 HD
ATOM     28  O   UNL A   1      34.422  31.951  28.539  1.00  0.00    -0.269 OA
BRANCH  26  29
ATOM     29  C   UNL A   1      35.915  30.143  28.413  1.00  0.00     0.039 A 
ATOM     30  C   UNL A   1      36.828  30.147  27.353  1.00  0.00     0.014 A 
ATOM     31  C   UNL A   1      36.273  29.574  29.638  1.00  0.00     0.014 A 
ATOM     32  C   UNL A   1      38.129  29.675  27.554  1.00  0.00     0.010 A 
ATOM     33  C   UNL A   1      37.590  29.162  29.855  1.00  0.00     0.010 A 
ATOM     34  C   UNL A   1      38.538  29.226  28.821  1.00  0.00    -0.014 A 
BRANCH  34  35
ATOM     35  C   UNL A   1      39.967  28.895  29.082  1.00  0.00     0.031 A 
ATOM     36  C   UNL A   1      40.906  29.914  29.669  1.00  0.00     0.074 A 
ATOM     37  C   UNL A   1      40.433  27.678  28.730  1.00  0.00     0.049 A 
ATOM     38  N   UNL A   1      42.172  29.786  29.972  1.00  0.00    -0.248 NA
ATOM     39  C   UNL A   1      40.363  31.258  29.925  1.00  0.00     0.031 C 
ATOM     40  C   UNL A   1      39.648  26.632  28.066  1.00  0.00     0.029 A 
ATOM     41  N   UNL A   1      41.677  27.115  28.871  1.00  0.00    -0.354 N 
ATOM     42  C   UNL A   1      42.583  31.029  30.440  1.00  0.00     0.074 A 
ATOM     43  C   UNL A   1      41.439  31.911  30.343  1.00  0.00     0.031 C 
ATOM     44  C   UNL A   1      40.423  25.551  27.876  1.00  0.00     0.029 A 
ATOM     45  C   UNL A   1      41.763  25.829  28.385  1.00  0.00     0.049 A 
ATOM     46  H   UNL A   1      42.437  27.586  29.281  1.00  0.00     0.167 HD
ATOM     47  C   UNL A   1      43.794  31.395  30.925  1.00  0.00     0.037 A 
ATOM     48  C   UNL A   1      42.798  24.969  28.357  1.00  0.00     0.037 A 
ATOM     49  C   UNL A   1      44.919  30.505  31.054  1.00  0.00     0.049 A 
ATOM     50  C   UNL A   1      44.111  25.381  28.968  1.00  0.00     0.074 A 
ATOM     51  C   UNL A   1      46.157  30.760  31.623  1.00  0.00     0.029 A 
ATOM     52  N   UNL A   1      44.950  29.192  30.611  1.00  0.00    -0.354 N 
ATOM     53  N   UNL A   1      44.444  26.529  29.510  1.00  0.00    -0.248 NA
ATOM     54  C   UNL A   1      45.182  24.375  28.984  1.00  0.00     0.031 C 
ATOM     55  C   UNL A   1      46.947  29.614  31.489  1.00  0.00     0.029 A 
ATOM     56  C   UNL A   1      46.188  28.630  30.877  1.00  0.00     0.049 A 
ATOM     57  H   UNL A   1      44.202  28.727  30.172  1.00  0.00     0.167 HD
ATOM     58  C   UNL A   1      45.754  26.374  29.951  1.00  0.00     0.074 A 
ATOM     59  C   UNL A   1      46.143  25.015  29.635  1.00  0.00     0.031 C 
ATOM     60  C   UNL A   1      46.562  27.276  30.560  1.00  0.00     0.037 A 
BRANCH  47  61
ATOM     61  C   UNL A   1      43.975  32.820  31.374  1.00  0.00     0.058 A 
ATOM     62  C   UNL A   1      44.419  33.818  30.493  1.00  0.00     0.135 A 
ATOM     63  C   UNL A   1      43.616  33.207  32.675  1.00  0.00     0.135 A 
ATOM     64  F   UNL A   1      44.788  33.499  29.242  1.00  0.00    -0.206 F 
ATOM     65  C   UNL A   1      44.510  35.149  30.887  1.00  0.00     0.059 A 
ATOM     66  C   UNL A   1      43.676  34.537  33.085  1.00  0.00     0.059 A 
ATOM     67  F   UNL A   1      43.186  32.293  33.559  1.00  0.00    -0.206 F 
ATOM     68  C   UNL A   1      44.129  35.499  32.184  1.00  0.00     0.060 A 
BRANCH  68  69
ATOM     69  S   UNL A   1      44.207  37.238  32.665  1.00  0.00     0.124 S 
ATOM     70  O   UNL A   1      43.157  37.309  33.676  1.00  0.00    -0.237 OA
ATOM     71  O   UNL A   1      45.575  37.363  33.162  1.00  0.00    -0.237 OA
ATOM     72  O   UNL A   1      43.929  37.948  31.420  1.00  0.00    -0.744 OA
ENDBRANCH  68  69
ENDBRANCH  47  61
BRANCH  48  73
ATOM     73  C   UNL A   1      42.640  23.619  27.752  1.00  0.00     0.058 A 
ATOM     74  C   UNL A   1      42.373  22.493  28.545  1.00  0.00     0.135 A 
ATOM     75  C   UNL A   1      42.778  23.424  26.368  1.00  0.00     0.135 A 
ATOM     76  F   UNL A   1      42.235  22.627  29.873  1.00  0.00    -0.206 F 
ATOM     77  C   UNL A   1      42.288  21.217  27.997  1.00  0.00     0.059 A 
ATOM     78  C   UNL A   1      42.670  22.161  25.793  1.00  0.00     0.059 A 
ATOM     79  F   UNL A   1      43.012  24.471  25.561  1.00  0.00    -0.206 F 
ATOM     80  C   UNL A   1      42.444  21.062  26.619  1.00  0.00     0.060 A 
BRANCH  80  81
ATOM     81  S   UNL A   1      42.318  19.405  25.911  1.00  0.00     0.124 S 
ATOM     82  O   UNL A   1      42.881  18.586  26.979  1.00  0.00    -0.237 OA
ATOM     83  O   UNL A   1      40.882  19.270  25.691  1.00  0.00    -0.237 OA
ATOM     84  O   UNL A   1      43.122  19.500  24.696  1.00  0.00    -0.744 OA
ENDBRANCH  80  81
ENDBRANCH  48  73
BRANCH  60  85
ATOM     85  C   UNL A   1      47.937  26.807  30.952  1.00  0.00     0.058 A 
ATOM     86  C   UNL A   1      49.020  26.871  30.061  1.00  0.00     0.135 A 
ATOM     87  C   UNL A   1      48.172  26.290  32.236  1.00  0.00     0.135 A 
ATOM     88  F   UNL A   1      48.849  27.355  28.821  1.00  0.00    -0.206 F 
ATOM     89  C   UNL A   1      50.279  26.394  30.414  1.00  0.00     0.059 A 
ATOM     90  C   UNL A   1      49.429  25.834  32.619  1.00  0.00     0.059 A 
ATOM     91  F   UNL A   1      47.174  26.220  33.131  1.00  0.00    -0.206 F 
ATOM     92  C   UNL A   1      50.471  25.869  31.693  1.00  0.00     0.060 A 
BRANCH  92  93
ATOM     93  S   UNL A   1      52.103  25.239  32.139  1.00  0.00     0.124 S 
ATOM     94  O   UNL A   1      52.319  25.876  33.434  1.00  0.00    -0.237 OA
ATOM     95  O   UNL A   1      51.887  23.796  32.172  1.00  0.00    -0.237 OA
ATOM     96  O   UNL A   1      52.956  25.714  31.055  1.00  0.00    -0.744 OA
ENDBRANCH  92  93
ENDBRANCH  60  85
ENDBRANCH  34  35
ENDBRANCH  26  29
ENDBRANCH  24  25
ENDBRANCH   1  24
TORSDOF 16
ENDMDL
MODEL 3
REMARK VINA RESULT:     -11.6      5.608     10.608
REMARK SMILES Cc1cccc(Nc2ccccc2C(=O)NCCCCNC(=O)c2ccc(-c3c4nc(c(-c5c(F)cc(S(=O)(=O)[O-])cc5F)c5ccc([nH]5)c(-c5c(F)cc(S(=O)(=O)[O-])cc5F)c5nc(c(-c6c(F)cc(S(=O)(=O)[O-])cc6F)c6ccc3[nH]6)C=C5)C=C4)cc2)c1C
REMARK SMILES IDX 19 1 18 2 17 3 16 4 14 5 15 6 13 8 8 9 9 10 10 11 12 12
REMARK SMILES IDX 11 13 7 14 6 16 1 17 2 18 3 19 90 20 4 21 91 22 5 23 20 24
REMARK SMILES IDX 21 25 22 26 23 28 24 29 25 30 89 31 26 32 88 33 27 34 28 35
REMARK SMILES IDX 29 36 82 37 30 38 87 39 81 40 83 41 31 42 86 43 80 44 79 45
REMARK SMILES IDX 32 47 66 48 45 49 65 50 46 51 49 52 64 53 84 54 47 55 48 56
REMARK SMILES IDX 63 58 85 59 50 60 33 61 34 62 43 63 35 64 36 65 42 66 44 67
REMARK SMILES IDX 37 68 38 69 39 70 40 71 41 72 67 73 68 74 77 75 69 76 70 77
REMARK SMILES IDX 76 78 78 79 71 80 72 81 73 82 74 83 75 84 51 85 52 86 61 87
REMARK SMILES IDX 53 88 54 89 60 90 62 91 55 92 56 93 57 94 58 95 59 96
REMARK H PARENT 16 7 7 15 21 27 83 46 49 57
REMARK Flexibility Score: inf
ROOT
ATOM      1  C   UNL A   1      40.373  22.175  26.993  1.00  0.00     0.023 C 
ENDROOT
BRANCH   1   2
ATOM      2  C   UNL A   1      39.068  22.770  26.454  1.00  0.00     0.023 C 
BRANCH   2   3
ATOM      3  C   UNL A   1      38.115  21.812  25.751  1.00  0.00     0.116 C 
BRANCH   3   4
ATOM      4  N   UNL A   1      37.750  22.174  24.405  1.00  0.00    -0.352 N 
ATOM      5  C   UNL A   1      36.652  22.866  23.947  1.00  0.00     0.253 C 
ATOM      6  O   UNL A   1      36.658  23.204  22.759  1.00  0.00    -0.269 OA
ATOM      7  H   UNL A   1      38.380  21.882  23.707  1.00  0.00     0.163 HD
BRANCH   5   8
ATOM      8  C   UNL A   1      35.402  23.107  24.741  1.00  0.00     0.063 A 
ATOM      9  C   UNL A   1      34.464  22.173  25.226  1.00  0.00     0.051 A 
ATOM     10  C   UNL A   1      33.310  22.671  25.886  1.00  0.00     0.027 A 
ATOM     11  C   UNL A   1      33.115  24.029  26.135  1.00  0.00     0.002 A 
ATOM     12  C   UNL A   1      35.196  24.481  25.027  1.00  0.00     0.016 A 
ATOM     13  C   UNL A   1      34.076  24.937  25.725  1.00  0.00     0.001 A 
BRANCH   9  14
ATOM     14  N   UNL A   1      34.578  20.768  25.252  1.00  0.00    -0.355 N 
ATOM     15  H   UNL A   1      35.278  20.452  25.867  1.00  0.00     0.167 HD
BRANCH  14  16
ATOM     16  C   UNL A   1      33.913  19.715  24.591  1.00  0.00     0.042 A 
ATOM     17  C   UNL A   1      34.364  16.242  23.038  1.00  0.00     0.044 C 
ATOM     18  C   UNL A   1      33.779  17.573  23.434  1.00  0.00    -0.046 A 
ATOM     19  C   UNL A   1      32.524  17.930  22.918  1.00  0.00     0.004 A 
ATOM     20  C   UNL A   1      34.460  18.444  24.324  1.00  0.00    -0.025 A 
ATOM     21  C   UNL A   1      31.938  19.137  23.264  1.00  0.00     0.002 A 
ATOM     22  C   UNL A   1      35.718  17.958  24.999  1.00  0.00     0.047 C 
ATOM     23  C   UNL A   1      32.628  20.019  24.089  1.00  0.00     0.026 A 
ENDBRANCH  14  16
ENDBRANCH   9  14
ENDBRANCH   5   8
ENDBRANCH   3   4
ENDBRANCH   2   3
ENDBRANCH   1   2
BRANCH   1  24
ATOM     24  C   UNL A   1      41.616  23.068  27.007  1.00  0.00     0.116 C 
BRANCH  24  25
ATOM     25  N   UNL A   1      41.684  24.046  25.933  1.00  0.00    -0.352 N 
ATOM     26  C   UNL A   1      41.705  25.424  26.005  1.00  0.00     0.251 C 
ATOM     27  H   UNL A   1      41.720  23.672  25.023  1.00  0.00     0.163 HD
ATOM     28  O   UNL A   1      41.798  26.085  24.980  1.00  0.00    -0.269 OA
BRANCH  26  29
ATOM     29  C   UNL A   1      41.568  26.103  27.317  1.00  0.00     0.039 A 
ATOM     30  C   UNL A   1      42.596  26.952  27.739  1.00  0.00     0.014 A 
ATOM     31  C   UNL A   1      40.430  25.940  28.112  1.00  0.00     0.014 A 
ATOM     32  C   UNL A   1      42.438  27.712  28.901  1.00  0.00     0.010 A 
ATOM     33  C   UNL A   1      40.247  26.747  29.237  1.00  0.00     0.010 A 
ATOM     34  C   UNL A   1      41.240  27.657  29.633  1.00  0.00    -0.014 A 
BRANCH  34  35
ATOM     35  C   UNL A   1      40.999  28.596  30.764  1.00  0.00     0.031 A 
ATOM     36  C   UNL A   1      41.783  28.489  32.044  1.00  0.00     0.074 A 
ATOM     37  C   UNL A   1      40.020  29.519  30.653  1.00  0.00     0.049 A 
ATOM     38  N   UNL A   1      41.710  29.233  33.117  1.00  0.00    -0.248 NA
ATOM     39  C   UNL A   1      42.757  27.391  32.144  1.00  0.00     0.031 C 
ATOM     40  C   UNL A   1      39.123  29.666  29.502  1.00  0.00     0.029 A 
ATOM     41  N   UNL A   1      39.605  30.501  31.518  1.00  0.00    -0.354 N 
ATOM     42  C   UNL A   1      42.614  28.690  34.024  1.00  0.00     0.074 A 
ATOM     43  C   UNL A   1      43.195  27.526  33.388  1.00  0.00     0.031 C 
ATOM     44  C   UNL A   1      38.281  30.688  29.725  1.00  0.00     0.029 A 
ATOM     45  C   UNL A   1      38.561  31.259  31.038  1.00  0.00     0.049 A 
ATOM     46  H   UNL A   1      40.017  30.650  32.400  1.00  0.00     0.167 HD
ATOM     47  C   UNL A   1      42.942  29.131  35.262  1.00  0.00     0.037 A 
ATOM     48  C   UNL A   1      37.906  32.299  31.590  1.00  0.00     0.037 A 
ATOM     49  C   UNL A   1      42.388  30.311  35.876  1.00  0.00     0.049 A 
ATOM     50  C   UNL A   1      38.342  32.810  32.936  1.00  0.00     0.074 A 
ATOM     51  C   UNL A   1      42.730  30.891  37.087  1.00  0.00     0.029 A 
ATOM     52  N   UNL A   1      41.378  31.091  35.334  1.00  0.00    -0.354 N 
ATOM     53  N   UNL A   1      39.280  32.348  33.729  1.00  0.00    -0.248 NA
ATOM     54  C   UNL A   1      37.649  33.998  33.454  1.00  0.00     0.031 C 
ATOM     55  C   UNL A   1      41.900  31.998  37.295  1.00  0.00     0.029 A 
ATOM     56  C   UNL A   1      41.073  32.135  36.192  1.00  0.00     0.049 A 
ATOM     57  H   UNL A   1      40.943  30.927  34.467  1.00  0.00     0.167 HD
ATOM     58  C   UNL A   1      39.302  33.201  34.827  1.00  0.00     0.074 A 
ATOM     59  C   UNL A   1      38.303  34.221  34.584  1.00  0.00     0.031 C 
ATOM     60  C   UNL A   1      40.078  33.144  35.938  1.00  0.00     0.037 A 
BRANCH  47  61
ATOM     61  C   UNL A   1      43.964  28.351  36.042  1.00  0.00     0.058 A 
ATOM     62  C   UNL A   1      45.327  28.681  36.003  1.00  0.00     0.135 A 
ATOM     63  C   UNL A   1      43.566  27.318  36.906  1.00  0.00     0.135 A 
ATOM     64  F   UNL A   1      45.765  29.651  35.183  1.00  0.00    -0.206 F 
ATOM     65  C   UNL A   1      46.262  28.010  36.786  1.00  0.00     0.059 A 
ATOM     66  C   UNL A   1      44.479  26.649  37.717  1.00  0.00     0.059 A 
ATOM     67  F   UNL A   1      42.273  26.961  36.982  1.00  0.00    -0.206 F 
ATOM     68  C   UNL A   1      45.826  27.000  37.645  1.00  0.00     0.060 A 
BRANCH  68  69
ATOM     69  S   UNL A   1      47.045  26.172  38.689  1.00  0.00     0.124 S 
ATOM     70  O   UNL A   1      48.289  26.769  38.214  1.00  0.00    -0.237 OA
ATOM     71  O   UNL A   1      46.625  26.567  40.031  1.00  0.00    -0.237 OA
ATOM     72  O   UNL A   1      46.864  24.759  38.370  1.00  0.00    -0.744 OA
ENDBRANCH  68  69
ENDBRANCH  47  61
BRANCH  48  73
ATOM     73  C   UNL A   1      36.781  32.950  30.865  1.00  0.00     0.058 A 
ATOM     74  C   UNL A   1      37.016  33.915  29.873  1.00  0.00     0.135 A 
ATOM     75  C   UNL A   1      35.446  32.638  31.168  1.00  0.00     0.135 A 
ATOM     76  F   UNL A   1      38.274  34.249  29.549  1.00  0.00    -0.206 F 
ATOM     77  C   UNL A   1      35.971  34.576  29.236  1.00  0.00     0.059 A 
ATOM     78  C   UNL A   1      34.384  33.266  30.525  1.00  0.00     0.059 A 
ATOM     79  F   UNL A   1      35.167  31.706  32.093  1.00  0.00    -0.206 F 
ATOM     80  C   UNL A   1      34.657  34.248  29.574  1.00  0.00     0.060 A 
BRANCH  80  81
ATOM     81  S   UNL A   1      33.304  35.099  28.734  1.00  0.00     0.124 S 
ATOM     82  O   UNL A   1      32.526  35.598  29.862  1.00  0.00    -0.237 OA
ATOM     83  O   UNL A   1      34.010  36.106  27.949  1.00  0.00    -0.237 OA
ATOM     84  O   UNL A   1      32.676  34.036  27.953  1.00  0.00    -0.744 OA
ENDBRANCH  80  81
ENDBRANCH  48  73
BRANCH  60  85
ATOM     85  C   UNL A   1      39.895  34.236  36.956  1.00  0.00     0.058 A 
ATOM     86  C   UNL A   1      40.523  35.485  36.820  1.00  0.00     0.135 A 
ATOM     87  C   UNL A   1      39.081  34.030  38.082  1.00  0.00     0.135 A 
ATOM     88  F   UNL A   1      41.314  35.732  35.765  1.00  0.00    -0.206 F 
ATOM     89  C   UNL A   1      40.387  36.475  37.789  1.00  0.00     0.059 A 
ATOM     90  C   UNL A   1      38.908  35.016  39.047  1.00  0.00     0.059 A 
ATOM     91  F   UNL A   1      38.447  32.860  38.252  1.00  0.00    -0.206 F 
ATOM     92  C   UNL A   1      39.584  36.227  38.903  1.00  0.00     0.060 A 
BRANCH  92  93
ATOM     93  S   UNL A   1      39.424  37.511  40.163  1.00  0.00     0.124 S 
ATOM     94  O   UNL A   1      40.799  37.990  40.267  1.00  0.00    -0.237 OA
ATOM     95  O   UNL A   1      38.475  38.437  39.553  1.00  0.00    -0.237 OA
ATOM     96  O   UNL A   1      38.923  36.784  41.325  1.00  0.00    -0.744 OA
ENDBRANCH  92  93
ENDBRANCH  60  85
ENDBRANCH  34  35
ENDBRANCH  26  29
ENDBRANCH  24  25
ENDBRANCH   1  24
TORSDOF 16
ENDMDL
