MODEL 1
REMARK VINA RESULT:     -14.0      0.000      0.000
REMARK SMILES Cc1cccc(-c2ccc(Cl)c(C(=O)NCCCCNC(=O)c3ccc(-c4c5nc(c(-c6c(F)cc(S(=O)(=O)[O-])cc6F)c6ccc([nH]6)c(-c6c(F)cc(S(=O)(=O)[O-])cc6F)c6nc(c(-c7c(F)cc(S(=O)(=O)[O-])cc7F)c7ccc4[nH]7)C=C6)C=C5)cc3)c2)c1
REMARK SMILES IDX 18 1 17 2 16 3 15 4 13 5 14 6 12 8 7 9 8 10 89 11 9 12 10 13
REMARK SMILES IDX 11 14 6 15 1 16 2 17 3 18 90 19 4 20 5 21 19 22 20 23 21 24
REMARK SMILES IDX 22 26 23 27 24 28 88 29 25 30 87 31 26 32 27 33 28 34 81 35
REMARK SMILES IDX 29 36 86 37 80 38 82 39 30 40 85 41 79 42 78 43 31 45 65 46
REMARK SMILES IDX 44 47 64 48 45 49 48 50 63 51 83 52 46 53 47 54 62 56 84 57
REMARK SMILES IDX 49 58 32 59 33 60 42 61 34 62 35 63 41 64 43 65 36 66 37 67
REMARK SMILES IDX 38 68 39 69 40 70 66 71 67 72 76 73 68 74 69 75 75 76 77 77
REMARK SMILES IDX 70 78 71 79 72 80 73 81 74 82 50 83 51 84 60 85 52 86 53 87
REMARK SMILES IDX 59 88 61 89 54 90 55 91 56 92 57 93 58 94
REMARK H PARENT 15 7 20 25 82 44 48 55
REMARK Flexibility Score: inf
ROOT
ATOM      1  C   UNL A   1      36.626  23.098  25.975  1.00  0.00     0.023 C 
ENDROOT
BRANCH   1   2
ATOM      2  C   UNL A   1      35.649  23.309  24.823  1.00  0.00     0.023 C 
BRANCH   2   3
ATOM      3  C   UNL A   1      34.279  22.643  24.962  1.00  0.00     0.116 C 
BRANCH   3   4
ATOM      4  N   UNL A   1      33.867  22.363  26.332  1.00  0.00    -0.352 N 
ATOM      5  C   UNL A   1      32.883  22.921  27.117  1.00  0.00     0.252 C 
ATOM      6  O   UNL A   1      32.721  22.487  28.258  1.00  0.00    -0.269 OA
ATOM      7  H   UNL A   1      34.384  21.652  26.775  1.00  0.00     0.163 HD
BRANCH   5   8
ATOM      8  C   UNL A   1      32.078  24.091  26.687  1.00  0.00     0.059 A 
ATOM      9  C   UNL A   1      32.081  26.518  26.273  1.00  0.00    -0.017 A 
ATOM     10  C   UNL A   1      30.766  26.396  25.798  1.00  0.00     0.010 A 
ATOM     11  C   UNL A   1      32.746  25.339  26.653  1.00  0.00     0.024 A 
ATOM     12  C   UNL A   1      30.076  25.189  25.895  1.00  0.00     0.022 A 
ATOM     13  C   UNL A   1      30.706  24.060  26.423  1.00  0.00     0.053 A 
ATOM     14  Cl  UNL A   1      29.669  22.754  26.877  1.00  0.00    -0.083 Cl
BRANCH   9  15
ATOM     15  C   UNL A   1      32.654  27.860  26.489  1.00  0.00    -0.018 A 
ATOM     16  C   UNL A   1      31.326  31.454  26.512  1.00  0.00     0.044 C 
ATOM     17  C   UNL A   1      32.267  30.290  26.611  1.00  0.00    -0.051 A 
ATOM     18  C   UNL A   1      33.620  30.484  26.889  1.00  0.00     0.003 A 
ATOM     19  C   UNL A   1      31.802  28.984  26.416  1.00  0.00     0.012 A 
ATOM     20  C   UNL A   1      34.481  29.387  26.982  1.00  0.00     0.001 A 
ATOM     21  C   UNL A   1      34.003  28.085  26.787  1.00  0.00     0.009 A 
ENDBRANCH   9  15
ENDBRANCH   5   8
ENDBRANCH   3   4
ENDBRANCH   2   3
ENDBRANCH   1   2
BRANCH   1  22
ATOM     22  C   UNL A   1      38.077  23.469  25.686  1.00  0.00     0.116 C 
BRANCH  22  23
ATOM     23  N   UNL A   1      39.018  23.016  26.695  1.00  0.00    -0.352 N 
ATOM     24  C   UNL A   1      39.880  23.778  27.473  1.00  0.00     0.251 C 
ATOM     25  H   UNL A   1      39.048  22.044  26.849  1.00  0.00     0.163 HD
ATOM     26  O   UNL A   1      40.828  23.277  28.050  1.00  0.00    -0.269 OA
BRANCH  24  27
ATOM     27  C   UNL A   1      39.536  25.205  27.688  1.00  0.00     0.039 A 
ATOM     28  C   UNL A   1      40.114  26.145  26.825  1.00  0.00     0.014 A 
ATOM     29  C   UNL A   1      38.870  25.617  28.835  1.00  0.00     0.014 A 
ATOM     30  C   UNL A   1      40.201  27.480  27.219  1.00  0.00     0.010 A 
ATOM     31  C   UNL A   1      39.048  26.914  29.273  1.00  0.00     0.010 A 
ATOM     32  C   UNL A   1      39.756  27.837  28.488  1.00  0.00    -0.014 A 
BRANCH  32  33
ATOM     33  C   UNL A   1      40.037  29.115  29.139  1.00  0.00     0.031 A 
ATOM     34  C   UNL A   1      39.038  30.207  29.100  1.00  0.00     0.074 A 
ATOM     35  C   UNL A   1      41.111  29.216  29.952  1.00  0.00     0.049 A 
ATOM     36  N   UNL A   1      39.224  31.407  29.537  1.00  0.00    -0.248 NA
ATOM     37  C   UNL A   1      37.723  30.020  28.500  1.00  0.00     0.031 C 
ATOM     38  C   UNL A   1      41.327  30.192  31.013  1.00  0.00     0.029 A 
ATOM     39  N   UNL A   1      42.338  28.558  29.831  1.00  0.00    -0.354 N 
ATOM     40  C   UNL A   1      38.007  32.055  29.545  1.00  0.00     0.074 A 
ATOM     41  C   UNL A   1      37.126  31.168  28.822  1.00  0.00     0.031 C 
ATOM     42  C   UNL A   1      42.640  30.267  31.275  1.00  0.00     0.029 A 
ATOM     43  C   UNL A   1      43.325  29.467  30.275  1.00  0.00     0.049 A 
ATOM     44  H   UNL A   1      42.486  27.642  29.500  1.00  0.00     0.167 HD
ATOM     45  C   UNL A   1      37.873  33.208  30.268  1.00  0.00     0.037 A 
ATOM     46  C   UNL A   1      44.247  29.958  29.391  1.00  0.00     0.037 A 
ATOM     47  C   UNL A   1      39.183  33.699  30.712  1.00  0.00     0.049 A 
ATOM     48  C   UNL A   1      44.129  31.442  29.108  1.00  0.00     0.074 A 
ATOM     49  C   UNL A   1      39.897  33.650  31.899  1.00  0.00     0.029 A 
ATOM     50  N   UNL A   1      40.085  34.122  29.749  1.00  0.00    -0.354 N 
ATOM     51  N   UNL A   1      43.253  32.239  29.659  1.00  0.00    -0.248 NA
ATOM     52  C   UNL A   1      44.958  32.135  28.117  1.00  0.00     0.031 C 
ATOM     53  C   UNL A   1      41.259  33.968  31.612  1.00  0.00     0.029 A 
ATOM     54  C   UNL A   1      41.367  34.221  30.256  1.00  0.00     0.049 A 
ATOM     55  H   UNL A   1      39.842  34.326  28.816  1.00  0.00     0.167 HD
ATOM     56  C   UNL A   1      43.331  33.472  29.072  1.00  0.00     0.074 A 
ATOM     57  C   UNL A   1      44.434  33.372  28.136  1.00  0.00     0.031 C 
ATOM     58  C   UNL A   1      42.464  34.489  29.343  1.00  0.00     0.037 A 
BRANCH  45  59
ATOM     59  C   UNL A   1      36.549  33.773  30.767  1.00  0.00     0.058 A 
ATOM     60  C   UNL A   1      35.535  34.143  29.851  1.00  0.00     0.135 A 
ATOM     61  C   UNL A   1      36.229  34.057  32.111  1.00  0.00     0.135 A 
ATOM     62  F   UNL A   1      35.636  33.859  28.545  1.00  0.00    -0.206 F 
ATOM     63  C   UNL A   1      34.374  34.830  30.224  1.00  0.00     0.059 A 
ATOM     64  C   UNL A   1      35.102  34.785  32.506  1.00  0.00     0.059 A 
ATOM     65  F   UNL A   1      36.955  33.587  33.127  1.00  0.00    -0.206 F 
ATOM     66  C   UNL A   1      34.182  35.182  31.552  1.00  0.00     0.060 A 
BRANCH  66  67
ATOM     67  S   UNL A   1      32.726  36.134  32.019  1.00  0.00     0.124 S 
ATOM     68  O   UNL A   1      32.428  36.861  30.789  1.00  0.00    -0.237 OA
ATOM     69  O   UNL A   1      31.781  35.085  32.386  1.00  0.00    -0.237 OA
ATOM     70  O   UNL A   1      33.200  36.961  33.126  1.00  0.00    -0.744 OA
ENDBRANCH  66  67
ENDBRANCH  45  59
BRANCH  46  71
ATOM     71  C   UNL A   1      44.702  28.919  28.425  1.00  0.00     0.058 A 
ATOM     72  C   UNL A   1      44.130  28.944  27.138  1.00  0.00     0.135 A 
ATOM     73  C   UNL A   1      45.942  28.284  28.575  1.00  0.00     0.135 A 
ATOM     74  F   UNL A   1      42.929  29.515  26.948  1.00  0.00    -0.206 F 
ATOM     75  C   UNL A   1      44.845  28.543  26.017  1.00  0.00     0.059 A 
ATOM     76  C   UNL A   1      46.669  27.856  27.463  1.00  0.00     0.059 A 
ATOM     77  F   UNL A   1      46.530  28.220  29.779  1.00  0.00    -0.206 F 
ATOM     78  C   UNL A   1      46.145  28.074  26.188  1.00  0.00     0.060 A 
BRANCH  78  79
ATOM     79  S   UNL A   1      47.195  27.950  24.721  1.00  0.00     0.124 S 
ATOM     80  O   UNL A   1      48.524  28.190  25.273  1.00  0.00    -0.237 OA
ATOM     81  O   UNL A   1      46.931  26.580  24.287  1.00  0.00    -0.237 OA
ATOM     82  O   UNL A   1      46.675  29.000  23.851  1.00  0.00    -0.744 OA
ENDBRANCH  78  79
ENDBRANCH  46  71
BRANCH  58  83
ATOM     83  C   UNL A   1      42.619  35.841  28.723  1.00  0.00     0.058 A 
ATOM     84  C   UNL A   1      43.119  36.927  29.461  1.00  0.00     0.135 A 
ATOM     85  C   UNL A   1      42.162  36.114  27.421  1.00  0.00     0.135 A 
ATOM     86  F   UNL A   1      43.554  36.751  30.720  1.00  0.00    -0.206 F 
ATOM     87  C   UNL A   1      43.180  38.213  28.932  1.00  0.00     0.059 A 
ATOM     88  C   UNL A   1      42.178  37.398  26.883  1.00  0.00     0.059 A 
ATOM     89  F   UNL A   1      41.707  35.130  26.629  1.00  0.00    -0.206 F 
ATOM     90  C   UNL A   1      42.703  38.439  27.642  1.00  0.00     0.060 A 
BRANCH  90  91
ATOM     91  S   UNL A   1      42.735  40.111  26.962  1.00  0.00     0.124 S 
ATOM     92  O   UNL A   1      41.353  40.314  26.535  1.00  0.00    -0.237 OA
ATOM     93  O   UNL A   1      43.154  40.888  28.124  1.00  0.00    -0.237 OA
ATOM     94  O   UNL A   1      43.709  40.013  25.882  1.00  0.00    -0.744 OA
ENDBRANCH  90  91
ENDBRANCH  58  83
ENDBRANCH  32  33
ENDBRANCH  24  27
ENDBRANCH  22  23
ENDBRANCH   1  22
TORSDOF 15
ENDMDL
MODEL 2
REMARK VINA RESULT:     -14.0      1.747      2.445
REMARK SMILES Cc1cccc(-c2ccc(Cl)c(C(=O)NCCCCNC(=O)c3ccc(-c4c5nc(c(-c6c(F)cc(S(=O)(=O)[O-])cc6F)c6ccc([nH]6)c(-c6c(F)cc(S(=O)(=O)[O-])cc6F)c6nc(c(-c7c(F)cc(S(=O)(=O)[O-])cc7F)c7ccc4[nH]7)C=C6)C=C5)cc3)c2)c1
REMARK SMILES IDX 18 1 17 2 16 3 15 4 13 5 14 6 12 8 7 9 8 10 89 11 9 12 10 13
REMARK SMILES IDX 11 14 6 15 1 16 2 17 3 18 90 19 4 20 5 21 19 22 20 23 21 24
REMARK SMILES IDX 22 26 23 27 24 28 88 29 25 30 87 31 26 32 27 33 28 34 81 35
REMARK SMILES IDX 29 36 86 37 80 38 82 39 30 40 85 41 79 42 78 43 31 45 65 46
REMARK SMILES IDX 44 47 64 48 45 49 48 50 63 51 83 52 46 53 47 54 62 56 84 57
REMARK SMILES IDX 49 58 32 59 33 60 42 61 34 62 35 63 41 64 43 65 36 66 37 67
REMARK SMILES IDX 38 68 39 69 40 70 66 71 67 72 76 73 68 74 69 75 75 76 77 77
REMARK SMILES IDX 70 78 71 79 72 80 73 81 74 82 50 83 51 84 60 85 52 86 53 87
REMARK SMILES IDX 59 88 61 89 54 90 55 91 56 92 57 93 58 94
REMARK H PARENT 15 7 20 25 82 44 48 55
REMARK Flexibility Score: inf
ROOT
ATOM      1  C   UNL A   1      37.354  22.301  25.536  1.00  0.00     0.023 C 
ENDROOT
BRANCH   1   2
ATOM      2  C   UNL A   1      36.785  22.480  24.133  1.00  0.00     0.023 C 
BRANCH   2   3
ATOM      3  C   UNL A   1      35.881  23.695  23.914  1.00  0.00     0.116 C 
BRANCH   3   4
ATOM      4  N   UNL A   1      34.454  23.401  23.877  1.00  0.00    -0.352 N 
ATOM      5  C   UNL A   1      33.371  24.190  23.562  1.00  0.00     0.252 C 
ATOM      6  O   UNL A   1      32.247  23.689  23.589  1.00  0.00    -0.269 OA
ATOM      7  H   UNL A   1      34.223  22.475  24.121  1.00  0.00     0.163 HD
BRANCH   5   8
ATOM      8  C   UNL A   1      33.488  25.646  23.293  1.00  0.00     0.059 A 
ATOM      9  C   UNL A   1      33.737  27.882  24.289  1.00  0.00    -0.017 A 
ATOM     10  C   UNL A   1      33.834  28.405  22.991  1.00  0.00     0.010 A 
ATOM     11  C   UNL A   1      33.630  26.487  24.423  1.00  0.00     0.024 A 
ATOM     12  C   UNL A   1      33.623  27.597  21.875  1.00  0.00     0.022 A 
ATOM     13  C   UNL A   1      33.361  26.235  22.032  1.00  0.00     0.053 A 
ATOM     14  Cl  UNL A   1      32.718  25.419  20.651  1.00  0.00    -0.083 Cl
BRANCH   9  15
ATOM     15  C   UNL A   1      33.608  28.803  25.436  1.00  0.00    -0.018 A 
ATOM     16  C   UNL A   1      31.290  31.699  26.396  1.00  0.00     0.044 C 
ATOM     17  C   UNL A   1      32.389  30.680  26.465  1.00  0.00    -0.051 A 
ATOM     18  C   UNL A   1      33.243  30.621  27.565  1.00  0.00     0.003 A 
ATOM     19  C   UNL A   1      32.580  29.771  25.417  1.00  0.00     0.012 A 
ATOM     20  C   UNL A   1      34.259  29.662  27.616  1.00  0.00     0.001 A 
ATOM     21  C   UNL A   1      34.438  28.758  26.561  1.00  0.00     0.009 A 
ENDBRANCH   9  15
ENDBRANCH   5   8
ENDBRANCH   3   4
ENDBRANCH   2   3
ENDBRANCH   1   2
BRANCH   1  22
ATOM     22  C   UNL A   1      38.106  23.501  26.101  1.00  0.00     0.116 C 
BRANCH  22  23
ATOM     23  N   UNL A   1      39.234  23.151  26.948  1.00  0.00    -0.352 N 
ATOM     24  C   UNL A   1      40.169  23.997  27.529  1.00  0.00     0.251 C 
ATOM     25  H   UNL A   1      39.349  22.191  27.134  1.00  0.00     0.163 HD
ATOM     26  O   UNL A   1      41.231  23.577  27.951  1.00  0.00    -0.269 OA
BRANCH  24  27
ATOM     27  C   UNL A   1      39.781  25.413  27.740  1.00  0.00     0.039 A 
ATOM     28  C   UNL A   1      40.341  26.370  26.885  1.00  0.00     0.014 A 
ATOM     29  C   UNL A   1      39.091  25.805  28.881  1.00  0.00     0.014 A 
ATOM     30  C   UNL A   1      40.384  27.707  27.280  1.00  0.00     0.010 A 
ATOM     31  C   UNL A   1      39.227  27.106  29.321  1.00  0.00     0.010 A 
ATOM     32  C   UNL A   1      39.915  28.050  28.545  1.00  0.00    -0.014 A 
BRANCH  32  33
ATOM     33  C   UNL A   1      40.152  29.335  29.199  1.00  0.00     0.031 A 
ATOM     34  C   UNL A   1      39.114  30.390  29.167  1.00  0.00     0.074 A 
ATOM     35  C   UNL A   1      41.225  29.472  30.008  1.00  0.00     0.049 A 
ATOM     36  N   UNL A   1      39.258  31.595  29.608  1.00  0.00    -0.248 NA
ATOM     37  C   UNL A   1      37.805  30.157  28.571  1.00  0.00     0.031 C 
ATOM     38  C   UNL A   1      41.409  30.452  31.072  1.00  0.00     0.029 A 
ATOM     39  N   UNL A   1      42.475  28.860  29.881  1.00  0.00    -0.354 N 
ATOM     40  C   UNL A   1      38.018  32.198  29.623  1.00  0.00     0.074 A 
ATOM     41  C   UNL A   1      37.167  31.282  28.900  1.00  0.00     0.031 C 
ATOM     42  C   UNL A   1      42.720  30.574  31.329  1.00  0.00     0.029 A 
ATOM     43  C   UNL A   1      43.429  29.803  30.324  1.00  0.00     0.049 A 
ATOM     44  H   UNL A   1      42.655  27.951  29.546  1.00  0.00     0.167 HD
ATOM     45  C   UNL A   1      37.845  33.343  30.350  1.00  0.00     0.037 A 
ATOM     46  C   UNL A   1      44.329  30.331  29.438  1.00  0.00     0.037 A 
ATOM     47  C   UNL A   1      39.137  33.880  30.792  1.00  0.00     0.049 A 
ATOM     48  C   UNL A   1      44.157  31.810  29.161  1.00  0.00     0.074 A 
ATOM     49  C   UNL A   1      39.857  33.853  31.976  1.00  0.00     0.029 A 
ATOM     50  N   UNL A   1      40.020  34.338  29.826  1.00  0.00    -0.354 N 
ATOM     51  N   UNL A   1      43.254  32.572  29.718  1.00  0.00    -0.248 NA
ATOM     52  C   UNL A   1      44.955  32.536  28.170  1.00  0.00     0.031 C 
ATOM     53  C   UNL A   1      41.205  34.221  31.685  1.00  0.00     0.029 A 
ATOM     54  C   UNL A   1      41.299  34.483  30.330  1.00  0.00     0.049 A 
ATOM     55  H   UNL A   1      39.766  34.536  28.895  1.00  0.00     0.167 HD
ATOM     56  C   UNL A   1      43.284  33.810  29.136  1.00  0.00     0.074 A 
ATOM     57  C   UNL A   1      44.386  33.754  28.195  1.00  0.00     0.031 C 
ATOM     58  C   UNL A   1      42.382  34.794  29.413  1.00  0.00     0.037 A 
BRANCH  45  59
ATOM     59  C   UNL A   1      36.502  33.857  30.857  1.00  0.00     0.058 A 
ATOM     60  C   UNL A   1      35.489  34.235  29.945  1.00  0.00     0.135 A 
ATOM     61  C   UNL A   1      36.164  34.084  32.207  1.00  0.00     0.135 A 
ATOM     62  F   UNL A   1      35.608  34.001  28.629  1.00  0.00    -0.206 F 
ATOM     63  C   UNL A   1      34.307  34.880  30.330  1.00  0.00     0.059 A 
ATOM     64  C   UNL A   1      35.016  34.770  32.616  1.00  0.00     0.059 A 
ATOM     65  F   UNL A   1      36.892  33.595  33.212  1.00  0.00    -0.206 F 
ATOM     66  C   UNL A   1      34.095  35.179  31.668  1.00  0.00     0.060 A 
BRANCH  66  67
ATOM     67  S   UNL A   1      32.612  36.078  32.154  1.00  0.00     0.124 S 
ATOM     68  O   UNL A   1      31.712  34.998  32.545  1.00  0.00    -0.237 OA
ATOM     69  O   UNL A   1      33.108  36.920  33.237  1.00  0.00    -0.237 OA
ATOM     70  O   UNL A   1      32.230  36.790  30.937  1.00  0.00    -0.744 OA
ENDBRANCH  66  67
ENDBRANCH  45  59
BRANCH  46  71
ATOM     71  C   UNL A   1      44.818  29.312  28.468  1.00  0.00     0.058 A 
ATOM     72  C   UNL A   1      45.743  28.362  28.945  1.00  0.00     0.135 A 
ATOM     73  C   UNL A   1      44.072  28.979  27.329  1.00  0.00     0.135 A 
ATOM     74  F   UNL A   1      46.503  28.645  30.016  1.00  0.00    -0.206 F 
ATOM     75  C   UNL A   1      45.782  27.068  28.443  1.00  0.00     0.059 A 
ATOM     76  C   UNL A   1      44.109  27.690  26.796  1.00  0.00     0.059 A 
ATOM     77  F   UNL A   1      43.183  29.848  26.824  1.00  0.00    -0.206 F 
ATOM     78  C   UNL A   1      44.902  26.724  27.419  1.00  0.00     0.060 A 
BRANCH  78  79
ATOM     79  S   UNL A   1      44.670  24.966  27.064  1.00  0.00     0.124 S 
ATOM     80  O   UNL A   1      43.514  24.982  26.175  1.00  0.00    -0.237 OA
ATOM     81  O   UNL A   1      45.945  24.625  26.435  1.00  0.00    -0.237 OA
ATOM     82  O   UNL A   1      44.442  24.387  28.384  1.00  0.00    -0.744 OA
ENDBRANCH  78  79
ENDBRANCH  46  71
BRANCH  58  83
ATOM     83  C   UNL A   1      42.485  36.153  28.798  1.00  0.00     0.058 A 
ATOM     84  C   UNL A   1      41.880  36.440  27.563  1.00  0.00     0.135 A 
ATOM     85  C   UNL A   1      43.288  37.161  29.363  1.00  0.00     0.135 A 
ATOM     86  F   UNL A   1      41.117  35.520  26.949  1.00  0.00    -0.206 F 
ATOM     87  C   UNL A   1      42.046  37.668  26.929  1.00  0.00     0.059 A 
ATOM     88  C   UNL A   1      43.499  38.383  28.730  1.00  0.00     0.059 A 
ATOM     89  F   UNL A   1      43.870  36.988  30.560  1.00  0.00    -0.206 F 
ATOM     90  C   UNL A   1      42.862  38.633  27.519  1.00  0.00     0.060 A 
BRANCH  90  91
ATOM     91  S   UNL A   1      43.121  40.211  26.683  1.00  0.00     0.124 S 
ATOM     92  O   UNL A   1      44.285  39.946  25.843  1.00  0.00    -0.237 OA
ATOM     93  O   UNL A   1      41.856  40.373  25.972  1.00  0.00    -0.237 OA
ATOM     94  O   UNL A   1      43.350  41.138  27.785  1.00  0.00    -0.744 OA
ENDBRANCH  90  91
ENDBRANCH  58  83
ENDBRANCH  32  33
ENDBRANCH  24  27
ENDBRANCH  22  23
ENDBRANCH   1  22
TORSDOF 15
ENDMDL
MODEL 3
REMARK VINA RESULT:     -13.9      5.045     11.481
REMARK SMILES Cc1cccc(-c2ccc(Cl)c(C(=O)NCCCCNC(=O)c3ccc(-c4c5nc(c(-c6c(F)cc(S(=O)(=O)[O-])cc6F)c6ccc([nH]6)c(-c6c(F)cc(S(=O)(=O)[O-])cc6F)c6nc(c(-c7c(F)cc(S(=O)(=O)[O-])cc7F)c7ccc4[nH]7)C=C6)C=C5)cc3)c2)c1
REMARK SMILES IDX 18 1 17 2 16 3 15 4 13 5 14 6 12 8 7 9 8 10 89 11 9 12 10 13
REMARK SMILES IDX 11 14 6 15 1 16 2 17 3 18 90 19 4 20 5 21 19 22 20 23 21 24
REMARK SMILES IDX 22 26 23 27 24 28 88 29 25 30 87 31 26 32 27 33 28 34 81 35
REMARK SMILES IDX 29 36 86 37 80 38 82 39 30 40 85 41 79 42 78 43 31 45 65 46
REMARK SMILES IDX 44 47 64 48 45 49 48 50 63 51 83 52 46 53 47 54 62 56 84 57
REMARK SMILES IDX 49 58 32 59 33 60 42 61 34 62 35 63 41 64 43 65 36 66 37 67
REMARK SMILES IDX 38 68 39 69 40 70 66 71 67 72 76 73 68 74 69 75 75 76 77 77
REMARK SMILES IDX 70 78 71 79 72 80 73 81 74 82 50 83 51 84 60 85 52 86 53 87
REMARK SMILES IDX 59 88 61 89 54 90 55 91 56 92 57 93 58 94
REMARK H PARENT 15 7 20 25 82 44 48 55
REMARK Flexibility Score: inf
ROOT
ATOM      1  C   UNL A   1      34.442  28.597  26.397  1.00  0.00     0.023 C 
ENDROOT
BRANCH   1   2
ATOM      2  C   UNL A   1      33.873  29.272  25.153  1.00  0.00     0.023 C 
BRANCH   2   3
ATOM      3  C   UNL A   1      32.372  29.568  25.165  1.00  0.00     0.116 C 
BRANCH   3   4
ATOM      4  N   UNL A   1      31.689  29.331  23.899  1.00  0.00    -0.352 N 
ATOM      5  C   UNL A   1      31.165  28.182  23.350  1.00  0.00     0.252 C 
ATOM      6  O   UNL A   1      30.611  28.252  22.253  1.00  0.00    -0.269 OA
ATOM      7  H   UNL A   1      31.584  30.132  23.337  1.00  0.00     0.163 HD
BRANCH   5   8
ATOM      8  C   UNL A   1      31.330  26.845  23.973  1.00  0.00     0.059 A 
ATOM      9  C   UNL A   1      32.910  25.035  24.512  1.00  0.00    -0.017 A 
ATOM     10  C   UNL A   1      31.870  24.388  25.195  1.00  0.00     0.010 A 
ATOM     11  C   UNL A   1      32.637  26.300  23.961  1.00  0.00     0.024 A 
ATOM     12  C   UNL A   1      30.566  24.879  25.151  1.00  0.00     0.022 A 
ATOM     13  C   UNL A   1      30.283  26.061  24.464  1.00  0.00     0.053 A 
ATOM     14  Cl  UNL A   1      28.616  26.361  24.122  1.00  0.00    -0.083 Cl
BRANCH   9  15
ATOM     15  C   UNL A   1      34.179  24.322  24.274  1.00  0.00    -0.018 A 
ATOM     16  C   UNL A   1      37.484  23.875  26.162  1.00  0.00     0.044 C 
ATOM     17  C   UNL A   1      36.428  23.752  25.103  1.00  0.00    -0.051 A 
ATOM     18  C   UNL A   1      36.654  22.999  23.951  1.00  0.00     0.003 A 
ATOM     19  C   UNL A   1      35.197  24.401  25.250  1.00  0.00     0.012 A 
ATOM     20  C   UNL A   1      35.657  22.891  22.977  1.00  0.00     0.001 A 
ATOM     21  C   UNL A   1      34.428  23.544  23.137  1.00  0.00     0.009 A 
ENDBRANCH   9  15
ENDBRANCH   5   8
ENDBRANCH   3   4
ENDBRANCH   2   3
ENDBRANCH   1   2
BRANCH   1  22
ATOM     22  C   UNL A   1      34.341  29.402  27.688  1.00  0.00     0.116 C 
BRANCH  22  23
ATOM     23  N   UNL A   1      35.109  30.635  27.681  1.00  0.00    -0.352 N 
ATOM     24  C   UNL A   1      36.399  30.850  28.149  1.00  0.00     0.251 C 
ATOM     25  H   UNL A   1      34.657  31.420  27.294  1.00  0.00     0.163 HD
ATOM     26  O   UNL A   1      36.816  31.971  28.373  1.00  0.00    -0.269 OA
BRANCH  24  27
ATOM     27  C   UNL A   1      37.302  29.677  28.243  1.00  0.00     0.039 A 
ATOM     28  C   UNL A   1      37.319  28.971  29.452  1.00  0.00     0.014 A 
ATOM     29  C   UNL A   1      38.265  29.433  27.271  1.00  0.00     0.014 A 
ATOM     30  C   UNL A   1      38.417  28.171  29.768  1.00  0.00     0.010 A 
ATOM     31  C   UNL A   1      39.397  28.729  27.625  1.00  0.00     0.010 A 
ATOM     32  C   UNL A   1      39.498  28.136  28.892  1.00  0.00    -0.014 A 
BRANCH  32  33
ATOM     33  C   UNL A   1      40.811  27.583  29.214  1.00  0.00     0.031 A 
ATOM     34  C   UNL A   1      41.162  26.205  28.798  1.00  0.00     0.074 A 
ATOM     35  C   UNL A   1      41.770  28.403  29.697  1.00  0.00     0.049 A 
ATOM     36  N   UNL A   1      42.241  25.577  29.126  1.00  0.00    -0.248 NA
ATOM     37  C   UNL A   1      40.259  25.398  27.988  1.00  0.00     0.031 C 
ATOM     38  C   UNL A   1      43.212  28.193  29.661  1.00  0.00     0.029 A 
ATOM     39  N   UNL A   1      41.602  29.520  30.519  1.00  0.00    -0.354 N 
ATOM     40  C   UNL A   1      42.317  24.429  28.365  1.00  0.00     0.074 A 
ATOM     41  C   UNL A   1      41.023  24.335  27.730  1.00  0.00     0.031 C 
ATOM     42  C   UNL A   1      43.786  28.956  30.602  1.00  0.00     0.029 A 
ATOM     43  C   UNL A   1      42.718  29.550  31.386  1.00  0.00     0.049 A 
ATOM     44  H   UNL A   1      40.853  30.160  30.499  1.00  0.00     0.167 HD
ATOM     45  C   UNL A   1      43.511  23.768  28.278  1.00  0.00     0.037 A 
ATOM     46  C   UNL A   1      42.543  29.354  32.729  1.00  0.00     0.037 A 
ATOM     47  C   UNL A   1      44.467  24.288  29.263  1.00  0.00     0.049 A 
ATOM     48  C   UNL A   1      43.150  28.076  33.270  1.00  0.00     0.074 A 
ATOM     49  C   UNL A   1      45.540  25.164  29.221  1.00  0.00     0.029 A 
ATOM     50  N   UNL A   1      44.186  24.102  30.608  1.00  0.00    -0.354 N 
ATOM     51  N   UNL A   1      43.820  27.209  32.558  1.00  0.00    -0.248 NA
ATOM     52  C   UNL A   1      42.986  27.638  34.659  1.00  0.00     0.031 C 
ATOM     53  C   UNL A   1      45.840  25.565  30.558  1.00  0.00     0.029 A 
ATOM     54  C   UNL A   1      44.958  24.922  31.410  1.00  0.00     0.049 A 
ATOM     55  H   UNL A   1      43.518  23.465  30.950  1.00  0.00     0.167 HD
ATOM     56  C   UNL A   1      44.095  26.109  33.324  1.00  0.00     0.074 A 
ATOM     57  C   UNL A   1      43.584  26.434  34.641  1.00  0.00     0.031 C 
ATOM     58  C   UNL A   1      44.676  24.978  32.833  1.00  0.00     0.037 A 
BRANCH  45  59
ATOM     59  C   UNL A   1      43.896  22.811  27.156  1.00  0.00     0.058 A 
ATOM     60  C   UNL A   1      43.091  21.682  26.869  1.00  0.00     0.135 A 
ATOM     61  C   UNL A   1      45.070  22.882  26.378  1.00  0.00     0.135 A 
ATOM     62  F   UNL A   1      41.894  21.510  27.450  1.00  0.00    -0.206 F 
ATOM     63  C   UNL A   1      43.473  20.669  25.982  1.00  0.00     0.059 A 
ATOM     64  C   UNL A   1      45.499  21.862  25.524  1.00  0.00     0.059 A 
ATOM     65  F   UNL A   1      45.836  23.974  26.350  1.00  0.00    -0.206 F 
ATOM     66  C   UNL A   1      44.700  20.748  25.340  1.00  0.00     0.060 A 
BRANCH  66  67
ATOM     67  S   UNL A   1      45.226  19.407  24.259  1.00  0.00     0.124 S 
ATOM     68  O   UNL A   1      44.528  19.722  23.016  1.00  0.00    -0.237 OA
ATOM     69  O   UNL A   1      46.674  19.580  24.239  1.00  0.00    -0.237 OA
ATOM     70  O   UNL A   1      44.751  18.208  24.947  1.00  0.00    -0.744 OA
ENDBRANCH  66  67
ENDBRANCH  45  59
BRANCH  46  71
ATOM     71  C   UNL A   1      41.306  30.015  33.232  1.00  0.00     0.058 A 
ATOM     72  C   UNL A   1      41.337  31.416  33.371  1.00  0.00     0.135 A 
ATOM     73  C   UNL A   1      40.053  29.400  33.102  1.00  0.00     0.135 A 
ATOM     74  F   UNL A   1      42.512  32.050  33.528  1.00  0.00    -0.206 F 
ATOM     75  C   UNL A   1      40.200  32.191  33.185  1.00  0.00     0.059 A 
ATOM     76  C   UNL A   1      38.895  30.160  32.932  1.00  0.00     0.059 A 
ATOM     77  F   UNL A   1      39.961  28.068  32.976  1.00  0.00    -0.206 F 
ATOM     78  C   UNL A   1      38.999  31.551  32.887  1.00  0.00     0.060 A 
BRANCH  78  79
ATOM     79  S   UNL A   1      37.643  32.562  32.247  1.00  0.00     0.124 S 
ATOM     80  O   UNL A   1      36.688  31.551  31.805  1.00  0.00    -0.237 OA
ATOM     81  O   UNL A   1      37.256  33.318  33.436  1.00  0.00    -0.237 OA
ATOM     82  O   UNL A   1      38.278  33.336  31.186  1.00  0.00    -0.744 OA
ENDBRANCH  78  79
ENDBRANCH  46  71
BRANCH  58  83
ATOM     83  C   UNL A   1      45.013  23.820  33.717  1.00  0.00     0.058 A 
ATOM     84  C   UNL A   1      46.325  23.609  34.171  1.00  0.00     0.135 A 
ATOM     85  C   UNL A   1      44.063  22.830  34.031  1.00  0.00     0.135 A 
ATOM     86  F   UNL A   1      47.292  24.498  33.893  1.00  0.00    -0.206 F 
ATOM     87  C   UNL A   1      46.676  22.485  34.914  1.00  0.00     0.059 A 
ATOM     88  C   UNL A   1      44.399  21.679  34.740  1.00  0.00     0.059 A 
ATOM     89  F   UNL A   1      42.777  22.969  33.673  1.00  0.00    -0.206 F 
ATOM     90  C   UNL A   1      45.706  21.523  35.190  1.00  0.00     0.060 A 
BRANCH  90  91
ATOM     91  S   UNL A   1      46.161  20.040  36.112  1.00  0.00     0.124 S 
ATOM     92  O   UNL A   1      45.719  20.352  37.468  1.00  0.00    -0.237 OA
ATOM     93  O   UNL A   1      45.385  19.017  35.417  1.00  0.00    -0.237 OA
ATOM     94  O   UNL A   1      47.607  19.967  35.933  1.00  0.00    -0.744 OA
ENDBRANCH  90  91
ENDBRANCH  58  83
ENDBRANCH  32  33
ENDBRANCH  24  27
ENDBRANCH  22  23
ENDBRANCH   1  22
TORSDOF 15
ENDMDL
