MODEL 1
REMARK VINA RESULT:     -12.0      0.000      0.000
REMARK SMILES Cc1nc(-c2ccc(C(F)(F)F)cc2)nc(SCC(=O)NCCCCNC(=O)c2ccc(-c3c4nc(c(-c5c(F)cc(S(=O)(=O)[O-])cc5F)c5ccc([nH]5)c(-c5c(F)cc(S(=O)(=O)[O-])cc5F)c5nc(c(-c6c(F)cc(S(=O)(=O)[O-])cc6F)c6ccc3[nH]6)C=C5)C=C4)cc2)c1C
REMARK SMILES IDX 23 1 22 2 21 3 19 4 20 5 18 7 17 8 16 9 1 10 2 11 3 12 95 13
REMARK SMILES IDX 4 14 96 15 15 16 5 17 6 18 14 19 7 20 13 21 8 22 9 23 10 24
REMARK SMILES IDX 11 25 12 26 24 27 25 28 26 29 27 30 28 32 29 33 30 34 94 35
REMARK SMILES IDX 31 36 93 37 32 38 33 39 34 40 87 41 35 42 92 43 86 44 88 45
REMARK SMILES IDX 36 46 91 47 85 48 84 49 37 51 71 52 50 53 70 54 51 55 54 56
REMARK SMILES IDX 69 57 89 58 52 59 53 60 68 62 90 63 55 64 38 65 39 66 48 67
REMARK SMILES IDX 40 68 41 69 47 70 49 71 42 72 43 73 44 74 45 75 46 76 72 77
REMARK SMILES IDX 73 78 82 79 74 80 75 81 81 82 83 83 76 84 77 85 78 86 79 87
REMARK SMILES IDX 80 88 56 89 57 90 66 91 58 92 59 93 65 94 67 95 60 96 61 97
REMARK SMILES IDX 62 98 63 99 64 100
REMARK H PARENT 21 6 26 31 88 50 54 61
REMARK Flexibility Score: inf
ROOT
ATOM      1  C   UNL A   1      31.769  29.289  25.641  1.00  0.00     0.023 C 
ENDROOT
BRANCH   1   2
ATOM      2  C   UNL A   1      31.406  28.977  24.192  1.00  0.00     0.116 C 
BRANCH   2   3
ATOM      3  N   UNL A   1      32.567  28.964  23.326  1.00  0.00    -0.355 N 
ATOM      4  C   UNL A   1      33.141  27.931  22.656  1.00  0.00     0.230 C 
ATOM      5  O   UNL A   1      34.023  28.212  21.839  1.00  0.00    -0.274 OA
ATOM      6  H   UNL A   1      33.007  29.835  23.204  1.00  0.00     0.163 HD
BRANCH   4   7
ATOM      7  C   UNL A   1      32.642  26.510  22.788  1.00  0.00     0.176 C 
BRANCH   7   8
ATOM      8  S   UNL A   1      33.541  25.420  23.919  1.00  0.00    -0.096 SA
BRANCH   8   9
ATOM      9  C   UNL A   1      32.478  24.229  24.712  1.00  0.00     0.104 A 
ATOM     10  C   UNL A   1      29.582  23.159  26.892  1.00  0.00     0.067 C 
ATOM     11  C   UNL A   1      30.782  23.185  25.986  1.00  0.00     0.045 A 
ATOM     12  N   UNL A   1      31.227  21.966  25.633  1.00  0.00    -0.233 NA
ATOM     13  C   UNL A   1      31.389  24.379  25.567  1.00  0.00     0.003 A 
ATOM     14  C   UNL A   1      32.309  21.919  24.856  1.00  0.00     0.160 A 
ATOM     15  C   UNL A   1      30.799  25.673  26.018  1.00  0.00     0.049 C 
ATOM     16  N   UNL A   1      32.951  22.996  24.393  1.00  0.00    -0.221 NA
BRANCH  14  17
ATOM     17  C   UNL A   1      32.835  20.588  24.537  1.00  0.00     0.019 A 
ATOM     18  C   UNL A   1      32.138  19.731  23.668  1.00  0.00     0.012 A 
ATOM     19  C   UNL A   1      34.017  20.106  25.123  1.00  0.00     0.012 A 
ATOM     20  C   UNL A   1      32.593  18.435  23.404  1.00  0.00     0.014 A 
ATOM     21  C   UNL A   1      34.468  18.803  24.876  1.00  0.00     0.014 A 
ATOM     22  C   UNL A   1      33.755  17.951  24.020  1.00  0.00     0.056 A 
BRANCH  22  23
ATOM     23  C   UNL A   1      34.211  16.537  23.758  1.00  0.00     0.416 C 
ATOM     24  F   UNL A   1      34.524  16.322  22.449  1.00  0.00    -0.166 F 
ATOM     25  F   UNL A   1      35.323  16.202  24.468  1.00  0.00    -0.166 F 
ATOM     26  F   UNL A   1      33.274  15.596  24.070  1.00  0.00    -0.166 F 
ENDBRANCH  22  23
ENDBRANCH  14  17
ENDBRANCH   8   9
ENDBRANCH   7   8
ENDBRANCH   4   7
ENDBRANCH   2   3
ENDBRANCH   1   2
BRANCH   1  27
ATOM     27  C   UNL A   1      32.620  28.228  26.346  1.00  0.00     0.023 C 
BRANCH  27  28
ATOM     28  C   UNL A   1      33.907  28.727  26.994  1.00  0.00     0.116 C 
BRANCH  28  29
ATOM     29  N   UNL A   1      33.758  30.022  27.637  1.00  0.00    -0.352 N 
ATOM     30  C   UNL A   1      34.664  30.735  28.388  1.00  0.00     0.251 C 
ATOM     31  H   UNL A   1      32.881  30.451  27.518  1.00  0.00     0.163 HD
ATOM     32  O   UNL A   1      34.316  31.769  28.941  1.00  0.00    -0.269 OA
BRANCH  30  33
ATOM     33  C   UNL A   1      36.044  30.227  28.553  1.00  0.00     0.039 A 
ATOM     34  C   UNL A   1      36.932  30.351  27.482  1.00  0.00     0.014 A 
ATOM     35  C   UNL A   1      36.462  29.644  29.752  1.00  0.00     0.014 A 
ATOM     36  C   UNL A   1      38.261  29.950  27.637  1.00  0.00     0.010 A 
ATOM     37  C   UNL A   1      37.802  29.304  29.926  1.00  0.00     0.010 A 
ATOM     38  C   UNL A   1      38.715  29.454  28.871  1.00  0.00    -0.014 A 
BRANCH  38  39
ATOM     39  C   UNL A   1      40.138  29.071  29.059  1.00  0.00     0.031 A 
ATOM     40  C   UNL A   1      41.101  30.043  29.682  1.00  0.00     0.074 A 
ATOM     41  C   UNL A   1      40.563  27.856  28.656  1.00  0.00     0.049 A 
ATOM     42  N   UNL A   1      42.382  29.907  29.903  1.00  0.00    -0.248 NA
ATOM     43  C   UNL A   1      40.558  31.348  30.098  1.00  0.00     0.031 C 
ATOM     44  C   UNL A   1      39.730  26.835  28.015  1.00  0.00     0.029 A 
ATOM     45  N   UNL A   1      41.802  27.270  28.732  1.00  0.00    -0.354 N 
ATOM     46  C   UNL A   1      42.795  31.097  30.489  1.00  0.00     0.074 A 
ATOM     47  C   UNL A   1      41.644  31.970  30.533  1.00  0.00     0.031 C 
ATOM     48  C   UNL A   1      40.471  25.735  27.793  1.00  0.00     0.029 A 
ATOM     49  C   UNL A   1      41.837  25.983  28.245  1.00  0.00     0.049 A 
ATOM     50  H   UNL A   1      42.591  27.726  29.101  1.00  0.00     0.167 HD
ATOM     51  C   UNL A   1      44.014  31.419  30.981  1.00  0.00     0.037 A 
ATOM     52  C   UNL A   1      42.856  25.103  28.175  1.00  0.00     0.037 A 
ATOM     53  C   UNL A   1      45.151  30.539  30.966  1.00  0.00     0.049 A 
ATOM     54  C   UNL A   1      44.212  25.507  28.688  1.00  0.00     0.074 A 
ATOM     55  C   UNL A   1      46.423  30.768  31.462  1.00  0.00     0.029 A 
ATOM     56  N   UNL A   1      45.151  29.255  30.440  1.00  0.00    -0.354 N 
ATOM     57  N   UNL A   1      44.574  26.629  29.265  1.00  0.00    -0.248 NA
ATOM     58  C   UNL A   1      45.301  24.530  28.539  1.00  0.00     0.031 C 
ATOM     59  C   UNL A   1      47.199  29.633  31.214  1.00  0.00     0.029 A 
ATOM     60  C   UNL A   1      46.403  28.685  30.592  1.00  0.00     0.049 A 
ATOM     61  H   UNL A   1      44.377  28.815  30.022  1.00  0.00     0.167 HD
ATOM     62  C   UNL A   1      45.923  26.480  29.568  1.00  0.00     0.074 A 
ATOM     63  C   UNL A   1      46.312  25.159  29.123  1.00  0.00     0.031 C 
ATOM     64  C   UNL A   1      46.766  27.362  30.159  1.00  0.00     0.037 A 
BRANCH  51  65
ATOM     65  C   UNL A   1      44.177  32.767  31.623  1.00  0.00     0.058 A 
ATOM     66  C   UNL A   1      44.552  33.885  30.864  1.00  0.00     0.135 A 
ATOM     67  C   UNL A   1      43.877  32.962  32.980  1.00  0.00     0.135 A 
ATOM     68  F   UNL A   1      44.868  33.747  29.567  1.00  0.00    -0.206 F 
ATOM     69  C   UNL A   1      44.627  35.153  31.429  1.00  0.00     0.059 A 
ATOM     70  C   UNL A   1      43.924  34.225  33.562  1.00  0.00     0.059 A 
ATOM     71  F   UNL A   1      43.519  31.922  33.750  1.00  0.00    -0.206 F 
ATOM     72  C   UNL A   1      44.303  35.314  32.777  1.00  0.00     0.060 A 
BRANCH  72  73
ATOM     73  S   UNL A   1      44.360  36.977  33.478  1.00  0.00     0.124 S 
ATOM     74  O   UNL A   1      43.005  37.119  34.003  1.00  0.00    -0.237 OA
ATOM     75  O   UNL A   1      45.418  36.857  34.476  1.00  0.00    -0.237 OA
ATOM     76  O   UNL A   1      44.678  37.820  32.329  1.00  0.00    -0.744 OA
ENDBRANCH  72  73
ENDBRANCH  51  65
BRANCH  52  77
ATOM     77  C   UNL A   1      42.644  23.740  27.620  1.00  0.00     0.058 A 
ATOM     78  C   UNL A   1      42.379  22.656  28.470  1.00  0.00     0.135 A 
ATOM     79  C   UNL A   1      42.738  23.484  26.243  1.00  0.00     0.135 A 
ATOM     80  F   UNL A   1      42.285  22.849  29.794  1.00  0.00    -0.206 F 
ATOM     81  C   UNL A   1      42.248  21.360  27.980  1.00  0.00     0.059 A 
ATOM     82  C   UNL A   1      42.588  22.201  25.727  1.00  0.00     0.059 A 
ATOM     83  F   UNL A   1      42.975  24.490  25.386  1.00  0.00    -0.206 F 
ATOM     84  C   UNL A   1      42.362  21.142  26.607  1.00  0.00     0.060 A 
BRANCH  84  85
ATOM     85  S   UNL A   1      42.192  19.456  25.980  1.00  0.00     0.124 S 
ATOM     86  O   UNL A   1      40.766  19.401  25.677  1.00  0.00    -0.237 OA
ATOM     87  O   UNL A   1      43.089  19.465  24.828  1.00  0.00    -0.237 OA
ATOM     88  O   UNL A   1      42.634  18.635  27.102  1.00  0.00    -0.744 OA
ENDBRANCH  84  85
ENDBRANCH  52  77
BRANCH  64  89
ATOM     89  C   UNL A   1      48.186  26.928  30.381  1.00  0.00     0.058 A 
ATOM     90  C   UNL A   1      49.217  27.353  29.531  1.00  0.00     0.135 A 
ATOM     91  C   UNL A   1      48.530  26.161  31.506  1.00  0.00     0.135 A 
ATOM     92  F   UNL A   1      48.936  28.082  28.439  1.00  0.00    -0.206 F 
ATOM     93  C   UNL A   1      50.546  27.032  29.787  1.00  0.00     0.059 A 
ATOM     94  C   UNL A   1      49.854  25.846  31.793  1.00  0.00     0.059 A 
ATOM     95  F   UNL A   1      47.578  25.739  32.352  1.00  0.00    -0.206 F 
ATOM     96  C   UNL A   1      50.854  26.284  30.926  1.00  0.00     0.060 A 
BRANCH  96  97
ATOM     97  S   UNL A   1      52.590  25.937  31.283  1.00  0.00     0.124 S 
ATOM     98  O   UNL A   1      53.162  25.886  29.941  1.00  0.00    -0.237 OA
ATOM     99  O   UNL A   1      52.977  27.088  32.094  1.00  0.00    -0.237 OA
ATOM    100  O   UNL A   1      52.543  24.663  31.995  1.00  0.00    -0.744 OA
ENDBRANCH  96  97
ENDBRANCH  64  89
ENDBRANCH  38  39
ENDBRANCH  30  33
ENDBRANCH  28  29
ENDBRANCH  27  28
ENDBRANCH   1  27
TORSDOF 18
ENDMDL
MODEL 2
REMARK VINA RESULT:     -11.9      3.152      3.882
REMARK SMILES Cc1nc(-c2ccc(C(F)(F)F)cc2)nc(SCC(=O)NCCCCNC(=O)c2ccc(-c3c4nc(c(-c5c(F)cc(S(=O)(=O)[O-])cc5F)c5ccc([nH]5)c(-c5c(F)cc(S(=O)(=O)[O-])cc5F)c5nc(c(-c6c(F)cc(S(=O)(=O)[O-])cc6F)c6ccc3[nH]6)C=C5)C=C4)cc2)c1C
REMARK SMILES IDX 23 1 22 2 21 3 19 4 20 5 18 7 17 8 16 9 1 10 2 11 3 12 95 13
REMARK SMILES IDX 4 14 96 15 15 16 5 17 6 18 14 19 7 20 13 21 8 22 9 23 10 24
REMARK SMILES IDX 11 25 12 26 24 27 25 28 26 29 27 30 28 32 29 33 30 34 94 35
REMARK SMILES IDX 31 36 93 37 32 38 33 39 34 40 87 41 35 42 92 43 86 44 88 45
REMARK SMILES IDX 36 46 91 47 85 48 84 49 37 51 71 52 50 53 70 54 51 55 54 56
REMARK SMILES IDX 69 57 89 58 52 59 53 60 68 62 90 63 55 64 38 65 39 66 48 67
REMARK SMILES IDX 40 68 41 69 47 70 49 71 42 72 43 73 44 74 45 75 46 76 72 77
REMARK SMILES IDX 73 78 82 79 74 80 75 81 81 82 83 83 76 84 77 85 78 86 79 87
REMARK SMILES IDX 80 88 56 89 57 90 66 91 58 92 59 93 65 94 67 95 60 96 61 97
REMARK SMILES IDX 62 98 63 99 64 100
REMARK H PARENT 21 6 26 31 88 50 54 61
REMARK Flexibility Score: inf
ROOT
ATOM      1  C   UNL A   1      31.512  28.288  26.114  1.00  0.00     0.023 C 
ENDROOT
BRANCH   1   2
ATOM      2  C   UNL A   1      31.472  29.308  24.979  1.00  0.00     0.116 C 
BRANCH   2   3
ATOM      3  N   UNL A   1      30.814  28.791  23.798  1.00  0.00    -0.355 N 
ATOM      4  C   UNL A   1      31.317  28.056  22.772  1.00  0.00     0.230 C 
ATOM      5  O   UNL A   1      30.508  27.586  21.968  1.00  0.00    -0.274 OA
ATOM      6  H   UNL A   1      29.855  29.004  23.727  1.00  0.00     0.163 HD
BRANCH   4   7
ATOM      7  C   UNL A   1      32.784  27.703  22.679  1.00  0.00     0.176 C 
BRANCH   7   8
ATOM      8  S   UNL A   1      33.201  26.064  22.036  1.00  0.00    -0.096 SA
BRANCH   8   9
ATOM      9  C   UNL A   1      33.044  24.785  23.267  1.00  0.00     0.104 A 
ATOM     10  C   UNL A   1      31.126  22.476  25.564  1.00  0.00     0.067 C 
ATOM     11  C   UNL A   1      32.207  23.206  24.815  1.00  0.00     0.045 A 
ATOM     12  N   UNL A   1      33.452  22.808  25.128  1.00  0.00    -0.233 NA
ATOM     13  C   UNL A   1      31.931  24.224  23.890  1.00  0.00     0.003 A 
ATOM     14  C   UNL A   1      34.458  23.439  24.522  1.00  0.00     0.160 A 
ATOM     15  C   UNL A   1      30.506  24.573  23.619  1.00  0.00     0.049 C 
ATOM     16  N   UNL A   1      34.302  24.410  23.617  1.00  0.00    -0.221 NA
BRANCH  14  17
ATOM     17  C   UNL A   1      35.816  23.054  24.922  1.00  0.00     0.019 A 
ATOM     18  C   UNL A   1      36.316  21.775  24.624  1.00  0.00     0.012 A 
ATOM     19  C   UNL A   1      36.638  23.924  25.658  1.00  0.00     0.012 A 
ATOM     20  C   UNL A   1      37.584  21.371  25.055  1.00  0.00     0.014 A 
ATOM     21  C   UNL A   1      37.901  23.518  26.107  1.00  0.00     0.014 A 
ATOM     22  C   UNL A   1      38.383  22.233  25.817  1.00  0.00     0.056 A 
BRANCH  22  23
ATOM     23  C   UNL A   1      39.731  21.768  26.310  1.00  0.00     0.416 C 
ATOM     24  F   UNL A   1      40.763  22.314  25.607  1.00  0.00    -0.166 F 
ATOM     25  F   UNL A   1      39.955  22.091  27.613  1.00  0.00    -0.166 F 
ATOM     26  F   UNL A   1      39.905  20.418  26.226  1.00  0.00    -0.166 F 
ENDBRANCH  22  23
ENDBRANCH  14  17
ENDBRANCH   8   9
ENDBRANCH   7   8
ENDBRANCH   4   7
ENDBRANCH   2   3
ENDBRANCH   1   2
BRANCH   1  27
ATOM     27  C   UNL A   1      32.804  27.471  26.215  1.00  0.00     0.023 C 
BRANCH  27  28
ATOM     28  C   UNL A   1      34.095  28.276  26.328  1.00  0.00     0.116 C 
BRANCH  28  29
ATOM     29  N   UNL A   1      33.868  29.685  26.598  1.00  0.00    -0.352 N 
ATOM     30  C   UNL A   1      34.595  30.555  27.376  1.00  0.00     0.251 C 
ATOM     31  H   UNL A   1      33.079  30.075  26.158  1.00  0.00     0.163 HD
ATOM     32  O   UNL A   1      34.183  31.691  27.569  1.00  0.00    -0.269 OA
BRANCH  30  33
ATOM     33  C   UNL A   1      35.854  30.100  28.008  1.00  0.00     0.039 A 
ATOM     34  C   UNL A   1      37.049  30.256  27.302  1.00  0.00     0.014 A 
ATOM     35  C   UNL A   1      35.858  29.534  29.286  1.00  0.00     0.014 A 
ATOM     36  C   UNL A   1      38.258  29.907  27.906  1.00  0.00     0.010 A 
ATOM     37  C   UNL A   1      37.070  29.246  29.911  1.00  0.00     0.010 A 
ATOM     38  C   UNL A   1      38.282  29.429  29.228  1.00  0.00    -0.014 A 
BRANCH  38  39
ATOM     39  C   UNL A   1      39.568  29.100  29.894  1.00  0.00     0.031 A 
ATOM     40  C   UNL A   1      39.995  29.861  31.118  1.00  0.00     0.074 A 
ATOM     41  C   UNL A   1      40.355  28.129  29.388  1.00  0.00     0.049 A 
ATOM     42  N   UNL A   1      41.091  29.743  31.821  1.00  0.00    -0.248 NA
ATOM     43  C   UNL A   1      39.079  30.905  31.610  1.00  0.00     0.031 C 
ATOM     44  C   UNL A   1      40.062  27.337  28.191  1.00  0.00     0.029 A 
ATOM     45  N   UNL A   1      41.561  27.635  29.821  1.00  0.00    -0.354 N 
ATOM     46  C   UNL A   1      40.993  30.684  32.839  1.00  0.00     0.074 A 
ATOM     47  C   UNL A   1      39.761  31.411  32.627  1.00  0.00     0.031 C 
ATOM     48  C   UNL A   1      41.040  26.432  28.009  1.00  0.00     0.029 A 
ATOM     49  C   UNL A   1      42.044  26.599  29.055  1.00  0.00     0.049 A 
ATOM     50  H   UNL A   1      42.035  27.989  30.608  1.00  0.00     0.167 HD
ATOM     51  C   UNL A   1      41.833  30.898  33.878  1.00  0.00     0.037 A 
ATOM     52  C   UNL A   1      43.168  25.867  29.185  1.00  0.00     0.037 A 
ATOM     53  C   UNL A   1      43.042  30.154  34.106  1.00  0.00     0.049 A 
ATOM     54  C   UNL A   1      44.107  26.160  30.325  1.00  0.00     0.074 A 
ATOM     55  C   UNL A   1      43.948  30.283  35.145  1.00  0.00     0.029 A 
ATOM     56  N   UNL A   1      43.508  29.132  33.292  1.00  0.00    -0.354 N 
ATOM     57  N   UNL A   1      43.981  27.037  31.293  1.00  0.00    -0.248 NA
ATOM     58  C   UNL A   1      45.345  25.368  30.390  1.00  0.00     0.031 C 
ATOM     59  C   UNL A   1      44.975  29.356  34.946  1.00  0.00     0.029 A 
ATOM     60  C   UNL A   1      44.693  28.629  33.801  1.00  0.00     0.049 A 
ATOM     61  H   UNL A   1      43.063  28.812  32.475  1.00  0.00     0.167 HD
ATOM     62  C   UNL A   1      45.108  26.882  32.092  1.00  0.00     0.074 A 
ATOM     63  C   UNL A   1      45.900  25.824  31.505  1.00  0.00     0.031 C 
ATOM     64  C   UNL A   1      45.457  27.562  33.212  1.00  0.00     0.037 A 
BRANCH  51  65
ATOM     65  C   UNL A   1      41.456  31.951  34.880  1.00  0.00     0.058 A 
ATOM     66  C   UNL A   1      41.926  33.267  34.752  1.00  0.00     0.135 A 
ATOM     67  C   UNL A   1      40.558  31.669  35.921  1.00  0.00     0.135 A 
ATOM     68  F   UNL A   1      42.801  33.582  33.785  1.00  0.00    -0.206 F 
ATOM     69  C   UNL A   1      41.519  34.270  35.625  1.00  0.00     0.059 A 
ATOM     70  C   UNL A   1      40.121  32.662  36.793  1.00  0.00     0.059 A 
ATOM     71  F   UNL A   1      40.085  30.424  36.088  1.00  0.00    -0.206 F 
ATOM     72  C   UNL A   1      40.609  33.959  36.637  1.00  0.00     0.060 A 
BRANCH  72  73
ATOM     73  S   UNL A   1      40.058  35.286  37.729  1.00  0.00     0.124 S 
ATOM     74  O   UNL A   1      38.833  34.717  38.285  1.00  0.00    -0.237 OA
ATOM     75  O   UNL A   1      41.177  35.410  38.657  1.00  0.00    -0.237 OA
ATOM     76  O   UNL A   1      39.869  36.416  36.824  1.00  0.00    -0.744 OA
ENDBRANCH  72  73
ENDBRANCH  51  65
BRANCH  52  77
ATOM     77  C   UNL A   1      43.470  24.766  28.232  1.00  0.00     0.058 A 
ATOM     78  C   UNL A   1      44.142  25.028  27.029  1.00  0.00     0.135 A 
ATOM     79  C   UNL A   1      43.066  23.446  28.482  1.00  0.00     0.135 A 
ATOM     80  F   UNL A   1      44.544  26.276  26.743  1.00  0.00    -0.206 F 
ATOM     81  C   UNL A   1      44.373  24.028  26.090  1.00  0.00     0.059 A 
ATOM     82  C   UNL A   1      43.305  22.425  27.569  1.00  0.00     0.059 A 
ATOM     83  F   UNL A   1      42.433  23.141  29.626  1.00  0.00    -0.206 F 
ATOM     84  C   UNL A   1      43.944  22.729  26.366  1.00  0.00     0.060 A 
BRANCH  84  85
ATOM     85  S   UNL A   1      44.247  21.437  25.142  1.00  0.00     0.124 S 
ATOM     86  O   UNL A   1      43.179  20.491  25.446  1.00  0.00    -0.237 OA
ATOM     87  O   UNL A   1      44.113  22.167  23.885  1.00  0.00    -0.237 OA
ATOM     88  O   UNL A   1      45.599  20.988  25.456  1.00  0.00    -0.744 OA
ENDBRANCH  84  85
ENDBRANCH  52  77
BRANCH  64  89
ATOM     89  C   UNL A   1      46.738  27.174  33.892  1.00  0.00     0.058 A 
ATOM     90  C   UNL A   1      47.954  27.789  33.558  1.00  0.00     0.135 A 
ATOM     91  C   UNL A   1      46.733  26.250  34.949  1.00  0.00     0.135 A 
ATOM     92  F   UNL A   1      48.010  28.673  32.550  1.00  0.00    -0.206 F 
ATOM     93  C   UNL A   1      49.125  27.500  34.250  1.00  0.00     0.059 A 
ATOM     94  C   UNL A   1      47.889  25.962  35.669  1.00  0.00     0.059 A 
ATOM     95  F   UNL A   1      45.593  25.642  35.310  1.00  0.00    -0.206 F 
ATOM     96  C   UNL A   1      49.080  26.591  35.310  1.00  0.00     0.060 A 
BRANCH  96  97
ATOM     97  S   UNL A   1      50.594  26.282  36.244  1.00  0.00     0.124 S 
ATOM     98  O   UNL A   1      51.249  25.272  35.418  1.00  0.00    -0.237 OA
ATOM     99  O   UNL A   1      51.227  27.598  36.255  1.00  0.00    -0.237 OA
ATOM    100  O   UNL A   1      50.106  25.817  37.538  1.00  0.00    -0.744 OA
ENDBRANCH  96  97
ENDBRANCH  64  89
ENDBRANCH  38  39
ENDBRANCH  30  33
ENDBRANCH  28  29
ENDBRANCH  27  28
ENDBRANCH   1  27
TORSDOF 18
ENDMDL
MODEL 3
REMARK VINA RESULT:     -11.8      2.017      2.666
REMARK SMILES Cc1nc(-c2ccc(C(F)(F)F)cc2)nc(SCC(=O)NCCCCNC(=O)c2ccc(-c3c4nc(c(-c5c(F)cc(S(=O)(=O)[O-])cc5F)c5ccc([nH]5)c(-c5c(F)cc(S(=O)(=O)[O-])cc5F)c5nc(c(-c6c(F)cc(S(=O)(=O)[O-])cc6F)c6ccc3[nH]6)C=C5)C=C4)cc2)c1C
REMARK SMILES IDX 23 1 22 2 21 3 19 4 20 5 18 7 17 8 16 9 1 10 2 11 3 12 95 13
REMARK SMILES IDX 4 14 96 15 15 16 5 17 6 18 14 19 7 20 13 21 8 22 9 23 10 24
REMARK SMILES IDX 11 25 12 26 24 27 25 28 26 29 27 30 28 32 29 33 30 34 94 35
REMARK SMILES IDX 31 36 93 37 32 38 33 39 34 40 87 41 35 42 92 43 86 44 88 45
REMARK SMILES IDX 36 46 91 47 85 48 84 49 37 51 71 52 50 53 70 54 51 55 54 56
REMARK SMILES IDX 69 57 89 58 52 59 53 60 68 62 90 63 55 64 38 65 39 66 48 67
REMARK SMILES IDX 40 68 41 69 47 70 49 71 42 72 43 73 44 74 45 75 46 76 72 77
REMARK SMILES IDX 73 78 82 79 74 80 75 81 81 82 83 83 76 84 77 85 78 86 79 87
REMARK SMILES IDX 80 88 56 89 57 90 66 91 58 92 59 93 65 94 67 95 60 96 61 97
REMARK SMILES IDX 62 98 63 99 64 100
REMARK H PARENT 21 6 26 31 88 50 54 61
REMARK Flexibility Score: inf
ROOT
ATOM      1  C   UNL A   1      31.651  28.386  26.218  1.00  0.00     0.023 C 
ENDROOT
BRANCH   1   2
ATOM      2  C   UNL A   1      31.847  29.561  25.262  1.00  0.00     0.116 C 
BRANCH   2   3
ATOM      3  N   UNL A   1      31.122  29.385  24.021  1.00  0.00    -0.355 N 
ATOM      4  C   UNL A   1      31.534  28.856  22.839  1.00  0.00     0.230 C 
ATOM      5  O   UNL A   1      30.669  28.656  21.981  1.00  0.00    -0.274 OA
ATOM      6  H   UNL A   1      30.189  29.698  24.034  1.00  0.00     0.163 HD
BRANCH   4   7
ATOM      7  C   UNL A   1      32.956  28.396  22.616  1.00  0.00     0.176 C 
BRANCH   7   8
ATOM      8  S   UNL A   1      33.193  26.718  21.983  1.00  0.00    -0.096 SA
BRANCH   8   9
ATOM      9  C   UNL A   1      32.861  25.469  23.211  1.00  0.00     0.104 A 
ATOM     10  C   UNL A   1      30.631  23.366  25.422  1.00  0.00     0.067 C 
ATOM     11  C   UNL A   1      31.809  23.987  24.724  1.00  0.00     0.045 A 
ATOM     12  N   UNL A   1      32.996  23.480  25.099  1.00  0.00    -0.233 NA
ATOM     13  C   UNL A   1      31.673  25.018  23.781  1.00  0.00     0.003 A 
ATOM     14  C   UNL A   1      34.084  24.012  24.540  1.00  0.00     0.160 A 
ATOM     15  C   UNL A   1      30.300  25.493  23.439  1.00  0.00     0.049 C 
ATOM     16  N   UNL A   1      34.061  24.985  23.623  1.00  0.00    -0.221 NA
BRANCH  14  17
ATOM     17  C   UNL A   1      35.379  23.508  25.008  1.00  0.00     0.019 A 
ATOM     18  C   UNL A   1      36.022  24.098  26.110  1.00  0.00     0.012 A 
ATOM     19  C   UNL A   1      36.043  22.463  24.345  1.00  0.00     0.012 A 
ATOM     20  C   UNL A   1      37.287  23.671  26.529  1.00  0.00     0.014 A 
ATOM     21  C   UNL A   1      37.317  22.044  24.749  1.00  0.00     0.014 A 
ATOM     22  C   UNL A   1      37.956  22.651  25.840  1.00  0.00     0.056 A 
BRANCH  22  23
ATOM     23  C   UNL A   1      39.337  22.230  26.277  1.00  0.00     0.416 C 
ATOM     24  F   UNL A   1      39.518  20.881  26.216  1.00  0.00    -0.166 F 
ATOM     25  F   UNL A   1      40.321  22.774  25.510  1.00  0.00    -0.166 F 
ATOM     26  F   UNL A   1      39.632  22.581  27.562  1.00  0.00    -0.166 F 
ENDBRANCH  22  23
ENDBRANCH  14  17
ENDBRANCH   8   9
ENDBRANCH   7   8
ENDBRANCH   4   7
ENDBRANCH   2   3
ENDBRANCH   1   2
BRANCH   1  27
ATOM     27  C   UNL A   1      32.876  27.487  26.409  1.00  0.00     0.023 C 
BRANCH  27  28
ATOM     28  C   UNL A   1      34.178  28.198  26.762  1.00  0.00     0.116 C 
BRANCH  28  29
ATOM     29  N   UNL A   1      33.970  29.494  27.385  1.00  0.00    -0.352 N 
ATOM     30  C   UNL A   1      34.835  30.250  28.142  1.00  0.00     0.251 C 
ATOM     31  H   UNL A   1      33.079  29.889  27.246  1.00  0.00     0.163 HD
ATOM     32  O   UNL A   1      34.440  31.278  28.675  1.00  0.00    -0.269 OA
BRANCH  30  33
ATOM     33  C   UNL A   1      36.230  29.797  28.336  1.00  0.00     0.039 A 
ATOM     34  C   UNL A   1      37.153  30.018  27.311  1.00  0.00     0.014 A 
ATOM     35  C   UNL A   1      36.628  29.169  29.520  1.00  0.00     0.014 A 
ATOM     36  C   UNL A   1      38.491  29.669  27.500  1.00  0.00     0.010 A 
ATOM     37  C   UNL A   1      37.975  28.881  29.731  1.00  0.00     0.010 A 
ATOM     38  C   UNL A   1      38.920  29.128  28.724  1.00  0.00    -0.014 A 
BRANCH  38  39
ATOM     39  C   UNL A   1      40.351  28.799  28.950  1.00  0.00     0.031 A 
ATOM     40  C   UNL A   1      41.246  29.786  29.647  1.00  0.00     0.074 A 
ATOM     41  C   UNL A   1      40.845  27.622  28.514  1.00  0.00     0.049 A 
ATOM     42  N   UNL A   1      42.524  29.696  29.910  1.00  0.00    -0.248 NA
ATOM     43  C   UNL A   1      40.631  31.047  30.094  1.00  0.00     0.031 C 
ATOM     44  C   UNL A   1      40.082  26.594  27.802  1.00  0.00     0.029 A 
ATOM     45  N   UNL A   1      42.105  27.087  28.614  1.00  0.00    -0.354 N 
ATOM     46  C   UNL A   1      42.862  30.877  30.559  1.00  0.00     0.074 A 
ATOM     47  C   UNL A   1      41.672  31.697  30.595  1.00  0.00     0.031 C 
ATOM     48  C   UNL A   1      40.879  25.537  27.565  1.00  0.00     0.029 A 
ATOM     49  C   UNL A   1      42.215  25.825  28.077  1.00  0.00     0.049 A 
ATOM     50  H   UNL A   1      42.859  27.562  29.030  1.00  0.00     0.167 HD
ATOM     51  C   UNL A   1      44.047  31.231  31.110  1.00  0.00     0.037 A 
ATOM     52  C   UNL A   1      43.275  24.994  28.010  1.00  0.00     0.037 A 
ATOM     53  C   UNL A   1      45.222  30.403  31.102  1.00  0.00     0.049 A 
ATOM     54  C   UNL A   1      44.592  25.435  28.591  1.00  0.00     0.074 A 
ATOM     55  C   UNL A   1      46.463  30.666  31.655  1.00  0.00     0.029 A 
ATOM     56  N   UNL A   1      45.298  29.143  30.526  1.00  0.00    -0.354 N 
ATOM     57  N   UNL A   1      44.883  26.546  29.225  1.00  0.00    -0.248 NA
ATOM     58  C   UNL A   1      45.728  24.513  28.443  1.00  0.00     0.031 C 
ATOM     59  C   UNL A   1      47.298  29.577  31.392  1.00  0.00     0.029 A 
ATOM     60  C   UNL A   1      46.569  28.622  30.702  1.00  0.00     0.049 A 
ATOM     61  H   UNL A   1      44.560  28.688  30.061  1.00  0.00     0.167 HD
ATOM     62  C   UNL A   1      46.225  26.443  29.573  1.00  0.00     0.074 A 
ATOM     63  C   UNL A   1      46.688  25.160  29.090  1.00  0.00     0.031 C 
ATOM     64  C   UNL A   1      47.005  27.335  30.230  1.00  0.00     0.037 A 
BRANCH  51  65
ATOM     65  C   UNL A   1      44.126  32.557  31.811  1.00  0.00     0.058 A 
ATOM     66  C   UNL A   1      43.864  32.661  33.186  1.00  0.00     0.135 A 
ATOM     67  C   UNL A   1      44.545  33.710  31.131  1.00  0.00     0.135 A 
ATOM     68  F   UNL A   1      43.442  31.590  33.877  1.00  0.00    -0.206 F 
ATOM     69  C   UNL A   1      44.014  33.866  33.863  1.00  0.00     0.059 A 
ATOM     70  C   UNL A   1      44.723  34.922  31.793  1.00  0.00     0.059 A 
ATOM     71  F   UNL A   1      44.803  33.663  29.814  1.00  0.00    -0.206 F 
ATOM     72  C   UNL A   1      44.452  34.989  33.159  1.00  0.00     0.060 A 
BRANCH  72  73
ATOM     73  S   UNL A   1      44.685  36.530  34.068  1.00  0.00     0.124 S 
ATOM     74  O   UNL A   1      44.413  36.105  35.439  1.00  0.00    -0.237 OA
ATOM     75  O   UNL A   1      46.075  36.859  33.770  1.00  0.00    -0.237 OA
ATOM     76  O   UNL A   1      43.691  37.425  33.482  1.00  0.00    -0.744 OA
ENDBRANCH  72  73
ENDBRANCH  51  65
BRANCH  52  77
ATOM     77  C   UNL A   1      43.144  23.647  27.393  1.00  0.00     0.058 A 
ATOM     78  C   UNL A   1      42.679  22.559  28.146  1.00  0.00     0.135 A 
ATOM     79  C   UNL A   1      43.514  23.411  26.060  1.00  0.00     0.135 A 
ATOM     80  F   UNL A   1      42.318  22.734  29.426  1.00  0.00    -0.206 F 
ATOM     81  C   UNL A   1      42.615  21.276  27.611  1.00  0.00     0.059 A 
ATOM     82  C   UNL A   1      43.439  22.141  25.497  1.00  0.00     0.059 A 
ATOM     83  F   UNL A   1      43.952  24.422  25.294  1.00  0.00    -0.206 F 
ATOM     84  C   UNL A   1      43.006  21.076  26.286  1.00  0.00     0.060 A 
BRANCH  84  85
ATOM     85  S   UNL A   1      42.922  19.407  25.600  1.00  0.00     0.124 S 
ATOM     86  O   UNL A   1      43.744  19.542  24.403  1.00  0.00    -0.237 OA
ATOM     87  O   UNL A   1      43.491  18.603  26.678  1.00  0.00    -0.237 OA
ATOM     88  O   UNL A   1      41.494  19.211  25.370  1.00  0.00    -0.744 OA
ENDBRANCH  84  85
ENDBRANCH  52  77
BRANCH  64  89
ATOM     89  C   UNL A   1      48.434  26.954  30.488  1.00  0.00     0.058 A 
ATOM     90  C   UNL A   1      49.455  27.317  29.598  1.00  0.00     0.135 A 
ATOM     91  C   UNL A   1      48.796  26.307  31.680  1.00  0.00     0.135 A 
ATOM     92  F   UNL A   1      49.158  27.932  28.442  1.00  0.00    -0.206 F 
ATOM     93  C   UNL A   1      50.791  27.050  29.879  1.00  0.00     0.059 A 
ATOM     94  C   UNL A   1      50.127  26.048  31.992  1.00  0.00     0.059 A 
ATOM     95  F   UNL A   1      47.855  25.948  32.566  1.00  0.00    -0.206 F 
ATOM     96  C   UNL A   1      51.117  26.421  31.084  1.00  0.00     0.060 A 
BRANCH  96  97
ATOM     97  S   UNL A   1      52.859  26.146  31.467  1.00  0.00     0.124 S 
ATOM     98  O   UNL A   1      53.119  27.209  32.433  1.00  0.00    -0.237 OA
ATOM     99  O   UNL A   1      52.850  24.789  32.006  1.00  0.00    -0.237 OA
ATOM    100  O   UNL A   1      53.520  26.296  30.174  1.00  0.00    -0.744 OA
ENDBRANCH  96  97
ENDBRANCH  64  89
ENDBRANCH  38  39
ENDBRANCH  30  33
ENDBRANCH  28  29
ENDBRANCH  27  28
ENDBRANCH   1  27
TORSDOF 18
ENDMDL
