MODEL 1
REMARK VINA RESULT:     -12.3      0.000      0.000
REMARK SMILES O=C(NCCCCNC(=O)c1cccc(Oc2ncc([N+](=O)[O-])cc2Br)c1)c1ccc(-c2c3nc(c(-c4c(F)cc(S(=O)(=O)[O-])cc4F)c4ccc([nH]4)c(-c4c(F)cc(S(=O)(=O)[O-])cc4F)c4nc(c(-c5c(F)cc(S(=O)(=O)[O-])cc5F)c5ccc2[nH]5)C=C4)C=C3)cc1
REMARK SMILES IDX 5 1 4 2 3 3 1 4 2 5 28 7 29 8 93 9 30 10 92 11 31 12 32 13
REMARK SMILES IDX 33 14 86 15 34 16 91 17 85 18 87 19 35 20 90 21 84 22 83 23
REMARK SMILES IDX 36 25 70 26 49 27 69 28 50 29 53 30 68 31 88 32 51 33 52 34
REMARK SMILES IDX 67 36 89 37 54 38 37 39 38 40 47 41 39 42 40 43 46 44 48 45
REMARK SMILES IDX 41 46 42 47 43 48 44 49 45 50 71 51 72 52 81 53 73 54 74 55
REMARK SMILES IDX 80 56 82 57 75 58 76 59 77 60 78 61 79 62 55 63 56 64 65 65
REMARK SMILES IDX 57 66 58 67 64 68 66 69 59 70 60 71 61 72 62 73 63 74 6 75
REMARK SMILES IDX 7 76 8 77 9 78 10 80 11 81 12 82 27 83 13 84 15 85 14 86
REMARK SMILES IDX 16 87 17 88 18 89 25 90 19 91 24 92 26 93 20 94 21 95 22 96
REMARK SMILES IDX 23 97
REMARK H PARENT 3 6 87 24 53 35 8 79
REMARK Flexibility Score: inf
ROOT
ATOM      1  C   UNL A   1      35.092  31.870  27.973  1.00  0.00     0.023 C 
ENDROOT
BRANCH   1   2
ATOM      2  C   UNL A   1      36.050  32.092  29.134  1.00  0.00     0.116 C 
BRANCH   2   3
ATOM      3  N   UNL A   1      35.812  31.191  30.256  1.00  0.00    -0.352 N 
ATOM      4  O   UNL A   1      36.228  29.475  31.663  1.00  0.00    -0.269 OA
ATOM      5  C   UNL A   1      36.647  30.242  30.803  1.00  0.00     0.251 C 
ATOM      6  H   UNL A   1      34.929  31.273  30.683  1.00  0.00     0.163 HD
BRANCH   5   7
ATOM      7  C   UNL A   1      38.036  30.133  30.310  1.00  0.00     0.039 A 
ATOM      8  C   UNL A   1      38.291  30.098  28.939  1.00  0.00     0.014 A 
ATOM      9  C   UNL A   1      39.085  29.993  31.221  1.00  0.00     0.014 A 
ATOM     10  C   UNL A   1      39.541  29.705  28.486  1.00  0.00     0.010 A 
ATOM     11  C   UNL A   1      40.375  29.723  30.755  1.00  0.00     0.010 A 
ATOM     12  C   UNL A   1      40.605  29.522  29.386  1.00  0.00    -0.014 A 
BRANCH  12  13
ATOM     13  C   UNL A   1      41.946  29.159  28.850  1.00  0.00     0.031 A 
ATOM     14  C   UNL A   1      43.082  30.149  28.837  1.00  0.00     0.074 A 
ATOM     15  C   UNL A   1      42.143  27.897  28.418  1.00  0.00     0.049 A 
ATOM     16  N   UNL A   1      44.321  29.972  28.448  1.00  0.00    -0.248 NA
ATOM     17  C   UNL A   1      42.796  31.512  29.308  1.00  0.00     0.031 C 
ATOM     18  C   UNL A   1      41.115  26.853  28.375  1.00  0.00     0.029 A 
ATOM     19  N   UNL A   1      43.271  27.267  27.960  1.00  0.00    -0.354 N 
ATOM     20  C   UNL A   1      44.953  31.203  28.601  1.00  0.00     0.074 A 
ATOM     21  C   UNL A   1      43.953  32.125  29.095  1.00  0.00     0.031 C 
ATOM     22  C   UNL A   1      41.673  25.700  27.983  1.00  0.00     0.029 A 
ATOM     23  C   UNL A   1      43.076  25.938  27.668  1.00  0.00     0.049 A 
ATOM     24  H   UNL A   1      44.137  27.723  27.851  1.00  0.00     0.167 HD
ATOM     25  C   UNL A   1      46.246  31.527  28.356  1.00  0.00     0.037 A 
ATOM     26  C   UNL A   1      43.924  25.012  27.184  1.00  0.00     0.037 A 
ATOM     27  C   UNL A   1      47.237  30.593  27.881  1.00  0.00     0.049 A 
ATOM     28  C   UNL A   1      45.345  25.406  26.900  1.00  0.00     0.074 A 
ATOM     29  C   UNL A   1      48.584  30.813  27.646  1.00  0.00     0.029 A 
ATOM     30  N   UNL A   1      46.990  29.266  27.558  1.00  0.00    -0.354 N 
ATOM     31  N   UNL A   1      45.931  26.565  27.087  1.00  0.00    -0.248 NA
ATOM     32  C   UNL A   1      46.217  24.370  26.338  1.00  0.00     0.031 C 
ATOM     33  C   UNL A   1      49.136  29.639  27.123  1.00  0.00     0.029 A 
ATOM     34  C   UNL A   1      48.152  28.664  27.097  1.00  0.00     0.049 A 
ATOM     35  H   UNL A   1      46.118  28.816  27.643  1.00  0.00     0.167 HD
ATOM     36  C   UNL A   1      47.252  26.387  26.693  1.00  0.00     0.074 A 
ATOM     37  C   UNL A   1      47.378  25.006  26.273  1.00  0.00     0.031 C 
ATOM     38  C   UNL A   1      48.268  27.287  26.683  1.00  0.00     0.037 A 
BRANCH  25  39
ATOM     39  C   UNL A   1      46.666  32.961  28.564  1.00  0.00     0.058 A 
ATOM     40  C   UNL A   1      46.593  33.919  27.540  1.00  0.00     0.135 A 
ATOM     41  C   UNL A   1      47.110  33.392  29.826  1.00  0.00     0.135 A 
ATOM     42  F   UNL A   1      46.188  33.566  26.310  1.00  0.00    -0.206 F 
ATOM     43  C   UNL A   1      46.974  35.242  27.750  1.00  0.00     0.059 A 
ATOM     44  C   UNL A   1      47.466  34.716  30.067  1.00  0.00     0.059 A 
ATOM     45  F   UNL A   1      47.197  32.522  30.845  1.00  0.00    -0.206 F 
ATOM     46  C   UNL A   1      47.411  35.631  29.018  1.00  0.00     0.060 A 
BRANCH  46  47
ATOM     47  S   UNL A   1      47.908  37.348  29.272  1.00  0.00     0.124 S 
ATOM     48  O   UNL A   1      49.231  37.363  28.655  1.00  0.00    -0.237 OA
ATOM     49  O   UNL A   1      46.869  38.082  28.558  1.00  0.00    -0.237 OA
ATOM     50  O   UNL A   1      47.892  37.498  30.724  1.00  0.00    -0.744 OA
ENDBRANCH  46  47
ENDBRANCH  25  39
BRANCH  26  51
ATOM     51  C   UNL A   1      43.446  23.624  26.944  1.00  0.00     0.058 A 
ATOM     52  C   UNL A   1      43.177  23.168  25.646  1.00  0.00     0.135 A 
ATOM     53  C   UNL A   1      43.270  22.721  28.004  1.00  0.00     0.135 A 
ATOM     54  F   UNL A   1      43.328  23.993  24.598  1.00  0.00    -0.206 F 
ATOM     55  C   UNL A   1      42.733  21.872  25.408  1.00  0.00     0.059 A 
ATOM     56  C   UNL A   1      42.860  21.411  27.789  1.00  0.00     0.059 A 
ATOM     57  F   UNL A   1      43.533  23.102  29.264  1.00  0.00    -0.206 F 
ATOM     58  C   UNL A   1      42.581  20.999  26.487  1.00  0.00     0.060 A 
BRANCH  58  59
ATOM     59  S   UNL A   1      42.045  19.307  26.161  1.00  0.00     0.124 S 
ATOM     60  O   UNL A   1      42.823  18.977  24.973  1.00  0.00    -0.237 OA
ATOM     61  O   UNL A   1      42.432  18.622  27.390  1.00  0.00    -0.237 OA
ATOM     62  O   UNL A   1      40.605  19.445  25.956  1.00  0.00    -0.744 OA
ENDBRANCH  58  59
ENDBRANCH  26  51
BRANCH  38  63
ATOM     63  C   UNL A   1      49.620  26.789  26.249  1.00  0.00     0.058 A 
ATOM     64  C   UNL A   1      50.065  26.902  24.922  1.00  0.00     0.135 A 
ATOM     65  C   UNL A   1      50.492  26.207  27.184  1.00  0.00     0.135 A 
ATOM     66  F   UNL A   1      49.269  27.442  23.985  1.00  0.00    -0.206 F 
ATOM     67  C   UNL A   1      51.311  26.422  24.530  1.00  0.00     0.059 A 
ATOM     68  C   UNL A   1      51.756  25.753  26.822  1.00  0.00     0.059 A 
ATOM     69  F   UNL A   1      50.122  26.083  28.468  1.00  0.00    -0.206 F 
ATOM     70  C   UNL A   1      52.149  25.849  25.488  1.00  0.00     0.060 A 
BRANCH  70  71
ATOM     71  S   UNL A   1      53.769  25.243  24.970  1.00  0.00     0.124 S 
ATOM     72  O   UNL A   1      53.510  23.816  24.807  1.00  0.00    -0.237 OA
ATOM     73  O   UNL A   1      54.002  25.991  23.738  1.00  0.00    -0.237 OA
ATOM     74  O   UNL A   1      54.638  25.599  26.086  1.00  0.00    -0.744 OA
ENDBRANCH  70  71
ENDBRANCH  38  63
ENDBRANCH  12  13
ENDBRANCH   5   7
ENDBRANCH   2   3
ENDBRANCH   1   2
BRANCH   1  75
ATOM     75  C   UNL A   1      34.963  30.421  27.523  1.00  0.00     0.023 C 
BRANCH  75  76
ATOM     76  C   UNL A   1      33.650  30.085  26.831  1.00  0.00     0.116 C 
BRANCH  76  77
ATOM     77  N   UNL A   1      32.745  29.329  27.686  1.00  0.00    -0.352 N 
ATOM     78  C   UNL A   1      32.051  28.182  27.384  1.00  0.00     0.251 C 
ATOM     79  H   UNL A   1      32.614  29.684  28.596  1.00  0.00     0.163 HD
ATOM     80  O   UNL A   1      31.191  27.739  28.138  1.00  0.00    -0.269 OA
BRANCH  78  81
ATOM     81  C   UNL A   1      32.366  27.475  26.129  1.00  0.00     0.043 A 
ATOM     82  C   UNL A   1      33.524  26.707  26.032  1.00  0.00     0.014 A 
ATOM     83  C   UNL A   1      31.482  27.578  25.050  1.00  0.00     0.061 A 
ATOM     84  C   UNL A   1      33.761  25.985  24.864  1.00  0.00     0.005 A 
ATOM     85  C   UNL A   1      31.709  26.850  23.884  1.00  0.00     0.130 A 
ATOM     86  C   UNL A   1      32.851  26.047  23.800  1.00  0.00     0.047 A 
BRANCH  85  87
ATOM     87  O   UNL A   1      30.893  26.871  22.771  1.00  0.00    -0.438 OA
BRANCH  87  88
ATOM     88  C   UNL A   1      30.096  27.983  22.588  1.00  0.00     0.234 A 
ATOM     89  N   UNL A   1      30.692  29.030  21.958  1.00  0.00    -0.214 NA
ATOM     90  C   UNL A   1      28.776  28.017  23.049  1.00  0.00     0.087 A 
ATOM     91  C   UNL A   1      29.939  30.142  21.755  1.00  0.00     0.200 A 
ATOM     92  C   UNL A   1      28.008  29.151  22.787  1.00  0.00     0.108 A 
ATOM     93  Br  UNL A   1      27.980  26.578  23.988  1.00  0.00    -0.045 Br
ATOM     94  C   UNL A   1      28.608  30.231  22.134  1.00  0.00     0.288 A 
BRANCH  94  95
ATOM     95  N   UNL A   1      27.855  31.446  21.863  1.00  0.00     0.064 N 
ATOM     96  O   UNL A   1      27.576  32.173  22.824  1.00  0.00    -0.258 OA
ATOM     97  O   UNL A   1      27.534  31.667  20.688  1.00  0.00    -0.258 OA
ENDBRANCH  94  95
ENDBRANCH  87  88
ENDBRANCH  85  87
ENDBRANCH  78  81
ENDBRANCH  76  77
ENDBRANCH  75  76
ENDBRANCH   1  75
TORSDOF 17
ENDMDL
MODEL 2
REMARK VINA RESULT:     -12.2      7.179     12.613
REMARK SMILES O=C(NCCCCNC(=O)c1cccc(Oc2ncc([N+](=O)[O-])cc2Br)c1)c1ccc(-c2c3nc(c(-c4c(F)cc(S(=O)(=O)[O-])cc4F)c4ccc([nH]4)c(-c4c(F)cc(S(=O)(=O)[O-])cc4F)c4nc(c(-c5c(F)cc(S(=O)(=O)[O-])cc5F)c5ccc2[nH]5)C=C4)C=C3)cc1
REMARK SMILES IDX 5 1 4 2 3 3 1 4 2 5 28 7 29 8 93 9 30 10 92 11 31 12 32 13
REMARK SMILES IDX 33 14 86 15 34 16 91 17 85 18 87 19 35 20 90 21 84 22 83 23
REMARK SMILES IDX 36 25 70 26 49 27 69 28 50 29 53 30 68 31 88 32 51 33 52 34
REMARK SMILES IDX 67 36 89 37 54 38 37 39 38 40 47 41 39 42 40 43 46 44 48 45
REMARK SMILES IDX 41 46 42 47 43 48 44 49 45 50 71 51 72 52 81 53 73 54 74 55
REMARK SMILES IDX 80 56 82 57 75 58 76 59 77 60 78 61 79 62 55 63 56 64 65 65
REMARK SMILES IDX 57 66 58 67 64 68 66 69 59 70 60 71 61 72 62 73 63 74 6 75
REMARK SMILES IDX 7 76 8 77 9 78 10 80 11 81 12 82 27 83 13 84 15 85 14 86
REMARK SMILES IDX 16 87 17 88 18 89 25 90 19 91 24 92 26 93 20 94 21 95 22 96
REMARK SMILES IDX 23 97
REMARK H PARENT 3 6 87 24 53 35 8 79
REMARK Flexibility Score: inf
ROOT
ATOM      1  C   UNL A   1      40.137  22.306  27.028  1.00  0.00     0.023 C 
ENDROOT
BRANCH   1   2
ATOM      2  C   UNL A   1      41.391  23.163  27.118  1.00  0.00     0.116 C 
BRANCH   2   3
ATOM      3  N   UNL A   1      41.524  24.104  26.011  1.00  0.00    -0.352 N 
ATOM      4  O   UNL A   1      41.491  26.112  24.981  1.00  0.00    -0.269 OA
ATOM      5  C   UNL A   1      41.501  25.481  26.032  1.00  0.00     0.251 C 
ATOM      6  H   UNL A   1      41.648  23.696  25.124  1.00  0.00     0.163 HD
BRANCH   5   7
ATOM      7  C   UNL A   1      41.444  26.182  27.332  1.00  0.00     0.039 A 
ATOM      8  C   UNL A   1      40.351  25.999  28.178  1.00  0.00     0.014 A 
ATOM      9  C   UNL A   1      42.455  27.083  27.676  1.00  0.00     0.014 A 
ATOM     10  C   UNL A   1      40.158  26.868  29.242  1.00  0.00     0.010 A 
ATOM     11  C   UNL A   1      42.318  27.870  28.824  1.00  0.00     0.010 A 
ATOM     12  C   UNL A   1      41.143  27.808  29.588  1.00  0.00    -0.014 A 
BRANCH  12  13
ATOM     13  C   UNL A   1      40.922  28.678  30.775  1.00  0.00     0.031 A 
ATOM     14  C   UNL A   1      41.809  28.595  31.989  1.00  0.00     0.074 A 
ATOM     15  C   UNL A   1      39.930  29.591  30.725  1.00  0.00     0.049 A 
ATOM     16  N   UNL A   1      41.776  29.316  33.083  1.00  0.00    -0.248 NA
ATOM     17  C   UNL A   1      42.862  27.568  31.987  1.00  0.00     0.031 C 
ATOM     18  C   UNL A   1      38.999  29.760  29.604  1.00  0.00     0.029 A 
ATOM     19  N   UNL A   1      39.553  30.563  31.615  1.00  0.00    -0.354 N 
ATOM     20  C   UNL A   1      42.780  28.815  33.907  1.00  0.00     0.074 A 
ATOM     21  C   UNL A   1      43.389  27.711  33.196  1.00  0.00     0.031 C 
ATOM     22  C   UNL A   1      38.207  30.813  29.843  1.00  0.00     0.029 A 
ATOM     23  C   UNL A   1      38.514  31.344  31.165  1.00  0.00     0.049 A 
ATOM     24  H   UNL A   1      39.983  30.689  32.491  1.00  0.00     0.167 HD
ATOM     25  C   UNL A   1      43.158  29.241  35.137  1.00  0.00     0.037 A 
ATOM     26  C   UNL A   1      37.866  32.366  31.754  1.00  0.00     0.037 A 
ATOM     27  C   UNL A   1      42.554  30.355  35.826  1.00  0.00     0.049 A 
ATOM     28  C   UNL A   1      38.292  32.802  33.126  1.00  0.00     0.074 A 
ATOM     29  C   UNL A   1      42.897  30.894  37.055  1.00  0.00     0.029 A 
ATOM     30  N   UNL A   1      41.478  31.095  35.355  1.00  0.00    -0.354 N 
ATOM     31  N   UNL A   1      39.267  32.339  33.871  1.00  0.00    -0.248 NA
ATOM     32  C   UNL A   1      37.528  33.894  33.738  1.00  0.00     0.031 C 
ATOM     33  C   UNL A   1      41.990  31.917  37.354  1.00  0.00     0.029 A 
ATOM     34  C   UNL A   1      41.125  32.064  36.283  1.00  0.00     0.049 A 
ATOM     35  H   UNL A   1      41.030  30.953  34.490  1.00  0.00     0.167 HD
ATOM     36  C   UNL A   1      39.254  33.107  35.030  1.00  0.00     0.074 A 
ATOM     37  C   UNL A   1      38.183  34.071  34.877  1.00  0.00     0.031 C 
ATOM     38  C   UNL A   1      40.058  33.022  36.119  1.00  0.00     0.037 A 
BRANCH  25  39
ATOM     39  C   UNL A   1      44.258  28.484  35.840  1.00  0.00     0.058 A 
ATOM     40  C   UNL A   1      43.994  27.402  36.694  1.00  0.00     0.135 A 
ATOM     41  C   UNL A   1      45.604  28.825  35.619  1.00  0.00     0.135 A 
ATOM     42  F   UNL A   1      42.728  27.036  36.953  1.00  0.00    -0.206 F 
ATOM     43  C   UNL A   1      45.021  26.705  37.327  1.00  0.00     0.059 A 
ATOM     44  C   UNL A   1      46.647  28.123  36.217  1.00  0.00     0.059 A 
ATOM     45  F   UNL A   1      45.918  29.848  34.809  1.00  0.00    -0.206 F 
ATOM     46  C   UNL A   1      46.345  27.075  37.083  1.00  0.00     0.060 A 
BRANCH  46  47
ATOM     47  S   UNL A   1      47.663  26.166  37.917  1.00  0.00     0.124 S 
ATOM     48  O   UNL A   1      48.852  26.847  37.411  1.00  0.00    -0.237 OA
ATOM     49  O   UNL A   1      47.356  26.394  39.325  1.00  0.00    -0.237 OA
ATOM     50  O   UNL A   1      47.481  24.795  37.452  1.00  0.00    -0.744 OA
ENDBRANCH  46  47
ENDBRANCH  25  39
BRANCH  26  51
ATOM     51  C   UNL A   1      36.751  33.044  31.041  1.00  0.00     0.058 A 
ATOM     52  C   UNL A   1      37.003  33.937  29.990  1.00  0.00     0.135 A 
ATOM     53  C   UNL A   1      35.412  32.796  31.381  1.00  0.00     0.135 A 
ATOM     54  F   UNL A   1      38.267  34.210  29.627  1.00  0.00    -0.206 F 
ATOM     55  C   UNL A   1      35.969  34.575  29.313  1.00  0.00     0.059 A 
ATOM     56  C   UNL A   1      34.360  33.394  30.697  1.00  0.00     0.059 A 
ATOM     57  F   UNL A   1      35.116  31.934  32.366  1.00  0.00    -0.206 F 
ATOM     58  C   UNL A   1      34.650  34.293  29.672  1.00  0.00     0.060 A 
BRANCH  58  59
ATOM     59  S   UNL A   1      33.316  35.094  28.758  1.00  0.00     0.124 S 
ATOM     60  O   UNL A   1      32.473  35.586  29.842  1.00  0.00    -0.237 OA
ATOM     61  O   UNL A   1      34.035  36.109  27.995  1.00  0.00    -0.237 OA
ATOM     62  O   UNL A   1      32.752  34.005  27.964  1.00  0.00    -0.744 OA
ENDBRANCH  58  59
ENDBRANCH  26  51
BRANCH  38  63
ATOM     63  C   UNL A   1      39.841  34.033  37.213  1.00  0.00     0.058 A 
ATOM     64  C   UNL A   1      40.378  35.329  37.148  1.00  0.00     0.135 A 
ATOM     65  C   UNL A   1      39.062  33.702  38.335  1.00  0.00     0.135 A 
ATOM     66  F   UNL A   1      41.137  35.694  36.102  1.00  0.00    -0.206 F 
ATOM     67  C   UNL A   1      40.184  36.247  38.175  1.00  0.00     0.059 A 
ATOM     68  C   UNL A   1      38.826  34.617  39.356  1.00  0.00     0.059 A 
ATOM     69  F   UNL A   1      38.516  32.482  38.444  1.00  0.00    -0.206 F 
ATOM     70  C   UNL A   1      39.406  35.882  39.275  1.00  0.00     0.060 A 
BRANCH  70  71
ATOM     71  S   UNL A   1      39.150  37.088  40.593  1.00  0.00     0.124 S 
ATOM     72  O   UNL A   1      38.553  36.261  41.636  1.00  0.00    -0.237 OA
ATOM     73  O   UNL A   1      40.507  37.558  40.853  1.00  0.00    -0.237 OA
ATOM     74  O   UNL A   1      38.258  38.071  39.985  1.00  0.00    -0.744 OA
ENDBRANCH  70  71
ENDBRANCH  38  63
ENDBRANCH  12  13
ENDBRANCH   5   7
ENDBRANCH   2   3
ENDBRANCH   1   2
BRANCH   1  75
ATOM     75  C   UNL A   1      38.853  23.081  26.767  1.00  0.00     0.023 C 
BRANCH  75  76
ATOM     76  C   UNL A   1      37.792  22.312  25.993  1.00  0.00     0.116 C 
BRANCH  76  77
ATOM     77  N   UNL A   1      37.741  22.689  24.587  1.00  0.00    -0.352 N 
ATOM     78  C   UNL A   1      36.638  23.011  23.834  1.00  0.00     0.251 C 
ATOM     79  H   UNL A   1      38.606  22.716  24.116  1.00  0.00     0.163 HD
ATOM     80  O   UNL A   1      36.714  23.146  22.617  1.00  0.00    -0.269 OA
BRANCH  78  81
ATOM     81  C   UNL A   1      35.347  23.206  24.518  1.00  0.00     0.043 A 
ATOM     82  C   UNL A   1      35.140  24.331  25.313  1.00  0.00     0.014 A 
ATOM     83  C   UNL A   1      34.336  22.254  24.347  1.00  0.00     0.061 A 
ATOM     84  C   UNL A   1      33.886  24.534  25.887  1.00  0.00     0.005 A 
ATOM     85  C   UNL A   1      33.078  22.457  24.909  1.00  0.00     0.130 A 
ATOM     86  C   UNL A   1      32.857  23.607  25.675  1.00  0.00     0.047 A 
BRANCH  85  87
ATOM     87  O   UNL A   1      32.012  21.588  24.789  1.00  0.00    -0.438 OA
BRANCH  87  88
ATOM     88  C   UNL A   1      32.298  20.244  24.668  1.00  0.00     0.234 A 
ATOM     89  N   UNL A   1      32.605  19.607  25.829  1.00  0.00    -0.214 NA
ATOM     90  C   UNL A   1      32.291  19.607  23.423  1.00  0.00     0.087 A 
ATOM     91  C   UNL A   1      32.888  18.281  25.753  1.00  0.00     0.200 A 
ATOM     92  C   UNL A   1      32.539  18.235  23.376  1.00  0.00     0.108 A 
ATOM     93  Br  UNL A   1      31.932  20.522  21.804  1.00  0.00    -0.045 Br
ATOM     94  C   UNL A   1      32.848  17.568  24.563  1.00  0.00     0.288 A 
BRANCH  94  95
ATOM     95  N   UNL A   1      33.141  16.143  24.560  1.00  0.00     0.064 N 
ATOM     96  O   UNL A   1      34.107  15.759  23.890  1.00  0.00    -0.258 OA
ATOM     97  O   UNL A   1      32.395  15.407  25.220  1.00  0.00    -0.258 OA
ENDBRANCH  94  95
ENDBRANCH  87  88
ENDBRANCH  85  87
ENDBRANCH  78  81
ENDBRANCH  76  77
ENDBRANCH  75  76
ENDBRANCH   1  75
TORSDOF 17
ENDMDL
MODEL 3
REMARK VINA RESULT:     -12.2      3.894      9.705
REMARK SMILES O=C(NCCCCNC(=O)c1cccc(Oc2ncc([N+](=O)[O-])cc2Br)c1)c1ccc(-c2c3nc(c(-c4c(F)cc(S(=O)(=O)[O-])cc4F)c4ccc([nH]4)c(-c4c(F)cc(S(=O)(=O)[O-])cc4F)c4nc(c(-c5c(F)cc(S(=O)(=O)[O-])cc5F)c5ccc2[nH]5)C=C4)C=C3)cc1
REMARK SMILES IDX 5 1 4 2 3 3 1 4 2 5 28 7 29 8 93 9 30 10 92 11 31 12 32 13
REMARK SMILES IDX 33 14 86 15 34 16 91 17 85 18 87 19 35 20 90 21 84 22 83 23
REMARK SMILES IDX 36 25 70 26 49 27 69 28 50 29 53 30 68 31 88 32 51 33 52 34
REMARK SMILES IDX 67 36 89 37 54 38 37 39 38 40 47 41 39 42 40 43 46 44 48 45
REMARK SMILES IDX 41 46 42 47 43 48 44 49 45 50 71 51 72 52 81 53 73 54 74 55
REMARK SMILES IDX 80 56 82 57 75 58 76 59 77 60 78 61 79 62 55 63 56 64 65 65
REMARK SMILES IDX 57 66 58 67 64 68 66 69 59 70 60 71 61 72 62 73 63 74 6 75
REMARK SMILES IDX 7 76 8 77 9 78 10 80 11 81 12 82 27 83 13 84 15 85 14 86
REMARK SMILES IDX 16 87 17 88 18 89 25 90 19 91 24 92 26 93 20 94 21 95 22 96
REMARK SMILES IDX 23 97
REMARK H PARENT 3 6 87 24 53 35 8 79
REMARK Flexibility Score: inf
ROOT
ATOM      1  C   UNL A   1      33.641  28.493  25.599  1.00  0.00     0.023 C 
ENDROOT
BRANCH   1   2
ATOM      2  C   UNL A   1      33.839  28.501  27.107  1.00  0.00     0.116 C 
BRANCH   2   3
ATOM      3  N   UNL A   1      33.757  29.835  27.691  1.00  0.00    -0.352 N 
ATOM      4  O   UNL A   1      34.428  31.609  28.917  1.00  0.00    -0.269 OA
ATOM      5  C   UNL A   1      34.718  30.548  28.374  1.00  0.00     0.251 C 
ATOM      6  H   UNL A   1      32.891  30.291  27.581  1.00  0.00     0.163 HD
BRANCH   5   7
ATOM      7  C   UNL A   1      36.085  29.997  28.480  1.00  0.00     0.039 A 
ATOM      8  C   UNL A   1      36.539  29.483  29.694  1.00  0.00     0.014 A 
ATOM      9  C   UNL A   1      36.944  30.061  27.380  1.00  0.00     0.014 A 
ATOM     10  C   UNL A   1      37.894  29.243  29.870  1.00  0.00     0.010 A 
ATOM     11  C   UNL A   1      38.285  29.696  27.527  1.00  0.00     0.010 A 
ATOM     12  C   UNL A   1      38.786  29.335  28.788  1.00  0.00    -0.014 A 
BRANCH  12  13
ATOM     13  C   UNL A   1      40.221  29.010  29.008  1.00  0.00     0.031 A 
ATOM     14  C   UNL A   1      40.801  27.683  28.591  1.00  0.00     0.074 A 
ATOM     15  C   UNL A   1      41.017  29.955  29.549  1.00  0.00     0.049 A 
ATOM     16  N   UNL A   1      42.041  27.267  28.672  1.00  0.00    -0.248 NA
ATOM     17  C   UNL A   1      39.877  26.691  28.022  1.00  0.00     0.031 C 
ATOM     18  C   UNL A   1      40.567  31.275  30.000  1.00  0.00     0.029 A 
ATOM     19  N   UNL A   1      42.367  29.969  29.788  1.00  0.00    -0.354 N 
ATOM     20  C   UNL A   1      42.041  25.960  28.190  1.00  0.00     0.074 A 
ATOM     21  C   UNL A   1      40.672  25.645  27.844  1.00  0.00     0.031 C 
ATOM     22  C   UNL A   1      41.627  31.993  30.395  1.00  0.00     0.029 A 
ATOM     23  C   UNL A   1      42.819  31.160  30.305  1.00  0.00     0.049 A 
ATOM     24  H   UNL A   1      42.955  29.200  29.607  1.00  0.00     0.167 HD
ATOM     25  C   UNL A   1      43.087  25.110  28.049  1.00  0.00     0.037 A 
ATOM     26  C   UNL A   1      44.054  31.540  30.681  1.00  0.00     0.037 A 
ATOM     27  C   UNL A   1      44.450  25.444  28.382  1.00  0.00     0.049 A 
ATOM     28  C   UNL A   1      45.189  30.569  30.534  1.00  0.00     0.074 A 
ATOM     29  C   UNL A   1      45.587  24.668  28.231  1.00  0.00     0.029 A 
ATOM     30  N   UNL A   1      44.862  26.646  28.941  1.00  0.00    -0.354 N 
ATOM     31  N   UNL A   1      45.175  29.353  30.043  1.00  0.00    -0.248 NA
ATOM     32  C   UNL A   1      46.507  31.020  30.995  1.00  0.00     0.031 C 
ATOM     33  C   UNL A   1      46.675  25.376  28.755  1.00  0.00     0.029 A 
ATOM     34  C   UNL A   1      46.230  26.621  29.170  1.00  0.00     0.049 A 
ATOM     35  H   UNL A   1      44.270  27.406  29.146  1.00  0.00     0.167 HD
ATOM     36  C   UNL A   1      46.489  28.904  30.107  1.00  0.00     0.074 A 
ATOM     37  C   UNL A   1      47.270  29.986  30.671  1.00  0.00     0.031 C 
ATOM     38  C   UNL A   1      47.000  27.705  29.729  1.00  0.00     0.037 A 
BRANCH  25  39
ATOM     39  C   UNL A   1      42.803  23.718  27.540  1.00  0.00     0.058 A 
ATOM     40  C   UNL A   1      42.884  23.387  26.179  1.00  0.00     0.135 A 
ATOM     41  C   UNL A   1      42.486  22.687  28.442  1.00  0.00     0.135 A 
ATOM     42  F   UNL A   1      43.172  24.331  25.268  1.00  0.00    -0.206 F 
ATOM     43  C   UNL A   1      42.630  22.095  25.725  1.00  0.00     0.059 A 
ATOM     44  C   UNL A   1      42.258  21.382  28.015  1.00  0.00     0.059 A 
ATOM     45  F   UNL A   1      42.398  22.942  29.757  1.00  0.00    -0.206 F 
ATOM     46  C   UNL A   1      42.316  21.098  26.652  1.00  0.00     0.060 A 
BRANCH  46  47
ATOM     47  S   UNL A   1      41.982  19.430  26.047  1.00  0.00     0.124 S 
ATOM     48  O   UNL A   1      42.344  18.622  27.208  1.00  0.00    -0.237 OA
ATOM     49  O   UNL A   1      40.558  19.490  25.737  1.00  0.00    -0.237 OA
ATOM     50  O   UNL A   1      42.868  19.301  24.894  1.00  0.00    -0.744 OA
ENDBRANCH  46  47
ENDBRANCH  25  39
BRANCH  26  51
ATOM     51  C   UNL A   1      44.273  32.905  31.229  1.00  0.00     0.058 A 
ATOM     52  C   UNL A   1      44.524  33.992  30.380  1.00  0.00     0.135 A 
ATOM     53  C   UNL A   1      44.212  33.154  32.610  1.00  0.00     0.135 A 
ATOM     54  F   UNL A   1      44.594  33.806  29.053  1.00  0.00    -0.206 F 
ATOM     55  C   UNL A   1      44.727  35.274  30.880  1.00  0.00     0.059 A 
ATOM     56  C   UNL A   1      44.377  34.432  33.131  1.00  0.00     0.059 A 
ATOM     57  F   UNL A   1      43.954  32.152  33.464  1.00  0.00    -0.206 F 
ATOM     58  C   UNL A   1      44.648  35.484  32.257  1.00  0.00     0.060 A 
BRANCH  58  59
ATOM     59  S   UNL A   1      44.870  37.159  32.890  1.00  0.00     0.124 S 
ATOM     60  O   UNL A   1      45.671  36.917  34.085  1.00  0.00    -0.237 OA
ATOM     61  O   UNL A   1      45.555  37.816  31.782  1.00  0.00    -0.237 OA
ATOM     62  O   UNL A   1      43.502  37.612  33.129  1.00  0.00    -0.744 OA
ENDBRANCH  58  59
ENDBRANCH  26  51
BRANCH  38  63
ATOM     63  C   UNL A   1      48.487  27.519  29.870  1.00  0.00     0.058 A 
ATOM     64  C   UNL A   1      49.381  27.856  28.840  1.00  0.00     0.135 A 
ATOM     65  C   UNL A   1      49.025  27.013  31.064  1.00  0.00     0.135 A 
ATOM     66  F   UNL A   1      48.919  28.336  27.674  1.00  0.00    -0.206 F 
ATOM     67  C   UNL A   1      50.751  27.663  28.977  1.00  0.00     0.059 A 
ATOM     68  C   UNL A   1      50.395  26.845  31.235  1.00  0.00     0.059 A 
ATOM     69  F   UNL A   1      48.218  26.684  32.085  1.00  0.00    -0.206 F 
ATOM     70  C   UNL A   1      51.249  27.156  30.179  1.00  0.00     0.060 A 
BRANCH  70  71
ATOM     71  S   UNL A   1      53.031  26.923  30.348  1.00  0.00     0.124 S 
ATOM     72  O   UNL A   1      53.385  26.399  29.033  1.00  0.00    -0.237 OA
ATOM     73  O   UNL A   1      53.496  28.276  30.638  1.00  0.00    -0.237 OA
ATOM     74  O   UNL A   1      53.147  25.977  31.452  1.00  0.00    -0.744 OA
ENDBRANCH  70  71
ENDBRANCH  38  63
ENDBRANCH  12  13
ENDBRANCH   5   7
ENDBRANCH   2   3
ENDBRANCH   1   2
BRANCH   1  75
ATOM     75  C   UNL A   1      33.292  27.133  25.010  1.00  0.00     0.023 C 
BRANCH  75  76
ATOM     76  C   UNL A   1      31.887  27.031  24.435  1.00  0.00     0.116 C 
BRANCH  76  77
ATOM     77  N   UNL A   1      30.896  26.665  25.438  1.00  0.00    -0.352 N 
ATOM     78  C   UNL A   1      30.400  25.416  25.724  1.00  0.00     0.251 C 
ATOM     79  H   UNL A   1      30.538  27.405  25.980  1.00  0.00     0.163 HD
ATOM     80  O   UNL A   1      29.444  25.268  26.479  1.00  0.00    -0.269 OA
BRANCH  78  81
ATOM     81  C   UNL A   1      31.046  24.240  25.113  1.00  0.00     0.043 A 
ATOM     82  C   UNL A   1      30.901  23.993  23.750  1.00  0.00     0.014 A 
ATOM     83  C   UNL A   1      31.810  23.389  25.919  1.00  0.00     0.061 A 
ATOM     84  C   UNL A   1      31.585  22.921  23.180  1.00  0.00     0.005 A 
ATOM     85  C   UNL A   1      32.503  22.322  25.353  1.00  0.00     0.130 A 
ATOM     86  C   UNL A   1      32.391  22.097  23.977  1.00  0.00     0.047 A 
BRANCH  85  87
ATOM     87  O   UNL A   1      33.293  21.434  26.055  1.00  0.00    -0.438 OA
BRANCH  87  88
ATOM     88  C   UNL A   1      33.465  20.174  25.519  1.00  0.00     0.234 A 
ATOM     89  N   UNL A   1      32.371  19.369  25.562  1.00  0.00    -0.214 NA
ATOM     90  C   UNL A   1      34.696  19.767  24.996  1.00  0.00     0.087 A 
ATOM     91  C   UNL A   1      32.498  18.122  25.040  1.00  0.00     0.200 A 
ATOM     92  C   UNL A   1      34.789  18.499  24.423  1.00  0.00     0.108 A 
ATOM     93  Br  UNL A   1      36.232  20.874  25.008  1.00  0.00    -0.045 Br
ATOM     94  C   UNL A   1      33.669  17.665  24.454  1.00  0.00     0.288 A 
BRANCH  94  95
ATOM     95  N   UNL A   1      33.726  16.324  23.893  1.00  0.00     0.064 N 
ATOM     96  O   UNL A   1      34.176  16.202  22.747  1.00  0.00    -0.258 OA
ATOM     97  O   UNL A   1      33.310  15.394  24.596  1.00  0.00    -0.258 OA
ENDBRANCH  94  95
ENDBRANCH  87  88
ENDBRANCH  85  87
ENDBRANCH  78  81
ENDBRANCH  76  77
ENDBRANCH  75  76
ENDBRANCH   1  75
TORSDOF 17
ENDMDL
