MODEL 1
REMARK VINA RESULT:     -12.1      0.000      0.000
REMARK SMILES COc1ccc(-c2noc(CC(=O)NCCCCNC(=O)c3ccc(-c4c5nc(c(-c6c(F)cc(S(=O)(=O)[O-])cc6F)c6ccc([nH]6)c(-c6c(F)cc(S(=O)(=O)[O-])cc6F)c6nc(c(-c7c(F)cc(S(=O)(=O)[O-])cc7F)c7ccc4[nH]7)C=C6)C=C5)cc3)c2-c2ccc(OC)cc2)cc1
REMARK SMILES IDX 16 1 15 2 14 3 12 4 13 5 11 7 10 8 7 9 8 10 88 11 9 12 6 13
REMARK SMILES IDX 3 14 4 15 98 16 5 17 97 18 2 19 1 20 89 21 90 22 96 23 91 24
REMARK SMILES IDX 95 25 92 26 93 27 94 28 17 29 18 30 19 31 20 32 21 34 22 35
REMARK SMILES IDX 23 36 87 37 24 38 86 39 25 40 26 41 27 42 80 43 28 44 85 45
REMARK SMILES IDX 79 46 81 47 29 48 84 49 78 50 77 51 30 53 64 54 43 55 63 56
REMARK SMILES IDX 44 57 47 58 62 59 82 60 45 61 46 62 61 64 83 65 48 66 31 67
REMARK SMILES IDX 32 68 41 69 33 70 34 71 40 72 42 73 35 74 36 75 37 76 38 77
REMARK SMILES IDX 39 78 65 79 66 80 75 81 67 82 68 83 74 84 76 85 69 86 70 87
REMARK SMILES IDX 71 88 72 89 73 90 49 91 50 92 59 93 51 94 52 95 58 96 60 97
REMARK SMILES IDX 53 98 54 99 55 100 56 101 57 102
REMARK H PARENT 14 6 19 33 81 52 47 63
REMARK Flexibility Score: inf
ROOT
ATOM      1  C   UNL A   1      33.551  29.175  24.284  1.00  0.00     0.023 C 
ENDROOT
BRANCH   1   2
ATOM      2  C   UNL A   1      32.657  29.027  23.053  1.00  0.00     0.116 C 
BRANCH   2   3
ATOM      3  N   UNL A   1      33.123  27.967  22.183  1.00  0.00    -0.356 N 
ATOM      4  C   UNL A   1      33.177  26.624  22.426  1.00  0.00     0.227 C 
ATOM      5  O   UNL A   1      33.662  25.890  21.562  1.00  0.00    -0.275 OA
ATOM      6  H   UNL A   1      33.445  28.253  21.298  1.00  0.00     0.163 HD
BRANCH   4   7
ATOM      7  C   UNL A   1      32.558  26.048  23.683  1.00  0.00     0.179 C 
BRANCH   7   8
ATOM      8  C   UNL A   1      32.293  24.593  23.574  1.00  0.00     0.154 A 
ATOM      9  C   UNL A   1      32.128  22.383  23.534  1.00  0.00     0.122 A 
ATOM     10  N   UNL A   1      30.978  22.854  23.033  1.00  0.00    -0.079 NA
ATOM     11  C   UNL A   1      33.004  23.452  23.879  1.00  0.00     0.053 A 
ATOM     12  O   UNL A   1      31.078  24.233  23.076  1.00  0.00    -0.360 OA
BRANCH   9  13
ATOM     13  C   UNL A   1      32.371  20.960  23.710  1.00  0.00     0.005 A 
ATOM     14  C   UNL A   1      32.698  18.196  24.034  1.00  0.00     0.118 A 
ATOM     15  C   UNL A   1      32.865  19.057  25.121  1.00  0.00     0.047 A 
ATOM     16  C   UNL A   1      32.347  18.713  22.788  1.00  0.00     0.047 A 
ATOM     17  C   UNL A   1      32.718  20.439  24.960  1.00  0.00     0.014 A 
ATOM     18  C   UNL A   1      32.187  20.090  22.627  1.00  0.00     0.014 A 
BRANCH  14  19
ATOM     19  O   UNL A   1      32.854  16.863  24.301  1.00  0.00    -0.497 OA
ATOM     20  C   UNL A   1      34.040  16.285  23.762  1.00  0.00     0.278 C 
ENDBRANCH  14  19
ENDBRANCH   9  13
BRANCH  11  21
ATOM     21  C   UNL A   1      34.366  23.412  24.372  1.00  0.00    -0.012 A 
ATOM     22  C   UNL A   1      34.647  23.872  25.664  1.00  0.00     0.013 A 
ATOM     23  C   UNL A   1      35.411  22.937  23.576  1.00  0.00     0.013 A 
ATOM     24  C   UNL A   1      35.952  23.837  26.156  1.00  0.00     0.047 A 
ATOM     25  C   UNL A   1      36.721  22.910  24.070  1.00  0.00     0.047 A 
ATOM     26  C   UNL A   1      36.995  23.355  25.365  1.00  0.00     0.118 A 
BRANCH  26  27
ATOM     27  O   UNL A   1      38.221  23.380  25.967  1.00  0.00    -0.497 OA
ATOM     28  C   UNL A   1      38.912  22.143  26.077  1.00  0.00     0.278 C 
ENDBRANCH  26  27
ENDBRANCH  11  21
ENDBRANCH   7   8
ENDBRANCH   4   7
ENDBRANCH   2   3
ENDBRANCH   1   2
BRANCH   1  29
ATOM     29  C   UNL A   1      32.831  28.960  25.617  1.00  0.00     0.023 C 
BRANCH  29  30
ATOM     30  C   UNL A   1      33.727  28.999  26.852  1.00  0.00     0.116 C 
BRANCH  30  31
ATOM     31  N   UNL A   1      33.655  30.261  27.576  1.00  0.00    -0.352 N 
ATOM     32  C   UNL A   1      34.609  30.838  28.381  1.00  0.00     0.251 C 
ATOM     33  H   UNL A   1      32.815  30.767  27.475  1.00  0.00     0.163 HD
ATOM     34  O   UNL A   1      34.358  31.864  29.006  1.00  0.00    -0.269 OA
BRANCH  32  35
ATOM     35  C   UNL A   1      35.924  30.180  28.517  1.00  0.00     0.039 A 
ATOM     36  C   UNL A   1      36.797  30.185  27.427  1.00  0.00     0.014 A 
ATOM     37  C   UNL A   1      36.318  29.630  29.740  1.00  0.00     0.014 A 
ATOM     38  C   UNL A   1      38.104  29.723  27.591  1.00  0.00     0.010 A 
ATOM     39  C   UNL A   1      37.636  29.220  29.916  1.00  0.00     0.010 A 
ATOM     40  C   UNL A   1      38.547  29.287  28.851  1.00  0.00    -0.014 A 
BRANCH  40  41
ATOM     41  C   UNL A   1      39.974  28.958  29.099  1.00  0.00     0.031 A 
ATOM     42  C   UNL A   1      40.916  30.009  29.611  1.00  0.00     0.074 A 
ATOM     43  C   UNL A   1      40.434  27.733  28.773  1.00  0.00     0.049 A 
ATOM     44  N   UNL A   1      42.213  29.949  29.761  1.00  0.00    -0.248 NA
ATOM     45  C   UNL A   1      40.325  31.304  29.985  1.00  0.00     0.031 C 
ATOM     46  C   UNL A   1      39.623  26.639  28.230  1.00  0.00     0.029 A 
ATOM     47  N   UNL A   1      41.700  27.206  28.828  1.00  0.00    -0.354 N 
ATOM     48  C   UNL A   1      42.597  31.195  30.242  1.00  0.00     0.074 A 
ATOM     49  C   UNL A   1      41.400  32.006  30.318  1.00  0.00     0.031 C 
ATOM     50  C   UNL A   1      40.410  25.572  28.011  1.00  0.00     0.029 A 
ATOM     51  C   UNL A   1      41.785  25.917  28.357  1.00  0.00     0.049 A 
ATOM     52  H   UNL A   1      42.476  27.705  29.174  1.00  0.00     0.167 HD
ATOM     53  C   UNL A   1      43.832  31.615  30.605  1.00  0.00     0.037 A 
ATOM     54  C   UNL A   1      42.852  25.111  28.198  1.00  0.00     0.037 A 
ATOM     55  C   UNL A   1      45.015  30.799  30.546  1.00  0.00     0.049 A 
ATOM     56  C   UNL A   1      44.218  25.619  28.573  1.00  0.00     0.074 A 
ATOM     57  C   UNL A   1      46.303  31.122  30.940  1.00  0.00     0.029 A 
ATOM     58  N   UNL A   1      45.059  29.499  30.065  1.00  0.00    -0.354 N 
ATOM     59  N   UNL A   1      44.555  26.785  29.069  1.00  0.00    -0.248 NA
ATOM     60  C   UNL A   1      45.350  24.706  28.358  1.00  0.00     0.031 C 
ATOM     61  C   UNL A   1      47.132  30.028  30.666  1.00  0.00     0.029 A 
ATOM     62  C   UNL A   1      46.354  29.014  30.133  1.00  0.00     0.049 A 
ATOM     63  H   UNL A   1      44.284  28.997  29.725  1.00  0.00     0.167 HD
ATOM     64  C   UNL A   1      45.934  26.740  29.238  1.00  0.00     0.074 A 
ATOM     65  C   UNL A   1      46.368  25.427  28.808  1.00  0.00     0.031 C 
ATOM     66  C   UNL A   1      46.767  27.701  29.704  1.00  0.00     0.037 A 
BRANCH  53  67
ATOM     67  C   UNL A   1      43.969  33.019  31.120  1.00  0.00     0.058 A 
ATOM     68  C   UNL A   1      44.388  34.063  30.282  1.00  0.00     0.135 A 
ATOM     69  C   UNL A   1      43.617  33.337  32.442  1.00  0.00     0.135 A 
ATOM     70  F   UNL A   1      44.749  33.808  29.015  1.00  0.00    -0.206 F 
ATOM     71  C   UNL A   1      44.465  35.374  30.738  1.00  0.00     0.059 A 
ATOM     72  C   UNL A   1      43.666  34.645  32.914  1.00  0.00     0.059 A 
ATOM     73  F   UNL A   1      43.214  32.374  33.285  1.00  0.00    -0.206 F 
ATOM     74  C   UNL A   1      44.099  35.656  32.056  1.00  0.00     0.060 A 
BRANCH  74  75
ATOM     75  S   UNL A   1      44.178  37.368  32.623  1.00  0.00     0.124 S 
ATOM     76  O   UNL A   1      43.643  38.082  31.469  1.00  0.00    -0.237 OA
ATOM     77  O   UNL A   1      43.322  37.345  33.806  1.00  0.00    -0.237 OA
ATOM     78  O   UNL A   1      45.598  37.574  32.886  1.00  0.00    -0.744 OA
ENDBRANCH  74  75
ENDBRANCH  53  67
BRANCH  54  79
ATOM     79  C   UNL A   1      42.684  23.742  27.646  1.00  0.00     0.058 A 
ATOM     80  C   UNL A   1      42.500  22.642  28.496  1.00  0.00     0.135 A 
ATOM     81  C   UNL A   1      42.729  23.501  26.264  1.00  0.00     0.135 A 
ATOM     82  F   UNL A   1      42.458  22.822  29.826  1.00  0.00    -0.206 F 
ATOM     83  C   UNL A   1      42.394  21.347  28.000  1.00  0.00     0.059 A 
ATOM     84  C   UNL A   1      42.602  22.218  25.742  1.00  0.00     0.059 A 
ATOM     85  F   UNL A   1      42.888  24.524  25.408  1.00  0.00    -0.206 F 
ATOM     86  C   UNL A   1      42.452  21.145  26.620  1.00  0.00     0.060 A 
BRANCH  86  87
ATOM     87  S   UNL A   1      42.298  19.463  25.978  1.00  0.00     0.124 S 
ATOM     88  O   UNL A   1      40.878  19.407  25.649  1.00  0.00    -0.237 OA
ATOM     89  O   UNL A   1      43.215  19.479  24.844  1.00  0.00    -0.237 OA
ATOM     90  O   UNL A   1      42.720  18.637  27.105  1.00  0.00    -0.744 OA
ENDBRANCH  86  87
ENDBRANCH  54  79
BRANCH  66  91
ATOM     91  C   UNL A   1      48.229  27.370  29.785  1.00  0.00     0.058 A 
ATOM     92  C   UNL A   1      49.080  27.555  28.686  1.00  0.00     0.135 A 
ATOM     93  C   UNL A   1      48.794  26.922  30.989  1.00  0.00     0.135 A 
ATOM     94  F   UNL A   1      48.585  27.972  27.509  1.00  0.00    -0.206 F 
ATOM     95  C   UNL A   1      50.444  27.300  28.774  1.00  0.00     0.059 A 
ATOM     96  C   UNL A   1      50.159  26.680  31.106  1.00  0.00     0.059 A 
ATOM     97  F   UNL A   1      48.021  26.734  32.071  1.00  0.00    -0.206 F 
ATOM     98  C   UNL A   1      50.976  26.867  29.991  1.00  0.00     0.060 A 
BRANCH  98  99
ATOM     99  S   UNL A   1      52.755  26.592  30.109  1.00  0.00     0.124 S 
ATOM    100  O   UNL A   1      52.826  25.547  31.125  1.00  0.00    -0.237 OA
ATOM    101  O   UNL A   1      53.102  26.181  28.751  1.00  0.00    -0.237 OA
ATOM    102  O   UNL A   1      53.274  27.896  30.513  1.00  0.00    -0.744 OA
ENDBRANCH  98  99
ENDBRANCH  66  91
ENDBRANCH  40  41
ENDBRANCH  32  35
ENDBRANCH  30  31
ENDBRANCH  29  30
ENDBRANCH   1  29
TORSDOF 19
ENDMDL
MODEL 2
REMARK VINA RESULT:     -11.7      2.545      3.098
REMARK SMILES COc1ccc(-c2noc(CC(=O)NCCCCNC(=O)c3ccc(-c4c5nc(c(-c6c(F)cc(S(=O)(=O)[O-])cc6F)c6ccc([nH]6)c(-c6c(F)cc(S(=O)(=O)[O-])cc6F)c6nc(c(-c7c(F)cc(S(=O)(=O)[O-])cc7F)c7ccc4[nH]7)C=C6)C=C5)cc3)c2-c2ccc(OC)cc2)cc1
REMARK SMILES IDX 16 1 15 2 14 3 12 4 13 5 11 7 10 8 7 9 8 10 88 11 9 12 6 13
REMARK SMILES IDX 3 14 4 15 98 16 5 17 97 18 2 19 1 20 89 21 90 22 96 23 91 24
REMARK SMILES IDX 95 25 92 26 93 27 94 28 17 29 18 30 19 31 20 32 21 34 22 35
REMARK SMILES IDX 23 36 87 37 24 38 86 39 25 40 26 41 27 42 80 43 28 44 85 45
REMARK SMILES IDX 79 46 81 47 29 48 84 49 78 50 77 51 30 53 64 54 43 55 63 56
REMARK SMILES IDX 44 57 47 58 62 59 82 60 45 61 46 62 61 64 83 65 48 66 31 67
REMARK SMILES IDX 32 68 41 69 33 70 34 71 40 72 42 73 35 74 36 75 37 76 38 77
REMARK SMILES IDX 39 78 65 79 66 80 75 81 67 82 68 83 74 84 76 85 69 86 70 87
REMARK SMILES IDX 71 88 72 89 73 90 49 91 50 92 59 93 51 94 52 95 58 96 60 97
REMARK SMILES IDX 53 98 54 99 55 100 56 101 57 102
REMARK H PARENT 14 6 19 33 81 52 47 63
REMARK Flexibility Score: inf
ROOT
ATOM      1  C   UNL A   1      32.366  28.890  24.136  1.00  0.00     0.023 C 
ENDROOT
BRANCH   1   2
ATOM      2  C   UNL A   1      31.602  27.661  23.644  1.00  0.00     0.116 C 
BRANCH   2   3
ATOM      3  N   UNL A   1      32.059  27.243  22.334  1.00  0.00    -0.356 N 
ATOM      4  C   UNL A   1      33.090  26.404  22.018  1.00  0.00     0.227 C 
ATOM      5  O   UNL A   1      33.349  26.216  20.826  1.00  0.00    -0.275 OA
ATOM      6  H   UNL A   1      31.561  27.612  21.571  1.00  0.00     0.163 HD
BRANCH   4   7
ATOM      7  C   UNL A   1      33.823  25.646  23.105  1.00  0.00     0.179 C 
BRANCH   7   8
ATOM      8  C   UNL A   1      33.321  24.261  23.272  1.00  0.00     0.154 A 
ATOM      9  C   UNL A   1      32.789  22.145  23.665  1.00  0.00     0.122 A 
ATOM     10  N   UNL A   1      31.751  22.676  23.006  1.00  0.00    -0.079 NA
ATOM     11  C   UNL A   1      33.821  23.111  23.846  1.00  0.00     0.053 A 
ATOM     12  O   UNL A   1      32.079  24.001  22.779  1.00  0.00    -0.360 OA
BRANCH   9  13
ATOM     13  C   UNL A   1      32.785  20.770  24.139  1.00  0.00     0.005 A 
ATOM     14  C   UNL A   1      32.635  18.117  25.028  1.00  0.00     0.118 A 
ATOM     15  C   UNL A   1      32.888  19.150  25.933  1.00  0.00     0.047 A 
ATOM     16  C   UNL A   1      32.435  18.410  23.680  1.00  0.00     0.047 A 
ATOM     17  C   UNL A   1      32.980  20.474  25.491  1.00  0.00     0.014 A 
ATOM     18  C   UNL A   1      32.513  19.732  23.237  1.00  0.00     0.014 A 
BRANCH  14  19
ATOM     19  O   UNL A   1      32.555  16.861  25.564  1.00  0.00    -0.497 OA
ATOM     20  C   UNL A   1      33.713  16.055  25.363  1.00  0.00     0.278 C 
ENDBRANCH  14  19
ENDBRANCH   9  13
BRANCH  11  21
ATOM     21  C   UNL A   1      35.141  22.960  24.425  1.00  0.00    -0.012 A 
ATOM     22  C   UNL A   1      35.437  23.588  25.641  1.00  0.00     0.013 A 
ATOM     23  C   UNL A   1      36.132  22.212  23.784  1.00  0.00     0.013 A 
ATOM     24  C   UNL A   1      36.702  23.450  26.214  1.00  0.00     0.047 A 
ATOM     25  C   UNL A   1      37.402  22.083  24.359  1.00  0.00     0.047 A 
ATOM     26  C   UNL A   1      37.690  22.697  25.579  1.00  0.00     0.118 A 
BRANCH  26  27
ATOM     27  O   UNL A   1      38.881  22.648  26.246  1.00  0.00    -0.497 OA
ATOM     28  C   UNL A   1      39.577  21.410  26.235  1.00  0.00     0.278 C 
ENDBRANCH  26  27
ENDBRANCH  11  21
ENDBRANCH   7   8
ENDBRANCH   4   7
ENDBRANCH   2   3
ENDBRANCH   1   2
BRANCH   1  29
ATOM     29  C   UNL A   1      33.664  28.570  24.880  1.00  0.00     0.023 C 
BRANCH  29  30
ATOM     30  C   UNL A   1      33.635  28.841  26.381  1.00  0.00     0.116 C 
BRANCH  30  31
ATOM     31  N   UNL A   1      33.602  30.260  26.710  1.00  0.00    -0.352 N 
ATOM     32  C   UNL A   1      34.487  30.977  27.481  1.00  0.00     0.251 C 
ATOM     33  H   UNL A   1      32.850  30.771  26.332  1.00  0.00     0.163 HD
ATOM     34  O   UNL A   1      34.266  32.154  27.750  1.00  0.00    -0.269 OA
BRANCH  32  35
ATOM     35  C   UNL A   1      35.684  30.298  28.018  1.00  0.00     0.039 A 
ATOM     36  C   UNL A   1      36.868  30.334  27.280  1.00  0.00     0.014 A 
ATOM     37  C   UNL A   1      35.650  29.696  29.279  1.00  0.00     0.014 A 
ATOM     38  C   UNL A   1      38.048  29.850  27.848  1.00  0.00     0.010 A 
ATOM     39  C   UNL A   1      36.836  29.262  29.864  1.00  0.00     0.010 A 
ATOM     40  C   UNL A   1      38.049  29.359  29.165  1.00  0.00    -0.014 A 
BRANCH  40  41
ATOM     41  C   UNL A   1      39.313  29.003  29.857  1.00  0.00     0.031 A 
ATOM     42  C   UNL A   1      39.796  29.819  31.021  1.00  0.00     0.074 A 
ATOM     43  C   UNL A   1      40.068  27.996  29.373  1.00  0.00     0.049 A 
ATOM     44  N   UNL A   1      40.932  29.745  31.664  1.00  0.00    -0.248 NA
ATOM     45  C   UNL A   1      38.892  30.870  31.514  1.00  0.00     0.031 C 
ATOM     46  C   UNL A   1      39.724  27.154  28.223  1.00  0.00     0.029 A 
ATOM     47  N   UNL A   1      41.293  27.521  29.771  1.00  0.00    -0.354 N 
ATOM     48  C   UNL A   1      40.884  30.739  32.633  1.00  0.00     0.074 A 
ATOM     49  C   UNL A   1      39.623  31.431  32.468  1.00  0.00     0.031 C 
ATOM     50  C   UNL A   1      40.709  26.264  28.016  1.00  0.00     0.029 A 
ATOM     51  C   UNL A   1      41.772  26.498  28.988  1.00  0.00     0.049 A 
ATOM     52  H   UNL A   1      41.783  27.880  30.546  1.00  0.00     0.167 HD
ATOM     53  C   UNL A   1      41.799  31.032  33.587  1.00  0.00     0.037 A 
ATOM     54  C   UNL A   1      42.944  25.836  29.032  1.00  0.00     0.037 A 
ATOM     55  C   UNL A   1      43.042  30.328  33.760  1.00  0.00     0.049 A 
ATOM     56  C   UNL A   1      43.959  26.210  30.077  1.00  0.00     0.074 A 
ATOM     57  C   UNL A   1      44.011  30.520  34.731  1.00  0.00     0.029 A 
ATOM     58  N   UNL A   1      43.490  29.296  32.949  1.00  0.00    -0.354 N 
ATOM     59  N   UNL A   1      43.877  27.122  31.015  1.00  0.00    -0.248 NA
ATOM     60  C   UNL A   1      45.230  25.471  30.066  1.00  0.00     0.031 C 
ATOM     61  C   UNL A   1      45.060  29.626  34.485  1.00  0.00     0.029 A 
ATOM     62  C   UNL A   1      44.728  28.856  33.382  1.00  0.00     0.049 A 
ATOM     63  H   UNL A   1      42.998  28.931  32.178  1.00  0.00     0.167 HD
ATOM     64  C   UNL A   1      45.077  27.057  31.713  1.00  0.00     0.074 A 
ATOM     65  C   UNL A   1      45.863  26.006  31.101  1.00  0.00     0.031 C 
ATOM     66  C   UNL A   1      45.494  27.804  32.763  1.00  0.00     0.037 A 
BRANCH  53  67
ATOM     67  C   UNL A   1      41.486  32.152  34.536  1.00  0.00     0.058 A 
ATOM     68  C   UNL A   1      41.956  33.454  34.304  1.00  0.00     0.135 A 
ATOM     69  C   UNL A   1      40.657  31.941  35.650  1.00  0.00     0.135 A 
ATOM     70  F   UNL A   1      42.765  33.704  33.262  1.00  0.00    -0.206 F 
ATOM     71  C   UNL A   1      41.625  34.507  35.149  1.00  0.00     0.059 A 
ATOM     72  C   UNL A   1      40.295  32.984  36.497  1.00  0.00     0.059 A 
ATOM     73  F   UNL A   1      40.185  30.714  35.917  1.00  0.00    -0.206 F 
ATOM     74  C   UNL A   1      40.791  34.263  36.242  1.00  0.00     0.060 A 
BRANCH  74  75
ATOM     75  S   UNL A   1      40.348  35.648  37.313  1.00  0.00     0.124 S 
ATOM     76  O   UNL A   1      39.401  35.017  38.226  1.00  0.00    -0.237 OA
ATOM     77  O   UNL A   1      41.635  36.019  37.892  1.00  0.00    -0.237 OA
ATOM     78  O   UNL A   1      39.776  36.622  36.389  1.00  0.00    -0.744 OA
ENDBRANCH  74  75
ENDBRANCH  53  67
BRANCH  54  79
ATOM     79  C   UNL A   1      43.237  24.760  28.050  1.00  0.00     0.058 A 
ATOM     80  C   UNL A   1      42.741  23.462  28.237  1.00  0.00     0.135 A 
ATOM     81  C   UNL A   1      44.036  24.999  26.921  1.00  0.00     0.135 A 
ATOM     82  F   UNL A   1      41.978  23.183  29.306  1.00  0.00    -0.206 F 
ATOM     83  C   UNL A   1      43.048  22.430  27.357  1.00  0.00     0.059 A 
ATOM     84  C   UNL A   1      44.339  23.989  26.013  1.00  0.00     0.059 A 
ATOM     85  F   UNL A   1      44.521  26.229  26.689  1.00  0.00    -0.206 F 
ATOM     86  C   UNL A   1      43.854  22.703  26.249  1.00  0.00     0.060 A 
BRANCH  86  87
ATOM     87  S   UNL A   1      44.237  21.364  25.100  1.00  0.00     0.124 S 
ATOM     88  O   UNL A   1      43.248  20.362  25.480  1.00  0.00    -0.237 OA
ATOM     89  O   UNL A   1      44.034  22.001  23.803  1.00  0.00    -0.237 OA
ATOM     90  O   UNL A   1      45.624  21.038  25.419  1.00  0.00    -0.744 OA
ENDBRANCH  86  87
ENDBRANCH  54  79
BRANCH  66  91
ATOM     91  C   UNL A   1      46.853  27.507  33.327  1.00  0.00     0.058 A 
ATOM     92  C   UNL A   1      47.033  26.533  34.321  1.00  0.00     0.135 A 
ATOM     93  C   UNL A   1      47.993  28.156  32.827  1.00  0.00     0.135 A 
ATOM     94  F   UNL A   1      45.973  25.893  34.839  1.00  0.00    -0.206 F 
ATOM     95  C   UNL A   1      48.297  26.218  34.807  1.00  0.00     0.059 A 
ATOM     96  C   UNL A   1      49.268  27.842  33.282  1.00  0.00     0.059 A 
ATOM     97  F   UNL A   1      47.873  29.092  31.870  1.00  0.00    -0.206 F 
ATOM     98  C   UNL A   1      49.410  26.875  34.277  1.00  0.00     0.060 A 
BRANCH  98  99
ATOM     99  S   UNL A   1      51.050  26.417  34.875  1.00  0.00     0.124 S 
ATOM    100  O   UNL A   1      50.844  26.403  36.320  1.00  0.00    -0.237 OA
ATOM    101  O   UNL A   1      51.260  25.113  34.252  1.00  0.00    -0.237 OA
ATOM    102  O   UNL A   1      51.906  27.489  34.374  1.00  0.00    -0.744 OA
ENDBRANCH  98  99
ENDBRANCH  66  91
ENDBRANCH  40  41
ENDBRANCH  32  35
ENDBRANCH  30  31
ENDBRANCH  29  30
ENDBRANCH   1  29
TORSDOF 19
ENDMDL
MODEL 3
REMARK VINA RESULT:     -11.4      2.848      4.424
REMARK SMILES COc1ccc(-c2noc(CC(=O)NCCCCNC(=O)c3ccc(-c4c5nc(c(-c6c(F)cc(S(=O)(=O)[O-])cc6F)c6ccc([nH]6)c(-c6c(F)cc(S(=O)(=O)[O-])cc6F)c6nc(c(-c7c(F)cc(S(=O)(=O)[O-])cc7F)c7ccc4[nH]7)C=C6)C=C5)cc3)c2-c2ccc(OC)cc2)cc1
REMARK SMILES IDX 16 1 15 2 14 3 12 4 13 5 11 7 10 8 7 9 8 10 88 11 9 12 6 13
REMARK SMILES IDX 3 14 4 15 98 16 5 17 97 18 2 19 1 20 89 21 90 22 96 23 91 24
REMARK SMILES IDX 95 25 92 26 93 27 94 28 17 29 18 30 19 31 20 32 21 34 22 35
REMARK SMILES IDX 23 36 87 37 24 38 86 39 25 40 26 41 27 42 80 43 28 44 85 45
REMARK SMILES IDX 79 46 81 47 29 48 84 49 78 50 77 51 30 53 64 54 43 55 63 56
REMARK SMILES IDX 44 57 47 58 62 59 82 60 45 61 46 62 61 64 83 65 48 66 31 67
REMARK SMILES IDX 32 68 41 69 33 70 34 71 40 72 42 73 35 74 36 75 37 76 38 77
REMARK SMILES IDX 39 78 65 79 66 80 75 81 67 82 68 83 74 84 76 85 69 86 70 87
REMARK SMILES IDX 71 88 72 89 73 90 49 91 50 92 59 93 51 94 52 95 58 96 60 97
REMARK SMILES IDX 53 98 54 99 55 100 56 101 57 102
REMARK H PARENT 14 6 19 33 81 52 47 63
REMARK Flexibility Score: inf
ROOT
ATOM      1  C   UNL A   1      31.384  28.599  25.042  1.00  0.00     0.023 C 
ENDROOT
BRANCH   1   2
ATOM      2  C   UNL A   1      30.728  27.311  24.543  1.00  0.00     0.116 C 
BRANCH   2   3
ATOM      3  N   UNL A   1      30.408  26.421  25.639  1.00  0.00    -0.356 N 
ATOM      4  C   UNL A   1      30.585  25.068  25.721  1.00  0.00     0.227 C 
ATOM      5  O   UNL A   1      30.194  24.485  26.735  1.00  0.00    -0.275 OA
ATOM      6  H   UNL A   1      30.009  26.846  26.432  1.00  0.00     0.163 HD
BRANCH   4   7
ATOM      7  C   UNL A   1      31.339  24.328  24.635  1.00  0.00     0.179 C 
BRANCH   7   8
ATOM      8  C   UNL A   1      32.789  24.217  24.922  1.00  0.00     0.154 A 
ATOM      9  C   UNL A   1      34.929  23.792  25.311  1.00  0.00     0.122 A 
ATOM     10  N   UNL A   1      34.801  25.125  25.340  1.00  0.00    -0.079 NA
ATOM     11  C   UNL A   1      33.673  23.168  25.063  1.00  0.00     0.053 A 
ATOM     12  O   UNL A   1      33.468  25.387  25.079  1.00  0.00    -0.360 OA
BRANCH   9  13
ATOM     13  C   UNL A   1      36.215  23.133  25.481  1.00  0.00     0.005 A 
ATOM     14  C   UNL A   1      38.752  21.967  25.724  1.00  0.00     0.118 A 
ATOM     15  C   UNL A   1      37.759  21.343  24.964  1.00  0.00     0.047 A 
ATOM     16  C   UNL A   1      38.484  23.186  26.346  1.00  0.00     0.047 A 
ATOM     17  C   UNL A   1      36.487  21.914  24.853  1.00  0.00     0.014 A 
ATOM     18  C   UNL A   1      37.219  23.764  26.227  1.00  0.00     0.014 A 
BRANCH  14  19
ATOM     19  O   UNL A   1      39.963  21.332  25.761  1.00  0.00    -0.497 OA
ATOM     20  C   UNL A   1      39.897  19.948  26.095  1.00  0.00     0.278 C 
ENDBRANCH  14  19
ENDBRANCH   9  13
BRANCH  11  21
ATOM     21  C   UNL A   1      33.327  21.761  25.027  1.00  0.00    -0.012 A 
ATOM     22  C   UNL A   1      32.937  21.176  23.816  1.00  0.00     0.013 A 
ATOM     23  C   UNL A   1      33.358  20.978  26.184  1.00  0.00     0.013 A 
ATOM     24  C   UNL A   1      32.604  19.823  23.764  1.00  0.00     0.047 A 
ATOM     25  C   UNL A   1      33.016  19.622  26.129  1.00  0.00     0.047 A 
ATOM     26  C   UNL A   1      32.643  19.037  24.917  1.00  0.00     0.118 A 
BRANCH  26  27
ATOM     27  O   UNL A   1      32.291  17.731  24.725  1.00  0.00    -0.497 OA
ATOM     28  C   UNL A   1      33.185  16.925  23.972  1.00  0.00     0.278 C 
ENDBRANCH  26  27
ENDBRANCH  11  21
ENDBRANCH   7   8
ENDBRANCH   4   7
ENDBRANCH   2   3
ENDBRANCH   1   2
BRANCH   1  29
ATOM     29  C   UNL A   1      32.880  28.705  24.735  1.00  0.00     0.023 C 
BRANCH  29  30
ATOM     30  C   UNL A   1      33.769  29.003  25.939  1.00  0.00     0.116 C 
BRANCH  30  31
ATOM     31  N   UNL A   1      33.608  30.356  26.453  1.00  0.00    -0.352 N 
ATOM     32  C   UNL A   1      34.367  31.005  27.399  1.00  0.00     0.251 C 
ATOM     33  H   UNL A   1      32.860  30.874  26.074  1.00  0.00     0.163 HD
ATOM     34  O   UNL A   1      34.041  32.118  27.802  1.00  0.00    -0.269 OA
BRANCH  32  35
ATOM     35  C   UNL A   1      35.554  30.324  27.955  1.00  0.00     0.039 A 
ATOM     36  C   UNL A   1      36.754  30.371  27.243  1.00  0.00     0.014 A 
ATOM     37  C   UNL A   1      35.495  29.711  29.210  1.00  0.00     0.014 A 
ATOM     38  C   UNL A   1      37.923  29.885  27.832  1.00  0.00     0.010 A 
ATOM     39  C   UNL A   1      36.670  29.275  29.816  1.00  0.00     0.010 A 
ATOM     40  C   UNL A   1      37.897  29.382  29.144  1.00  0.00    -0.014 A 
BRANCH  40  41
ATOM     41  C   UNL A   1      39.147  29.023  29.860  1.00  0.00     0.031 A 
ATOM     42  C   UNL A   1      39.589  29.816  31.056  1.00  0.00     0.074 A 
ATOM     43  C   UNL A   1      39.927  28.038  29.371  1.00  0.00     0.049 A 
ATOM     44  N   UNL A   1      40.709  29.739  31.726  1.00  0.00    -0.248 NA
ATOM     45  C   UNL A   1      38.660  30.843  31.551  1.00  0.00     0.031 C 
ATOM     46  C   UNL A   1      39.622  27.221  28.192  1.00  0.00     0.029 A 
ATOM     47  N   UNL A   1      41.146  27.567  29.789  1.00  0.00    -0.354 N 
ATOM     48  C   UNL A   1      40.624  30.707  32.719  1.00  0.00     0.074 A 
ATOM     49  C   UNL A   1      39.360  31.388  32.538  1.00  0.00     0.031 C 
ATOM     50  C   UNL A   1      40.623  26.348  27.988  1.00  0.00     0.029 A 
ATOM     51  C   UNL A   1      41.658  26.569  28.994  1.00  0.00     0.049 A 
ATOM     52  H   UNL A   1      41.611  27.912  30.586  1.00  0.00     0.167 HD
ATOM     53  C   UNL A   1      41.510  30.986  33.704  1.00  0.00     0.037 A 
ATOM     54  C   UNL A   1      42.837  25.920  29.052  1.00  0.00     0.037 A 
ATOM     55  C   UNL A   1      42.757  30.292  33.892  1.00  0.00     0.049 A 
ATOM     56  C   UNL A   1      43.820  26.279  30.133  1.00  0.00     0.074 A 
ATOM     57  C   UNL A   1      43.698  30.471  34.892  1.00  0.00     0.029 A 
ATOM     58  N   UNL A   1      43.238  29.287  33.066  1.00  0.00    -0.354 N 
ATOM     59  N   UNL A   1      43.702  27.167  31.091  1.00  0.00    -0.248 NA
ATOM     60  C   UNL A   1      45.099  25.556  30.136  1.00  0.00     0.031 C 
ATOM     61  C   UNL A   1      44.763  29.596  34.652  1.00  0.00     0.029 A 
ATOM     62  C   UNL A   1      44.470  28.850  33.522  1.00  0.00     0.049 A 
ATOM     63  H   UNL A   1      42.771  28.936  32.274  1.00  0.00     0.167 HD
ATOM     64  C   UNL A   1      44.884  27.098  31.818  1.00  0.00     0.074 A 
ATOM     65  C   UNL A   1      45.699  26.072  31.201  1.00  0.00     0.031 C 
ATOM     66  C   UNL A   1      45.265  27.824  32.897  1.00  0.00     0.037 A 
BRANCH  53  67
ATOM     67  C   UNL A   1      41.159  32.078  34.672  1.00  0.00     0.058 A 
ATOM     68  C   UNL A   1      40.467  31.801  35.860  1.00  0.00     0.135 A 
ATOM     69  C   UNL A   1      41.571  33.402  34.444  1.00  0.00     0.135 A 
ATOM     70  F   UNL A   1      40.037  30.556  36.117  1.00  0.00    -0.206 F 
ATOM     71  C   UNL A   1      40.185  32.799  36.787  1.00  0.00     0.059 A 
ATOM     72  C   UNL A   1      41.319  34.412  35.366  1.00  0.00     0.059 A 
ATOM     73  F   UNL A   1      42.232  33.719  33.320  1.00  0.00    -0.206 F 
ATOM     74  C   UNL A   1      40.619  34.102  36.532  1.00  0.00     0.060 A 
BRANCH  74  75
ATOM     75  S   UNL A   1      40.270  35.380  37.759  1.00  0.00     0.124 S 
ATOM     76  O   UNL A   1      41.458  35.307  38.602  1.00  0.00    -0.237 OA
ATOM     77  O   UNL A   1      40.151  36.579  36.935  1.00  0.00    -0.237 OA
ATOM     78  O   UNL A   1      39.030  34.925  38.380  1.00  0.00    -0.744 OA
ENDBRANCH  74  75
ENDBRANCH  53  67
BRANCH  54  79
ATOM     79  C   UNL A   1      43.168  24.873  28.051  1.00  0.00     0.058 A 
ATOM     80  C   UNL A   1      42.894  23.522  28.308  1.00  0.00     0.135 A 
ATOM     81  C   UNL A   1      43.786  25.196  26.833  1.00  0.00     0.135 A 
ATOM     82  F   UNL A   1      42.310  23.164  29.463  1.00  0.00    -0.206 F 
ATOM     83  C   UNL A   1      43.245  22.523  27.406  1.00  0.00     0.059 A 
ATOM     84  C   UNL A   1      44.126  24.217  25.905  1.00  0.00     0.059 A 
ATOM     85  F   UNL A   1      44.054  26.477  26.534  1.00  0.00    -0.206 F 
ATOM     86  C   UNL A   1      43.866  22.881  26.208  1.00  0.00     0.060 A 
BRANCH  86  87
ATOM     87  S   UNL A   1      44.306  21.582  25.033  1.00  0.00     0.124 S 
ATOM     88  O   UNL A   1      45.683  21.296  25.418  1.00  0.00    -0.237 OA
ATOM     89  O   UNL A   1      43.329  20.542  25.340  1.00  0.00    -0.237 OA
ATOM     90  O   UNL A   1      44.131  22.232  23.738  1.00  0.00    -0.744 OA
ENDBRANCH  86  87
ENDBRANCH  54  79
BRANCH  66  91
ATOM     91  C   UNL A   1      46.612  27.528  33.488  1.00  0.00     0.058 A 
ATOM     92  C   UNL A   1      46.777  26.538  34.468  1.00  0.00     0.135 A 
ATOM     93  C   UNL A   1      47.757  28.196  33.028  1.00  0.00     0.135 A 
ATOM     94  F   UNL A   1      45.710  25.878  34.948  1.00  0.00    -0.206 F 
ATOM     95  C   UNL A   1      48.031  26.225  34.979  1.00  0.00     0.059 A 
ATOM     96  C   UNL A   1      49.025  27.885  33.509  1.00  0.00     0.059 A 
ATOM     97  F   UNL A   1      47.652  29.148  32.087  1.00  0.00    -0.206 F 
ATOM     98  C   UNL A   1      49.151  26.901  34.490  1.00  0.00     0.060 A 
BRANCH  98  99
ATOM     99  S   UNL A   1      50.780  26.447  35.120  1.00  0.00     0.124 S 
ATOM    100  O   UNL A   1      51.636  27.424  34.455  1.00  0.00    -0.237 OA
ATOM    101  O   UNL A   1      50.620  26.621  36.561  1.00  0.00    -0.237 OA
ATOM    102  O   UNL A   1      50.942  25.065  34.677  1.00  0.00    -0.744 OA
ENDBRANCH  98  99
ENDBRANCH  66  91
ENDBRANCH  40  41
ENDBRANCH  32  35
ENDBRANCH  30  31
ENDBRANCH  29  30
ENDBRANCH   1  29
TORSDOF 19
ENDMDL
