MODEL 1
REMARK VINA RESULT:     -10.9      0.000      0.000
REMARK SMILES CSCC[C@H](C(=O)NCCCCNC(=O)c1ccc(-c2c3nc(c(-c4c(F)cc(S(=O)(=O)[O-])cc4F)c4ccc([nH]4)c(-c4c(F)cc(S(=O)(=O)[O-])cc4F)c4nc(c(-c5c(F)cc(S(=O)(=O)[O-])cc5F)c5ccc2[nH]5)C=C4)C=C3)cc1)N1C(=O)/C(=C/c2ccc3ncccc3c2)SC1=S
REMARK SMILES IDX 10 1 9 2 8 3 6 4 7 5 5 7 4 8 3 9 2 10 1 11 82 12 83 13 98 14
REMARK SMILES IDX 84 15 85 16 97 17 99 18 86 19 87 20 88 21 96 22 89 23 95 24
REMARK SMILES IDX 90 25 94 26 91 27 93 28 92 29 11 30 12 31 13 32 14 33 15 35
REMARK SMILES IDX 16 36 17 37 81 38 18 39 80 40 19 41 20 42 21 43 74 44 22 45
REMARK SMILES IDX 79 46 73 47 75 48 23 49 78 50 72 51 71 52 24 54 58 55 37 56
REMARK SMILES IDX 57 57 38 58 41 59 56 60 76 61 39 62 40 63 55 65 77 66 42 67
REMARK SMILES IDX 25 68 26 69 35 70 27 71 28 72 34 73 36 74 29 75 30 76 31 77
REMARK SMILES IDX 32 78 33 79 59 80 60 81 69 82 61 83 62 84 68 85 70 86 63 87
REMARK SMILES IDX 64 88 65 89 66 90 67 91 43 92 44 93 53 94 45 95 46 96 52 97
REMARK SMILES IDX 54 98 47 99 48 100 49 101 50 102 51 103
REMARK H PARENT 8 6 13 34 75 53 41 64
REMARK Flexibility Score: inf
ROOT
ATOM      1  C   UNL A   1      38.651  20.761  25.044  1.00  0.00     0.023 C 
ENDROOT
BRANCH   1   2
ATOM      2  C   UNL A   1      37.169  21.138  24.995  1.00  0.00     0.116 C 
BRANCH   2   3
ATOM      3  N   UNL A   1      36.268  20.039  25.256  1.00  0.00    -0.354 N 
ATOM      4  C   UNL A   1      34.921  20.033  25.030  1.00  0.00     0.243 C 
ATOM      5  O   UNL A   1      34.433  18.999  24.562  1.00  0.00    -0.273 OA
ATOM      6  H   UNL A   1      36.662  19.217  25.630  1.00  0.00     0.163 HD
BRANCH   4   7
ATOM      7  C   UNL A   1      33.998  21.221  25.409  1.00  0.00     0.182 C 
BRANCH   7   8
ATOM      8  C   UNL A   1      34.025  21.885  26.807  1.00  0.00     0.046 C 
BRANCH   8   9
ATOM      9  C   UNL A   1      32.870  22.516  27.618  1.00  0.00     0.072 C 
BRANCH   9  10
ATOM     10  S   UNL A   1      31.587  23.630  26.975  1.00  0.00    -0.165 SA
ATOM     11  C   UNL A   1      30.443  22.501  26.093  1.00  0.00     0.085 C 
ENDBRANCH   9  10
ENDBRANCH   8   9
ENDBRANCH   7   8
BRANCH   7  12
ATOM     12  N   UNL A   1      33.664  22.136  24.312  1.00  0.00    -0.280 N 
ATOM     13  C   UNL A   1      34.197  23.393  24.338  1.00  0.00     0.266 C 
ATOM     14  C   UNL A   1      32.789  21.902  23.272  1.00  0.00     0.149 C 
ATOM     15  O   UNL A   1      35.255  23.711  24.870  1.00  0.00    -0.268 OA
ATOM     16  C   UNL A   1      33.290  24.327  23.635  1.00  0.00     0.081 C 
ATOM     17  S   UNL A   1      32.296  23.452  22.559  1.00  0.00    -0.054 SA
ATOM     18  S   UNL A   1      32.179  20.449  22.723  1.00  0.00    -0.052 S 
ATOM     19  C   UNL A   1      33.264  25.606  24.023  1.00  0.00     0.029 C 
BRANCH  19  20
ATOM     20  C   UNL A   1      32.409  26.715  23.613  1.00  0.00    -0.024 A 
ATOM     21  C   UNL A   1      33.075  27.819  23.083  1.00  0.00     0.010 A 
ATOM     22  C   UNL A   1      31.023  26.769  23.782  1.00  0.00     0.018 A 
ATOM     23  C   UNL A   1      32.360  28.910  22.602  1.00  0.00     0.029 A 
ATOM     24  C   UNL A   1      30.299  27.867  23.271  1.00  0.00     0.001 A 
ATOM     25  C   UNL A   1      30.978  28.932  22.637  1.00  0.00     0.070 A 
ATOM     26  C   UNL A   1      28.899  27.938  23.324  1.00  0.00     0.012 A 
ATOM     27  N   UNL A   1      30.343  29.956  22.047  1.00  0.00    -0.256 NA
ATOM     28  C   UNL A   1      28.235  28.983  22.688  1.00  0.00     0.021 A 
ATOM     29  C   UNL A   1      28.996  29.948  22.055  1.00  0.00     0.112 A 
ENDBRANCH  19  20
ENDBRANCH   7  12
ENDBRANCH   4   7
ENDBRANCH   2   3
ENDBRANCH   1   2
BRANCH   1  30
ATOM     30  C   UNL A   1      39.463  21.503  26.102  1.00  0.00     0.023 C 
BRANCH  30  31
ATOM     31  C   UNL A   1      40.460  20.661  26.894  1.00  0.00     0.116 C 
BRANCH  31  32
ATOM     32  N   UNL A   1      41.212  19.693  26.104  1.00  0.00    -0.352 N 
ATOM     33  C   UNL A   1      42.500  19.801  25.617  1.00  0.00     0.251 C 
ATOM     34  H   UNL A   1      40.741  18.855  25.890  1.00  0.00     0.163 HD
ATOM     35  O   UNL A   1      42.998  18.891  24.966  1.00  0.00    -0.269 OA
BRANCH  33  36
ATOM     36  C   UNL A   1      43.239  21.065  25.833  1.00  0.00     0.039 A 
ATOM     37  C   UNL A   1      43.381  21.950  24.763  1.00  0.00     0.014 A 
ATOM     38  C   UNL A   1      43.661  21.425  27.114  1.00  0.00     0.014 A 
ATOM     39  C   UNL A   1      43.848  23.245  25.001  1.00  0.00     0.010 A 
ATOM     40  C   UNL A   1      44.033  22.743  27.362  1.00  0.00     0.010 A 
ATOM     41  C   UNL A   1      44.118  23.673  26.312  1.00  0.00    -0.014 A 
BRANCH  41  42
ATOM     42  C   UNL A   1      44.471  25.088  26.610  1.00  0.00     0.031 A 
ATOM     43  C   UNL A   1      45.890  25.562  26.439  1.00  0.00     0.074 A 
ATOM     44  C   UNL A   1      43.536  25.925  27.105  1.00  0.00     0.049 A 
ATOM     45  N   UNL A   1      46.408  26.732  26.709  1.00  0.00    -0.248 NA
ATOM     46  C   UNL A   1      46.861  24.582  25.924  1.00  0.00     0.031 C 
ATOM     47  C   UNL A   1      42.138  25.576  27.373  1.00  0.00     0.029 A 
ATOM     48  N   UNL A   1      43.619  27.245  27.479  1.00  0.00    -0.354 N 
ATOM     49  C   UNL A   1      47.762  26.624  26.416  1.00  0.00     0.074 A 
ATOM     50  C   UNL A   1      47.998  25.257  26.007  1.00  0.00     0.031 C 
ATOM     51  C   UNL A   1      41.491  26.658  27.834  1.00  0.00     0.029 A 
ATOM     52  C   UNL A   1      42.432  27.768  27.939  1.00  0.00     0.049 A 
ATOM     53  H   UNL A   1      44.451  27.768  27.424  1.00  0.00     0.167 HD
ATOM     54  C   UNL A   1      48.718  27.582  26.458  1.00  0.00     0.037 A 
ATOM     55  C   UNL A   1      42.135  29.001  28.401  1.00  0.00     0.037 A 
ATOM     56  C   UNL A   1      48.472  28.948  26.838  1.00  0.00     0.049 A 
ATOM     57  C   UNL A   1      43.218  30.047  28.442  1.00  0.00     0.074 A 
ATOM     58  C   UNL A   1      49.360  30.009  26.846  1.00  0.00     0.029 A 
ATOM     59  N   UNL A   1      47.254  29.441  27.282  1.00  0.00    -0.354 N 
ATOM     60  N   UNL A   1      44.476  29.946  28.086  1.00  0.00    -0.248 NA
ATOM     61  C   UNL A   1      42.839  31.377  28.942  1.00  0.00     0.031 C 
ATOM     62  C   UNL A   1      48.694  31.131  27.348  1.00  0.00     0.029 A 
ATOM     63  C   UNL A   1      47.374  30.786  27.593  1.00  0.00     0.049 A 
ATOM     64  H   UNL A   1      46.427  28.915  27.363  1.00  0.00     0.167 HD
ATOM     65  C   UNL A   1      45.032  31.207  28.287  1.00  0.00     0.074 A 
ATOM     66  C   UNL A   1      43.968  32.055  28.784  1.00  0.00     0.031 C 
ATOM     67  C   UNL A   1      46.304  31.623  28.077  1.00  0.00     0.037 A 
BRANCH  54  68
ATOM     68  C   UNL A   1      50.121  27.188  26.078  1.00  0.00     0.058 A 
ATOM     69  C   UNL A   1      51.041  26.715  27.029  1.00  0.00     0.135 A 
ATOM     70  C   UNL A   1      50.539  27.246  24.739  1.00  0.00     0.135 A 
ATOM     71  F   UNL A   1      50.702  26.653  28.327  1.00  0.00    -0.206 F 
ATOM     72  C   UNL A   1      52.332  26.343  26.670  1.00  0.00     0.059 A 
ATOM     73  C   UNL A   1      51.815  26.847  24.352  1.00  0.00     0.059 A 
ATOM     74  F   UNL A   1      49.702  27.691  23.788  1.00  0.00    -0.206 F 
ATOM     75  C   UNL A   1      52.709  26.411  25.328  1.00  0.00     0.060 A 
BRANCH  75  76
ATOM     76  S   UNL A   1      54.384  25.910  24.881  1.00  0.00     0.124 S 
ATOM     77  O   UNL A   1      55.170  26.553  25.931  1.00  0.00    -0.237 OA
ATOM     78  O   UNL A   1      54.304  24.455  24.950  1.00  0.00    -0.237 OA
ATOM     79  O   UNL A   1      54.559  26.464  23.542  1.00  0.00    -0.744 OA
ENDBRANCH  75  76
ENDBRANCH  54  68
BRANCH  55  80
ATOM     80  C   UNL A   1      40.748  29.325  28.838  1.00  0.00     0.058 A 
ATOM     81  C   UNL A   1      39.731  29.557  27.899  1.00  0.00     0.135 A 
ATOM     82  C   UNL A   1      40.411  29.414  30.198  1.00  0.00     0.135 A 
ATOM     83  F   UNL A   1      40.002  29.493  26.587  1.00  0.00    -0.206 F 
ATOM     84  C   UNL A   1      38.436  29.885  28.291  1.00  0.00     0.059 A 
ATOM     85  C   UNL A   1      39.116  29.712  30.614  1.00  0.00     0.059 A 
ATOM     86  F   UNL A   1      41.341  29.187  31.138  1.00  0.00    -0.206 F 
ATOM     87  C   UNL A   1      38.138  29.958  29.651  1.00  0.00     0.060 A 
BRANCH  87  88
ATOM     88  S   UNL A   1      36.443  30.342  30.148  1.00  0.00     0.124 S 
ATOM     89  O   UNL A   1      35.683  29.840  29.009  1.00  0.00    -0.237 OA
ATOM     90  O   UNL A   1      36.311  29.585  31.388  1.00  0.00    -0.237 OA
ATOM     91  O   UNL A   1      36.461  31.793  30.305  1.00  0.00    -0.744 OA
ENDBRANCH  87  88
ENDBRANCH  55  80
BRANCH  67  92
ATOM     92  C   UNL A   1      46.616  33.072  28.340  1.00  0.00     0.058 A 
ATOM     93  C   UNL A   1      47.085  33.516  29.586  1.00  0.00     0.135 A 
ATOM     94  C   UNL A   1      46.500  34.018  27.309  1.00  0.00     0.135 A 
ATOM     95  F   UNL A   1      47.209  32.655  30.608  1.00  0.00    -0.206 F 
ATOM     96  C   UNL A   1      47.404  34.852  29.808  1.00  0.00     0.059 A 
ATOM     97  C   UNL A   1      46.844  35.353  27.499  1.00  0.00     0.059 A 
ATOM     98  F   UNL A   1      46.068  33.646  26.094  1.00  0.00    -0.206 F 
ATOM     99  C   UNL A   1      47.283  35.763  28.756  1.00  0.00     0.060 A 
BRANCH  99 100
ATOM    100  S   UNL A   1      47.735  37.486  29.049  1.00  0.00     0.124 S 
ATOM    101  O   UNL A   1      49.045  37.343  29.676  1.00  0.00    -0.237 OA
ATOM    102  O   UNL A   1      47.735  38.042  27.700  1.00  0.00    -0.237 OA
ATOM    103  O   UNL A   1      46.671  37.973  29.922  1.00  0.00    -0.744 OA
ENDBRANCH  99 100
ENDBRANCH  67  92
ENDBRANCH  41  42
ENDBRANCH  33  36
ENDBRANCH  31  32
ENDBRANCH  30  31
ENDBRANCH   1  30
TORSDOF 19
ENDMDL
MODEL 2
REMARK VINA RESULT:     -10.9      0.616      7.942
REMARK SMILES CSCC[C@H](C(=O)NCCCCNC(=O)c1ccc(-c2c3nc(c(-c4c(F)cc(S(=O)(=O)[O-])cc4F)c4ccc([nH]4)c(-c4c(F)cc(S(=O)(=O)[O-])cc4F)c4nc(c(-c5c(F)cc(S(=O)(=O)[O-])cc5F)c5ccc2[nH]5)C=C4)C=C3)cc1)N1C(=O)/C(=C/c2ccc3ncccc3c2)SC1=S
REMARK SMILES IDX 10 1 9 2 8 3 6 4 7 5 5 7 4 8 3 9 2 10 1 11 82 12 83 13 98 14
REMARK SMILES IDX 84 15 85 16 97 17 99 18 86 19 87 20 88 21 96 22 89 23 95 24
REMARK SMILES IDX 90 25 94 26 91 27 93 28 92 29 11 30 12 31 13 32 14 33 15 35
REMARK SMILES IDX 16 36 17 37 81 38 18 39 80 40 19 41 20 42 21 43 74 44 22 45
REMARK SMILES IDX 79 46 73 47 75 48 23 49 78 50 72 51 71 52 24 54 58 55 37 56
REMARK SMILES IDX 57 57 38 58 41 59 56 60 76 61 39 62 40 63 55 65 77 66 42 67
REMARK SMILES IDX 25 68 26 69 35 70 27 71 28 72 34 73 36 74 29 75 30 76 31 77
REMARK SMILES IDX 32 78 33 79 59 80 60 81 69 82 61 83 62 84 68 85 70 86 63 87
REMARK SMILES IDX 64 88 65 89 66 90 67 91 43 92 44 93 53 94 45 95 46 96 52 97
REMARK SMILES IDX 54 98 47 99 48 100 49 101 50 102 51 103
REMARK H PARENT 8 6 13 34 75 53 41 64
REMARK Flexibility Score: inf
ROOT
ATOM      1  C   UNL A   1      37.970  21.078  24.891  1.00  0.00     0.023 C 
ENDROOT
BRANCH   1   2
ATOM      2  C   UNL A   1      36.510  21.424  25.190  1.00  0.00     0.116 C 
BRANCH   2   3
ATOM      3  N   UNL A   1      35.658  20.275  25.399  1.00  0.00    -0.354 N 
ATOM      4  C   UNL A   1      34.340  20.179  25.058  1.00  0.00     0.243 C 
ATOM      5  O   UNL A   1      33.959  19.108  24.575  1.00  0.00    -0.273 OA
ATOM      6  H   UNL A   1      36.068  19.487  25.826  1.00  0.00     0.163 HD
BRANCH   4   7
ATOM      7  C   UNL A   1      33.316  21.314  25.325  1.00  0.00     0.182 C 
BRANCH   7   8
ATOM      8  C   UNL A   1      33.062  21.891  26.739  1.00  0.00     0.046 C 
BRANCH   8   9
ATOM      9  C   UNL A   1      32.087  23.005  27.185  1.00  0.00     0.072 C 
BRANCH   9  10
ATOM     10  S   UNL A   1      30.514  23.441  26.387  1.00  0.00    -0.165 SA
ATOM     11  C   UNL A   1      29.266  22.541  27.385  1.00  0.00     0.085 C 
ENDBRANCH   9  10
ENDBRANCH   8   9
ENDBRANCH   7   8
BRANCH   7  12
ATOM     12  N   UNL A   1      33.150  22.284  24.238  1.00  0.00    -0.280 N 
ATOM     13  C   UNL A   1      33.637  23.546  24.421  1.00  0.00     0.266 C 
ATOM     14  C   UNL A   1      32.471  22.095  23.052  1.00  0.00     0.149 C 
ATOM     15  O   UNL A   1      34.580  23.851  25.143  1.00  0.00    -0.268 OA
ATOM     16  C   UNL A   1      32.838  24.504  23.624  1.00  0.00     0.081 C 
ATOM     17  S   UNL A   1      32.065  23.675  22.349  1.00  0.00    -0.054 SA
ATOM     18  S   UNL A   1      32.002  20.666  22.330  1.00  0.00    -0.052 S 
ATOM     19  C   UNL A   1      32.713  25.758  24.070  1.00  0.00     0.029 C 
BRANCH  19  20
ATOM     20  C   UNL A   1      31.912  26.874  23.580  1.00  0.00    -0.024 A 
ATOM     21  C   UNL A   1      32.628  27.900  22.964  1.00  0.00     0.010 A 
ATOM     22  C   UNL A   1      30.532  27.010  23.748  1.00  0.00     0.018 A 
ATOM     23  C   UNL A   1      31.965  28.986  22.405  1.00  0.00     0.029 A 
ATOM     24  C   UNL A   1      29.860  28.101  23.157  1.00  0.00     0.001 A 
ATOM     25  C   UNL A   1      30.586  29.080  22.442  1.00  0.00     0.070 A 
ATOM     26  C   UNL A   1      28.465  28.246  23.209  1.00  0.00     0.012 A 
ATOM     27  N   UNL A   1      29.999  30.086  21.777  1.00  0.00    -0.256 NA
ATOM     28  C   UNL A   1      27.849  29.271  22.498  1.00  0.00     0.021 A 
ATOM     29  C   UNL A   1      28.653  30.146  21.790  1.00  0.00     0.112 A 
ENDBRANCH  19  20
ENDBRANCH   7  12
ENDBRANCH   4   7
ENDBRANCH   2   3
ENDBRANCH   1   2
BRANCH   1  30
ATOM     30  C   UNL A   1      38.991  21.845  25.728  1.00  0.00     0.023 C 
BRANCH  30  31
ATOM     31  C   UNL A   1      39.764  21.026  26.757  1.00  0.00     0.116 C 
BRANCH  31  32
ATOM     32  N   UNL A   1      40.497  19.888  26.214  1.00  0.00    -0.352 N 
ATOM     33  C   UNL A   1      41.853  19.778  25.976  1.00  0.00     0.251 C 
ATOM     34  H   UNL A   1      39.956  19.097  25.987  1.00  0.00     0.163 HD
ATOM     35  O   UNL A   1      42.323  18.745  25.514  1.00  0.00    -0.269 OA
BRANCH  33  36
ATOM     36  C   UNL A   1      42.717  20.954  26.220  1.00  0.00     0.039 A 
ATOM     37  C   UNL A   1      43.067  21.765  25.138  1.00  0.00     0.014 A 
ATOM     38  C   UNL A   1      43.056  21.323  27.523  1.00  0.00     0.014 A 
ATOM     39  C   UNL A   1      43.664  23.006  25.377  1.00  0.00     0.010 A 
ATOM     40  C   UNL A   1      43.560  22.598  27.760  1.00  0.00     0.010 A 
ATOM     41  C   UNL A   1      43.858  23.460  26.692  1.00  0.00    -0.014 A 
BRANCH  41  42
ATOM     42  C   UNL A   1      44.351  24.836  26.974  1.00  0.00     0.031 A 
ATOM     43  C   UNL A   1      43.389  25.903  27.426  1.00  0.00     0.074 A 
ATOM     44  C   UNL A   1      45.645  25.147  26.751  1.00  0.00     0.049 A 
ATOM     45  N   UNL A   1      43.611  27.171  27.655  1.00  0.00    -0.248 NA
ATOM     46  C   UNL A   1      41.987  25.496  27.618  1.00  0.00     0.031 C 
ATOM     47  C   UNL A   1      46.669  24.221  26.257  1.00  0.00     0.029 A 
ATOM     48  N   UNL A   1      46.324  26.331  26.903  1.00  0.00    -0.354 N 
ATOM     49  C   UNL A   1      42.378  27.715  27.998  1.00  0.00     0.074 A 
ATOM     50  C   UNL A   1      41.403  26.654  27.886  1.00  0.00     0.031 C 
ATOM     51  C   UNL A   1      47.846  24.861  26.181  1.00  0.00     0.029 A 
ATOM     52  C   UNL A   1      47.659  26.254  26.575  1.00  0.00     0.049 A 
ATOM     53  H   UNL A   1      45.896  27.160  27.219  1.00  0.00     0.167 HD
ATOM     54  C   UNL A   1      42.090  28.977  28.395  1.00  0.00     0.037 A 
ATOM     55  C   UNL A   1      48.623  27.198  26.583  1.00  0.00     0.037 A 
ATOM     56  C   UNL A   1      43.069  30.021  28.533  1.00  0.00     0.049 A 
ATOM     57  C   UNL A   1      48.274  28.595  27.025  1.00  0.00     0.074 A 
ATOM     58  C   UNL A   1      42.888  31.313  28.995  1.00  0.00     0.029 A 
ATOM     59  N   UNL A   1      44.412  29.899  28.206  1.00  0.00    -0.354 N 
ATOM     60  N   UNL A   1      47.117  29.071  27.420  1.00  0.00    -0.248 NA
ATOM     61  C   UNL A   1      49.363  29.584  27.028  1.00  0.00     0.031 C 
ATOM     62  C   UNL A   1      44.108  31.988  28.893  1.00  0.00     0.029 A 
ATOM     63  C   UNL A   1      45.065  31.100  28.429  1.00  0.00     0.049 A 
ATOM     64  H   UNL A   1      44.838  29.079  27.865  1.00  0.00     0.167 HD
ATOM     65  C   UNL A   1      47.346  30.404  27.750  1.00  0.00     0.074 A 
ATOM     66  C   UNL A   1      48.753  30.654  27.519  1.00  0.00     0.031 C 
ATOM     67  C   UNL A   1      46.470  31.333  28.205  1.00  0.00     0.037 A 
BRANCH  54  68
ATOM     68  C   UNL A   1      40.654  29.298  28.716  1.00  0.00     0.058 A 
ATOM     69  C   UNL A   1      39.688  29.457  27.708  1.00  0.00     0.135 A 
ATOM     70  C   UNL A   1      40.229  29.410  30.050  1.00  0.00     0.135 A 
ATOM     71  F   UNL A   1      40.039  29.377  26.415  1.00  0.00    -0.206 F 
ATOM     72  C   UNL A   1      38.361  29.744  28.011  1.00  0.00     0.059 A 
ATOM     73  C   UNL A   1      38.901  29.663  30.377  1.00  0.00     0.059 A 
ATOM     74  F   UNL A   1      41.110  29.269  31.053  1.00  0.00    -0.206 F 
ATOM     75  C   UNL A   1      37.977  29.843  29.349  1.00  0.00     0.060 A 
BRANCH  75  76
ATOM     76  S   UNL A   1      36.248  30.201  29.722  1.00  0.00     0.124 S 
ATOM     77  O   UNL A   1      36.260  31.660  29.781  1.00  0.00    -0.237 OA
ATOM     78  O   UNL A   1      35.555  29.620  28.576  1.00  0.00    -0.237 OA
ATOM     79  O   UNL A   1      36.026  29.525  30.996  1.00  0.00    -0.744 OA
ENDBRANCH  75  76
ENDBRANCH  54  68
BRANCH  55  80
ATOM     80  C   UNL A   1      50.016  26.852  26.185  1.00  0.00     0.058 A 
ATOM     81  C   UNL A   1      50.442  26.992  24.854  1.00  0.00     0.135 A 
ATOM     82  C   UNL A   1      50.947  26.372  27.119  1.00  0.00     0.135 A 
ATOM     83  F   UNL A   1      49.588  27.438  23.920  1.00  0.00    -0.206 F 
ATOM     84  C   UNL A   1      51.732  26.649  24.461  1.00  0.00     0.059 A 
ATOM     85  C   UNL A   1      52.252  26.051  26.754  1.00  0.00     0.059 A 
ATOM     86  F   UNL A   1      50.598  26.234  28.407  1.00  0.00    -0.206 F 
ATOM     87  C   UNL A   1      52.631  26.182  25.419  1.00  0.00     0.060 A 
BRANCH  87  88
ATOM     88  S   UNL A   1      54.316  25.782  24.904  1.00  0.00     0.124 S 
ATOM     89  O   UNL A   1      54.356  26.352  23.562  1.00  0.00    -0.237 OA
ATOM     90  O   UNL A   1      55.114  26.469  25.915  1.00  0.00    -0.237 OA
ATOM     91  O   UNL A   1      54.351  24.324  24.973  1.00  0.00    -0.744 OA
ENDBRANCH  87  88
ENDBRANCH  55  80
BRANCH  67  92
ATOM     92  C   UNL A   1      47.010  32.701  28.528  1.00  0.00     0.058 A 
ATOM     93  C   UNL A   1      47.533  33.014  29.792  1.00  0.00     0.135 A 
ATOM     94  C   UNL A   1      47.059  33.694  27.535  1.00  0.00     0.135 A 
ATOM     95  F   UNL A   1      47.506  32.103  30.778  1.00  0.00    -0.206 F 
ATOM     96  C   UNL A   1      48.061  34.270  30.069  1.00  0.00     0.059 A 
ATOM     97  C   UNL A   1      47.612  34.947  27.781  1.00  0.00     0.059 A 
ATOM     98  F   UNL A   1      46.584  33.446  26.305  1.00  0.00    -0.206 F 
ATOM     99  C   UNL A   1      48.099  35.230  29.055  1.00  0.00     0.060 A 
BRANCH  99 100
ATOM    100  S   UNL A   1      48.821  36.844  29.420  1.00  0.00     0.124 S 
ATOM    101  O   UNL A   1      49.432  36.605  30.724  1.00  0.00    -0.237 OA
ATOM    102  O   UNL A   1      49.749  37.028  28.309  1.00  0.00    -0.237 OA
ATOM    103  O   UNL A   1      47.668  37.740  29.421  1.00  0.00    -0.744 OA
ENDBRANCH  99 100
ENDBRANCH  67  92
ENDBRANCH  41  42
ENDBRANCH  33  36
ENDBRANCH  31  32
ENDBRANCH  30  31
ENDBRANCH   1  30
TORSDOF 19
ENDMDL
MODEL 3
REMARK VINA RESULT:     -10.6      1.695      2.811
REMARK SMILES CSCC[C@H](C(=O)NCCCCNC(=O)c1ccc(-c2c3nc(c(-c4c(F)cc(S(=O)(=O)[O-])cc4F)c4ccc([nH]4)c(-c4c(F)cc(S(=O)(=O)[O-])cc4F)c4nc(c(-c5c(F)cc(S(=O)(=O)[O-])cc5F)c5ccc2[nH]5)C=C4)C=C3)cc1)N1C(=O)/C(=C/c2ccc3ncccc3c2)SC1=S
REMARK SMILES IDX 10 1 9 2 8 3 6 4 7 5 5 7 4 8 3 9 2 10 1 11 82 12 83 13 98 14
REMARK SMILES IDX 84 15 85 16 97 17 99 18 86 19 87 20 88 21 96 22 89 23 95 24
REMARK SMILES IDX 90 25 94 26 91 27 93 28 92 29 11 30 12 31 13 32 14 33 15 35
REMARK SMILES IDX 16 36 17 37 81 38 18 39 80 40 19 41 20 42 21 43 74 44 22 45
REMARK SMILES IDX 79 46 73 47 75 48 23 49 78 50 72 51 71 52 24 54 58 55 37 56
REMARK SMILES IDX 57 57 38 58 41 59 56 60 76 61 39 62 40 63 55 65 77 66 42 67
REMARK SMILES IDX 25 68 26 69 35 70 27 71 28 72 34 73 36 74 29 75 30 76 31 77
REMARK SMILES IDX 32 78 33 79 59 80 60 81 69 82 61 83 62 84 68 85 70 86 63 87
REMARK SMILES IDX 64 88 65 89 66 90 67 91 43 92 44 93 53 94 45 95 46 96 52 97
REMARK SMILES IDX 54 98 47 99 48 100 49 101 50 102 51 103
REMARK H PARENT 8 6 13 34 75 53 41 64
REMARK Flexibility Score: inf
ROOT
ATOM      1  C   UNL A   1      39.604  19.593  25.807  1.00  0.00     0.023 C 
ENDROOT
BRANCH   1   2
ATOM      2  C   UNL A   1      38.548  19.946  24.757  1.00  0.00     0.116 C 
BRANCH   2   3
ATOM      3  N   UNL A   1      37.193  19.631  25.148  1.00  0.00    -0.354 N 
ATOM      4  C   UNL A   1      36.131  20.488  25.126  1.00  0.00     0.243 C 
ATOM      5  O   UNL A   1      35.050  20.036  24.734  1.00  0.00    -0.273 OA
ATOM      6  H   UNL A   1      37.020  18.712  25.457  1.00  0.00     0.163 HD
BRANCH   4   7
ATOM      7  C   UNL A   1      36.217  21.950  25.640  1.00  0.00     0.182 C 
BRANCH   7   8
ATOM      8  C   UNL A   1      37.499  22.806  25.505  1.00  0.00     0.046 C 
BRANCH   8   9
ATOM      9  C   UNL A   1      37.963  24.020  26.342  1.00  0.00     0.072 C 
BRANCH   9  10
ATOM     10  S   UNL A   1      39.506  24.145  27.293  1.00  0.00    -0.165 SA
ATOM     11  C   UNL A   1      39.195  25.552  28.427  1.00  0.00     0.085 C 
ENDBRANCH   9  10
ENDBRANCH   8   9
ENDBRANCH   7   8
BRANCH   7  12
ATOM     12  N   UNL A   1      34.969  22.716  25.577  1.00  0.00    -0.280 N 
ATOM     13  C   UNL A   1      34.800  23.587  24.538  1.00  0.00     0.266 C 
ATOM     14  C   UNL A   1      33.951  22.726  26.507  1.00  0.00     0.149 C 
ATOM     15  O   UNL A   1      35.310  23.483  23.428  1.00  0.00    -0.268 OA
ATOM     16  C   UNL A   1      33.914  24.694  24.962  1.00  0.00     0.081 C 
ATOM     17  S   UNL A   1      32.966  24.187  26.287  1.00  0.00    -0.054 SA
ATOM     18  S   UNL A   1      33.634  21.629  27.725  1.00  0.00    -0.052 S 
ATOM     19  C   UNL A   1      34.077  25.895  24.397  1.00  0.00     0.029 C 
BRANCH  19  20
ATOM     20  C   UNL A   1      33.452  27.181  24.683  1.00  0.00    -0.024 A 
ATOM     21  C   UNL A   1      32.412  27.544  23.828  1.00  0.00     0.010 A 
ATOM     22  C   UNL A   1      33.863  28.073  25.676  1.00  0.00     0.018 A 
ATOM     23  C   UNL A   1      31.703  28.721  24.041  1.00  0.00     0.029 A 
ATOM     24  C   UNL A   1      33.124  29.254  25.905  1.00  0.00     0.001 A 
ATOM     25  C   UNL A   1      32.005  29.558  25.098  1.00  0.00     0.070 A 
ATOM     26  C   UNL A   1      33.429  30.144  26.945  1.00  0.00     0.012 A 
ATOM     27  N   UNL A   1      31.206  30.612  25.324  1.00  0.00    -0.256 NA
ATOM     28  C   UNL A   1      32.586  31.223  27.201  1.00  0.00     0.021 A 
ATOM     29  C   UNL A   1      31.489  31.400  26.379  1.00  0.00     0.112 A 
ENDBRANCH  19  20
ENDBRANCH   7  12
ENDBRANCH   4   7
ENDBRANCH   2   3
ENDBRANCH   1   2
BRANCH   1  30
ATOM     30  C   UNL A   1      40.541  20.739  26.179  1.00  0.00     0.023 C 
BRANCH  30  31
ATOM     31  C   UNL A   1      41.977  20.348  26.519  1.00  0.00     0.116 C 
BRANCH  31  32
ATOM     32  N   UNL A   1      42.651  19.542  25.507  1.00  0.00    -0.352 N 
ATOM     33  C   UNL A   1      43.800  19.841  24.801  1.00  0.00     0.251 C 
ATOM     34  H   UNL A   1      42.234  18.674  25.300  1.00  0.00     0.163 HD
ATOM     35  O   UNL A   1      44.248  19.052  23.978  1.00  0.00    -0.269 OA
BRANCH  33  36
ATOM     36  C   UNL A   1      44.437  21.161  25.003  1.00  0.00     0.039 A 
ATOM     37  C   UNL A   1      44.158  22.186  24.097  1.00  0.00     0.014 A 
ATOM     38  C   UNL A   1      45.187  21.414  26.153  1.00  0.00     0.014 A 
ATOM     39  C   UNL A   1      44.541  23.495  24.403  1.00  0.00     0.010 A 
ATOM     40  C   UNL A   1      45.480  22.730  26.498  1.00  0.00     0.010 A 
ATOM     41  C   UNL A   1      45.149  23.787  25.635  1.00  0.00    -0.014 A 
BRANCH  41  42
ATOM     42  C   UNL A   1      45.430  25.190  26.049  1.00  0.00     0.031 A 
ATOM     43  C   UNL A   1      46.824  25.744  25.931  1.00  0.00     0.074 A 
ATOM     44  C   UNL A   1      44.450  25.938  26.599  1.00  0.00     0.049 A 
ATOM     45  N   UNL A   1      47.281  26.913  26.301  1.00  0.00    -0.248 NA
ATOM     46  C   UNL A   1      47.847  24.858  25.351  1.00  0.00     0.031 C 
ATOM     47  C   UNL A   1      43.070  25.500  26.823  1.00  0.00     0.029 A 
ATOM     48  N   UNL A   1      44.465  27.225  27.078  1.00  0.00    -0.354 N 
ATOM     49  C   UNL A   1      48.642  26.895  26.015  1.00  0.00     0.074 A 
ATOM     50  C   UNL A   1      48.948  25.579  25.500  1.00  0.00     0.031 C 
ATOM     51  C   UNL A   1      42.366  26.509  27.361  1.00  0.00     0.029 A 
ATOM     52  C   UNL A   1      43.250  27.652  27.565  1.00  0.00     0.049 A 
ATOM     53  H   UNL A   1      45.271  27.791  27.074  1.00  0.00     0.167 HD
ATOM     54  C   UNL A   1      49.549  27.892  26.143  1.00  0.00     0.037 A 
ATOM     55  C   UNL A   1      42.889  28.827  28.120  1.00  0.00     0.037 A 
ATOM     56  C   UNL A   1      49.233  29.209  26.628  1.00  0.00     0.049 A 
ATOM     57  C   UNL A   1      43.918  29.919  28.257  1.00  0.00     0.074 A 
ATOM     58  C   UNL A   1      50.066  30.309  26.731  1.00  0.00     0.029 A 
ATOM     59  N   UNL A   1      47.989  29.606  27.097  1.00  0.00    -0.354 N 
ATOM     60  N   UNL A   1      45.183  29.908  27.908  1.00  0.00    -0.248 NA
ATOM     61  C   UNL A   1      43.471  31.184  28.857  1.00  0.00     0.031 C 
ATOM     62  C   UNL A   1      49.342  31.353  27.314  1.00  0.00     0.029 A 
ATOM     63  C   UNL A   1      48.040  30.925  27.516  1.00  0.00     0.049 A 
ATOM     64  H   UNL A   1      47.188  29.034  27.127  1.00  0.00     0.167 HD
ATOM     65  C   UNL A   1      45.674  31.174  28.216  1.00  0.00     0.074 A 
ATOM     66  C   UNL A   1      44.566  31.927  28.766  1.00  0.00     0.031 C 
ATOM     67  C   UNL A   1      46.926  31.667  28.054  1.00  0.00     0.037 A 
BRANCH  54  68
ATOM     68  C   UNL A   1      50.972  27.599  25.749  1.00  0.00     0.058 A 
ATOM     69  C   UNL A   1      51.431  27.789  24.435  1.00  0.00     0.135 A 
ATOM     70  C   UNL A   1      51.900  27.159  26.706  1.00  0.00     0.135 A 
ATOM     71  F   UNL A   1      50.584  28.192  23.474  1.00  0.00    -0.206 F 
ATOM     72  C   UNL A   1      52.749  27.526  24.079  1.00  0.00     0.059 A 
ATOM     73  C   UNL A   1      53.232  26.922  26.380  1.00  0.00     0.059 A 
ATOM     74  F   UNL A   1      51.517  26.959  27.978  1.00  0.00    -0.206 F 
ATOM     75  C   UNL A   1      53.643  27.095  25.060  1.00  0.00     0.060 A 
BRANCH  75  76
ATOM     76  S   UNL A   1      55.353  26.772  24.581  1.00  0.00     0.124 S 
ATOM     77  O   UNL A   1      55.506  25.374  24.974  1.00  0.00    -0.237 OA
ATOM     78  O   UNL A   1      55.327  27.028  23.145  1.00  0.00    -0.237 OA
ATOM     79  O   UNL A   1      56.115  27.732  25.373  1.00  0.00    -0.744 OA
ENDBRANCH  75  76
ENDBRANCH  54  68
BRANCH  55  80
ATOM     80  C   UNL A   1      41.485  29.047  28.567  1.00  0.00     0.058 A 
ATOM     81  C   UNL A   1      41.152  29.039  29.931  1.00  0.00     0.135 A 
ATOM     82  C   UNL A   1      40.449  29.263  27.645  1.00  0.00     0.135 A 
ATOM     83  F   UNL A   1      42.103  28.828  30.852  1.00  0.00    -0.206 F 
ATOM     84  C   UNL A   1      39.841  29.217  30.363  1.00  0.00     0.059 A 
ATOM     85  C   UNL A   1      39.135  29.473  28.056  1.00  0.00     0.059 A 
ATOM     86  F   UNL A   1      40.713  29.296  26.330  1.00  0.00    -0.206 F 
ATOM     87  C   UNL A   1      38.839  29.436  29.418  1.00  0.00     0.060 A 
BRANCH  87  88
ATOM     88  S   UNL A   1      37.149  29.710  29.994  1.00  0.00     0.124 S 
ATOM     89  O   UNL A   1      37.164  31.139  30.280  1.00  0.00    -0.237 OA
ATOM     90  O   UNL A   1      36.363  29.298  28.836  1.00  0.00    -0.237 OA
ATOM     91  O   UNL A   1      37.045  28.833  31.157  1.00  0.00    -0.744 OA
ENDBRANCH  87  88
ENDBRANCH  55  80
BRANCH  67  92
ATOM     92  C   UNL A   1      47.164  33.104  28.435  1.00  0.00     0.058 A 
ATOM     93  C   UNL A   1      46.927  34.159  27.540  1.00  0.00     0.135 A 
ATOM     94  C   UNL A   1      47.580  33.430  29.737  1.00  0.00     0.135 A 
ATOM     95  F   UNL A   1      46.534  33.903  26.282  1.00  0.00    -0.206 F 
ATOM     96  C   UNL A   1      47.118  35.485  27.914  1.00  0.00     0.059 A 
ATOM     97  C   UNL A   1      47.745  34.751  30.142  1.00  0.00     0.059 A 
ATOM     98  F   UNL A   1      47.810  32.462  30.637  1.00  0.00    -0.206 F 
ATOM     99  C   UNL A   1      47.524  35.772  29.219  1.00  0.00     0.060 A 
BRANCH  99 100
ATOM    100  S   UNL A   1      47.732  37.499  29.701  1.00  0.00     0.124 S 
ATOM    101  O   UNL A   1      46.481  38.087  29.230  1.00  0.00    -0.237 OA
ATOM    102  O   UNL A   1      47.881  37.403  31.149  1.00  0.00    -0.237 OA
ATOM    103  O   UNL A   1      48.931  37.911  28.978  1.00  0.00    -0.744 OA
ENDBRANCH  99 100
ENDBRANCH  67  92
ENDBRANCH  41  42
ENDBRANCH  33  36
ENDBRANCH  31  32
ENDBRANCH  30  31
ENDBRANCH   1  30
TORSDOF 19
ENDMDL
