MODEL 1
REMARK VINA RESULT:      -9.2      0.000      0.000
REMARK SMILES Cc1ccc(F)cc1NC(=O)CSCCC(=O)NCCCCNC(=O)c1ccc(-c2c3nc(c(-c4c(F)cc(S(=O)(=O)[O-])cc4F)c4ccc([nH]4)c(-c4c(F)cc(S(=O)(=O)[O-])cc4F)c4nc(c(-c5c(F)cc(S(=O)(=O)[O-])cc5F)c5ccc2[nH]5)C=C4)C=C3)cc1
REMARK SMILES IDX 19 1 18 2 16 3 17 4 15 6 14 7 13 8 12 9 10 10 9 11 11 13
REMARK SMILES IDX 8 14 1 15 2 16 3 17 4 18 7 19 5 20 6 21 20 22 21 23 22 24
REMARK SMILES IDX 23 25 24 26 25 28 26 29 27 30 91 31 28 32 90 33 29 34 30 35
REMARK SMILES IDX 31 36 84 37 32 38 89 39 83 40 85 41 33 42 88 43 82 44 81 45
REMARK SMILES IDX 34 47 68 48 47 49 67 50 48 51 51 52 66 53 86 54 49 55 50 56
REMARK SMILES IDX 65 58 87 59 52 60 35 61 36 62 45 63 37 64 38 65 44 66 46 67
REMARK SMILES IDX 39 68 40 69 41 70 42 71 43 72 69 73 70 74 79 75 71 76 72 77
REMARK SMILES IDX 78 78 80 79 73 80 74 81 75 82 76 83 77 84 53 85 54 86 63 87
REMARK SMILES IDX 55 88 56 89 62 90 64 91 57 92 58 93 59 94 60 95 61 96
REMARK H PARENT 18 5 9 12 23 27 85 46 51 57
REMARK Flexibility Score: inf
ROOT
ATOM      1  C   UNL A   1      34.010  35.908  28.692  1.00  0.00     0.116 C 
ENDROOT
BRANCH   1   2
ATOM      2  N   UNL A   1      32.901  35.706  29.609  1.00  0.00    -0.356 N 
ATOM      3  C   UNL A   1      32.861  35.713  30.969  1.00  0.00     0.220 C 
ATOM      4  O   UNL A   1      31.767  35.579  31.521  1.00  0.00    -0.275 OA
ATOM      5  H   UNL A   1      32.035  35.534  29.174  1.00  0.00     0.163 HD
BRANCH   3   6
ATOM      6  C   UNL A   1      34.122  35.881  31.780  1.00  0.00     0.111 C 
BRANCH   6   7
ATOM      7  C   UNL A   1      34.617  34.559  32.365  1.00  0.00     0.080 C 
BRANCH   7   8
ATOM      8  S   UNL A   1      36.303  34.058  31.857  1.00  0.00    -0.151 SA
BRANCH   8   9
ATOM      9  C   UNL A   1      36.319  32.324  32.410  1.00  0.00     0.169 C 
BRANCH   9  10
ATOM     10  C   UNL A   1      36.755  32.161  33.844  1.00  0.00     0.234 C 
ATOM     11  N   UNL A   1      37.669  31.262  34.293  1.00  0.00    -0.325 N 
ATOM     12  H   UNL A   1      37.781  31.316  35.270  1.00  0.00     0.169 HD
ATOM     13  O   UNL A   1      36.241  32.884  34.710  1.00  0.00    -0.274 OA
BRANCH  11  14
ATOM     14  C   UNL A   1      38.499  30.270  33.733  1.00  0.00     0.047 A 
ATOM     15  C   UNL A   1      40.569  31.772  34.152  1.00  0.00     0.046 C 
ATOM     16  C   UNL A   1      39.895  30.508  33.679  1.00  0.00    -0.027 A 
ATOM     17  C   UNL A   1      40.749  29.544  33.096  1.00  0.00     0.008 A 
ATOM     18  C   UNL A   1      40.246  28.355  32.585  1.00  0.00     0.039 A 
ATOM     19  C   UNL A   1      38.023  29.059  33.233  1.00  0.00     0.065 A 
ATOM     20  C   UNL A   1      38.886  28.121  32.666  1.00  0.00     0.125 A 
ATOM     21  F   UNL A   1      38.386  26.972  32.190  1.00  0.00    -0.207 F 
ENDBRANCH  11  14
ENDBRANCH   9  10
ENDBRANCH   8   9
ENDBRANCH   7   8
ENDBRANCH   6   7
ENDBRANCH   3   6
ENDBRANCH   1   2
BRANCH   1  22
ATOM     22  C   UNL A   1      34.728  34.612  28.322  1.00  0.00     0.023 C 
BRANCH  22  23
ATOM     23  C   UNL A   1      33.847  33.356  28.364  1.00  0.00     0.023 C 
BRANCH  23  24
ATOM     24  C   UNL A   1      34.522  32.133  28.964  1.00  0.00     0.116 C 
BRANCH  24  25
ATOM     25  N   UNL A   1      34.062  30.897  28.346  1.00  0.00    -0.352 N 
ATOM     26  C   UNL A   1      34.789  29.819  27.900  1.00  0.00     0.251 C 
ATOM     27  H   UNL A   1      33.088  30.823  28.232  1.00  0.00     0.163 HD
ATOM     28  O   UNL A   1      34.237  28.938  27.253  1.00  0.00    -0.269 OA
BRANCH  26  29
ATOM     29  C   UNL A   1      36.242  29.742  28.176  1.00  0.00     0.039 A 
ATOM     30  C   UNL A   1      36.668  29.368  29.453  1.00  0.00     0.014 A 
ATOM     31  C   UNL A   1      37.177  30.019  27.177  1.00  0.00     0.014 A 
ATOM     32  C   UNL A   1      38.032  29.200  29.705  1.00  0.00     0.010 A 
ATOM     33  C   UNL A   1      38.525  29.763  27.402  1.00  0.00     0.010 A 
ATOM     34  C   UNL A   1      38.967  29.351  28.668  1.00  0.00    -0.014 A 
BRANCH  34  35
ATOM     35  C   UNL A   1      40.411  29.075  28.873  1.00  0.00     0.031 A 
ATOM     36  C   UNL A   1      40.972  27.724  28.522  1.00  0.00     0.074 A 
ATOM     37  C   UNL A   1      41.188  30.009  29.460  1.00  0.00     0.049 A 
ATOM     38  N   UNL A   1      42.171  27.247  28.736  1.00  0.00    -0.248 NA
ATOM     39  C   UNL A   1      40.054  26.771  27.875  1.00  0.00     0.031 C 
ATOM     40  C   UNL A   1      40.737  31.334  29.891  1.00  0.00     0.029 A 
ATOM     41  N   UNL A   1      42.513  29.981  29.815  1.00  0.00    -0.354 N 
ATOM     42  C   UNL A   1      42.144  25.938  28.272  1.00  0.00     0.074 A 
ATOM     43  C   UNL A   1      40.797  25.676  27.814  1.00  0.00     0.031 C 
ATOM     44  C   UNL A   1      41.770  31.997  30.434  1.00  0.00     0.029 A 
ATOM     45  C   UNL A   1      42.942  31.130  30.438  1.00  0.00     0.049 A 
ATOM     46  H   UNL A   1      43.101  29.211  29.640  1.00  0.00     0.167 HD
ATOM     47  C   UNL A   1      43.159  25.043  28.211  1.00  0.00     0.037 A 
ATOM     48  C   UNL A   1      44.140  31.442  30.970  1.00  0.00     0.037 A 
ATOM     49  C   UNL A   1      44.502  25.330  28.643  1.00  0.00     0.049 A 
ATOM     50  C   UNL A   1      45.249  30.426  30.901  1.00  0.00     0.074 A 
ATOM     51  C   UNL A   1      45.623  24.524  28.558  1.00  0.00     0.029 A 
ATOM     52  N   UNL A   1      44.903  26.513  29.249  1.00  0.00    -0.354 N 
ATOM     53  N   UNL A   1      45.230  29.220  30.383  1.00  0.00    -0.248 NA
ATOM     54  C   UNL A   1      46.541  30.808  31.488  1.00  0.00     0.031 C 
ATOM     55  C   UNL A   1      46.689  25.196  29.163  1.00  0.00     0.029 A 
ATOM     56  C   UNL A   1      46.246  26.445  29.575  1.00  0.00     0.049 A 
ATOM     57  H   UNL A   1      44.319  27.286  29.422  1.00  0.00     0.167 HD
ATOM     58  C   UNL A   1      46.509  28.706  30.567  1.00  0.00     0.074 A 
ATOM     59  C   UNL A   1      47.282  29.740  31.224  1.00  0.00     0.031 C 
ATOM     60  C   UNL A   1      46.998  27.489  30.227  1.00  0.00     0.037 A 
BRANCH  47  61
ATOM     61  C   UNL A   1      42.862  23.676  27.658  1.00  0.00     0.058 A 
ATOM     62  C   UNL A   1      42.958  23.396  26.286  1.00  0.00     0.135 A 
ATOM     63  C   UNL A   1      42.519  22.617  28.516  1.00  0.00     0.135 A 
ATOM     64  F   UNL A   1      43.265  24.372  25.415  1.00  0.00    -0.206 F 
ATOM     65  C   UNL A   1      42.699  22.126  25.781  1.00  0.00     0.059 A 
ATOM     66  C   UNL A   1      42.286  21.332  28.037  1.00  0.00     0.059 A 
ATOM     67  F   UNL A   1      42.409  22.827  29.837  1.00  0.00    -0.206 F 
ATOM     68  C   UNL A   1      42.366  21.099  26.665  1.00  0.00     0.060 A 
BRANCH  68  69
ATOM     69  S   UNL A   1      42.051  19.454  25.992  1.00  0.00     0.124 S 
ATOM     70  O   UNL A   1      42.475  18.601  27.097  1.00  0.00    -0.237 OA
ATOM     71  O   UNL A   1      40.615  19.494  25.736  1.00  0.00    -0.237 OA
ATOM     72  O   UNL A   1      42.897  19.404  24.802  1.00  0.00    -0.744 OA
ENDBRANCH  68  69
ENDBRANCH  47  61
BRANCH  48  73
ATOM     73  C   UNL A   1      44.351  32.769  31.609  1.00  0.00     0.058 A 
ATOM     74  C   UNL A   1      44.687  33.895  30.843  1.00  0.00     0.135 A 
ATOM     75  C   UNL A   1      44.206  32.944  32.995  1.00  0.00     0.135 A 
ATOM     76  F   UNL A   1      44.843  33.780  29.516  1.00  0.00    -0.206 F 
ATOM     77  C   UNL A   1      44.887  35.141  31.427  1.00  0.00     0.059 A 
ATOM     78  C   UNL A   1      44.373  34.187  33.599  1.00  0.00     0.059 A 
ATOM     79  F   UNL A   1      43.870  31.903  33.773  1.00  0.00    -0.206 F 
ATOM     80  C   UNL A   1      44.724  35.279  32.806  1.00  0.00     0.060 A 
BRANCH  80  81
ATOM     81  S   UNL A   1      44.941  36.913  33.545  1.00  0.00     0.124 S 
ATOM     82  O   UNL A   1      46.241  36.774  34.190  1.00  0.00    -0.237 OA
ATOM     83  O   UNL A   1      44.897  37.784  32.375  1.00  0.00    -0.237 OA
ATOM     84  O   UNL A   1      43.797  37.029  34.446  1.00  0.00    -0.744 OA
ENDBRANCH  80  81
ENDBRANCH  48  73
BRANCH  60  85
ATOM     85  C   UNL A   1      48.440  27.206  30.546  1.00  0.00     0.058 A 
ATOM     86  C   UNL A   1      49.474  27.620  29.693  1.00  0.00     0.135 A 
ATOM     87  C   UNL A   1      48.793  26.588  31.757  1.00  0.00     0.135 A 
ATOM     88  F   UNL A   1      49.189  28.206  28.520  1.00  0.00    -0.206 F 
ATOM     89  C   UNL A   1      50.810  27.423  30.025  1.00  0.00     0.059 A 
ATOM     90  C   UNL A   1      50.123  26.408  32.123  1.00  0.00     0.059 A 
ATOM     91  F   UNL A   1      47.841  26.181  32.611  1.00  0.00    -0.206 F 
ATOM     92  C   UNL A   1      51.125  26.824  31.247  1.00  0.00     0.060 A 
BRANCH  92  93
ATOM     93  S   UNL A   1      52.863  26.634  31.691  1.00  0.00     0.124 S 
ATOM     94  O   UNL A   1      52.826  25.436  32.522  1.00  0.00    -0.237 OA
ATOM     95  O   UNL A   1      53.502  26.484  30.387  1.00  0.00    -0.237 OA
ATOM     96  O   UNL A   1      53.173  27.876  32.395  1.00  0.00    -0.744 OA
ENDBRANCH  92  93
ENDBRANCH  60  85
ENDBRANCH  34  35
ENDBRANCH  26  29
ENDBRANCH  24  25
ENDBRANCH  23  24
ENDBRANCH  22  23
ENDBRANCH   1  22
TORSDOF 19
ENDMDL
MODEL 2
REMARK VINA RESULT:      -9.1      4.146     10.311
REMARK SMILES Cc1ccc(F)cc1NC(=O)CSCCC(=O)NCCCCNC(=O)c1ccc(-c2c3nc(c(-c4c(F)cc(S(=O)(=O)[O-])cc4F)c4ccc([nH]4)c(-c4c(F)cc(S(=O)(=O)[O-])cc4F)c4nc(c(-c5c(F)cc(S(=O)(=O)[O-])cc5F)c5ccc2[nH]5)C=C4)C=C3)cc1
REMARK SMILES IDX 19 1 18 2 16 3 17 4 15 6 14 7 13 8 12 9 10 10 9 11 11 13
REMARK SMILES IDX 8 14 1 15 2 16 3 17 4 18 7 19 5 20 6 21 20 22 21 23 22 24
REMARK SMILES IDX 23 25 24 26 25 28 26 29 27 30 91 31 28 32 90 33 29 34 30 35
REMARK SMILES IDX 31 36 84 37 32 38 89 39 83 40 85 41 33 42 88 43 82 44 81 45
REMARK SMILES IDX 34 47 68 48 47 49 67 50 48 51 51 52 66 53 86 54 49 55 50 56
REMARK SMILES IDX 65 58 87 59 52 60 35 61 36 62 45 63 37 64 38 65 44 66 46 67
REMARK SMILES IDX 39 68 40 69 41 70 42 71 43 72 69 73 70 74 79 75 71 76 72 77
REMARK SMILES IDX 78 78 80 79 73 80 74 81 75 82 76 83 77 84 53 85 54 86 63 87
REMARK SMILES IDX 55 88 56 89 62 90 64 91 57 92 58 93 59 94 60 95 61 96
REMARK H PARENT 18 5 9 12 23 27 85 46 51 57
REMARK Flexibility Score: inf
ROOT
ATOM      1  C   UNL A   1      33.316  29.637  26.586  1.00  0.00     0.116 C 
ENDROOT
BRANCH   1   2
ATOM      2  N   UNL A   1      33.585  29.462  25.169  1.00  0.00    -0.356 N 
ATOM      3  C   UNL A   1      32.753  29.152  24.138  1.00  0.00     0.220 C 
ATOM      4  O   UNL A   1      33.220  29.126  22.998  1.00  0.00    -0.275 OA
ATOM      5  H   UNL A   1      34.527  29.589  24.912  1.00  0.00     0.163 HD
BRANCH   3   6
ATOM      6  C   UNL A   1      31.295  28.847  24.384  1.00  0.00     0.111 C 
BRANCH   6   7
ATOM      7  C   UNL A   1      31.089  27.473  25.019  1.00  0.00     0.080 C 
BRANCH   7   8
ATOM      8  S   UNL A   1      31.291  26.047  23.888  1.00  0.00    -0.151 SA
BRANCH   8   9
ATOM      9  C   UNL A   1      33.065  25.699  24.102  1.00  0.00     0.169 C 
BRANCH   9  10
ATOM     10  C   UNL A   1      33.718  25.155  22.857  1.00  0.00     0.234 C 
ATOM     11  N   UNL A   1      34.216  23.900  22.711  1.00  0.00    -0.325 N 
ATOM     12  H   UNL A   1      34.619  23.771  21.822  1.00  0.00     0.169 HD
ATOM     13  O   UNL A   1      33.840  25.901  21.873  1.00  0.00    -0.274 OA
BRANCH  11  14
ATOM     14  C   UNL A   1      34.311  22.733  23.495  1.00  0.00     0.047 A 
ATOM     15  C   UNL A   1      31.883  22.103  22.844  1.00  0.00     0.046 C 
ATOM     16  C   UNL A   1      33.196  21.860  23.546  1.00  0.00    -0.027 A 
ATOM     17  C   UNL A   1      33.250  20.697  24.348  1.00  0.00     0.008 A 
ATOM     18  C   UNL A   1      34.389  20.383  25.078  1.00  0.00     0.039 A 
ATOM     19  C   UNL A   1      35.449  22.381  24.220  1.00  0.00     0.065 A 
ATOM     20  C   UNL A   1      35.481  21.226  25.000  1.00  0.00     0.125 A 
ATOM     21  F   UNL A   1      36.593  20.929  25.689  1.00  0.00    -0.207 F 
ENDBRANCH  11  14
ENDBRANCH   9  10
ENDBRANCH   8   9
ENDBRANCH   7   8
ENDBRANCH   6   7
ENDBRANCH   3   6
ENDBRANCH   1   2
BRANCH   1  22
ATOM     22  C   UNL A   1      34.562  29.990  27.395  1.00  0.00     0.023 C 
BRANCH  22  23
ATOM     23  C   UNL A   1      34.738  31.488  27.681  1.00  0.00     0.023 C 
BRANCH  23  24
ATOM     24  C   UNL A   1      35.923  31.823  28.572  1.00  0.00     0.116 C 
BRANCH  24  25
ATOM     25  N   UNL A   1      35.663  31.508  29.969  1.00  0.00    -0.352 N 
ATOM     26  C   UNL A   1      36.359  30.686  30.825  1.00  0.00     0.251 C 
ATOM     27  H   UNL A   1      34.873  31.946  30.358  1.00  0.00     0.163 HD
ATOM     28  O   UNL A   1      35.889  30.412  31.922  1.00  0.00    -0.269 OA
BRANCH  26  29
ATOM     29  C   UNL A   1      37.657  30.111  30.405  1.00  0.00     0.039 A 
ATOM     30  C   UNL A   1      38.009  30.153  29.053  1.00  0.00     0.014 A 
ATOM     31  C   UNL A   1      38.529  29.550  31.340  1.00  0.00     0.014 A 
ATOM     32  C   UNL A   1      39.268  29.699  28.652  1.00  0.00     0.010 A 
ATOM     33  C   UNL A   1      39.814  29.184  30.954  1.00  0.00     0.010 A 
ATOM     34  C   UNL A   1      40.197  29.255  29.606  1.00  0.00    -0.014 A 
BRANCH  34  35
ATOM     35  C   UNL A   1      41.580  28.869  29.229  1.00  0.00     0.031 A 
ATOM     36  C   UNL A   1      42.668  29.908  29.210  1.00  0.00     0.074 A 
ATOM     37  C   UNL A   1      41.827  27.609  28.816  1.00  0.00     0.049 A 
ATOM     38  N   UNL A   1      43.904  29.800  28.797  1.00  0.00    -0.248 NA
ATOM     39  C   UNL A   1      42.310  31.254  29.687  1.00  0.00     0.031 C 
ATOM     40  C   UNL A   1      40.835  26.533  28.743  1.00  0.00     0.029 A 
ATOM     41  N   UNL A   1      42.980  27.023  28.360  1.00  0.00    -0.354 N 
ATOM     42  C   UNL A   1      44.462  31.064  28.943  1.00  0.00     0.074 A 
ATOM     43  C   UNL A   1      43.417  31.936  29.433  1.00  0.00     0.031 C 
ATOM     44  C   UNL A   1      41.426  25.418  28.289  1.00  0.00     0.029 A 
ATOM     45  C   UNL A   1      42.824  25.707  27.990  1.00  0.00     0.049 A 
ATOM     46  H   UNL A   1      43.840  27.500  28.304  1.00  0.00     0.167 HD
ATOM     47  C   UNL A   1      45.738  31.455  28.713  1.00  0.00     0.037 A 
ATOM     48  C   UNL A   1      43.701  24.839  27.452  1.00  0.00     0.037 A 
ATOM     49  C   UNL A   1      46.774  30.567  28.254  1.00  0.00     0.049 A 
ATOM     50  C   UNL A   1      45.111  25.300  27.194  1.00  0.00     0.074 A 
ATOM     51  C   UNL A   1      48.116  30.840  28.061  1.00  0.00     0.029 A 
ATOM     52  N   UNL A   1      46.581  29.236  27.911  1.00  0.00    -0.354 N 
ATOM     53  N   UNL A   1      45.645  26.479  27.417  1.00  0.00    -0.248 NA
ATOM     54  C   UNL A   1      46.038  24.321  26.612  1.00  0.00     0.031 C 
ATOM     55  C   UNL A   1      48.723  29.691  27.546  1.00  0.00     0.029 A 
ATOM     56  C   UNL A   1      47.772  28.684  27.473  1.00  0.00     0.049 A 
ATOM     57  H   UNL A   1      45.724  28.755  27.970  1.00  0.00     0.167 HD
ATOM     58  C   UNL A   1      46.973  26.377  27.017  1.00  0.00     0.074 A 
ATOM     59  C   UNL A   1      47.167  25.016  26.560  1.00  0.00     0.031 C 
ATOM     60  C   UNL A   1      47.943  27.323  27.024  1.00  0.00     0.037 A 
BRANCH  47  61
ATOM     61  C   UNL A   1      46.087  32.899  28.954  1.00  0.00     0.058 A 
ATOM     62  C   UNL A   1      45.983  33.864  27.940  1.00  0.00     0.135 A 
ATOM     63  C   UNL A   1      46.489  33.333  30.228  1.00  0.00     0.135 A 
ATOM     64  F   UNL A   1      45.619  33.506  26.698  1.00  0.00    -0.206 F 
ATOM     65  C   UNL A   1      46.290  35.201  28.172  1.00  0.00     0.059 A 
ATOM     66  C   UNL A   1      46.772  34.670  30.491  1.00  0.00     0.059 A 
ATOM     67  F   UNL A   1      46.609  32.453  31.235  1.00  0.00    -0.206 F 
ATOM     68  C   UNL A   1      46.681  35.595  29.452  1.00  0.00     0.060 A 
BRANCH  68  69
ATOM     69  S   UNL A   1      47.059  37.337  29.737  1.00  0.00     0.124 S 
ATOM     70  O   UNL A   1      47.389  37.334  31.159  1.00  0.00    -0.237 OA
ATOM     71  O   UNL A   1      48.177  37.565  28.827  1.00  0.00    -0.237 OA
ATOM     72  O   UNL A   1      45.816  38.018  29.385  1.00  0.00    -0.744 OA
ENDBRANCH  68  69
ENDBRANCH  47  61
BRANCH  48  73
ATOM     73  C   UNL A   1      43.275  23.451  27.125  1.00  0.00     0.058 A 
ATOM     74  C   UNL A   1      43.026  23.064  25.800  1.00  0.00     0.135 A 
ATOM     75  C   UNL A   1      43.121  22.479  28.127  1.00  0.00     0.135 A 
ATOM     76  F   UNL A   1      43.152  23.957  24.807  1.00  0.00    -0.206 F 
ATOM     77  C   UNL A   1      42.626  21.771  25.481  1.00  0.00     0.059 A 
ATOM     78  C   UNL A   1      42.750  21.170  27.830  1.00  0.00     0.059 A 
ATOM     79  F   UNL A   1      43.362  22.791  29.411  1.00  0.00    -0.206 F 
ATOM     80  C   UNL A   1      42.495  20.829  26.502  1.00  0.00     0.060 A 
BRANCH  80  81
ATOM     81  S   UNL A   1      42.021  19.141  26.068  1.00  0.00     0.124 S 
ATOM     82  O   UNL A   1      40.587  19.285  25.847  1.00  0.00    -0.237 OA
ATOM     83  O   UNL A   1      42.829  18.895  24.878  1.00  0.00    -0.237 OA
ATOM     84  O   UNL A   1      42.405  18.370  27.247  1.00  0.00    -0.744 OA
ENDBRANCH  80  81
ENDBRANCH  48  73
BRANCH  60  85
ATOM     85  C   UNL A   1      49.307  26.923  26.535  1.00  0.00     0.058 A 
ATOM     86  C   UNL A   1      50.249  26.334  27.391  1.00  0.00     0.135 A 
ATOM     87  C   UNL A   1      49.643  27.057  25.178  1.00  0.00     0.135 A 
ATOM     88  F   UNL A   1      49.980  26.193  28.698  1.00  0.00    -0.206 F 
ATOM     89  C   UNL A   1      51.483  25.897  26.921  1.00  0.00     0.059 A 
ATOM     90  C   UNL A   1      50.859  26.600  24.680  1.00  0.00     0.059 A 
ATOM     91  F   UNL A   1      48.773  27.607  24.316  1.00  0.00    -0.206 F 
ATOM     92  C   UNL A   1      51.775  26.026  25.561  1.00  0.00     0.060 A 
BRANCH  92  93
ATOM     93  S   UNL A   1      53.353  25.396  24.956  1.00  0.00     0.124 S 
ATOM     94  O   UNL A   1      54.303  26.191  25.726  1.00  0.00    -0.237 OA
ATOM     95  O   UNL A   1      53.278  23.981  25.306  1.00  0.00    -0.237 OA
ATOM     96  O   UNL A   1      53.310  25.684  23.525  1.00  0.00    -0.744 OA
ENDBRANCH  92  93
ENDBRANCH  60  85
ENDBRANCH  34  35
ENDBRANCH  26  29
ENDBRANCH  24  25
ENDBRANCH  23  24
ENDBRANCH  22  23
ENDBRANCH   1  22
TORSDOF 19
ENDMDL
MODEL 3
REMARK VINA RESULT:      -9.0      4.931     11.777
REMARK SMILES Cc1ccc(F)cc1NC(=O)CSCCC(=O)NCCCCNC(=O)c1ccc(-c2c3nc(c(-c4c(F)cc(S(=O)(=O)[O-])cc4F)c4ccc([nH]4)c(-c4c(F)cc(S(=O)(=O)[O-])cc4F)c4nc(c(-c5c(F)cc(S(=O)(=O)[O-])cc5F)c5ccc2[nH]5)C=C4)C=C3)cc1
REMARK SMILES IDX 19 1 18 2 16 3 17 4 15 6 14 7 13 8 12 9 10 10 9 11 11 13
REMARK SMILES IDX 8 14 1 15 2 16 3 17 4 18 7 19 5 20 6 21 20 22 21 23 22 24
REMARK SMILES IDX 23 25 24 26 25 28 26 29 27 30 91 31 28 32 90 33 29 34 30 35
REMARK SMILES IDX 31 36 84 37 32 38 89 39 83 40 85 41 33 42 88 43 82 44 81 45
REMARK SMILES IDX 34 47 68 48 47 49 67 50 48 51 51 52 66 53 86 54 49 55 50 56
REMARK SMILES IDX 65 58 87 59 52 60 35 61 36 62 45 63 37 64 38 65 44 66 46 67
REMARK SMILES IDX 39 68 40 69 41 70 42 71 43 72 69 73 70 74 79 75 71 76 72 77
REMARK SMILES IDX 78 78 80 79 73 80 74 81 75 82 76 83 77 84 53 85 54 86 63 87
REMARK SMILES IDX 55 88 56 89 62 90 64 91 57 92 58 93 59 94 60 95 61 96
REMARK H PARENT 18 5 9 12 23 27 85 46 51 57
REMARK Flexibility Score: inf
ROOT
ATOM      1  C   UNL A   1      37.207  23.273  24.970  1.00  0.00     0.116 C 
ENDROOT
BRANCH   1   2
ATOM      2  N   UNL A   1      37.126  21.825  24.873  1.00  0.00    -0.356 N 
ATOM      3  C   UNL A   1      36.093  20.975  25.117  1.00  0.00     0.220 C 
ATOM      4  O   UNL A   1      36.260  19.774  24.894  1.00  0.00    -0.275 OA
ATOM      5  H   UNL A   1      37.959  21.387  24.584  1.00  0.00     0.163 HD
BRANCH   3   6
ATOM      6  C   UNL A   1      34.776  21.488  25.646  1.00  0.00     0.111 C 
BRANCH   6   7
ATOM      7  C   UNL A   1      33.605  21.134  24.730  1.00  0.00     0.080 C 
BRANCH   7   8
ATOM      8  S   UNL A   1      32.628  22.557  24.119  1.00  0.00    -0.151 SA
BRANCH   8   9
ATOM      9  C   UNL A   1      33.895  23.864  24.134  1.00  0.00     0.169 C 
BRANCH   9  10
ATOM     10  C   UNL A   1      33.546  25.040  23.257  1.00  0.00     0.234 C 
ATOM     11  N   UNL A   1      33.099  26.246  23.695  1.00  0.00    -0.325 N 
ATOM     12  H   UNL A   1      32.911  26.856  22.945  1.00  0.00     0.169 HD
ATOM     13  O   UNL A   1      33.650  24.918  22.027  1.00  0.00    -0.274 OA
BRANCH  11  14
ATOM     14  C   UNL A   1      32.832  26.855  24.937  1.00  0.00     0.047 A 
ATOM     15  C   UNL A   1      30.341  26.168  24.732  1.00  0.00     0.046 C 
ATOM     16  C   UNL A   1      31.510  26.804  25.444  1.00  0.00    -0.027 A 
ATOM     17  C   UNL A   1      31.204  27.431  26.674  1.00  0.00     0.008 A 
ATOM     18  C   UNL A   1      32.185  28.087  27.407  1.00  0.00     0.039 A 
ATOM     19  C   UNL A   1      33.801  27.500  25.704  1.00  0.00     0.065 A 
ATOM     20  C   UNL A   1      33.477  28.108  26.917  1.00  0.00     0.125 A 
ATOM     21  F   UNL A   1      34.437  28.726  27.619  1.00  0.00    -0.207 F 
ENDBRANCH  11  14
ENDBRANCH   9  10
ENDBRANCH   8   9
ENDBRANCH   7   8
ENDBRANCH   6   7
ENDBRANCH   3   6
ENDBRANCH   1   2
BRANCH   1  22
ATOM     22  C   UNL A   1      38.030  23.751  26.164  1.00  0.00     0.023 C 
BRANCH  22  23
ATOM     23  C   UNL A   1      39.161  22.802  26.583  1.00  0.00     0.023 C 
BRANCH  23  24
ATOM     24  C   UNL A   1      40.379  23.497  27.174  1.00  0.00     0.116 C 
BRANCH  24  25
ATOM     25  N   UNL A   1      41.145  24.210  26.162  1.00  0.00    -0.352 N 
ATOM     26  C   UNL A   1      41.453  25.548  26.081  1.00  0.00     0.251 C 
ATOM     27  H   UNL A   1      41.492  23.654  25.429  1.00  0.00     0.163 HD
ATOM     28  O   UNL A   1      41.968  25.993  25.063  1.00  0.00    -0.269 OA
BRANCH  26  29
ATOM     29  C   UNL A   1      41.135  26.450  27.211  1.00  0.00     0.039 A 
ATOM     30  C   UNL A   1      40.135  26.076  28.113  1.00  0.00     0.014 A 
ATOM     31  C   UNL A   1      41.829  27.648  27.391  1.00  0.00     0.014 A 
ATOM     32  C   UNL A   1      39.885  26.869  29.236  1.00  0.00     0.010 A 
ATOM     33  C   UNL A   1      41.643  28.387  28.554  1.00  0.00     0.010 A 
ATOM     34  C   UNL A   1      40.670  28.005  29.489  1.00  0.00    -0.014 A 
BRANCH  34  35
ATOM     35  C   UNL A   1      40.505  28.809  30.726  1.00  0.00     0.031 A 
ATOM     36  C   UNL A   1      39.469  29.899  30.777  1.00  0.00     0.074 A 
ATOM     37  C   UNL A   1      41.349  28.616  31.760  1.00  0.00     0.049 A 
ATOM     38  N   UNL A   1      39.251  30.786  31.713  1.00  0.00    -0.248 NA
ATOM     39  C   UNL A   1      38.584  30.031  29.608  1.00  0.00     0.031 C 
ATOM     40  C   UNL A   1      42.425  27.622  31.798  1.00  0.00     0.029 A 
ATOM     41  N   UNL A   1      41.451  29.257  32.968  1.00  0.00    -0.354 N 
ATOM     42  C   UNL A   1      38.223  31.592  31.237  1.00  0.00     0.074 A 
ATOM     43  C   UNL A   1      37.896  31.123  29.908  1.00  0.00     0.031 C 
ATOM     44  C   UNL A   1      43.064  27.709  32.975  1.00  0.00     0.029 A 
ATOM     45  C   UNL A   1      42.480  28.794  33.755  1.00  0.00     0.049 A 
ATOM     46  H   UNL A   1      40.843  29.980  33.247  1.00  0.00     0.167 HD
ATOM     47  C   UNL A   1      37.593  32.614  31.863  1.00  0.00     0.037 A 
ATOM     48  C   UNL A   1      42.917  29.210  34.959  1.00  0.00     0.037 A 
ATOM     49  C   UNL A   1      37.910  33.048  33.198  1.00  0.00     0.049 A 
ATOM     50  C   UNL A   1      42.208  30.356  35.630  1.00  0.00     0.074 A 
ATOM     51  C   UNL A   1      37.286  34.022  33.956  1.00  0.00     0.029 A 
ATOM     52  N   UNL A   1      38.946  32.540  33.972  1.00  0.00    -0.354 N 
ATOM     53  N   UNL A   1      41.182  31.054  35.201  1.00  0.00    -0.248 NA
ATOM     54  C   UNL A   1      42.712  30.775  36.944  1.00  0.00     0.031 C 
ATOM     55  C   UNL A   1      37.978  34.143  35.164  1.00  0.00     0.029 A 
ATOM     56  C   UNL A   1      39.000  33.205  35.184  1.00  0.00     0.049 A 
ATOM     57  H   UNL A   1      39.552  31.815  33.698  1.00  0.00     0.167 HD
ATOM     58  C   UNL A   1      40.909  31.983  36.199  1.00  0.00     0.074 A 
ATOM     59  C   UNL A   1      41.863  31.743  37.262  1.00  0.00     0.031 C 
ATOM     60  C   UNL A   1      39.958  32.948  36.232  1.00  0.00     0.037 A 
BRANCH  47  61
ATOM     61  C   UNL A   1      36.500  33.330  31.118  1.00  0.00     0.058 A 
ATOM     62  C   UNL A   1      36.777  34.187  30.041  1.00  0.00     0.135 A 
ATOM     63  C   UNL A   1      35.152  33.122  31.455  1.00  0.00     0.135 A 
ATOM     64  F   UNL A   1      38.048  34.437  29.684  1.00  0.00    -0.206 F 
ATOM     65  C   UNL A   1      35.762  34.834  29.344  1.00  0.00     0.059 A 
ATOM     66  C   UNL A   1      34.118  33.734  30.752  1.00  0.00     0.059 A 
ATOM     67  F   UNL A   1      34.827  32.316  32.477  1.00  0.00    -0.206 F 
ATOM     68  C   UNL A   1      34.435  34.598  29.705  1.00  0.00     0.060 A 
BRANCH  68  69
ATOM     69  S   UNL A   1      33.131  35.434  28.777  1.00  0.00     0.124 S 
ATOM     70  O   UNL A   1      32.354  36.044  29.851  1.00  0.00    -0.237 OA
ATOM     71  O   UNL A   1      33.889  36.357  27.938  1.00  0.00    -0.237 OA
ATOM     72  O   UNL A   1      32.467  34.345  28.065  1.00  0.00    -0.744 OA
ENDBRANCH  68  69
ENDBRANCH  47  61
BRANCH  48  73
ATOM     73  C   UNL A   1      44.078  28.540  35.605  1.00  0.00     0.058 A 
ATOM     74  C   UNL A   1      45.391  28.957  35.343  1.00  0.00     0.135 A 
ATOM     75  C   UNL A   1      43.899  27.481  36.510  1.00  0.00     0.135 A 
ATOM     76  F   UNL A   1      45.616  29.961  34.482  1.00  0.00    -0.206 F 
ATOM     77  C   UNL A   1      46.486  28.340  35.940  1.00  0.00     0.059 A 
ATOM     78  C   UNL A   1      44.976  26.865  37.142  1.00  0.00     0.059 A 
ATOM     79  F   UNL A   1      42.663  27.052  36.809  1.00  0.00    -0.206 F 
ATOM     80  C   UNL A   1      46.268  27.297  36.842  1.00  0.00     0.060 A 
BRANCH  80  81
ATOM     81  S   UNL A   1      47.696  26.535  37.645  1.00  0.00     0.124 S 
ATOM     82  O   UNL A   1      48.109  25.557  36.645  1.00  0.00    -0.237 OA
ATOM     83  O   UNL A   1      48.586  27.677  37.829  1.00  0.00    -0.237 OA
ATOM     84  O   UNL A   1      47.135  25.984  38.875  1.00  0.00    -0.744 OA
ENDBRANCH  80  81
ENDBRANCH  48  73
BRANCH  60  85
ATOM     85  C   UNL A   1      39.888  33.813  37.459  1.00  0.00     0.058 A 
ATOM     86  C   UNL A   1      40.653  34.983  37.575  1.00  0.00     0.135 A 
ATOM     87  C   UNL A   1      38.985  33.511  38.492  1.00  0.00     0.135 A 
ATOM     88  F   UNL A   1      41.537  35.310  36.619  1.00  0.00    -0.206 F 
ATOM     89  C   UNL A   1      40.533  35.822  38.678  1.00  0.00     0.059 A 
ATOM     90  C   UNL A   1      38.827  34.351  39.590  1.00  0.00     0.059 A 
ATOM     91  F   UNL A   1      38.225  32.407  38.425  1.00  0.00    -0.206 F 
ATOM     92  C   UNL A   1      39.609  35.502  39.676  1.00  0.00     0.060 A 
BRANCH  92  93
ATOM     93  S   UNL A   1      39.420  36.633  41.068  1.00  0.00     0.124 S 
ATOM     94  O   UNL A   1      40.808  36.872  41.446  1.00  0.00    -0.237 OA
ATOM     95  O   UNL A   1      38.724  37.762  40.458  1.00  0.00    -0.237 OA
ATOM     96  O   UNL A   1      38.632  35.864  42.028  1.00  0.00    -0.744 OA
ENDBRANCH  92  93
ENDBRANCH  60  85
ENDBRANCH  34  35
ENDBRANCH  26  29
ENDBRANCH  24  25
ENDBRANCH  23  24
ENDBRANCH  22  23
ENDBRANCH   1  22
TORSDOF 19
ENDMDL
