MODEL 1
REMARK VINA RESULT:     -12.9      0.000      0.000
REMARK SMILES Cc1ccc2c(CC(=O)N3CCC(C(=O)NCCCCNC(=O)c4ccc(-c5c6nc(c(-c7c(F)cc(S(=O)(=O)[O-])cc7F)c7ccc([nH]7)c(-c7c(F)cc(S(=O)(=O)[O-])cc7F)c7nc(c(-c8c(F)cc(S(=O)(=O)[O-])cc8F)c8ccc5[nH]8)C=C7)C=C6)cc4)CC3)coc2c1
REMARK SMILES IDX 19 1 18 2 17 3 16 4 14 5 15 6 13 8 8 9 9 10 10 11 11 12
REMARK SMILES IDX 91 13 12 14 90 15 7 16 6 17 1 18 2 19 3 20 95 21 4 22 94 23
REMARK SMILES IDX 5 24 93 25 92 26 20 27 21 28 22 29 23 31 24 32 25 33 89 34
REMARK SMILES IDX 26 35 88 36 27 37 28 38 29 39 82 40 30 41 87 42 81 43 83 44
REMARK SMILES IDX 31 45 86 46 80 47 79 48 32 50 66 51 45 52 65 53 46 54 49 55
REMARK SMILES IDX 64 56 84 57 47 58 48 59 63 61 85 62 50 63 33 64 34 65 43 66
REMARK SMILES IDX 35 67 36 68 42 69 44 70 37 71 38 72 39 73 40 74 41 75 67 76
REMARK SMILES IDX 68 77 77 78 69 79 70 80 76 81 78 82 71 83 72 84 73 85 74 86
REMARK SMILES IDX 75 87 51 88 52 89 61 90 53 91 54 92 60 93 62 94 55 95 56 96
REMARK SMILES IDX 57 97 58 98 59 99
REMARK H PARENT 16 7 21 30 83 49 49 60
REMARK Flexibility Score: inf
ROOT
ATOM      1  C   UNL A   1      40.777  19.783  26.098  1.00  0.00     0.023 C 
ENDROOT
BRANCH   1   2
ATOM      2  C   UNL A   1      40.374  21.175  26.602  1.00  0.00     0.023 C 
BRANCH   2   3
ATOM      3  C   UNL A   1      39.243  21.837  25.820  1.00  0.00     0.116 C 
BRANCH   3   4
ATOM      4  N   UNL A   1      38.210  20.887  25.439  1.00  0.00    -0.356 N 
ATOM      5  C   UNL A   1      36.933  21.089  25.013  1.00  0.00     0.223 C 
ATOM      6  O   UNL A   1      36.261  20.103  24.698  1.00  0.00    -0.275 OA
ATOM      7  H   UNL A   1      38.478  19.942  25.498  1.00  0.00     0.163 HD
BRANCH   5   8
ATOM      8  C   UNL A   1      36.346  22.488  24.889  1.00  0.00     0.082 C 
ATOM      9  C   UNL A   1      32.621  23.887  25.292  1.00  0.00     0.227 C 
ATOM     10  O   UNL A   1      31.990  23.099  24.580  1.00  0.00    -0.275 OA
ATOM     11  N   UNL A   1      33.977  24.106  25.080  1.00  0.00    -0.342 N 
ATOM     12  C   UNL A   1      34.531  23.861  23.755  1.00  0.00     0.120 C 
ATOM     13  C   UNL A   1      34.981  24.249  26.124  1.00  0.00     0.120 C 
ATOM     14  C   UNL A   1      35.369  22.595  23.709  1.00  0.00     0.035 C 
ATOM     15  C   UNL A   1      35.808  22.974  26.244  1.00  0.00     0.035 C 
BRANCH   9  16
ATOM     16  C   UNL A   1      31.854  24.820  26.228  1.00  0.00     0.139 C 
BRANCH  16  17
ATOM     17  C   UNL A   1      31.855  26.266  25.892  1.00  0.00     0.008 A 
ATOM     18  C   UNL A   1      29.152  29.736  22.274  1.00  0.00     0.044 C 
ATOM     19  C   UNL A   1      29.758  28.792  23.272  1.00  0.00    -0.047 A 
ATOM     20  C   UNL A   1      29.254  27.487  23.377  1.00  0.00     0.004 A 
ATOM     21  C   UNL A   1      30.847  29.198  24.063  1.00  0.00     0.051 A 
ATOM     22  C   UNL A   1      29.831  26.550  24.245  1.00  0.00     0.012 A 
ATOM     23  C   UNL A   1      31.400  28.241  24.913  1.00  0.00     0.134 A 
ATOM     24  C   UNL A   1      30.943  26.935  25.016  1.00  0.00     0.024 A 
ATOM     25  O   UNL A   1      32.471  28.429  25.730  1.00  0.00    -0.464 OA
ATOM     26  C   UNL A   1      32.733  27.238  26.330  1.00  0.00     0.200 A 
ENDBRANCH  16  17
ENDBRANCH   9  16
ENDBRANCH   5   8
ENDBRANCH   3   4
ENDBRANCH   2   3
ENDBRANCH   1   2
BRANCH   1  27
ATOM     27  C   UNL A   1      42.240  19.421  26.351  1.00  0.00     0.116 C 
BRANCH  27  28
ATOM     28  N   UNL A   1      43.099  19.653  25.208  1.00  0.00    -0.352 N 
ATOM     29  C   UNL A   1      43.907  20.673  24.798  1.00  0.00     0.251 C 
ATOM     30  H   UNL A   1      43.098  18.897  24.577  1.00  0.00     0.163 HD
ATOM     31  O   UNL A   1      44.594  20.440  23.798  1.00  0.00    -0.269 OA
BRANCH  29  32
ATOM     32  C   UNL A   1      43.967  22.022  25.416  1.00  0.00     0.039 A 
ATOM     33  C   UNL A   1      44.813  22.404  26.458  1.00  0.00     0.014 A 
ATOM     34  C   UNL A   1      43.026  22.952  24.935  1.00  0.00     0.014 A 
ATOM     35  C   UNL A   1      44.645  23.632  27.084  1.00  0.00     0.010 A 
ATOM     36  C   UNL A   1      42.868  24.187  25.543  1.00  0.00     0.010 A 
ATOM     37  C   UNL A   1      43.635  24.494  26.661  1.00  0.00    -0.014 A 
BRANCH  37  38
ATOM     38  C   UNL A   1      43.455  25.745  27.389  1.00  0.00     0.031 A 
ATOM     39  C   UNL A   1      44.503  26.776  27.128  1.00  0.00     0.074 A 
ATOM     40  C   UNL A   1      42.360  25.978  28.143  1.00  0.00     0.049 A 
ATOM     41  N   UNL A   1      45.320  27.329  27.964  1.00  0.00    -0.248 NA
ATOM     42  C   UNL A   1      44.760  27.136  25.722  1.00  0.00     0.031 C 
ATOM     43  C   UNL A   1      41.152  25.154  28.262  1.00  0.00     0.029 A 
ATOM     44  N   UNL A   1      42.046  27.071  28.885  1.00  0.00    -0.354 N 
ATOM     45  C   UNL A   1      46.048  28.264  27.227  1.00  0.00     0.074 A 
ATOM     46  C   UNL A   1      45.778  27.990  25.841  1.00  0.00     0.031 C 
ATOM     47  C   UNL A   1      40.158  25.895  28.805  1.00  0.00     0.029 A 
ATOM     48  C   UNL A   1      40.696  27.184  29.199  1.00  0.00     0.049 A 
ATOM     49  H   UNL A   1      42.718  27.730  29.177  1.00  0.00     0.167 HD
ATOM     50  C   UNL A   1      46.652  29.337  27.811  1.00  0.00     0.037 A 
ATOM     51  C   UNL A   1      40.066  28.294  29.663  1.00  0.00     0.037 A 
ATOM     52  C   UNL A   1      46.822  29.151  29.225  1.00  0.00     0.049 A 
ATOM     53  C   UNL A   1      41.118  29.183  30.229  1.00  0.00     0.074 A 
ATOM     54  C   UNL A   1      47.510  28.244  30.008  1.00  0.00     0.029 A 
ATOM     55  N   UNL A   1      45.932  29.768  30.069  1.00  0.00    -0.354 N 
ATOM     56  N   UNL A   1      41.828  28.888  31.285  1.00  0.00    -0.248 NA
ATOM     57  C   UNL A   1      41.702  30.178  29.343  1.00  0.00     0.031 C 
ATOM     58  C   UNL A   1      46.662  28.009  31.129  1.00  0.00     0.029 A 
ATOM     59  C   UNL A   1      45.542  28.830  30.992  1.00  0.00     0.049 A 
ATOM     60  H   UNL A   1      45.629  30.704  30.021  1.00  0.00     0.167 HD
ATOM     61  C   UNL A   1      43.109  29.333  30.989  1.00  0.00     0.074 A 
ATOM     62  C   UNL A   1      42.955  30.175  29.805  1.00  0.00     0.031 C 
ATOM     63  C   UNL A   1      44.212  28.758  31.555  1.00  0.00     0.037 A 
BRANCH  50  64
ATOM     64  C   UNL A   1      46.767  30.691  27.155  1.00  0.00     0.058 A 
ATOM     65  C   UNL A   1      48.008  31.358  27.131  1.00  0.00     0.135 A 
ATOM     66  C   UNL A   1      45.644  31.477  26.812  1.00  0.00     0.135 A 
ATOM     67  F   UNL A   1      49.138  30.709  27.455  1.00  0.00    -0.206 F 
ATOM     68  C   UNL A   1      48.117  32.721  26.848  1.00  0.00     0.059 A 
ATOM     69  C   UNL A   1      45.736  32.823  26.475  1.00  0.00     0.059 A 
ATOM     70  F   UNL A   1      44.395  31.003  26.885  1.00  0.00    -0.206 F 
ATOM     71  C   UNL A   1      46.970  33.448  26.537  1.00  0.00     0.060 A 
BRANCH  71  72
ATOM     72  S   UNL A   1      47.091  35.227  26.288  1.00  0.00     0.124 S 
ATOM     73  O   UNL A   1      47.979  35.303  25.137  1.00  0.00    -0.237 OA
ATOM     74  O   UNL A   1      45.699  35.593  26.051  1.00  0.00    -0.237 OA
ATOM     75  O   UNL A   1      47.651  35.706  27.552  1.00  0.00    -0.744 OA
ENDBRANCH  71  72
ENDBRANCH  50  64
BRANCH  51  76
ATOM     76  C   UNL A   1      38.728  28.805  29.249  1.00  0.00     0.058 A 
ATOM     77  C   UNL A   1      37.696  28.991  30.187  1.00  0.00     0.135 A 
ATOM     78  C   UNL A   1      38.523  29.392  27.982  1.00  0.00     0.135 A 
ATOM     79  F   UNL A   1      37.814  28.488  31.425  1.00  0.00    -0.206 F 
ATOM     80  C   UNL A   1      36.554  29.753  29.904  1.00  0.00     0.059 A 
ATOM     81  C   UNL A   1      37.390  30.146  27.674  1.00  0.00     0.059 A 
ATOM     82  F   UNL A   1      39.462  29.331  27.029  1.00  0.00    -0.206 F 
ATOM     83  C   UNL A   1      36.422  30.346  28.649  1.00  0.00     0.060 A 
BRANCH  83  84
ATOM     84  S   UNL A   1      35.040  31.471  28.334  1.00  0.00     0.124 S 
ATOM     85  O   UNL A   1      34.063  30.585  27.711  1.00  0.00    -0.237 OA
ATOM     86  O   UNL A   1      34.713  31.939  29.676  1.00  0.00    -0.237 OA
ATOM     87  O   UNL A   1      35.618  32.479  27.449  1.00  0.00    -0.744 OA
ENDBRANCH  83  84
ENDBRANCH  51  76
BRANCH  63  88
ATOM     88  C   UNL A   1      44.018  27.800  32.702  1.00  0.00     0.058 A 
ATOM     89  C   UNL A   1      43.791  28.192  34.034  1.00  0.00     0.135 A 
ATOM     90  C   UNL A   1      43.884  26.436  32.405  1.00  0.00     0.135 A 
ATOM     91  F   UNL A   1      43.796  29.486  34.383  1.00  0.00    -0.206 F 
ATOM     92  C   UNL A   1      43.481  27.263  35.031  1.00  0.00     0.059 A 
ATOM     93  C   UNL A   1      43.547  25.498  33.376  1.00  0.00     0.059 A 
ATOM     94  F   UNL A   1      44.026  26.007  31.140  1.00  0.00    -0.206 F 
ATOM     95  C   UNL A   1      43.356  25.917  34.691  1.00  0.00     0.060 A 
BRANCH  95  96
ATOM     96  S   UNL A   1      42.879  24.724  35.961  1.00  0.00     0.124 S 
ATOM     97  O   UNL A   1      41.420  24.787  35.909  1.00  0.00    -0.237 OA
ATOM     98  O   UNL A   1      43.475  23.482  35.466  1.00  0.00    -0.237 OA
ATOM     99  O   UNL A   1      43.483  25.253  37.175  1.00  0.00    -0.744 OA
ENDBRANCH  95  96
ENDBRANCH  63  88
ENDBRANCH  37  38
ENDBRANCH  29  32
ENDBRANCH  27  28
ENDBRANCH   1  27
TORSDOF 16
ENDMDL
MODEL 2
REMARK VINA RESULT:     -12.6      2.080      3.079
REMARK SMILES Cc1ccc2c(CC(=O)N3CCC(C(=O)NCCCCNC(=O)c4ccc(-c5c6nc(c(-c7c(F)cc(S(=O)(=O)[O-])cc7F)c7ccc([nH]7)c(-c7c(F)cc(S(=O)(=O)[O-])cc7F)c7nc(c(-c8c(F)cc(S(=O)(=O)[O-])cc8F)c8ccc5[nH]8)C=C7)C=C6)cc4)CC3)coc2c1
REMARK SMILES IDX 19 1 18 2 17 3 16 4 14 5 15 6 13 8 8 9 9 10 10 11 11 12
REMARK SMILES IDX 91 13 12 14 90 15 7 16 6 17 1 18 2 19 3 20 95 21 4 22 94 23
REMARK SMILES IDX 5 24 93 25 92 26 20 27 21 28 22 29 23 31 24 32 25 33 89 34
REMARK SMILES IDX 26 35 88 36 27 37 28 38 29 39 82 40 30 41 87 42 81 43 83 44
REMARK SMILES IDX 31 45 86 46 80 47 79 48 32 50 66 51 45 52 65 53 46 54 49 55
REMARK SMILES IDX 64 56 84 57 47 58 48 59 63 61 85 62 50 63 33 64 34 65 43 66
REMARK SMILES IDX 35 67 36 68 42 69 44 70 37 71 38 72 39 73 40 74 41 75 67 76
REMARK SMILES IDX 68 77 77 78 69 79 70 80 76 81 78 82 71 83 72 84 73 85 74 86
REMARK SMILES IDX 75 87 51 88 52 89 61 90 53 91 54 92 60 93 62 94 55 95 56 96
REMARK SMILES IDX 57 97 58 98 59 99
REMARK H PARENT 16 7 21 30 83 49 49 60
REMARK Flexibility Score: inf
ROOT
ATOM      1  C   UNL A   1      39.372  21.873  26.147  1.00  0.00     0.023 C 
ENDROOT
BRANCH   1   2
ATOM      2  C   UNL A   1      38.760  23.249  26.443  1.00  0.00     0.023 C 
BRANCH   2   3
ATOM      3  C   UNL A   1      37.396  23.495  25.804  1.00  0.00     0.116 C 
BRANCH   3   4
ATOM      4  N   UNL A   1      36.343  22.721  26.442  1.00  0.00    -0.356 N 
ATOM      5  C   UNL A   1      35.165  22.252  25.948  1.00  0.00     0.223 C 
ATOM      6  O   UNL A   1      34.455  21.566  26.688  1.00  0.00    -0.275 OA
ATOM      7  H   UNL A   1      36.509  22.500  27.387  1.00  0.00     0.163 HD
BRANCH   5   8
ATOM      8  C   UNL A   1      34.737  22.525  24.513  1.00  0.00     0.082 C 
ATOM      9  C   UNL A   1      31.647  24.539  22.966  1.00  0.00     0.227 C 
ATOM     10  O   UNL A   1      30.704  24.061  23.605  1.00  0.00    -0.275 OA
ATOM     11  N   UNL A   1      32.828  23.825  22.800  1.00  0.00    -0.342 N 
ATOM     12  C   UNL A   1      32.789  22.371  22.885  1.00  0.00     0.120 C 
ATOM     13  C   UNL A   1      34.170  24.386  22.868  1.00  0.00     0.120 C 
ATOM     14  C   UNL A   1      33.395  21.857  24.180  1.00  0.00     0.035 C 
ATOM     15  C   UNL A   1      34.829  24.026  24.195  1.00  0.00     0.035 C 
BRANCH   9  16
ATOM     16  C   UNL A   1      31.417  25.800  22.133  1.00  0.00     0.139 C 
BRANCH  16  17
ATOM     17  C   UNL A   1      31.158  27.061  22.872  1.00  0.00     0.008 A 
ATOM     18  C   UNL A   1      33.518  29.974  27.160  1.00  0.00     0.044 C 
ATOM     19  C   UNL A   1      32.999  29.216  25.972  1.00  0.00    -0.047 A 
ATOM     20  C   UNL A   1      33.747  28.144  25.462  1.00  0.00     0.004 A 
ATOM     21  C   UNL A   1      31.758  29.549  25.403  1.00  0.00     0.051 A 
ATOM     22  C   UNL A   1      33.271  27.363  24.399  1.00  0.00     0.012 A 
ATOM     23  C   UNL A   1      31.313  28.753  24.350  1.00  0.00     0.134 A 
ATOM     24  C   UNL A   1      32.014  27.667  23.845  1.00  0.00     0.024 A 
ATOM     25  O   UNL A   1      30.130  28.893  23.691  1.00  0.00    -0.464 OA
ATOM     26  C   UNL A   1      30.048  27.879  22.791  1.00  0.00     0.200 A 
ENDBRANCH  16  17
ENDBRANCH   9  16
ENDBRANCH   5   8
ENDBRANCH   3   4
ENDBRANCH   2   3
ENDBRANCH   1   2
BRANCH   1  27
ATOM     27  C   UNL A   1      40.834  21.730  26.568  1.00  0.00     0.116 C 
BRANCH  27  28
ATOM     28  N   UNL A   1      41.774  22.070  25.520  1.00  0.00    -0.352 N 
ATOM     29  C   UNL A   1      42.627  23.109  25.287  1.00  0.00     0.251 C 
ATOM     30  H   UNL A   1      41.803  21.391  24.807  1.00  0.00     0.163 HD
ATOM     31  O   UNL A   1      43.377  22.975  24.315  1.00  0.00    -0.269 OA
BRANCH  29  32
ATOM     32  C   UNL A   1      42.667  24.376  26.061  1.00  0.00     0.039 A 
ATOM     33  C   UNL A   1      43.480  24.629  27.167  1.00  0.00     0.014 A 
ATOM     34  C   UNL A   1      41.742  25.359  25.663  1.00  0.00     0.014 A 
ATOM     35  C   UNL A   1      43.292  25.776  27.927  1.00  0.00     0.010 A 
ATOM     36  C   UNL A   1      41.565  26.516  26.407  1.00  0.00     0.010 A 
ATOM     37  C   UNL A   1      42.297  26.686  27.577  1.00  0.00    -0.014 A 
BRANCH  37  38
ATOM     38  C   UNL A   1      42.094  27.843  28.441  1.00  0.00     0.031 A 
ATOM     39  C   UNL A   1      43.205  28.840  28.420  1.00  0.00     0.074 A 
ATOM     40  C   UNL A   1      40.937  28.039  29.108  1.00  0.00     0.049 A 
ATOM     41  N   UNL A   1      43.953  29.239  29.397  1.00  0.00    -0.248 NA
ATOM     42  C   UNL A   1      43.622  29.360  27.105  1.00  0.00     0.031 C 
ATOM     43  C   UNL A   1      39.690  27.274  29.000  1.00  0.00     0.029 A 
ATOM     44  N   UNL A   1      40.593  29.046  29.953  1.00  0.00    -0.354 N 
ATOM     45  C   UNL A   1      44.792  30.218  28.863  1.00  0.00     0.074 A 
ATOM     46  C   UNL A   1      44.656  30.136  27.433  1.00  0.00     0.031 C 
ATOM     47  C   UNL A   1      38.677  27.993  29.536  1.00  0.00     0.029 A 
ATOM     48  C   UNL A   1      39.223  29.192  30.145  1.00  0.00     0.049 A 
ATOM     49  H   UNL A   1      41.258  29.625  30.392  1.00  0.00     0.167 HD
ATOM     50  C   UNL A   1      45.376  31.175  29.638  1.00  0.00     0.037 A 
ATOM     51  C   UNL A   1      38.596  30.268  30.686  1.00  0.00     0.037 A 
ATOM     52  C   UNL A   1      45.390  30.803  31.025  1.00  0.00     0.049 A 
ATOM     53  C   UNL A   1      39.619  31.020  31.463  1.00  0.00     0.074 A 
ATOM     54  C   UNL A   1      45.955  29.769  31.747  1.00  0.00     0.029 A 
ATOM     55  N   UNL A   1      44.443  31.357  31.852  1.00  0.00    -0.354 N 
ATOM     56  N   UNL A   1      40.203  30.556  32.536  1.00  0.00    -0.248 NA
ATOM     57  C   UNL A   1      40.333  32.085  30.776  1.00  0.00     0.031 C 
ATOM     58  C   UNL A   1      44.986  29.442  32.739  1.00  0.00     0.029 A 
ATOM     59  C   UNL A   1      43.921  30.334  32.602  1.00  0.00     0.049 A 
ATOM     60  H   UNL A   1      44.187  32.307  31.897  1.00  0.00     0.167 HD
ATOM     61  C   UNL A   1      41.525  30.964  32.427  1.00  0.00     0.074 A 
ATOM     62  C   UNL A   1      41.529  31.956  31.354  1.00  0.00     0.031 C 
ATOM     63  C   UNL A   1      42.538  30.264  33.018  1.00  0.00     0.037 A 
BRANCH  50  64
ATOM     64  C   UNL A   1      45.614  32.592  29.179  1.00  0.00     0.058 A 
ATOM     65  C   UNL A   1      44.526  33.397  28.789  1.00  0.00     0.135 A 
ATOM     66  C   UNL A   1      46.893  33.086  28.836  1.00  0.00     0.135 A 
ATOM     67  F   UNL A   1      43.266  33.016  29.051  1.00  0.00    -0.206 F 
ATOM     68  C   UNL A   1      44.693  34.574  28.055  1.00  0.00     0.059 A 
ATOM     69  C   UNL A   1      47.086  34.280  28.153  1.00  0.00     0.059 A 
ATOM     70  F   UNL A   1      48.010  32.382  29.059  1.00  0.00    -0.206 F 
ATOM     71  C   UNL A   1      45.980  34.998  27.729  1.00  0.00     0.060 A 
BRANCH  71  72
ATOM     72  S   UNL A   1      46.194  36.448  26.684  1.00  0.00     0.124 S 
ATOM     73  O   UNL A   1      46.410  35.839  25.379  1.00  0.00    -0.237 OA
ATOM     74  O   UNL A   1      44.924  37.142  26.867  1.00  0.00    -0.237 OA
ATOM     75  O   UNL A   1      47.356  37.116  27.270  1.00  0.00    -0.744 OA
ENDBRANCH  71  72
ENDBRANCH  50  64
BRANCH  51  76
ATOM     76  C   UNL A   1      37.330  30.898  30.213  1.00  0.00     0.058 A 
ATOM     77  C   UNL A   1      36.370  31.378  31.123  1.00  0.00     0.135 A 
ATOM     78  C   UNL A   1      37.165  31.304  28.872  1.00  0.00     0.135 A 
ATOM     79  F   UNL A   1      36.460  31.063  32.424  1.00  0.00    -0.206 F 
ATOM     80  C   UNL A   1      35.339  32.246  30.737  1.00  0.00     0.059 A 
ATOM     81  C   UNL A   1      36.141  32.159  28.462  1.00  0.00     0.059 A 
ATOM     82  F   UNL A   1      38.051  30.958  27.929  1.00  0.00    -0.206 F 
ATOM     83  C   UNL A   1      35.247  32.649  29.405  1.00  0.00     0.060 A 
BRANCH  83  84
ATOM     84  S   UNL A   1      34.030  33.901  28.933  1.00  0.00     0.124 S 
ATOM     85  O   UNL A   1      33.427  34.237  30.217  1.00  0.00    -0.237 OA
ATOM     86  O   UNL A   1      34.868  34.932  28.332  1.00  0.00    -0.237 OA
ATOM     87  O   UNL A   1      33.156  33.191  28.002  1.00  0.00    -0.744 OA
ENDBRANCH  83  84
ENDBRANCH  51  76
BRANCH  63  88
ATOM     88  C   UNL A   1      42.186  29.181  34.006  1.00  0.00     0.058 A 
ATOM     89  C   UNL A   1      41.948  27.839  33.661  1.00  0.00     0.135 A 
ATOM     90  C   UNL A   1      42.266  29.486  35.372  1.00  0.00     0.135 A 
ATOM     91  F   UNL A   1      41.960  27.443  32.381  1.00  0.00    -0.206 F 
ATOM     92  C   UNL A   1      41.762  26.852  34.633  1.00  0.00     0.059 A 
ATOM     93  C   UNL A   1      42.114  28.514  36.357  1.00  0.00     0.059 A 
ATOM     94  F   UNL A   1      42.554  30.738  35.766  1.00  0.00    -0.206 F 
ATOM     95  C   UNL A   1      41.852  27.199  35.980  1.00  0.00     0.060 A 
BRANCH  95  96
ATOM     96  S   UNL A   1      41.689  25.912  37.238  1.00  0.00     0.124 S 
ATOM     97  O   UNL A   1      41.897  24.693  36.459  1.00  0.00    -0.237 OA
ATOM     98  O   UNL A   1      42.760  26.252  38.176  1.00  0.00    -0.237 OA
ATOM     99  O   UNL A   1      40.340  26.101  37.752  1.00  0.00    -0.744 OA
ENDBRANCH  95  96
ENDBRANCH  63  88
ENDBRANCH  37  38
ENDBRANCH  29  32
ENDBRANCH  27  28
ENDBRANCH   1  27
TORSDOF 16
ENDMDL
MODEL 3
REMARK VINA RESULT:     -12.6      2.643      9.455
REMARK SMILES Cc1ccc2c(CC(=O)N3CCC(C(=O)NCCCCNC(=O)c4ccc(-c5c6nc(c(-c7c(F)cc(S(=O)(=O)[O-])cc7F)c7ccc([nH]7)c(-c7c(F)cc(S(=O)(=O)[O-])cc7F)c7nc(c(-c8c(F)cc(S(=O)(=O)[O-])cc8F)c8ccc5[nH]8)C=C7)C=C6)cc4)CC3)coc2c1
REMARK SMILES IDX 19 1 18 2 17 3 16 4 14 5 15 6 13 8 8 9 9 10 10 11 11 12
REMARK SMILES IDX 91 13 12 14 90 15 7 16 6 17 1 18 2 19 3 20 95 21 4 22 94 23
REMARK SMILES IDX 5 24 93 25 92 26 20 27 21 28 22 29 23 31 24 32 25 33 89 34
REMARK SMILES IDX 26 35 88 36 27 37 28 38 29 39 82 40 30 41 87 42 81 43 83 44
REMARK SMILES IDX 31 45 86 46 80 47 79 48 32 50 66 51 45 52 65 53 46 54 49 55
REMARK SMILES IDX 64 56 84 57 47 58 48 59 63 61 85 62 50 63 33 64 34 65 43 66
REMARK SMILES IDX 35 67 36 68 42 69 44 70 37 71 38 72 39 73 40 74 41 75 67 76
REMARK SMILES IDX 68 77 77 78 69 79 70 80 76 81 78 82 71 83 72 84 73 85 74 86
REMARK SMILES IDX 75 87 51 88 52 89 61 90 53 91 54 92 60 93 62 94 55 95 56 96
REMARK SMILES IDX 57 97 58 98 59 99
REMARK H PARENT 16 7 21 30 83 49 49 60
REMARK Flexibility Score: inf
ROOT
ATOM      1  C   UNL A   1      32.303  28.604  26.855  1.00  0.00     0.023 C 
ENDROOT
BRANCH   1   2
ATOM      2  C   UNL A   1      31.775  29.520  25.743  1.00  0.00     0.023 C 
BRANCH   2   3
ATOM      3  C   UNL A   1      32.278  29.181  24.342  1.00  0.00     0.116 C 
BRANCH   3   4
ATOM      4  N   UNL A   1      31.271  29.432  23.322  1.00  0.00    -0.356 N 
ATOM      5  C   UNL A   1      30.652  28.580  22.460  1.00  0.00     0.223 C 
ATOM      6  O   UNL A   1      29.783  29.037  21.713  1.00  0.00    -0.275 OA
ATOM      7  H   UNL A   1      30.992  30.372  23.242  1.00  0.00     0.163 HD
BRANCH   5   8
ATOM      8  C   UNL A   1      30.984  27.095  22.430  1.00  0.00     0.082 C 
ATOM      9  C   UNL A   1      33.269  24.803  24.781  1.00  0.00     0.227 C 
ATOM     10  O   UNL A   1      34.308  25.468  24.828  1.00  0.00    -0.275 OA
ATOM     11  N   UNL A   1      32.386  24.938  23.715  1.00  0.00    -0.342 N 
ATOM     12  C   UNL A   1      32.895  25.417  22.436  1.00  0.00     0.120 C 
ATOM     13  C   UNL A   1      30.934  24.961  23.820  1.00  0.00     0.120 C 
ATOM     14  C   UNL A   1      32.474  26.849  22.152  1.00  0.00     0.035 C 
ATOM     15  C   UNL A   1      30.413  26.385  23.667  1.00  0.00     0.035 C 
BRANCH   9  16
ATOM     16  C   UNL A   1      33.086  23.639  25.755  1.00  0.00     0.139 C 
BRANCH  16  17
ATOM     17  C   UNL A   1      33.964  22.457  25.567  1.00  0.00     0.008 A 
ATOM     18  C   UNL A   1      33.470  17.134  23.598  1.00  0.00     0.044 C 
ATOM     19  C   UNL A   1      33.563  18.575  24.011  1.00  0.00    -0.047 A 
ATOM     20  C   UNL A   1      32.470  19.425  23.787  1.00  0.00     0.004 A 
ATOM     21  C   UNL A   1      34.717  19.057  24.653  1.00  0.00     0.051 A 
ATOM     22  C   UNL A   1      32.484  20.760  24.216  1.00  0.00     0.012 A 
ATOM     23  C   UNL A   1      34.698  20.387  25.070  1.00  0.00     0.134 A 
ATOM     24  C   UNL A   1      33.620  21.243  24.891  1.00  0.00     0.024 A 
ATOM     25  O   UNL A   1      35.700  21.026  25.733  1.00  0.00    -0.464 OA
ATOM     26  C   UNL A   1      35.257  22.279  26.017  1.00  0.00     0.200 A 
ENDBRANCH  16  17
ENDBRANCH   9  16
ENDBRANCH   5   8
ENDBRANCH   3   4
ENDBRANCH   2   3
ENDBRANCH   1   2
BRANCH   1  27
ATOM     27  C   UNL A   1      33.691  28.978  27.374  1.00  0.00     0.116 C 
BRANCH  27  28
ATOM     28  N   UNL A   1      33.905  30.407  27.476  1.00  0.00    -0.352 N 
ATOM     29  C   UNL A   1      34.974  31.206  27.758  1.00  0.00     0.251 C 
ATOM     30  H   UNL A   1      33.085  30.923  27.302  1.00  0.00     0.163 HD
ATOM     31  O   UNL A   1      34.783  32.419  27.624  1.00  0.00    -0.269 OA
BRANCH  29  32
ATOM     32  C   UNL A   1      36.289  30.733  28.261  1.00  0.00     0.039 A 
ATOM     33  C   UNL A   1      37.285  31.537  28.816  1.00  0.00     0.014 A 
ATOM     34  C   UNL A   1      36.550  29.362  28.082  1.00  0.00     0.014 A 
ATOM     35  C   UNL A   1      38.547  31.015  29.072  1.00  0.00     0.010 A 
ATOM     36  C   UNL A   1      37.801  28.831  28.354  1.00  0.00     0.010 A 
ATOM     37  C   UNL A   1      38.816  29.678  28.785  1.00  0.00    -0.014 A 
BRANCH  37  38
ATOM     38  C   UNL A   1      40.172  29.191  29.010  1.00  0.00     0.031 A 
ATOM     39  C   UNL A   1      40.565  29.079  30.446  1.00  0.00     0.074 A 
ATOM     40  C   UNL A   1      40.952  28.767  27.994  1.00  0.00     0.049 A 
ATOM     41  N   UNL A   1      41.527  29.676  31.070  1.00  0.00    -0.248 NA
ATOM     42  C   UNL A   1      39.681  28.297  31.330  1.00  0.00     0.031 C 
ATOM     43  C   UNL A   1      40.585  28.583  26.586  1.00  0.00     0.029 A 
ATOM     44  N   UNL A   1      42.228  28.300  28.029  1.00  0.00    -0.354 N 
ATOM     45  C   UNL A   1      41.503  29.182  32.375  1.00  0.00     0.074 A 
ATOM     46  C   UNL A   1      40.262  28.468  32.518  1.00  0.00     0.031 C 
ATOM     47  C   UNL A   1      41.513  27.809  25.979  1.00  0.00     0.029 A 
ATOM     48  C   UNL A   1      42.602  27.566  26.908  1.00  0.00     0.049 A 
ATOM     49  H   UNL A   1      42.837  28.465  28.785  1.00  0.00     0.167 HD
ATOM     50  C   UNL A   1      42.602  29.207  33.181  1.00  0.00     0.037 A 
ATOM     51  C   UNL A   1      43.683  26.751  26.802  1.00  0.00     0.037 A 
ATOM     52  C   UNL A   1      43.582  30.149  32.719  1.00  0.00     0.049 A 
ATOM     53  C   UNL A   1      44.634  27.153  27.875  1.00  0.00     0.074 A 
ATOM     54  C   UNL A   1      43.598  31.518  32.529  1.00  0.00     0.029 A 
ATOM     55  N   UNL A   1      44.665  29.667  32.024  1.00  0.00    -0.354 N 
ATOM     56  N   UNL A   1      45.243  28.308  27.912  1.00  0.00    -0.248 NA
ATOM     57  C   UNL A   1      44.537  26.457  29.150  1.00  0.00     0.031 C 
ATOM     58  C   UNL A   1      44.364  31.715  31.344  1.00  0.00     0.029 A 
ATOM     59  C   UNL A   1      44.818  30.466  30.919  1.00  0.00     0.049 A 
ATOM     60  H   UNL A   1      45.224  28.895  32.271  1.00  0.00     0.167 HD
ATOM     61  C   UNL A   1      45.233  28.673  29.251  1.00  0.00     0.074 A 
ATOM     62  C   UNL A   1      44.842  27.463  29.972  1.00  0.00     0.031 C 
ATOM     63  C   UNL A   1      45.270  29.983  29.633  1.00  0.00     0.037 A 
BRANCH  50  64
ATOM     64  C   UNL A   1      42.929  28.127  34.182  1.00  0.00     0.058 A 
ATOM     65  C   UNL A   1      43.077  28.452  35.545  1.00  0.00     0.135 A 
ATOM     66  C   UNL A   1      43.387  26.843  33.807  1.00  0.00     0.135 A 
ATOM     67  F   UNL A   1      42.689  29.652  36.007  1.00  0.00    -0.206 F 
ATOM     68  C   UNL A   1      43.693  27.591  36.456  1.00  0.00     0.059 A 
ATOM     69  C   UNL A   1      43.955  25.949  34.707  1.00  0.00     0.059 A 
ATOM     70  F   UNL A   1      43.398  26.437  32.532  1.00  0.00    -0.206 F 
ATOM     71  C   UNL A   1      44.142  26.346  36.021  1.00  0.00     0.060 A 
BRANCH  71  72
ATOM     72  S   UNL A   1      45.041  25.282  37.163  1.00  0.00     0.124 S 
ATOM     73  O   UNL A   1      44.782  23.964  36.601  1.00  0.00    -0.237 OA
ATOM     74  O   UNL A   1      46.405  25.781  37.028  1.00  0.00    -0.237 OA
ATOM     75  O   UNL A   1      44.404  25.558  38.451  1.00  0.00    -0.744 OA
ENDBRANCH  71  72
ENDBRANCH  50  64
BRANCH  51  76
ATOM     76  C   UNL A   1      43.736  25.413  26.148  1.00  0.00     0.058 A 
ATOM     77  C   UNL A   1      44.753  25.088  25.232  1.00  0.00     0.135 A 
ATOM     78  C   UNL A   1      42.965  24.330  26.622  1.00  0.00     0.135 A 
ATOM     79  F   UNL A   1      45.552  26.049  24.745  1.00  0.00    -0.206 F 
ATOM     80  C   UNL A   1      45.022  23.767  24.847  1.00  0.00     0.059 A 
ATOM     81  C   UNL A   1      43.206  23.009  26.245  1.00  0.00     0.059 A 
ATOM     82  F   UNL A   1      42.008  24.511  27.542  1.00  0.00    -0.206 F 
ATOM     83  C   UNL A   1      44.255  22.730  25.379  1.00  0.00     0.060 A 
BRANCH  83  84
ATOM     84  S   UNL A   1      44.705  21.014  25.024  1.00  0.00     0.124 S 
ATOM     85  O   UNL A   1      46.063  20.942  25.550  1.00  0.00    -0.237 OA
ATOM     86  O   UNL A   1      43.692  20.272  25.766  1.00  0.00    -0.237 OA
ATOM     87  O   UNL A   1      44.595  20.928  23.569  1.00  0.00    -0.744 OA
ENDBRANCH  83  84
ENDBRANCH  51  76
BRANCH  63  88
ATOM     88  C   UNL A   1      45.576  31.030  28.592  1.00  0.00     0.058 A 
ATOM     89  C   UNL A   1      44.622  31.591  27.725  1.00  0.00     0.135 A 
ATOM     90  C   UNL A   1      46.854  31.608  28.596  1.00  0.00     0.135 A 
ATOM     91  F   UNL A   1      43.350  31.168  27.732  1.00  0.00    -0.206 F 
ATOM     92  C   UNL A   1      44.935  32.655  26.876  1.00  0.00     0.059 A 
ATOM     93  C   UNL A   1      47.180  32.687  27.781  1.00  0.00     0.059 A 
ATOM     94  F   UNL A   1      47.792  31.158  29.448  1.00  0.00    -0.206 F 
ATOM     95  C   UNL A   1      46.218  33.201  26.914  1.00  0.00     0.060 A 
BRANCH  95  96
ATOM     96  S   UNL A   1      46.605  34.626  25.874  1.00  0.00     0.124 S 
ATOM     97  O   UNL A   1      45.590  34.527  24.828  1.00  0.00    -0.237 OA
ATOM     98  O   UNL A   1      46.447  35.745  26.803  1.00  0.00    -0.237 OA
ATOM     99  O   UNL A   1      47.972  34.375  25.441  1.00  0.00    -0.744 OA
ENDBRANCH  95  96
ENDBRANCH  63  88
ENDBRANCH  37  38
ENDBRANCH  29  32
ENDBRANCH  27  28
ENDBRANCH   1  27
TORSDOF 16
ENDMDL
