MODEL 1
REMARK VINA RESULT:     -12.3      0.000      0.000
REMARK SMILES O=C(Cc1ccccc1[N+](=O)[O-])N[C@@H]1C=C[C@H](C(=O)NCCCCNC(=O)c2ccc(-c3c4nc(c(-c5c(F)cc(S(=O)(=O)[O-])cc5F)c5ccc([nH]5)c(-c5c(F)cc(S(=O)(=O)[O-])cc5F)c5nc(c(-c6c(F)cc(S(=O)(=O)[O-])cc6F)c6ccc3[nH]6)C=C5)C=C4)cc2)C1
REMARK SMILES IDX 22 1 21 2 20 3 18 4 19 5 17 7 14 8 15 9 94 10 16 11 13 12
REMARK SMILES IDX 1 13 2 14 3 16 4 17 5 18 9 19 6 20 8 21 7 22 10 23 11 24
REMARK SMILES IDX 12 25 23 26 24 27 25 28 26 29 27 31 28 32 29 33 93 34 30 35
REMARK SMILES IDX 92 36 31 37 32 38 33 39 86 40 34 41 91 42 85 43 87 44 35 45
REMARK SMILES IDX 90 46 84 47 83 48 36 50 70 51 49 52 69 53 50 54 53 55 68 56
REMARK SMILES IDX 88 57 51 58 52 59 67 61 89 62 54 63 37 64 38 65 47 66 39 67
REMARK SMILES IDX 40 68 46 69 48 70 41 71 42 72 43 73 44 74 45 75 71 76 72 77
REMARK SMILES IDX 81 78 73 79 74 80 80 81 82 82 75 83 76 84 77 85 78 86 79 87
REMARK SMILES IDX 55 88 56 89 65 90 57 91 58 92 64 93 66 94 59 95 60 96 61 97
REMARK SMILES IDX 62 98 63 99
REMARK H PARENT 20 6 13 15 25 30 87 49 53 60
REMARK Flexibility Score: inf
ROOT
ATOM      1  C   UNL A   1      38.990  23.138  26.223  1.00  0.00     0.023 C 
ENDROOT
BRANCH   1   2
ATOM      2  C   UNL A   1      37.939  22.133  25.761  1.00  0.00     0.116 C 
BRANCH   2   3
ATOM      3  N   UNL A   1      36.634  22.422  26.320  1.00  0.00    -0.356 N 
ATOM      4  C   UNL A   1      35.380  22.390  25.804  1.00  0.00     0.227 C 
ATOM      5  O   UNL A   1      34.468  22.771  26.551  1.00  0.00    -0.274 OA
ATOM      6  H   UNL A   1      36.664  22.698  27.265  1.00  0.00     0.163 HD
BRANCH   4   7
ATOM      7  C   UNL A   1      35.016  21.848  24.411  1.00  0.00     0.103 C 
ATOM      8  C   UNL A   1      33.745  23.270  22.845  1.00  0.00     0.106 C 
ATOM      9  C   UNL A   1      32.950  22.102  23.325  1.00  0.00    -0.006 C 
ATOM     10  C   UNL A   1      35.158  22.959  23.352  1.00  0.00     0.047 C 
ATOM     11  C   UNL A   1      33.650  21.309  24.146  1.00  0.00    -0.016 C 
BRANCH   8  12
ATOM     12  N   UNL A   1      33.236  24.493  23.424  1.00  0.00    -0.350 N 
ATOM     13  O   UNL A   1      33.630  25.806  21.586  1.00  0.00    -0.275 OA
ATOM     14  C   UNL A   1      33.293  25.699  22.764  1.00  0.00     0.225 C 
ATOM     15  H   UNL A   1      32.835  24.460  24.323  1.00  0.00     0.164 HD
BRANCH  14  16
ATOM     16  C   UNL A   1      32.966  26.922  23.611  1.00  0.00     0.142 C 
BRANCH  16  17
ATOM     17  C   UNL A   1      31.613  27.534  23.320  1.00  0.00     0.039 A 
ATOM     18  C   UNL A   1      31.599  28.740  22.591  1.00  0.00     0.011 A 
ATOM     19  C   UNL A   1      30.367  27.010  23.734  1.00  0.00     0.273 A 
ATOM     20  C   UNL A   1      30.403  29.397  22.292  1.00  0.00     0.001 A 
ATOM     21  C   UNL A   1      29.164  27.667  23.420  1.00  0.00     0.086 A 
ATOM     22  C   UNL A   1      29.187  28.860  22.701  1.00  0.00     0.007 A 
BRANCH  19  23
ATOM     23  N   UNL A   1      30.253  25.758  24.493  1.00  0.00     0.063 N 
ATOM     24  O   UNL A   1      30.090  25.833  25.717  1.00  0.00    -0.258 OA
ATOM     25  O   UNL A   1      30.260  24.696  23.854  1.00  0.00    -0.258 OA
ENDBRANCH  19  23
ENDBRANCH  16  17
ENDBRANCH  14  16
ENDBRANCH   8  12
ENDBRANCH   4   7
ENDBRANCH   2   3
ENDBRANCH   1   2
BRANCH   1  26
ATOM     26  C   UNL A   1      40.036  22.549  27.175  1.00  0.00     0.023 C 
BRANCH  26  27
ATOM     27  C   UNL A   1      41.384  23.272  27.202  1.00  0.00     0.116 C 
BRANCH  27  28
ATOM     28  N   UNL A   1      41.575  24.178  26.079  1.00  0.00    -0.352 N 
ATOM     29  C   UNL A   1      41.544  25.551  26.065  1.00  0.00     0.251 C 
ATOM     30  H   UNL A   1      41.752  23.749  25.212  1.00  0.00     0.163 HD
ATOM     31  O   UNL A   1      41.643  26.150  24.997  1.00  0.00    -0.269 OA
BRANCH  29  32
ATOM     32  C   UNL A   1      41.357  26.299  27.326  1.00  0.00     0.039 A 
ATOM     33  C   UNL A   1      42.315  27.247  27.688  1.00  0.00     0.014 A 
ATOM     34  C   UNL A   1      40.242  26.079  28.142  1.00  0.00     0.014 A 
ATOM     35  C   UNL A   1      42.129  28.011  28.840  1.00  0.00     0.010 A 
ATOM     36  C   UNL A   1      40.020  26.896  29.248  1.00  0.00     0.010 A 
ATOM     37  C   UNL A   1      40.963  27.868  29.614  1.00  0.00    -0.014 A 
BRANCH  37  38
ATOM     38  C   UNL A   1      40.728  28.750  30.787  1.00  0.00     0.031 A 
ATOM     39  C   UNL A   1      41.561  28.615  32.033  1.00  0.00     0.074 A 
ATOM     40  C   UNL A   1      39.745  29.671  30.729  1.00  0.00     0.049 A 
ATOM     41  N   UNL A   1      41.537  29.341  33.122  1.00  0.00    -0.248 NA
ATOM     42  C   UNL A   1      42.530  27.510  32.074  1.00  0.00     0.031 C 
ATOM     43  C   UNL A   1      38.823  29.853  29.605  1.00  0.00     0.029 A 
ATOM     44  N   UNL A   1      39.362  30.635  31.627  1.00  0.00    -0.354 N 
ATOM     45  C   UNL A   1      42.485  28.784  33.973  1.00  0.00     0.074 A 
ATOM     46  C   UNL A   1      43.021  27.621  33.300  1.00  0.00     0.031 C 
ATOM     47  C   UNL A   1      38.014  30.892  29.861  1.00  0.00     0.029 A 
ATOM     48  C   UNL A   1      38.336  31.434  31.177  1.00  0.00     0.049 A 
ATOM     49  H   UNL A   1      39.783  30.746  32.511  1.00  0.00     0.167 HD
ATOM     50  C   UNL A   1      42.892  29.217  35.191  1.00  0.00     0.037 A 
ATOM     51  C   UNL A   1      37.727  32.488  31.755  1.00  0.00     0.037 A 
ATOM     52  C   UNL A   1      42.356  30.381  35.852  1.00  0.00     0.049 A 
ATOM     53  C   UNL A   1      38.208  32.958  33.101  1.00  0.00     0.074 A 
ATOM     54  C   UNL A   1      42.735  30.933  37.064  1.00  0.00     0.029 A 
ATOM     55  N   UNL A   1      41.323  31.168  35.363  1.00  0.00    -0.354 N 
ATOM     56  N   UNL A   1      39.162  32.468  33.856  1.00  0.00    -0.248 NA
ATOM     57  C   UNL A   1      37.539  34.137  33.665  1.00  0.00     0.031 C 
ATOM     58  C   UNL A   1      41.896  32.021  37.331  1.00  0.00     0.029 A 
ATOM     59  C   UNL A   1      41.037  32.186  36.258  1.00  0.00     0.049 A 
ATOM     60  H   UNL A   1      40.861  31.023  34.506  1.00  0.00     0.167 HD
ATOM     61  C   UNL A   1      39.226  33.294  34.972  1.00  0.00     0.074 A 
ATOM     62  C   UNL A   1      38.230  34.329  34.779  1.00  0.00     0.031 C 
ATOM     63  C   UNL A   1      40.035  33.205  36.058  1.00  0.00     0.037 A 
BRANCH  50  64
ATOM     64  C   UNL A   1      43.973  28.432  35.886  1.00  0.00     0.058 A 
ATOM     65  C   UNL A   1      43.672  27.363  36.748  1.00  0.00     0.135 A 
ATOM     66  C   UNL A   1      45.328  28.723  35.661  1.00  0.00     0.135 A 
ATOM     67  F   UNL A   1      42.394  27.048  37.014  1.00  0.00    -0.206 F 
ATOM     68  C   UNL A   1      44.673  26.633  37.383  1.00  0.00     0.059 A 
ATOM     69  C   UNL A   1      46.347  27.986  36.261  1.00  0.00     0.059 A 
ATOM     70  F   UNL A   1      45.677  29.733  34.848  1.00  0.00    -0.206 F 
ATOM     71  C   UNL A   1      46.008  26.951  37.132  1.00  0.00     0.060 A 
BRANCH  71  72
ATOM     72  S   UNL A   1      47.291  25.987  37.957  1.00  0.00     0.124 S 
ATOM     73  O   UNL A   1      47.518  24.916  36.990  1.00  0.00    -0.237 OA
ATOM     74  O   UNL A   1      48.373  26.958  38.089  1.00  0.00    -0.237 OA
ATOM     75  O   UNL A   1      46.662  25.580  39.209  1.00  0.00    -0.744 OA
ENDBRANCH  71  72
ENDBRANCH  50  64
BRANCH  51  76
ATOM     76  C   UNL A   1      36.625  33.192  31.044  1.00  0.00     0.058 A 
ATOM     77  C   UNL A   1      36.884  34.008  29.932  1.00  0.00     0.135 A 
ATOM     78  C   UNL A   1      35.291  33.056  31.457  1.00  0.00     0.135 A 
ATOM     79  F   UNL A   1      38.144  34.175  29.501  1.00  0.00    -0.206 F 
ATOM     80  C   UNL A   1      35.864  34.681  29.268  1.00  0.00     0.059 A 
ATOM     81  C   UNL A   1      34.250  33.694  30.790  1.00  0.00     0.059 A 
ATOM     82  F   UNL A   1      34.987  32.273  32.503  1.00  0.00    -0.206 F 
ATOM     83  C   UNL A   1      34.548  34.514  29.703  1.00  0.00     0.060 A 
BRANCH  83  84
ATOM     84  S   UNL A   1      33.225  35.352  28.804  1.00  0.00     0.124 S 
ATOM     85  O   UNL A   1      32.431  35.903  29.896  1.00  0.00    -0.237 OA
ATOM     86  O   UNL A   1      33.966  36.320  28.001  1.00  0.00    -0.237 OA
ATOM     87  O   UNL A   1      32.597  34.274  28.047  1.00  0.00    -0.744 OA
ENDBRANCH  83  84
ENDBRANCH  51  76
BRANCH  63  88
ATOM     88  C   UNL A   1      39.894  34.280  37.105  1.00  0.00     0.058 A 
ATOM     89  C   UNL A   1      39.117  34.094  38.261  1.00  0.00     0.135 A 
ATOM     90  C   UNL A   1      40.541  35.516  36.945  1.00  0.00     0.135 A 
ATOM     91  F   UNL A   1      38.477  32.932  38.465  1.00  0.00    -0.206 F 
ATOM     92  C   UNL A   1      38.941  35.114  39.191  1.00  0.00     0.059 A 
ATOM     93  C   UNL A   1      40.408  36.538  37.881  1.00  0.00     0.059 A 
ATOM     94  F   UNL A   1      41.310  35.745  35.869  1.00  0.00    -0.206 F 
ATOM     95  C   UNL A   1      39.585  36.336  38.987  1.00  0.00     0.060 A 
BRANCH  95  96
ATOM     96  S   UNL A   1      39.329  37.660  40.186  1.00  0.00     0.124 S 
ATOM     97  O   UNL A   1      39.003  36.904  41.392  1.00  0.00    -0.237 OA
ATOM     98  O   UNL A   1      40.622  38.335  40.190  1.00  0.00    -0.237 OA
ATOM     99  O   UNL A   1      38.229  38.430  39.612  1.00  0.00    -0.744 OA
ENDBRANCH  95  96
ENDBRANCH  63  88
ENDBRANCH  37  38
ENDBRANCH  29  32
ENDBRANCH  27  28
ENDBRANCH  26  27
ENDBRANCH   1  26
TORSDOF 18
ENDMDL
MODEL 2
REMARK VINA RESULT:     -12.0      0.975      1.799
REMARK SMILES O=C(Cc1ccccc1[N+](=O)[O-])N[C@@H]1C=C[C@H](C(=O)NCCCCNC(=O)c2ccc(-c3c4nc(c(-c5c(F)cc(S(=O)(=O)[O-])cc5F)c5ccc([nH]5)c(-c5c(F)cc(S(=O)(=O)[O-])cc5F)c5nc(c(-c6c(F)cc(S(=O)(=O)[O-])cc6F)c6ccc3[nH]6)C=C5)C=C4)cc2)C1
REMARK SMILES IDX 22 1 21 2 20 3 18 4 19 5 17 7 14 8 15 9 94 10 16 11 13 12
REMARK SMILES IDX 1 13 2 14 3 16 4 17 5 18 9 19 6 20 8 21 7 22 10 23 11 24
REMARK SMILES IDX 12 25 23 26 24 27 25 28 26 29 27 31 28 32 29 33 93 34 30 35
REMARK SMILES IDX 92 36 31 37 32 38 33 39 86 40 34 41 91 42 85 43 87 44 35 45
REMARK SMILES IDX 90 46 84 47 83 48 36 50 70 51 49 52 69 53 50 54 53 55 68 56
REMARK SMILES IDX 88 57 51 58 52 59 67 61 89 62 54 63 37 64 38 65 47 66 39 67
REMARK SMILES IDX 40 68 46 69 48 70 41 71 42 72 43 73 44 74 45 75 71 76 72 77
REMARK SMILES IDX 81 78 73 79 74 80 80 81 82 82 75 83 76 84 77 85 78 86 79 87
REMARK SMILES IDX 55 88 56 89 65 90 57 91 58 92 64 93 66 94 59 95 60 96 61 97
REMARK SMILES IDX 62 98 63 99
REMARK H PARENT 20 6 13 15 25 30 87 49 53 60
REMARK Flexibility Score: inf
ROOT
ATOM      1  C   UNL A   1      38.608  23.299  26.510  1.00  0.00     0.023 C 
ENDROOT
BRANCH   1   2
ATOM      2  C   UNL A   1      37.628  22.638  25.545  1.00  0.00     0.116 C 
BRANCH   2   3
ATOM      3  N   UNL A   1      36.351  22.370  26.174  1.00  0.00    -0.356 N 
ATOM      4  C   UNL A   1      35.089  22.247  25.690  1.00  0.00     0.227 C 
ATOM      5  O   UNL A   1      34.192  22.080  26.528  1.00  0.00    -0.274 OA
ATOM      6  H   UNL A   1      36.410  22.252  27.150  1.00  0.00     0.163 HD
BRANCH   4   7
ATOM      7  C   UNL A   1      34.719  22.225  24.198  1.00  0.00     0.103 C 
ATOM      8  C   UNL A   1      32.930  23.707  23.363  1.00  0.00     0.106 C 
ATOM      9  C   UNL A   1      32.546  22.266  23.310  1.00  0.00    -0.006 C 
ATOM     10  C   UNL A   1      34.426  23.653  23.698  1.00  0.00     0.047 C 
ATOM     11  C   UNL A   1      33.528  21.457  23.728  1.00  0.00    -0.016 C 
BRANCH   8  12
ATOM     12  N   UNL A   1      32.184  24.386  24.397  1.00  0.00    -0.350 N 
ATOM     13  O   UNL A   1      30.178  24.377  23.286  1.00  0.00    -0.275 OA
ATOM     14  C   UNL A   1      30.864  24.741  24.239  1.00  0.00     0.225 C 
ATOM     15  H   UNL A   1      32.637  24.602  25.244  1.00  0.00     0.164 HD
BRANCH  14  16
ATOM     16  C   UNL A   1      30.310  25.680  25.304  1.00  0.00     0.142 C 
BRANCH  16  17
ATOM     17  C   UNL A   1      30.936  27.057  25.303  1.00  0.00     0.039 A 
ATOM     18  C   UNL A   1      31.710  27.410  26.426  1.00  0.00     0.011 A 
ATOM     19  C   UNL A   1      30.795  28.024  24.281  1.00  0.00     0.273 A 
ATOM     20  C   UNL A   1      32.311  28.667  26.532  1.00  0.00     0.001 A 
ATOM     21  C   UNL A   1      31.413  29.284  24.385  1.00  0.00     0.086 A 
ATOM     22  C   UNL A   1      32.167  29.601  25.512  1.00  0.00     0.007 A 
BRANCH  19  23
ATOM     23  N   UNL A   1      30.020  27.771  23.060  1.00  0.00     0.063 N 
ATOM     24  O   UNL A   1      28.788  27.867  23.124  1.00  0.00    -0.258 OA
ATOM     25  O   UNL A   1      30.648  27.542  22.017  1.00  0.00    -0.258 OA
ENDBRANCH  19  23
ENDBRANCH  16  17
ENDBRANCH  14  16
ENDBRANCH   8  12
ENDBRANCH   4   7
ENDBRANCH   2   3
ENDBRANCH   1   2
BRANCH   1  26
ATOM     26  C   UNL A   1      39.843  22.446  26.820  1.00  0.00     0.023 C 
BRANCH  26  27
ATOM     27  C   UNL A   1      41.126  23.226  27.108  1.00  0.00     0.116 C 
BRANCH  27  28
ATOM     28  N   UNL A   1      41.515  24.119  26.026  1.00  0.00    -0.352 N 
ATOM     29  C   UNL A   1      41.649  25.485  26.042  1.00  0.00     0.251 C 
ATOM     30  H   UNL A   1      41.709  23.684  25.165  1.00  0.00     0.163 HD
ATOM     31  O   UNL A   1      41.905  26.083  25.000  1.00  0.00    -0.269 OA
BRANCH  29  32
ATOM     32  C   UNL A   1      41.451  26.233  27.302  1.00  0.00     0.039 A 
ATOM     33  C   UNL A   1      42.386  27.209  27.652  1.00  0.00     0.014 A 
ATOM     34  C   UNL A   1      40.351  25.984  28.127  1.00  0.00     0.014 A 
ATOM     35  C   UNL A   1      42.187  27.972  28.803  1.00  0.00     0.010 A 
ATOM     36  C   UNL A   1      40.114  26.800  29.232  1.00  0.00     0.010 A 
ATOM     37  C   UNL A   1      41.032  27.799  29.587  1.00  0.00    -0.014 A 
BRANCH  37  38
ATOM     38  C   UNL A   1      40.782  28.678  30.759  1.00  0.00     0.031 A 
ATOM     39  C   UNL A   1      41.599  28.541  32.015  1.00  0.00     0.074 A 
ATOM     40  C   UNL A   1      39.800  29.600  30.690  1.00  0.00     0.049 A 
ATOM     41  N   UNL A   1      41.562  29.265  33.105  1.00  0.00    -0.248 NA
ATOM     42  C   UNL A   1      42.568  27.436  32.066  1.00  0.00     0.031 C 
ATOM     43  C   UNL A   1      38.893  29.784  29.554  1.00  0.00     0.029 A 
ATOM     44  N   UNL A   1      39.406  30.562  31.585  1.00  0.00    -0.354 N 
ATOM     45  C   UNL A   1      42.499  28.706  33.967  1.00  0.00     0.074 A 
ATOM     46  C   UNL A   1      43.043  27.544  33.298  1.00  0.00     0.031 C 
ATOM     47  C   UNL A   1      38.081  30.823  29.802  1.00  0.00     0.029 A 
ATOM     48  C   UNL A   1      38.385  31.361  31.124  1.00  0.00     0.049 A 
ATOM     49  H   UNL A   1      39.815  30.671  32.474  1.00  0.00     0.167 HD
ATOM     50  C   UNL A   1      42.890  29.136  35.191  1.00  0.00     0.037 A 
ATOM     51  C   UNL A   1      37.769  32.414  31.696  1.00  0.00     0.037 A 
ATOM     52  C   UNL A   1      42.346  30.299  35.848  1.00  0.00     0.049 A 
ATOM     53  C   UNL A   1      38.232  32.882  33.049  1.00  0.00     0.074 A 
ATOM     54  C   UNL A   1      42.709  30.849  37.065  1.00  0.00     0.029 A 
ATOM     55  N   UNL A   1      41.319  31.087  35.347  1.00  0.00    -0.354 N 
ATOM     56  N   UNL A   1      39.177  32.390  33.815  1.00  0.00    -0.248 NA
ATOM     57  C   UNL A   1      37.557  34.059  33.606  1.00  0.00     0.031 C 
ATOM     58  C   UNL A   1      41.866  31.936  37.324  1.00  0.00     0.029 A 
ATOM     59  C   UNL A   1      41.021  32.104  36.240  1.00  0.00     0.049 A 
ATOM     60  H   UNL A   1      40.868  30.944  34.484  1.00  0.00     0.167 HD
ATOM     61  C   UNL A   1      39.227  33.214  34.933  1.00  0.00     0.074 A 
ATOM     62  C   UNL A   1      38.233  34.249  34.730  1.00  0.00     0.031 C 
ATOM     63  C   UNL A   1      40.021  33.123  36.030  1.00  0.00     0.037 A 
BRANCH  50  64
ATOM     64  C   UNL A   1      43.962  28.350  35.899  1.00  0.00     0.058 A 
ATOM     65  C   UNL A   1      45.327  28.642  35.727  1.00  0.00     0.135 A 
ATOM     66  C   UNL A   1      43.625  27.319  36.789  1.00  0.00     0.135 A 
ATOM     67  F   UNL A   1      45.711  29.607  34.877  1.00  0.00    -0.206 F 
ATOM     68  C   UNL A   1      46.316  27.920  36.390  1.00  0.00     0.059 A 
ATOM     69  C   UNL A   1      44.597  26.603  37.486  1.00  0.00     0.059 A 
ATOM     70  F   UNL A   1      42.338  26.995  36.993  1.00  0.00    -0.206 F 
ATOM     71  C   UNL A   1      45.941  26.903  37.268  1.00  0.00     0.060 A 
BRANCH  71  72
ATOM     72  S   UNL A   1      47.237  25.984  38.125  1.00  0.00     0.124 S 
ATOM     73  O   UNL A   1      48.111  25.613  37.016  1.00  0.00    -0.237 OA
ATOM     74  O   UNL A   1      47.771  26.984  39.044  1.00  0.00    -0.237 OA
ATOM     75  O   UNL A   1      46.516  24.882  38.752  1.00  0.00    -0.744 OA
ENDBRANCH  71  72
ENDBRANCH  50  64
BRANCH  51  76
ATOM     76  C   UNL A   1      36.677  33.120  30.973  1.00  0.00     0.058 A 
ATOM     77  C   UNL A   1      35.337  32.984  31.371  1.00  0.00     0.135 A 
ATOM     78  C   UNL A   1      36.950  33.952  29.876  1.00  0.00     0.135 A 
ATOM     79  F   UNL A   1      35.024  32.196  32.411  1.00  0.00    -0.206 F 
ATOM     80  C   UNL A   1      34.307  33.629  30.696  1.00  0.00     0.059 A 
ATOM     81  C   UNL A   1      35.939  34.632  29.204  1.00  0.00     0.059 A 
ATOM     82  F   UNL A   1      38.215  34.131  29.467  1.00  0.00    -0.206 F 
ATOM     83  C   UNL A   1      34.619  34.455  29.615  1.00  0.00     0.060 A 
BRANCH  83  84
ATOM     84  S   UNL A   1      33.278  35.327  28.775  1.00  0.00     0.124 S 
ATOM     85  O   UNL A   1      34.016  36.298  27.974  1.00  0.00    -0.237 OA
ATOM     86  O   UNL A   1      32.629  34.249  28.035  1.00  0.00    -0.237 OA
ATOM     87  O   UNL A   1      32.496  35.880  29.876  1.00  0.00    -0.744 OA
ENDBRANCH  83  84
ENDBRANCH  51  76
BRANCH  63  88
ATOM     88  C   UNL A   1      39.868  34.195  37.077  1.00  0.00     0.058 A 
ATOM     89  C   UNL A   1      39.079  34.005  38.225  1.00  0.00     0.135 A 
ATOM     90  C   UNL A   1      40.512  35.434  36.926  1.00  0.00     0.135 A 
ATOM     91  F   UNL A   1      38.440  32.841  38.420  1.00  0.00    -0.206 F 
ATOM     92  C   UNL A   1      38.891  35.023  39.154  1.00  0.00     0.059 A 
ATOM     93  C   UNL A   1      40.368  36.453  37.862  1.00  0.00     0.059 A 
ATOM     94  F   UNL A   1      41.292  35.666  35.858  1.00  0.00    -0.206 F 
ATOM     95  C   UNL A   1      39.534  36.247  38.959  1.00  0.00     0.060 A 
BRANCH  95  96
ATOM     96  S   UNL A   1      39.262  37.568  40.158  1.00  0.00     0.124 S 
ATOM     97  O   UNL A   1      38.943  36.810  41.363  1.00  0.00    -0.237 OA
ATOM     98  O   UNL A   1      40.548  38.257  40.164  1.00  0.00    -0.237 OA
ATOM     99  O   UNL A   1      38.155  38.327  39.582  1.00  0.00    -0.744 OA
ENDBRANCH  95  96
ENDBRANCH  63  88
ENDBRANCH  37  38
ENDBRANCH  29  32
ENDBRANCH  27  28
ENDBRANCH  26  27
ENDBRANCH   1  26
TORSDOF 18
ENDMDL
MODEL 3
REMARK VINA RESULT:     -11.9      1.121      2.043
REMARK SMILES O=C(Cc1ccccc1[N+](=O)[O-])N[C@@H]1C=C[C@H](C(=O)NCCCCNC(=O)c2ccc(-c3c4nc(c(-c5c(F)cc(S(=O)(=O)[O-])cc5F)c5ccc([nH]5)c(-c5c(F)cc(S(=O)(=O)[O-])cc5F)c5nc(c(-c6c(F)cc(S(=O)(=O)[O-])cc6F)c6ccc3[nH]6)C=C5)C=C4)cc2)C1
REMARK SMILES IDX 22 1 21 2 20 3 18 4 19 5 17 7 14 8 15 9 94 10 16 11 13 12
REMARK SMILES IDX 1 13 2 14 3 16 4 17 5 18 9 19 6 20 8 21 7 22 10 23 11 24
REMARK SMILES IDX 12 25 23 26 24 27 25 28 26 29 27 31 28 32 29 33 93 34 30 35
REMARK SMILES IDX 92 36 31 37 32 38 33 39 86 40 34 41 91 42 85 43 87 44 35 45
REMARK SMILES IDX 90 46 84 47 83 48 36 50 70 51 49 52 69 53 50 54 53 55 68 56
REMARK SMILES IDX 88 57 51 58 52 59 67 61 89 62 54 63 37 64 38 65 47 66 39 67
REMARK SMILES IDX 40 68 46 69 48 70 41 71 42 72 43 73 44 74 45 75 71 76 72 77
REMARK SMILES IDX 81 78 73 79 74 80 80 81 82 82 75 83 76 84 77 85 78 86 79 87
REMARK SMILES IDX 55 88 56 89 65 90 57 91 58 92 64 93 66 94 59 95 60 96 61 97
REMARK SMILES IDX 62 98 63 99
REMARK H PARENT 20 6 13 15 25 30 87 49 53 60
REMARK Flexibility Score: inf
ROOT
ATOM      1  C   UNL A   1      41.112  21.171  27.532  1.00  0.00     0.023 C 
ENDROOT
BRANCH   1   2
ATOM      2  C   UNL A   1      40.119  21.211  26.375  1.00  0.00     0.116 C 
BRANCH   2   3
ATOM      3  N   UNL A   1      39.208  22.332  26.484  1.00  0.00    -0.356 N 
ATOM      4  C   UNL A   1      38.060  22.658  25.837  1.00  0.00     0.227 C 
ATOM      5  O   UNL A   1      37.553  23.748  26.131  1.00  0.00    -0.274 OA
ATOM      6  H   UNL A   1      39.475  22.991  27.165  1.00  0.00     0.163 HD
BRANCH   4   7
ATOM      7  C   UNL A   1      37.324  21.745  24.841  1.00  0.00     0.103 C 
ATOM      8  C   UNL A   1      35.170  22.476  23.883  1.00  0.00     0.106 C 
ATOM      9  C   UNL A   1      35.016  21.314  24.807  1.00  0.00    -0.006 C 
ATOM     10  C   UNL A   1      36.690  22.585  23.714  1.00  0.00     0.047 C 
ATOM     11  C   UNL A   1      36.188  20.893  25.299  1.00  0.00    -0.016 C 
BRANCH   8  12
ATOM     12  N   UNL A   1      34.620  23.669  24.485  1.00  0.00    -0.350 N 
ATOM     13  O   UNL A   1      33.432  24.338  22.642  1.00  0.00    -0.275 OA
ATOM     14  C   UNL A   1      33.845  24.560  23.778  1.00  0.00     0.225 C 
ATOM     15  H   UNL A   1      34.809  23.851  25.434  1.00  0.00     0.164 HD
BRANCH  14  16
ATOM     16  C   UNL A   1      33.576  25.887  24.477  1.00  0.00     0.142 C 
BRANCH  16  17
ATOM     17  C   UNL A   1      32.311  26.582  24.022  1.00  0.00     0.039 A 
ATOM     18  C   UNL A   1      31.093  26.103  24.545  1.00  0.00     0.011 A 
ATOM     19  C   UNL A   1      32.247  27.654  23.104  1.00  0.00     0.273 A 
ATOM     20  C   UNL A   1      29.868  26.660  24.170  1.00  0.00     0.001 A 
ATOM     21  C   UNL A   1      31.013  28.223  22.738  1.00  0.00     0.086 A 
ATOM     22  C   UNL A   1      29.827  27.721  23.272  1.00  0.00     0.007 A 
BRANCH  19  23
ATOM     23  N   UNL A   1      33.446  28.243  22.497  1.00  0.00     0.063 N 
ATOM     24  O   UNL A   1      33.846  29.330  22.934  1.00  0.00    -0.258 OA
ATOM     25  O   UNL A   1      34.031  27.586  21.624  1.00  0.00    -0.258 OA
ENDBRANCH  19  23
ENDBRANCH  16  17
ENDBRANCH  14  16
ENDBRANCH   8  12
ENDBRANCH   4   7
ENDBRANCH   2   3
ENDBRANCH   1   2
BRANCH   1  26
ATOM     26  C   UNL A   1      41.325  22.527  28.214  1.00  0.00     0.023 C 
BRANCH  26  27
ATOM     27  C   UNL A   1      42.586  23.284  27.796  1.00  0.00     0.116 C 
BRANCH  27  28
ATOM     28  N   UNL A   1      42.476  23.917  26.490  1.00  0.00    -0.352 N 
ATOM     29  C   UNL A   1      42.072  25.192  26.183  1.00  0.00     0.251 C 
ATOM     30  H   UNL A   1      42.723  23.353  25.722  1.00  0.00     0.163 HD
ATOM     31  O   UNL A   1      41.958  25.526  25.006  1.00  0.00    -0.269 OA
BRANCH  29  32
ATOM     32  C   UNL A   1      41.745  26.145  27.264  1.00  0.00     0.039 A 
ATOM     33  C   UNL A   1      40.574  25.946  27.997  1.00  0.00     0.014 A 
ATOM     34  C   UNL A   1      42.588  27.220  27.562  1.00  0.00     0.014 A 
ATOM     35  C   UNL A   1      40.277  26.795  29.064  1.00  0.00     0.010 A 
ATOM     36  C   UNL A   1      42.329  28.017  28.675  1.00  0.00     0.010 A 
ATOM     37  C   UNL A   1      41.167  27.818  29.436  1.00  0.00    -0.014 A 
BRANCH  37  38
ATOM     38  C   UNL A   1      40.889  28.658  30.630  1.00  0.00     0.031 A 
ATOM     39  C   UNL A   1      41.700  28.503  31.889  1.00  0.00     0.074 A 
ATOM     40  C   UNL A   1      39.887  29.558  30.580  1.00  0.00     0.049 A 
ATOM     41  N   UNL A   1      41.638  29.195  32.998  1.00  0.00    -0.248 NA
ATOM     42  C   UNL A   1      42.694  27.420  31.916  1.00  0.00     0.031 C 
ATOM     43  C   UNL A   1      38.983  29.754  29.443  1.00  0.00     0.029 A 
ATOM     44  N   UNL A   1      39.464  30.486  31.499  1.00  0.00    -0.354 N 
ATOM     45  C   UNL A   1      42.582  28.634  33.851  1.00  0.00     0.074 A 
ATOM     46  C   UNL A   1      43.157  27.504  33.154  1.00  0.00     0.031 C 
ATOM     47  C   UNL A   1      38.146  30.766  29.714  1.00  0.00     0.029 A 
ATOM     48  C   UNL A   1      38.429  31.274  31.053  1.00  0.00     0.049 A 
ATOM     49  H   UNL A   1      39.865  30.579  32.394  1.00  0.00     0.167 HD
ATOM     50  C   UNL A   1      42.955  29.038  35.090  1.00  0.00     0.037 A 
ATOM     51  C   UNL A   1      37.785  32.296  31.649  1.00  0.00     0.037 A 
ATOM     52  C   UNL A   1      42.380  30.169  35.774  1.00  0.00     0.049 A 
ATOM     53  C   UNL A   1      38.228  32.736  33.018  1.00  0.00     0.074 A 
ATOM     54  C   UNL A   1      42.721  30.692  37.010  1.00  0.00     0.029 A 
ATOM     55  N   UNL A   1      41.338  30.947  35.288  1.00  0.00    -0.354 N 
ATOM     56  N   UNL A   1      39.178  32.244  33.777  1.00  0.00    -0.248 NA
ATOM     57  C   UNL A   1      37.521  33.882  33.603  1.00  0.00     0.031 C 
ATOM     58  C   UNL A   1      41.853  31.753  37.293  1.00  0.00     0.029 A 
ATOM     59  C   UNL A   1      41.011  31.931  36.208  1.00  0.00     0.049 A 
ATOM     60  H   UNL A   1      40.897  30.818  34.418  1.00  0.00     0.167 HD
ATOM     61  C   UNL A   1      39.201  33.037  34.919  1.00  0.00     0.074 A 
ATOM     62  C   UNL A   1      38.185  34.054  34.737  1.00  0.00     0.031 C 
ATOM     63  C   UNL A   1      39.990  32.933  36.019  1.00  0.00     0.037 A 
BRANCH  50  64
ATOM     64  C   UNL A   1      44.040  28.257  35.783  1.00  0.00     0.058 A 
ATOM     65  C   UNL A   1      45.399  28.577  35.622  1.00  0.00     0.135 A 
ATOM     66  C   UNL A   1      43.720  27.200  36.650  1.00  0.00     0.135 A 
ATOM     67  F   UNL A   1      45.767  29.568  34.794  1.00  0.00    -0.206 F 
ATOM     68  C   UNL A   1      46.400  27.860  36.271  1.00  0.00     0.059 A 
ATOM     69  C   UNL A   1      44.703  26.488  37.334  1.00  0.00     0.059 A 
ATOM     70  F   UNL A   1      42.438  26.848  36.843  1.00  0.00    -0.206 F 
ATOM     71  C   UNL A   1      46.042  26.817  37.126  1.00  0.00     0.060 A 
BRANCH  71  72
ATOM     72  S   UNL A   1      47.353  25.904  37.966  1.00  0.00     0.124 S 
ATOM     73  O   UNL A   1      48.146  26.991  38.535  1.00  0.00    -0.237 OA
ATOM     74  O   UNL A   1      46.604  25.098  38.925  1.00  0.00    -0.237 OA
ATOM     75  O   UNL A   1      47.993  25.157  36.889  1.00  0.00    -0.744 OA
ENDBRANCH  71  72
ENDBRANCH  50  64
BRANCH  51  76
ATOM     76  C   UNL A   1      36.681  32.997  30.938  1.00  0.00     0.058 A 
ATOM     77  C   UNL A   1      36.943  33.859  29.861  1.00  0.00     0.135 A 
ATOM     78  C   UNL A   1      35.341  32.812  31.313  1.00  0.00     0.135 A 
ATOM     79  F   UNL A   1      38.208  34.073  29.467  1.00  0.00    -0.206 F 
ATOM     80  C   UNL A   1      35.921  34.528  29.197  1.00  0.00     0.059 A 
ATOM     81  C   UNL A   1      34.300  33.447  30.644  1.00  0.00     0.059 A 
ATOM     82  F   UNL A   1      35.035  31.984  32.324  1.00  0.00    -0.206 F 
ATOM     83  C   UNL A   1      34.601  34.312  29.595  1.00  0.00     0.060 A 
BRANCH  83  84
ATOM     84  S   UNL A   1      33.277  35.149  28.694  1.00  0.00     0.124 S 
ATOM     85  O   UNL A   1      32.406  35.575  29.784  1.00  0.00    -0.237 OA
ATOM     86  O   UNL A   1      34.001  36.210  28.002  1.00  0.00    -0.237 OA
ATOM     87  O   UNL A   1      32.743  34.099  27.832  1.00  0.00    -0.744 OA
ENDBRANCH  83  84
ENDBRANCH  51  76
BRANCH  63  88
ATOM     88  C   UNL A   1      39.804  33.972  37.094  1.00  0.00     0.058 A 
ATOM     89  C   UNL A   1      40.460  35.214  37.048  1.00  0.00     0.135 A 
ATOM     90  C   UNL A   1      38.964  33.717  38.190  1.00  0.00     0.135 A 
ATOM     91  F   UNL A   1      41.275  35.510  36.024  1.00  0.00    -0.206 F 
ATOM     92  C   UNL A   1      40.333  36.141  38.078  1.00  0.00     0.059 A 
ATOM     93  C   UNL A   1      38.794  34.645  39.213  1.00  0.00     0.059 A 
ATOM     94  F   UNL A   1      38.299  32.554  38.279  1.00  0.00    -0.206 F 
ATOM     95  C   UNL A   1      39.504  35.843  39.161  1.00  0.00     0.060 A 
BRANCH  95  96
ATOM     96  S   UNL A   1      39.368  37.042  40.502  1.00  0.00     0.124 S 
ATOM     97  O   UNL A   1      38.574  36.301  41.478  1.00  0.00    -0.237 OA
ATOM     98  O   UNL A   1      40.763  37.272  40.862  1.00  0.00    -0.237 OA
ATOM     99  O   UNL A   1      38.694  38.177  39.876  1.00  0.00    -0.744 OA
ENDBRANCH  95  96
ENDBRANCH  63  88
ENDBRANCH  37  38
ENDBRANCH  29  32
ENDBRANCH  27  28
ENDBRANCH  26  27
ENDBRANCH   1  26
TORSDOF 18
ENDMDL
