MODEL 1
REMARK VINA RESULT:      -9.7      0.000      0.000
REMARK SMILES CC(=O)/C=C(/C)NCC(=O)NCCCCNC(=O)c1ccc(-c2c3nc(c(-c4c(F)cc(S(=O)(=O)[O-])cc4F)c4ccc([nH]4)c(-c4c(F)cc(S(=O)(=O)[O-])cc4F)c4nc(c(-c5c(F)cc(S(=O)(=O)[O-])cc5F)c5ccc2[nH]5)C=C4)C=C3)cc1
REMARK SMILES IDX 13 1 12 2 11 3 9 4 10 5 8 7 7 8 5 10 4 11 6 12 2 13 1 14
REMARK SMILES IDX 3 15 14 16 15 17 16 18 17 19 18 21 19 22 20 23 84 24 21 25
REMARK SMILES IDX 83 26 22 27 23 28 24 29 77 30 25 31 82 32 76 33 78 34 26 35
REMARK SMILES IDX 81 36 75 37 74 38 27 40 61 41 40 42 60 43 41 44 44 45 59 46
REMARK SMILES IDX 79 47 42 48 43 49 58 51 80 52 45 53 28 54 29 55 38 56 30 57
REMARK SMILES IDX 31 58 37 59 39 60 32 61 33 62 34 63 35 64 36 65 62 66 63 67
REMARK SMILES IDX 72 68 64 69 65 70 71 71 73 72 66 73 67 74 68 75 69 76 70 77
REMARK SMILES IDX 46 78 47 79 56 80 48 81 49 82 55 83 57 84 50 85 51 86 52 87
REMARK SMILES IDX 53 88 54 89
REMARK H PARENT 11 6 7 9 16 20 78 39 44 50
REMARK Flexibility Score: inf
ROOT
ATOM      1  C   UNL A   1      37.148  33.943  29.315  1.00  0.00     0.023 C 
ENDROOT
BRANCH   1   2
ATOM      2  C   UNL A   1      37.564  33.021  30.460  1.00  0.00     0.116 C 
BRANCH   2   3
ATOM      3  N   UNL A   1      38.040  33.758  31.613  1.00  0.00    -0.355 N 
ATOM      4  C   UNL A   1      37.352  34.446  32.569  1.00  0.00     0.239 C 
ATOM      5  O   UNL A   1      38.017  34.978  33.465  1.00  0.00    -0.273 OA
ATOM      6  H   UNL A   1      39.018  33.763  31.725  1.00  0.00     0.163 HD
BRANCH   4   7
ATOM      7  C   UNL A   1      35.817  34.514  32.618  1.00  0.00     0.213 C 
BRANCH   7   8
ATOM      8  N   UNL A   1      35.253  35.842  32.474  1.00  0.00    -0.380 N 
ATOM      9  H   UNL A   1      35.934  36.554  32.468  1.00  0.00     0.160 HD
BRANCH   8  10
ATOM     10  C   UNL A   1      33.965  36.323  32.344  1.00  0.00     0.011 C 
ATOM     11  C   UNL A   1      33.091  36.382  31.317  1.00  0.00     0.067 C 
ATOM     12  C   UNL A   1      33.493  37.003  33.634  1.00  0.00     0.064 C 
BRANCH  11  13
ATOM     13  C   UNL A   1      33.004  36.023  29.871  1.00  0.00     0.154 C 
ATOM     14  C   UNL A   1      33.631  36.835  28.782  1.00  0.00     0.093 C 
ATOM     15  O   UNL A   1      32.398  34.984  29.585  1.00  0.00    -0.295 OA
ENDBRANCH  11  13
ENDBRANCH   8  10
ENDBRANCH   7   8
ENDBRANCH   4   7
ENDBRANCH   2   3
ENDBRANCH   1   2
BRANCH   1  16
ATOM     16  C   UNL A   1      35.780  33.614  28.714  1.00  0.00     0.023 C 
BRANCH  16  17
ATOM     17  C   UNL A   1      34.921  32.662  29.539  1.00  0.00     0.116 C 
BRANCH  17  18
ATOM     18  N   UNL A   1      34.119  31.765  28.726  1.00  0.00    -0.352 N 
ATOM     19  C   UNL A   1      34.504  30.589  28.114  1.00  0.00     0.251 C 
ATOM     20  H   UNL A   1      33.180  32.031  28.593  1.00  0.00     0.163 HD
ATOM     21  O   UNL A   1      33.738  30.010  27.355  1.00  0.00    -0.269 OA
BRANCH  19  22
ATOM     22  C   UNL A   1      35.864  30.063  28.357  1.00  0.00     0.039 A 
ATOM     23  C   UNL A   1      36.820  30.175  27.346  1.00  0.00     0.014 A 
ATOM     24  C   UNL A   1      36.203  29.497  29.589  1.00  0.00     0.014 A 
ATOM     25  C   UNL A   1      38.140  29.789  27.596  1.00  0.00     0.010 A 
ATOM     26  C   UNL A   1      37.530  29.172  29.859  1.00  0.00     0.010 A 
ATOM     27  C   UNL A   1      38.513  29.322  28.867  1.00  0.00    -0.014 A 
BRANCH  27  28
ATOM     28  C   UNL A   1      39.928  28.995  29.185  1.00  0.00     0.031 A 
ATOM     29  C   UNL A   1      40.815  30.029  29.821  1.00  0.00     0.074 A 
ATOM     30  C   UNL A   1      40.427  27.791  28.840  1.00  0.00     0.049 A 
ATOM     31  N   UNL A   1      42.095  29.967  30.085  1.00  0.00    -0.248 NA
ATOM     32  C   UNL A   1      40.188  31.310  30.186  1.00  0.00     0.031 C 
ATOM     33  C   UNL A   1      39.679  26.718  28.181  1.00  0.00     0.029 A 
ATOM     34  N   UNL A   1      41.689  27.269  28.989  1.00  0.00    -0.354 N 
ATOM     35  C   UNL A   1      42.427  31.197  30.641  1.00  0.00     0.074 A 
ATOM     36  C   UNL A   1      41.226  32.005  30.627  1.00  0.00     0.031 C 
ATOM     37  C   UNL A   1      40.490  25.663  27.995  1.00  0.00     0.029 A 
ATOM     38  C   UNL A   1      41.823  25.994  28.490  1.00  0.00     0.049 A 
ATOM     39  H   UNL A   1      42.429  27.762  29.412  1.00  0.00     0.167 HD
ATOM     40  C   UNL A   1      43.617  31.608  31.139  1.00  0.00     0.037 A 
ATOM     41  C   UNL A   1      42.900  25.187  28.429  1.00  0.00     0.037 A 
ATOM     42  C   UNL A   1      44.803  30.793  31.175  1.00  0.00     0.049 A 
ATOM     43  C   UNL A   1      44.212  25.671  28.986  1.00  0.00     0.074 A 
ATOM     44  C   UNL A   1      46.049  31.109  31.690  1.00  0.00     0.029 A 
ATOM     45  N   UNL A   1      44.890  29.498  30.689  1.00  0.00    -0.354 N 
ATOM     46  N   UNL A   1      44.496  26.824  29.543  1.00  0.00    -0.248 NA
ATOM     47  C   UNL A   1      45.351  24.743  28.910  1.00  0.00     0.031 C 
ATOM     48  C   UNL A   1      46.896  30.015  31.490  1.00  0.00     0.029 A 
ATOM     49  C   UNL A   1      46.168  29.003  30.886  1.00  0.00     0.049 A 
ATOM     50  H   UNL A   1      44.151  29.003  30.266  1.00  0.00     0.167 HD
ATOM     51  C   UNL A   1      45.835  26.748  29.912  1.00  0.00     0.074 A 
ATOM     52  C   UNL A   1      46.301  25.434  29.524  1.00  0.00     0.031 C 
ATOM     53  C   UNL A   1      46.609  27.683  30.514  1.00  0.00     0.037 A 
BRANCH  40  54
ATOM     54  C   UNL A   1      43.694  32.996  31.711  1.00  0.00     0.058 A 
ATOM     55  C   UNL A   1      43.884  34.115  30.883  1.00  0.00     0.135 A 
ATOM     56  C   UNL A   1      43.517  33.218  33.085  1.00  0.00     0.135 A 
ATOM     57  F   UNL A   1      44.077  33.954  29.564  1.00  0.00    -0.206 F 
ATOM     58  C   UNL A   1      43.911  35.404  31.401  1.00  0.00     0.059 A 
ATOM     59  C   UNL A   1      43.516  34.503  33.621  1.00  0.00     0.059 A 
ATOM     60  F   UNL A   1      43.334  32.183  33.920  1.00  0.00    -0.206 F 
ATOM     61  C   UNL A   1      43.723  35.589  32.772  1.00  0.00     0.060 A 
BRANCH  61  62
ATOM     62  S   UNL A   1      43.730  37.273  33.421  1.00  0.00     0.124 S 
ATOM     63  O   UNL A   1      43.920  38.054  32.202  1.00  0.00    -0.237 OA
ATOM     64  O   UNL A   1      42.413  37.376  34.041  1.00  0.00    -0.237 OA
ATOM     65  O   UNL A   1      44.857  37.275  34.349  1.00  0.00    -0.744 OA
ENDBRANCH  61  62
ENDBRANCH  40  54
BRANCH  41  66
ATOM     66  C   UNL A   1      42.793  23.830  27.830  1.00  0.00     0.058 A 
ATOM     67  C   UNL A   1      42.857  23.648  26.440  1.00  0.00     0.135 A 
ATOM     68  C   UNL A   1      42.595  22.693  28.630  1.00  0.00     0.135 A 
ATOM     69  F   UNL A   1      43.040  24.705  25.635  1.00  0.00    -0.206 F 
ATOM     70  C   UNL A   1      42.693  22.395  25.861  1.00  0.00     0.059 A 
ATOM     71  C   UNL A   1      42.455  21.425  28.074  1.00  0.00     0.059 A 
ATOM     72  F   UNL A   1      42.546  22.810  29.966  1.00  0.00    -0.206 F 
ATOM     73  C   UNL A   1      42.487  21.290  26.687  1.00  0.00     0.060 A 
BRANCH  73  74
ATOM     74  S   UNL A   1      42.285  19.663  25.928  1.00  0.00     0.124 S 
ATOM     75  O   UNL A   1      42.507  18.780  27.067  1.00  0.00    -0.237 OA
ATOM     76  O   UNL A   1      40.917  19.723  25.423  1.00  0.00    -0.237 OA
ATOM     77  O   UNL A   1      43.322  19.644  24.900  1.00  0.00    -0.744 OA
ENDBRANCH  73  74
ENDBRANCH  41  66
BRANCH  53  78
ATOM     78  C   UNL A   1      48.027  27.305  30.836  1.00  0.00     0.058 A 
ATOM     79  C   UNL A   1      48.384  26.779  32.086  1.00  0.00     0.135 A 
ATOM     80  C   UNL A   1      49.031  27.424  29.860  1.00  0.00     0.135 A 
ATOM     81  F   UNL A   1      47.463  26.652  33.054  1.00  0.00    -0.206 F 
ATOM     82  C   UNL A   1      49.694  26.402  32.366  1.00  0.00     0.059 A 
ATOM     83  C   UNL A   1      50.340  27.031  30.111  1.00  0.00     0.059 A 
ATOM     84  F   UNL A   1      48.738  27.914  28.645  1.00  0.00    -0.206 F 
ATOM     85  C   UNL A   1      50.665  26.531  31.371  1.00  0.00     0.060 A 
BRANCH  85  86
ATOM     86  S   UNL A   1      52.353  26.003  31.734  1.00  0.00     0.124 S 
ATOM     87  O   UNL A   1      53.052  26.396  30.515  1.00  0.00    -0.237 OA
ATOM     88  O   UNL A   1      52.676  26.778  32.928  1.00  0.00    -0.237 OA
ATOM     89  O   UNL A   1      52.220  24.564  31.947  1.00  0.00    -0.744 OA
ENDBRANCH  85  86
ENDBRANCH  53  78
ENDBRANCH  27  28
ENDBRANCH  19  22
ENDBRANCH  17  18
ENDBRANCH  16  17
ENDBRANCH   1  16
TORSDOF 17
ENDMDL
MODEL 2
REMARK VINA RESULT:      -9.6      3.280     11.661
REMARK SMILES CC(=O)/C=C(/C)NCC(=O)NCCCCNC(=O)c1ccc(-c2c3nc(c(-c4c(F)cc(S(=O)(=O)[O-])cc4F)c4ccc([nH]4)c(-c4c(F)cc(S(=O)(=O)[O-])cc4F)c4nc(c(-c5c(F)cc(S(=O)(=O)[O-])cc5F)c5ccc2[nH]5)C=C4)C=C3)cc1
REMARK SMILES IDX 13 1 12 2 11 3 9 4 10 5 8 7 7 8 5 10 4 11 6 12 2 13 1 14
REMARK SMILES IDX 3 15 14 16 15 17 16 18 17 19 18 21 19 22 20 23 84 24 21 25
REMARK SMILES IDX 83 26 22 27 23 28 24 29 77 30 25 31 82 32 76 33 78 34 26 35
REMARK SMILES IDX 81 36 75 37 74 38 27 40 61 41 40 42 60 43 41 44 44 45 59 46
REMARK SMILES IDX 79 47 42 48 43 49 58 51 80 52 45 53 28 54 29 55 38 56 30 57
REMARK SMILES IDX 31 58 37 59 39 60 32 61 33 62 34 63 35 64 36 65 62 66 63 67
REMARK SMILES IDX 72 68 64 69 65 70 71 71 73 72 66 73 67 74 68 75 69 76 70 77
REMARK SMILES IDX 46 78 47 79 56 80 48 81 49 82 55 83 57 84 50 85 51 86 52 87
REMARK SMILES IDX 53 88 54 89
REMARK H PARENT 11 6 7 9 16 20 78 39 44 50
REMARK Flexibility Score: inf
ROOT
ATOM      1  C   UNL A   1      42.478  20.027  26.551  1.00  0.00     0.023 C 
ENDROOT
BRANCH   1   2
ATOM      2  C   UNL A   1      43.017  19.226  25.368  1.00  0.00     0.116 C 
BRANCH   2   3
ATOM      3  N   UNL A   1      44.338  18.688  25.623  1.00  0.00    -0.355 N 
ATOM      4  C   UNL A   1      45.570  19.236  25.421  1.00  0.00     0.239 C 
ATOM      5  O   UNL A   1      46.548  18.554  25.747  1.00  0.00    -0.273 OA
ATOM      6  H   UNL A   1      44.347  17.781  26.004  1.00  0.00     0.163 HD
BRANCH   4   7
ATOM      7  C   UNL A   1      45.781  20.665  24.895  1.00  0.00     0.213 C 
BRANCH   7   8
ATOM      8  N   UNL A   1      45.583  21.718  25.872  1.00  0.00    -0.380 N 
ATOM      9  H   UNL A   1      46.130  21.603  26.682  1.00  0.00     0.160 HD
BRANCH   8  10
ATOM     10  C   UNL A   1      44.788  22.847  25.910  1.00  0.00     0.011 C 
ATOM     11  C   UNL A   1      44.263  23.583  26.913  1.00  0.00     0.067 C 
ATOM     12  C   UNL A   1      44.364  23.277  24.502  1.00  0.00     0.064 C 
BRANCH  11  13
ATOM     13  C   UNL A   1      44.212  23.609  28.404  1.00  0.00     0.154 C 
ATOM     14  C   UNL A   1      43.000  23.227  29.193  1.00  0.00     0.093 C 
ATOM     15  O   UNL A   1      45.244  23.943  28.996  1.00  0.00    -0.295 OA
ENDBRANCH  11  13
ENDBRANCH   8  10
ENDBRANCH   7   8
ENDBRANCH   4   7
ENDBRANCH   2   3
ENDBRANCH   1   2
BRANCH   1  16
ATOM     16  C   UNL A   1      41.552  21.180  26.156  1.00  0.00     0.023 C 
BRANCH  16  17
ATOM     17  C   UNL A   1      40.422  21.470  27.139  1.00  0.00     0.116 C 
BRANCH  17  18
ATOM     18  N   UNL A   1      39.186  21.866  26.487  1.00  0.00    -0.352 N 
ATOM     19  C   UNL A   1      38.638  23.129  26.386  1.00  0.00     0.251 C 
ATOM     20  H   UNL A   1      38.673  21.141  26.064  1.00  0.00     0.163 HD
ATOM     21  O   UNL A   1      37.522  23.280  25.909  1.00  0.00    -0.269 OA
BRANCH  19  22
ATOM     22  C   UNL A   1      39.402  24.288  26.896  1.00  0.00     0.039 A 
ATOM     23  C   UNL A   1      40.163  25.040  26.000  1.00  0.00     0.014 A 
ATOM     24  C   UNL A   1      39.337  24.651  28.244  1.00  0.00     0.014 A 
ATOM     25  C   UNL A   1      40.799  26.205  26.439  1.00  0.00     0.010 A 
ATOM     26  C   UNL A   1      39.918  25.844  28.668  1.00  0.00     0.010 A 
ATOM     27  C   UNL A   1      40.649  26.636  27.768  1.00  0.00    -0.014 A 
BRANCH  27  28
ATOM     28  C   UNL A   1      41.237  27.919  28.234  1.00  0.00     0.031 A 
ATOM     29  C   UNL A   1      42.726  28.123  28.195  1.00  0.00     0.074 A 
ATOM     30  C   UNL A   1      40.434  28.871  28.752  1.00  0.00     0.049 A 
ATOM     31  N   UNL A   1      43.433  29.129  28.643  1.00  0.00    -0.248 NA
ATOM     32  C   UNL A   1      43.530  27.046  27.594  1.00  0.00     0.031 C 
ATOM     33  C   UNL A   1      38.979  28.775  28.884  1.00  0.00     0.029 A 
ATOM     34  N   UNL A   1      40.732  30.105  29.276  1.00  0.00    -0.354 N 
ATOM     35  C   UNL A   1      44.759  28.805  28.385  1.00  0.00     0.074 A 
ATOM     36  C   UNL A   1      44.764  27.486  27.788  1.00  0.00     0.031 C 
ATOM     37  C   UNL A   1      38.509  29.907  29.437  1.00  0.00     0.029 A 
ATOM     38  C   UNL A   1      39.631  30.794  29.730  1.00  0.00     0.049 A 
ATOM     39  H   UNL A   1      41.648  30.463  29.322  1.00  0.00     0.167 HD
ATOM     40  C   UNL A   1      45.870  29.547  28.602  1.00  0.00     0.037 A 
ATOM     41  C   UNL A   1      39.537  31.999  30.324  1.00  0.00     0.037 A 
ATOM     42  C   UNL A   1      45.860  30.870  29.172  1.00  0.00     0.049 A 
ATOM     43  C   UNL A   1      40.789  32.801  30.559  1.00  0.00     0.074 A 
ATOM     44  C   UNL A   1      46.932  31.716  29.401  1.00  0.00     0.029 A 
ATOM     45  N   UNL A   1      44.724  31.544  29.590  1.00  0.00    -0.354 N 
ATOM     46  N   UNL A   1      42.031  32.493  30.272  1.00  0.00    -0.248 NA
ATOM     47  C   UNL A   1      40.628  34.117  31.195  1.00  0.00     0.031 C 
ATOM     48  C   UNL A   1      46.447  32.890  29.984  1.00  0.00     0.029 A 
ATOM     49  C   UNL A   1      45.068  32.792  30.081  1.00  0.00     0.049 A 
ATOM     50  H   UNL A   1      43.807  31.188  29.544  1.00  0.00     0.167 HD
ATOM     51  C   UNL A   1      42.794  33.589  30.663  1.00  0.00     0.074 A 
ATOM     52  C   UNL A   1      41.873  34.570  31.197  1.00  0.00     0.031 C 
ATOM     53  C   UNL A   1      44.136  33.766  30.588  1.00  0.00     0.037 A 
BRANCH  40  54
ATOM     54  C   UNL A   1      47.194  28.960  28.200  1.00  0.00     0.058 A 
ATOM     55  C   UNL A   1      47.965  28.214  29.107  1.00  0.00     0.135 A 
ATOM     56  C   UNL A   1      47.669  29.090  26.887  1.00  0.00     0.135 A 
ATOM     57  F   UNL A   1      47.563  28.076  30.381  1.00  0.00    -0.206 F 
ATOM     58  C   UNL A   1      49.168  27.630  28.729  1.00  0.00     0.059 A 
ATOM     59  C   UNL A   1      48.859  28.492  26.480  1.00  0.00     0.059 A 
ATOM     60  F   UNL A   1      46.972  29.794  25.981  1.00  0.00    -0.206 F 
ATOM     61  C   UNL A   1      49.606  27.772  27.411  1.00  0.00     0.060 A 
BRANCH  61  62
ATOM     62  S   UNL A   1      51.155  26.981  26.930  1.00  0.00     0.124 S 
ATOM     63  O   UNL A   1      51.695  27.951  25.981  1.00  0.00    -0.237 OA
ATOM     64  O   UNL A   1      51.863  26.879  28.202  1.00  0.00    -0.237 OA
ATOM     65  O   UNL A   1      50.724  25.712  26.353  1.00  0.00    -0.744 OA
ENDBRANCH  61  62
ENDBRANCH  40  54
BRANCH  41  66
ATOM     66  C   UNL A   1      38.212  32.537  30.734  1.00  0.00     0.058 A 
ATOM     67  C   UNL A   1      37.421  33.267  29.834  1.00  0.00     0.135 A 
ATOM     68  C   UNL A   1      37.724  32.357  32.038  1.00  0.00     0.135 A 
ATOM     69  F   UNL A   1      37.848  33.468  28.578  1.00  0.00    -0.206 F 
ATOM     70  C   UNL A   1      36.211  33.832  30.220  1.00  0.00     0.059 A 
ATOM     71  C   UNL A   1      36.503  32.891  32.440  1.00  0.00     0.059 A 
ATOM     72  F   UNL A   1      38.433  31.650  32.931  1.00  0.00    -0.206 F 
ATOM     73  C   UNL A   1      35.763  33.643  31.528  1.00  0.00     0.060 A 
BRANCH  73  74
ATOM     74  S   UNL A   1      34.185  34.372  32.021  1.00  0.00     0.124 S 
ATOM     75  O   UNL A   1      33.661  33.352  32.921  1.00  0.00    -0.237 OA
ATOM     76  O   UNL A   1      34.602  35.623  32.645  1.00  0.00    -0.237 OA
ATOM     77  O   UNL A   1      33.477  34.521  30.752  1.00  0.00    -0.744 OA
ENDBRANCH  73  74
ENDBRANCH  41  66
BRANCH  53  78
ATOM     78  C   UNL A   1      44.686  35.084  31.052  1.00  0.00     0.058 A 
ATOM     79  C   UNL A   1      44.795  36.183  30.186  1.00  0.00     0.135 A 
ATOM     80  C   UNL A   1      45.063  35.263  32.393  1.00  0.00     0.135 A 
ATOM     81  F   UNL A   1      44.455  36.061  28.893  1.00  0.00    -0.206 F 
ATOM     82  C   UNL A   1      45.277  37.410  30.630  1.00  0.00     0.059 A 
ATOM     83  C   UNL A   1      45.525  36.487  32.863  1.00  0.00     0.059 A 
ATOM     84  F   UNL A   1      44.969  34.244  33.263  1.00  0.00    -0.206 F 
ATOM     85  C   UNL A   1      45.639  37.553  31.971  1.00  0.00     0.060 A 
BRANCH  85  86
ATOM     86  S   UNL A   1      46.227  39.160  32.544  1.00  0.00     0.124 S 
ATOM     87  O   UNL A   1      47.040  38.782  33.696  1.00  0.00    -0.237 OA
ATOM     88  O   UNL A   1      46.963  39.657  31.385  1.00  0.00    -0.237 OA
ATOM     89  O   UNL A   1      44.996  39.882  32.852  1.00  0.00    -0.744 OA
ENDBRANCH  85  86
ENDBRANCH  53  78
ENDBRANCH  27  28
ENDBRANCH  19  22
ENDBRANCH  17  18
ENDBRANCH  16  17
ENDBRANCH   1  16
TORSDOF 17
ENDMDL
MODEL 3
REMARK VINA RESULT:      -9.6      5.100     11.733
REMARK SMILES CC(=O)/C=C(/C)NCC(=O)NCCCCNC(=O)c1ccc(-c2c3nc(c(-c4c(F)cc(S(=O)(=O)[O-])cc4F)c4ccc([nH]4)c(-c4c(F)cc(S(=O)(=O)[O-])cc4F)c4nc(c(-c5c(F)cc(S(=O)(=O)[O-])cc5F)c5ccc2[nH]5)C=C4)C=C3)cc1
REMARK SMILES IDX 13 1 12 2 11 3 9 4 10 5 8 7 7 8 5 10 4 11 6 12 2 13 1 14
REMARK SMILES IDX 3 15 14 16 15 17 16 18 17 19 18 21 19 22 20 23 84 24 21 25
REMARK SMILES IDX 83 26 22 27 23 28 24 29 77 30 25 31 82 32 76 33 78 34 26 35
REMARK SMILES IDX 81 36 75 37 74 38 27 40 61 41 40 42 60 43 41 44 44 45 59 46
REMARK SMILES IDX 79 47 42 48 43 49 58 51 80 52 45 53 28 54 29 55 38 56 30 57
REMARK SMILES IDX 31 58 37 59 39 60 32 61 33 62 34 63 35 64 36 65 62 66 63 67
REMARK SMILES IDX 72 68 64 69 65 70 71 71 73 72 66 73 67 74 68 75 69 76 70 77
REMARK SMILES IDX 46 78 47 79 56 80 48 81 49 82 55 83 57 84 50 85 51 86 52 87
REMARK SMILES IDX 53 88 54 89
REMARK H PARENT 11 6 7 9 16 20 78 39 44 50
REMARK Flexibility Score: inf
ROOT
ATOM      1  C   UNL A   1      37.400  21.914  24.771  1.00  0.00     0.023 C 
ENDROOT
BRANCH   1   2
ATOM      2  C   UNL A   1      36.216  22.137  25.710  1.00  0.00     0.116 C 
BRANCH   2   3
ATOM      3  N   UNL A   1      34.958  22.223  24.997  1.00  0.00    -0.355 N 
ATOM      4  C   UNL A   1      34.111  21.241  24.575  1.00  0.00     0.239 C 
ATOM      5  O   UNL A   1      33.080  21.600  23.994  1.00  0.00    -0.273 OA
ATOM      6  H   UNL A   1      34.668  23.139  24.781  1.00  0.00     0.163 HD
BRANCH   4   7
ATOM      7  C   UNL A   1      34.342  19.749  24.863  1.00  0.00     0.213 C 
BRANCH   7   8
ATOM      8  N   UNL A   1      33.219  18.882  24.562  1.00  0.00    -0.380 N 
ATOM      9  H   UNL A   1      32.385  19.158  25.007  1.00  0.00     0.160 HD
BRANCH   8  10
ATOM     10  C   UNL A   1      33.069  17.750  23.784  1.00  0.00     0.011 C 
ATOM     11  C   UNL A   1      33.429  16.458  23.940  1.00  0.00     0.067 C 
ATOM     12  C   UNL A   1      32.431  18.085  22.432  1.00  0.00     0.064 C 
BRANCH  11  13
ATOM     13  C   UNL A   1      34.139  15.581  24.917  1.00  0.00     0.154 C 
ATOM     14  C   UNL A   1      35.542  15.825  25.376  1.00  0.00     0.093 C 
ATOM     15  O   UNL A   1      33.505  14.624  25.376  1.00  0.00    -0.295 OA
ENDBRANCH  11  13
ENDBRANCH   8  10
ENDBRANCH   7   8
ENDBRANCH   4   7
ENDBRANCH   2   3
ENDBRANCH   1   2
BRANCH   1  16
ATOM     16  C   UNL A   1      38.152  20.604  25.015  1.00  0.00     0.023 C 
BRANCH  16  17
ATOM     17  C   UNL A   1      39.195  20.653  26.128  1.00  0.00     0.116 C 
BRANCH  17  18
ATOM     18  N   UNL A   1      40.129  19.541  26.085  1.00  0.00    -0.352 N 
ATOM     19  C   UNL A   1      41.508  19.579  26.141  1.00  0.00     0.251 C 
ATOM     20  H   UNL A   1      39.727  18.647  26.006  1.00  0.00     0.163 HD
ATOM     21  O   UNL A   1      42.159  18.559  25.967  1.00  0.00    -0.269 OA
BRANCH  19  22
ATOM     22  C   UNL A   1      42.184  20.874  26.373  1.00  0.00     0.039 A 
ATOM     23  C   UNL A   1      42.528  21.660  25.273  1.00  0.00     0.014 A 
ATOM     24  C   UNL A   1      42.441  21.324  27.671  1.00  0.00     0.014 A 
ATOM     25  C   UNL A   1      43.062  22.936  25.474  1.00  0.00     0.010 A 
ATOM     26  C   UNL A   1      42.914  22.619  27.872  1.00  0.00     0.010 A 
ATOM     27  C   UNL A   1      43.222  23.440  26.776  1.00  0.00    -0.014 A 
BRANCH  27  28
ATOM     28  C   UNL A   1      43.699  24.827  27.013  1.00  0.00     0.031 A 
ATOM     29  C   UNL A   1      45.149  25.171  26.810  1.00  0.00     0.074 A 
ATOM     30  C   UNL A   1      42.838  25.759  27.472  1.00  0.00     0.049 A 
ATOM     31  N   UNL A   1      45.773  26.295  27.056  1.00  0.00    -0.248 NA
ATOM     32  C   UNL A   1      46.018  24.105  26.286  1.00  0.00     0.031 C 
ATOM     33  C   UNL A   1      41.417  25.539  27.749  1.00  0.00     0.029 A 
ATOM     34  N   UNL A   1      43.037  27.078  27.799  1.00  0.00    -0.354 N 
ATOM     35  C   UNL A   1      47.103  26.070  26.722  1.00  0.00     0.074 A 
ATOM     36  C   UNL A   1      47.208  24.688  26.306  1.00  0.00     0.031 C 
ATOM     37  C   UNL A   1      40.869  26.685  28.188  1.00  0.00     0.029 A 
ATOM     38  C   UNL A   1      41.905  27.711  28.257  1.00  0.00     0.049 A 
ATOM     39  H   UNL A   1      43.909  27.528  27.714  1.00  0.00     0.167 HD
ATOM     40  C   UNL A   1      48.138  26.942  26.737  1.00  0.00     0.037 A 
ATOM     41  C   UNL A   1      41.725  28.972  28.694  1.00  0.00     0.037 A 
ATOM     42  C   UNL A   1      48.026  28.324  27.126  1.00  0.00     0.049 A 
ATOM     43  C   UNL A   1      42.895  29.920  28.705  1.00  0.00     0.074 A 
ATOM     44  C   UNL A   1      49.012  29.296  27.143  1.00  0.00     0.029 A 
ATOM     45  N   UNL A   1      46.857  28.934  27.554  1.00  0.00    -0.354 N 
ATOM     46  N   UNL A   1      44.137  29.699  28.349  1.00  0.00    -0.248 NA
ATOM     47  C   UNL A   1      42.638  31.290  29.174  1.00  0.00     0.031 C 
ATOM     48  C   UNL A   1      48.446  30.487  27.608  1.00  0.00     0.029 A 
ATOM     49  C   UNL A   1      47.098  30.267  27.843  1.00  0.00     0.049 A 
ATOM     50  H   UNL A   1      45.985  28.486  27.640  1.00  0.00     0.167 HD
ATOM     51  C   UNL A   1      44.802  30.909  28.520  1.00  0.00     0.074 A 
ATOM     52  C   UNL A   1      43.822  31.860  29.002  1.00  0.00     0.031 C 
ATOM     53  C   UNL A   1      46.106  31.205  28.301  1.00  0.00     0.037 A 
BRANCH  40  54
ATOM     54  C   UNL A   1      49.484  26.438  26.296  1.00  0.00     0.058 A 
ATOM     55  C   UNL A   1      49.982  26.720  25.014  1.00  0.00     0.135 A 
ATOM     56  C   UNL A   1      50.308  25.722  27.178  1.00  0.00     0.135 A 
ATOM     57  F   UNL A   1      49.226  27.385  24.126  1.00  0.00    -0.206 F 
ATOM     58  C   UNL A   1      51.245  26.295  24.616  1.00  0.00     0.059 A 
ATOM     59  C   UNL A   1      51.585  25.309  26.810  1.00  0.00     0.059 A 
ATOM     60  F   UNL A   1      49.878  25.426  28.415  1.00  0.00    -0.206 F 
ATOM     61  C   UNL A   1      52.041  25.592  25.523  1.00  0.00     0.060 A 
BRANCH  61  62
ATOM     62  S   UNL A   1      53.689  25.076  24.999  1.00  0.00     0.124 S 
ATOM     63  O   UNL A   1      53.752  25.630  23.649  1.00  0.00    -0.237 OA
ATOM     64  O   UNL A   1      54.548  25.720  25.987  1.00  0.00    -0.237 OA
ATOM     65  O   UNL A   1      53.630  23.620  25.077  1.00  0.00    -0.744 OA
ENDBRANCH  61  62
ENDBRANCH  40  54
BRANCH  41  66
ATOM     66  C   UNL A   1      40.384  29.429  29.149  1.00  0.00     0.058 A 
ATOM     67  C   UNL A   1      39.376  29.740  28.223  1.00  0.00     0.135 A 
ATOM     68  C   UNL A   1      40.093  29.590  30.512  1.00  0.00     0.135 A 
ATOM     69  F   UNL A   1      39.610  29.605  26.909  1.00  0.00    -0.206 F 
ATOM     70  C   UNL A   1      38.140  30.230  28.630  1.00  0.00     0.059 A 
ATOM     71  C   UNL A   1      38.854  30.054  30.944  1.00  0.00     0.059 A 
ATOM     72  F   UNL A   1      41.016  29.288  31.439  1.00  0.00    -0.206 F 
ATOM     73  C   UNL A   1      37.890  30.389  29.993  1.00  0.00     0.060 A 
BRANCH  73  74
ATOM     74  S   UNL A   1      36.279  31.017  30.515  1.00  0.00     0.124 S 
ATOM     75  O   UNL A   1      35.515  30.926  29.276  1.00  0.00    -0.237 OA
ATOM     76  O   UNL A   1      35.905  30.076  31.566  1.00  0.00    -0.237 OA
ATOM     77  O   UNL A   1      36.581  32.369  30.974  1.00  0.00    -0.744 OA
ENDBRANCH  73  74
ENDBRANCH  41  66
BRANCH  53  78
ATOM     78  C   UNL A   1      46.542  32.624  28.534  1.00  0.00     0.058 A 
ATOM     79  C   UNL A   1      47.036  33.049  29.776  1.00  0.00     0.135 A 
ATOM     80  C   UNL A   1      46.511  33.557  27.484  1.00  0.00     0.135 A 
ATOM     81  F   UNL A   1      47.079  32.197  30.813  1.00  0.00    -0.206 F 
ATOM     82  C   UNL A   1      47.466  34.356  29.976  1.00  0.00     0.059 A 
ATOM     83  C   UNL A   1      46.959  34.862  27.655  1.00  0.00     0.059 A 
ATOM     84  F   UNL A   1      46.055  33.197  26.273  1.00  0.00    -0.206 F 
ATOM     85  C   UNL A   1      47.425  35.256  28.908  1.00  0.00     0.060 A 
BRANCH  85  86
ATOM     86  S   UNL A   1      48.022  36.939  29.169  1.00  0.00     0.124 S 
ATOM     87  O   UNL A   1      46.772  37.692  29.205  1.00  0.00    -0.237 OA
ATOM     88  O   UNL A   1      48.731  36.828  30.440  1.00  0.00    -0.237 OA
ATOM     89  O   UNL A   1      48.869  37.183  28.005  1.00  0.00    -0.744 OA
ENDBRANCH  85  86
ENDBRANCH  53  78
ENDBRANCH  27  28
ENDBRANCH  19  22
ENDBRANCH  17  18
ENDBRANCH  16  17
ENDBRANCH   1  16
TORSDOF 17
ENDMDL
