MODEL 1
REMARK VINA RESULT:     -10.8      0.000      0.000
REMARK SMILES COc1ccc(/C=C2/SC(=S)N(NS(=O)(=O)c3ccccc3)C2=O)c(C(=O)NCCCCNC(=O)c2ccc(-c3c4nc(c(-c5c(F)cc(S(=O)(=O)[O-])cc5F)c5ccc([nH]5)c(-c5c(F)cc(S(=O)(=O)[O-])cc5F)c5nc(c(-c6c(F)cc(S(=O)(=O)[O-])cc6F)c6ccc3[nH]6)C=C5)C=C4)cc2)c1OC
REMARK SMILES IDX 30 1 29 2 28 3 26 4 27 5 25 7 3 8 4 9 102 10 5 11 6 12 2 13
REMARK SMILES IDX 1 14 103 15 104 16 7 17 8 18 9 19 23 20 10 21 12 22 24 23
REMARK SMILES IDX 11 24 13 25 14 27 15 28 16 29 17 30 18 31 22 32 19 33 21 34
REMARK SMILES IDX 20 35 31 36 32 37 33 38 34 39 35 41 36 42 37 43 101 44 38 45
REMARK SMILES IDX 100 46 39 47 40 48 41 49 94 50 42 51 99 52 93 53 95 54 43 55
REMARK SMILES IDX 98 56 92 57 91 58 44 60 78 61 57 62 77 63 58 64 61 65 76 66
REMARK SMILES IDX 96 67 59 68 60 69 75 71 97 72 62 73 45 74 46 75 55 76 47 77
REMARK SMILES IDX 48 78 54 79 56 80 49 81 50 82 51 83 52 84 53 85 79 86 80 87
REMARK SMILES IDX 89 88 81 89 82 90 88 91 90 92 83 93 84 94 85 95 86 96 87 97
REMARK SMILES IDX 63 98 64 99 73 100 65 101 66 102 72 103 74 104 67 105 68 106
REMARK SMILES IDX 69 107 70 108 71 109
REMARK H PARENT 28 6 13 26 33 40 95 59 61 70
REMARK Flexibility Score: inf
ROOT
ATOM      1  C   UNL A   1      35.350  29.654  27.274  1.00  0.00     0.023 C 
ENDROOT
BRANCH   1   2
ATOM      2  C   UNL A   1      33.904  30.107  27.179  1.00  0.00     0.116 C 
BRANCH   2   3
ATOM      3  N   UNL A   1      32.859  29.217  27.634  1.00  0.00    -0.352 N 
ATOM      4  C   UNL A   1      32.115  28.340  26.863  1.00  0.00     0.255 C 
ATOM      5  O   UNL A   1      31.350  27.548  27.412  1.00  0.00    -0.269 OA
ATOM      6  H   UNL A   1      32.654  29.237  28.596  1.00  0.00     0.163 HD
BRANCH   4   7
ATOM      7  C   UNL A   1      32.131  28.426  25.372  1.00  0.00     0.092 A 
ATOM      8  C   UNL A   1      31.172  29.176  23.257  1.00  0.00     0.161 A 
ATOM      9  C   UNL A   1      32.081  28.356  22.579  1.00  0.00     0.051 A 
ATOM     10  C   UNL A   1      31.223  29.267  24.659  1.00  0.00     0.174 A 
ATOM     11  C   UNL A   1      33.028  27.603  23.274  1.00  0.00     0.013 A 
ATOM     12  C   UNL A   1      33.052  27.599  24.678  1.00  0.00    -0.007 A 
BRANCH   8  13
ATOM     13  O   UNL A   1      30.156  29.650  22.468  1.00  0.00    -0.493 OA
ATOM     14  C   UNL A   1      28.876  29.070  22.676  1.00  0.00     0.278 C 
ENDBRANCH   8  13
BRANCH  10  15
ATOM     15  O   UNL A   1      30.512  30.177  25.405  1.00  0.00    -0.492 OA
ATOM     16  C   UNL A   1      31.002  31.512  25.503  1.00  0.00     0.278 C 
ENDBRANCH  10  15
BRANCH  12  17
ATOM     17  C   UNL A   1      34.084  26.722  25.286  1.00  0.00     0.030 C 
ATOM     18  C   UNL A   1      33.980  25.425  25.622  1.00  0.00     0.082 C 
ATOM     19  S   UNL A   1      35.338  24.448  26.092  1.00  0.00    -0.053 SA
ATOM     20  C   UNL A   1      32.773  24.564  25.517  1.00  0.00     0.281 C 
ATOM     21  C   UNL A   1      34.452  22.935  25.881  1.00  0.00     0.164 C 
ATOM     22  N   UNL A   1      33.152  23.233  25.542  1.00  0.00    -0.209 N 
ATOM     23  O   UNL A   1      31.633  24.972  25.418  1.00  0.00    -0.267 OA
ATOM     24  S   UNL A   1      35.131  21.421  26.049  1.00  0.00    -0.050 S 
BRANCH  22  25
ATOM     25  N   UNL A   1      32.156  22.209  25.163  1.00  0.00    -0.114 NA
ATOM     26  H   UNL A   1      31.224  22.605  25.291  1.00  0.00     0.168 HD
BRANCH  25  27
ATOM     27  S   UNL A   1      32.294  21.663  23.535  1.00  0.00     0.257 S 
ATOM     28  O   UNL A   1      31.029  21.944  22.878  1.00  0.00    -0.205 OA
ATOM     29  O   UNL A   1      33.528  22.222  23.037  1.00  0.00    -0.205 OA
BRANCH  27  30
ATOM     30  C   UNL A   1      32.470  19.899  23.617  1.00  0.00     0.084 A 
ATOM     31  C   UNL A   1      32.458  19.165  22.428  1.00  0.00     0.022 A 
ATOM     32  C   UNL A   1      32.741  19.253  24.825  1.00  0.00     0.022 A 
ATOM     33  C   UNL A   1      32.552  17.777  22.459  1.00  0.00     0.001 A 
ATOM     34  C   UNL A   1      32.901  17.863  24.841  1.00  0.00     0.001 A 
ATOM     35  C   UNL A   1      32.771  17.124  23.664  1.00  0.00     0.000 A 
ENDBRANCH  27  30
ENDBRANCH  25  27
ENDBRANCH  22  25
ENDBRANCH  12  17
ENDBRANCH   4   7
ENDBRANCH   2   3
ENDBRANCH   1   2
BRANCH   1  36
ATOM     36  C   UNL A   1      36.189  30.256  28.392  1.00  0.00     0.023 C 
BRANCH  36  37
ATOM     37  C   UNL A   1      36.247  29.499  29.714  1.00  0.00     0.116 C 
BRANCH  37  38
ATOM     38  N   UNL A   1      36.108  30.325  30.906  1.00  0.00    -0.352 N 
ATOM     39  C   UNL A   1      37.084  30.940  31.662  1.00  0.00     0.251 C 
ATOM     40  H   UNL A   1      35.184  30.465  31.217  1.00  0.00     0.163 HD
ATOM     41  O   UNL A   1      36.774  31.596  32.652  1.00  0.00    -0.269 OA
BRANCH  39  42
ATOM     42  C   UNL A   1      38.511  30.752  31.310  1.00  0.00     0.039 A 
ATOM     43  C   UNL A   1      39.311  29.960  32.138  1.00  0.00     0.014 A 
ATOM     44  C   UNL A   1      39.035  31.281  30.129  1.00  0.00     0.014 A 
ATOM     45  C   UNL A   1      40.597  29.603  31.720  1.00  0.00     0.010 A 
ATOM     46  C   UNL A   1      40.273  30.841  29.669  1.00  0.00     0.010 A 
ATOM     47  C   UNL A   1      41.065  29.988  30.452  1.00  0.00    -0.014 A 
BRANCH  47  48
ATOM     48  C   UNL A   1      42.362  29.493  29.915  1.00  0.00     0.031 A 
ATOM     49  C   UNL A   1      43.564  30.399  29.889  1.00  0.00     0.074 A 
ATOM     50  C   UNL A   1      42.438  28.260  29.372  1.00  0.00     0.049 A 
ATOM     51  N   UNL A   1      44.753  30.181  29.389  1.00  0.00    -0.248 NA
ATOM     52  C   UNL A   1      43.398  31.740  30.473  1.00  0.00     0.031 C 
ATOM     53  C   UNL A   1      41.333  27.302  29.282  1.00  0.00     0.029 A 
ATOM     54  N   UNL A   1      43.489  27.601  28.783  1.00  0.00    -0.354 N 
ATOM     55  C   UNL A   1      45.464  31.361  29.572  1.00  0.00     0.074 A 
ATOM     56  C   UNL A   1      44.558  32.309  30.182  1.00  0.00     0.031 C 
ATOM     57  C   UNL A   1      41.773  26.170  28.708  1.00  0.00     0.029 A 
ATOM     58  C   UNL A   1      43.178  26.334  28.347  1.00  0.00     0.049 A 
ATOM     59  H   UNL A   1      44.384  28.000  28.681  1.00  0.00     0.167 HD
ATOM     60  C   UNL A   1      46.761  31.625  29.280  1.00  0.00     0.037 A 
ATOM     61  C   UNL A   1      43.935  25.408  27.725  1.00  0.00     0.037 A 
ATOM     62  C   UNL A   1      47.670  30.667  28.709  1.00  0.00     0.049 A 
ATOM     63  C   UNL A   1      45.374  25.723  27.416  1.00  0.00     0.074 A 
ATOM     64  C   UNL A   1      49.022  30.810  28.455  1.00  0.00     0.029 A 
ATOM     65  N   UNL A   1      47.319  29.388  28.298  1.00  0.00    -0.354 N 
ATOM     66  N   UNL A   1      46.051  26.818  27.670  1.00  0.00    -0.248 NA
ATOM     67  C   UNL A   1      46.153  24.677  26.740  1.00  0.00     0.031 C 
ATOM     68  C   UNL A   1      49.479  29.637  27.843  1.00  0.00     0.029 A 
ATOM     69  C   UNL A   1      48.423  28.743  27.767  1.00  0.00     0.049 A 
ATOM     70  H   UNL A   1      46.418  28.999  28.371  1.00  0.00     0.167 HD
ATOM     71  C   UNL A   1      47.344  26.580  27.214  1.00  0.00     0.074 A 
ATOM     72  C   UNL A   1      47.355  25.234  26.676  1.00  0.00     0.031 C 
ATOM     73  C   UNL A   1      48.423  27.399  27.242  1.00  0.00     0.037 A 
BRANCH  60  74
ATOM     74  C   UNL A   1      47.273  33.009  29.575  1.00  0.00     0.058 A 
ATOM     75  C   UNL A   1      47.838  33.342  30.816  1.00  0.00     0.135 A 
ATOM     76  C   UNL A   1      47.221  34.012  28.592  1.00  0.00     0.135 A 
ATOM     77  F   UNL A   1      47.902  32.428  31.797  1.00  0.00    -0.206 F 
ATOM     78  C   UNL A   1      48.298  34.627  31.087  1.00  0.00     0.059 A 
ATOM     79  C   UNL A   1      47.703  35.296  28.830  1.00  0.00     0.059 A 
ATOM     80  F   UNL A   1      46.692  33.750  27.386  1.00  0.00    -0.206 F 
ATOM     81  C   UNL A   1      48.223  35.597  30.087  1.00  0.00     0.060 A 
BRANCH  81  82
ATOM     82  S   UNL A   1      48.820  37.261  30.456  1.00  0.00     0.124 S 
ATOM     83  O   UNL A   1      48.562  37.949  29.195  1.00  0.00    -0.237 OA
ATOM     84  O   UNL A   1      47.973  37.655  31.577  1.00  0.00    -0.237 OA
ATOM     85  O   UNL A   1      50.228  37.053  30.781  1.00  0.00    -0.744 OA
ENDBRANCH  81  82
ENDBRANCH  60  74
BRANCH  61  86
ATOM     86  C   UNL A   1      43.360  24.078  27.385  1.00  0.00     0.058 A 
ATOM     87  C   UNL A   1      43.227  23.084  28.367  1.00  0.00     0.135 A 
ATOM     88  C   UNL A   1      42.924  23.774  26.086  1.00  0.00     0.135 A 
ATOM     89  F   UNL A   1      43.637  23.323  29.622  1.00  0.00    -0.206 F 
ATOM     90  C   UNL A   1      42.699  21.832  28.072  1.00  0.00     0.059 A 
ATOM     91  C   UNL A   1      42.368  22.536  25.772  1.00  0.00     0.059 A 
ATOM     92  F   UNL A   1      43.015  24.694  25.114  1.00  0.00    -0.206 F 
ATOM     93  C   UNL A   1      42.268  21.569  26.771  1.00  0.00     0.060 A 
BRANCH  93  94
ATOM     94  S   UNL A   1      41.536  19.957  26.412  1.00  0.00     0.124 S 
ATOM     95  O   UNL A   1      42.300  19.540  25.242  1.00  0.00    -0.237 OA
ATOM     96  O   UNL A   1      41.801  19.219  27.644  1.00  0.00    -0.237 OA
ATOM     97  O   UNL A   1      40.132  20.273  26.171  1.00  0.00    -0.744 OA
ENDBRANCH  93  94
ENDBRANCH  61  86
BRANCH  73  98
ATOM     98  C   UNL A   1      49.723  26.856  26.714  1.00  0.00     0.058 A 
ATOM     99  C   UNL A   1      50.619  26.154  27.533  1.00  0.00     0.135 A 
ATOM    100  C   UNL A   1      50.048  26.994  25.354  1.00  0.00     0.135 A 
ATOM    101  F   UNL A   1      50.361  26.001  28.841  1.00  0.00    -0.206 F 
ATOM    102  C   UNL A   1      51.804  25.626  27.028  1.00  0.00     0.059 A 
ATOM    103  C   UNL A   1      51.211  26.449  24.822  1.00  0.00     0.059 A 
ATOM    104  F   UNL A   1      49.219  27.647  24.524  1.00  0.00    -0.206 F 
ATOM    105  C   UNL A   1      52.089  25.776  25.669  1.00  0.00     0.060 A 
BRANCH 105 106
ATOM    106  S   UNL A   1      53.610  25.052  25.019  1.00  0.00     0.124 S 
ATOM    107  O   UNL A   1      53.304  23.627  25.075  1.00  0.00    -0.237 OA
ATOM    108  O   UNL A   1      53.686  25.633  23.682  1.00  0.00    -0.237 OA
ATOM    109  O   UNL A   1      54.632  25.513  25.955  1.00  0.00    -0.744 OA
ENDBRANCH 105 106
ENDBRANCH  73  98
ENDBRANCH  47  48
ENDBRANCH  39  42
ENDBRANCH  37  38
ENDBRANCH  36  37
ENDBRANCH   1  36
TORSDOF 20
ENDMDL
MODEL 2
REMARK VINA RESULT:     -10.3      0.806      7.799
REMARK SMILES COc1ccc(/C=C2/SC(=S)N(NS(=O)(=O)c3ccccc3)C2=O)c(C(=O)NCCCCNC(=O)c2ccc(-c3c4nc(c(-c5c(F)cc(S(=O)(=O)[O-])cc5F)c5ccc([nH]5)c(-c5c(F)cc(S(=O)(=O)[O-])cc5F)c5nc(c(-c6c(F)cc(S(=O)(=O)[O-])cc6F)c6ccc3[nH]6)C=C5)C=C4)cc2)c1OC
REMARK SMILES IDX 30 1 29 2 28 3 26 4 27 5 25 7 3 8 4 9 102 10 5 11 6 12 2 13
REMARK SMILES IDX 1 14 103 15 104 16 7 17 8 18 9 19 23 20 10 21 12 22 24 23
REMARK SMILES IDX 11 24 13 25 14 27 15 28 16 29 17 30 18 31 22 32 19 33 21 34
REMARK SMILES IDX 20 35 31 36 32 37 33 38 34 39 35 41 36 42 37 43 101 44 38 45
REMARK SMILES IDX 100 46 39 47 40 48 41 49 94 50 42 51 99 52 93 53 95 54 43 55
REMARK SMILES IDX 98 56 92 57 91 58 44 60 78 61 57 62 77 63 58 64 61 65 76 66
REMARK SMILES IDX 96 67 59 68 60 69 75 71 97 72 62 73 45 74 46 75 55 76 47 77
REMARK SMILES IDX 48 78 54 79 56 80 49 81 50 82 51 83 52 84 53 85 79 86 80 87
REMARK SMILES IDX 89 88 81 89 82 90 88 91 90 92 83 93 84 94 85 95 86 96 87 97
REMARK SMILES IDX 63 98 64 99 73 100 65 101 66 102 72 103 74 104 67 105 68 106
REMARK SMILES IDX 69 107 70 108 71 109
REMARK H PARENT 28 6 13 26 33 40 95 59 61 70
REMARK Flexibility Score: inf
ROOT
ATOM      1  C   UNL A   1      35.177  30.171  27.271  1.00  0.00     0.023 C 
ENDROOT
BRANCH   1   2
ATOM      2  C   UNL A   1      33.851  29.995  26.555  1.00  0.00     0.116 C 
BRANCH   2   3
ATOM      3  N   UNL A   1      32.844  29.140  27.144  1.00  0.00    -0.352 N 
ATOM      4  C   UNL A   1      32.059  28.203  26.494  1.00  0.00     0.255 C 
ATOM      5  O   UNL A   1      31.336  27.455  27.150  1.00  0.00    -0.269 OA
ATOM      6  H   UNL A   1      32.700  29.235  28.113  1.00  0.00     0.163 HD
BRANCH   4   7
ATOM      7  C   UNL A   1      31.979  28.172  25.002  1.00  0.00     0.092 A 
ATOM      8  C   UNL A   1      30.842  28.685  22.905  1.00  0.00     0.161 A 
ATOM      9  C   UNL A   1      31.766  27.877  22.232  1.00  0.00     0.051 A 
ATOM     10  C   UNL A   1      30.970  28.889  24.290  1.00  0.00     0.174 A 
ATOM     11  C   UNL A   1      32.806  27.249  22.918  1.00  0.00     0.013 A 
ATOM     12  C   UNL A   1      32.915  27.358  24.313  1.00  0.00    -0.007 A 
BRANCH   8  13
ATOM     13  O   UNL A   1      29.748  29.024  22.151  1.00  0.00    -0.493 OA
ATOM     14  C   UNL A   1      29.708  30.360  21.668  1.00  0.00     0.278 C 
ENDBRANCH   8  13
BRANCH  10  15
ATOM     15  O   UNL A   1      30.240  29.804  25.010  1.00  0.00    -0.492 OA
ATOM     16  C   UNL A   1      30.626  31.176  24.964  1.00  0.00     0.278 C 
ENDBRANCH  10  15
BRANCH  12  17
ATOM     17  C   UNL A   1      34.043  26.605  24.916  1.00  0.00     0.030 C 
ATOM     18  C   UNL A   1      34.057  25.333  25.350  1.00  0.00     0.082 C 
ATOM     19  S   UNL A   1      35.509  24.493  25.802  1.00  0.00    -0.053 SA
ATOM     20  C   UNL A   1      32.913  24.383  25.384  1.00  0.00     0.281 C 
ATOM     21  C   UNL A   1      34.728  22.909  25.757  1.00  0.00     0.164 C 
ATOM     22  N   UNL A   1      33.392  23.088  25.480  1.00  0.00    -0.209 N 
ATOM     23  O   UNL A   1      31.742  24.701  25.328  1.00  0.00    -0.267 OA
ATOM     24  S   UNL A   1      35.527  21.465  25.990  1.00  0.00    -0.050 S 
BRANCH  22  25
ATOM     25  N   UNL A   1      32.455  21.971  25.241  1.00  0.00    -0.114 NA
ATOM     26  H   UNL A   1      31.519  22.274  25.511  1.00  0.00     0.168 HD
BRANCH  25  27
ATOM     27  S   UNL A   1      32.400  21.440  23.603  1.00  0.00     0.257 S 
ATOM     28  O   UNL A   1      31.051  21.677  23.118  1.00  0.00    -0.205 OA
ATOM     29  O   UNL A   1      33.538  22.048  22.955  1.00  0.00    -0.205 OA
BRANCH  27  30
ATOM     30  C   UNL A   1      32.649  19.684  23.642  1.00  0.00     0.084 A 
ATOM     31  C   UNL A   1      32.864  19.061  24.874  1.00  0.00     0.022 A 
ATOM     32  C   UNL A   1      32.513  18.907  22.489  1.00  0.00     0.022 A 
ATOM     33  C   UNL A   1      33.105  17.692  24.937  1.00  0.00     0.001 A 
ATOM     34  C   UNL A   1      32.690  17.521  22.570  1.00  0.00     0.001 A 
ATOM     35  C   UNL A   1      33.021  16.921  23.786  1.00  0.00     0.000 A 
ENDBRANCH  27  30
ENDBRANCH  25  27
ENDBRANCH  22  25
ENDBRANCH  12  17
ENDBRANCH   4   7
ENDBRANCH   2   3
ENDBRANCH   1   2
BRANCH   1  36
ATOM     36  C   UNL A   1      35.155  30.935  28.586  1.00  0.00     0.023 C 
BRANCH  36  37
ATOM     37  C   UNL A   1      35.550  30.177  29.848  1.00  0.00     0.116 C 
BRANCH  37  38
ATOM     38  N   UNL A   1      35.999  31.011  30.955  1.00  0.00    -0.352 N 
ATOM     39  C   UNL A   1      37.281  31.259  31.400  1.00  0.00     0.251 C 
ATOM     40  H   UNL A   1      35.283  31.463  31.460  1.00  0.00     0.163 HD
ATOM     41  O   UNL A   1      37.465  31.990  32.369  1.00  0.00    -0.269 OA
BRANCH  39  42
ATOM     42  C   UNL A   1      38.427  30.589  30.743  1.00  0.00     0.039 A 
ATOM     43  C   UNL A   1      38.620  30.775  29.371  1.00  0.00     0.014 A 
ATOM     44  C   UNL A   1      39.352  29.854  31.485  1.00  0.00     0.014 A 
ATOM     45  C   UNL A   1      39.800  30.326  28.772  1.00  0.00     0.010 A 
ATOM     46  C   UNL A   1      40.569  29.499  30.910  1.00  0.00     0.010 A 
ATOM     47  C   UNL A   1      40.814  29.740  29.549  1.00  0.00    -0.014 A 
BRANCH  47  48
ATOM     48  C   UNL A   1      42.142  29.396  28.972  1.00  0.00     0.031 A 
ATOM     49  C   UNL A   1      42.407  28.004  28.462  1.00  0.00     0.074 A 
ATOM     50  C   UNL A   1      43.137  30.307  28.984  1.00  0.00     0.049 A 
ATOM     51  N   UNL A   1      43.518  27.490  28.001  1.00  0.00    -0.248 NA
ATOM     52  C   UNL A   1      41.282  27.056  28.507  1.00  0.00     0.031 C 
ATOM     53  C   UNL A   1      43.030  31.674  29.501  1.00  0.00     0.029 A 
ATOM     54  N   UNL A   1      44.439  30.221  28.557  1.00  0.00    -0.354 N 
ATOM     55  C   UNL A   1      43.235  26.157  27.729  1.00  0.00     0.074 A 
ATOM     56  C   UNL A   1      41.863  25.928  28.125  1.00  0.00     0.031 C 
ATOM     57  C   UNL A   1      44.203  32.306  29.329  1.00  0.00     0.029 A 
ATOM     58  C   UNL A   1      45.160  31.381  28.731  1.00  0.00     0.049 A 
ATOM     59  H   UNL A   1      44.823  29.404  28.163  1.00  0.00     0.167 HD
ATOM     60  C   UNL A   1      44.036  25.214  27.178  1.00  0.00     0.037 A 
ATOM     61  C   UNL A   1      46.446  31.667  28.446  1.00  0.00     0.037 A 
ATOM     62  C   UNL A   1      45.389  25.456  26.750  1.00  0.00     0.049 A 
ATOM     63  C   UNL A   1      47.315  30.604  27.829  1.00  0.00     0.074 A 
ATOM     64  C   UNL A   1      46.254  24.591  26.103  1.00  0.00     0.029 A 
ATOM     65  N   UNL A   1      46.075  26.649  26.928  1.00  0.00    -0.354 N 
ATOM     66  N   UNL A   1      47.005  29.371  27.505  1.00  0.00    -0.248 NA
ATOM     67  C   UNL A   1      48.708  30.971  27.536  1.00  0.00     0.031 C 
ATOM     68  C   UNL A   1      47.480  25.243  25.936  1.00  0.00     0.029 A 
ATOM     69  C   UNL A   1      47.362  26.532  26.429  1.00  0.00     0.049 A 
ATOM     70  H   UNL A   1      45.704  27.457  27.348  1.00  0.00     0.167 HD
ATOM     71  C   UNL A   1      48.154  28.826  26.940  1.00  0.00     0.074 A 
ATOM     72  C   UNL A   1      49.163  29.867  26.960  1.00  0.00     0.031 C 
ATOM     73  C   UNL A   1      48.355  27.579  26.447  1.00  0.00     0.037 A 
BRANCH  60  74
ATOM     74  C   UNL A   1      43.469  23.830  27.008  1.00  0.00     0.058 A 
ATOM     75  C   UNL A   1      43.336  22.946  28.090  1.00  0.00     0.135 A 
ATOM     76  C   UNL A   1      43.031  23.390  25.748  1.00  0.00     0.135 A 
ATOM     77  F   UNL A   1      43.751  23.307  29.315  1.00  0.00    -0.206 F 
ATOM     78  C   UNL A   1      42.823  21.663  27.924  1.00  0.00     0.059 A 
ATOM     79  C   UNL A   1      42.486  22.122  25.564  1.00  0.00     0.059 A 
ATOM     80  F   UNL A   1      43.133  24.194  24.677  1.00  0.00    -0.206 F 
ATOM     81  C   UNL A   1      42.403  21.260  26.656  1.00  0.00     0.060 A 
BRANCH  81  82
ATOM     82  S   UNL A   1      41.745  19.591  26.457  1.00  0.00     0.124 S 
ATOM     83  O   UNL A   1      40.308  19.846  26.436  1.00  0.00    -0.237 OA
ATOM     84  O   UNL A   1      42.332  19.172  25.189  1.00  0.00    -0.237 OA
ATOM     85  O   UNL A   1      42.240  18.888  27.637  1.00  0.00    -0.744 OA
ENDBRANCH  81  82
ENDBRANCH  60  74
BRANCH  61  86
ATOM     86  C   UNL A   1      46.983  33.031  28.703  1.00  0.00     0.058 A 
ATOM     87  C   UNL A   1      46.882  34.035  27.727  1.00  0.00     0.135 A 
ATOM     88  C   UNL A   1      47.596  33.364  29.921  1.00  0.00     0.135 A 
ATOM     89  F   UNL A   1      46.312  33.765  26.543  1.00  0.00    -0.206 F 
ATOM     90  C   UNL A   1      47.381  35.315  27.943  1.00  0.00     0.059 A 
ATOM     91  C   UNL A   1      48.080  34.646  30.169  1.00  0.00     0.059 A 
ATOM     92  F   UNL A   1      47.704  32.445  30.892  1.00  0.00    -0.206 F 
ATOM     93  C   UNL A   1      47.976  35.612  29.170  1.00  0.00     0.060 A 
BRANCH  93  94
ATOM     94  S   UNL A   1      48.575  37.292  29.457  1.00  0.00     0.124 S 
ATOM     95  O   UNL A   1      47.381  38.082  29.179  1.00  0.00    -0.237 OA
ATOM     96  O   UNL A   1      48.991  37.234  30.855  1.00  0.00    -0.237 OA
ATOM     97  O   UNL A   1      49.661  37.429  28.493  1.00  0.00    -0.744 OA
ENDBRANCH  93  94
ENDBRANCH  61  86
BRANCH  73  98
ATOM     98  C   UNL A   1      49.700  27.276  25.848  1.00  0.00     0.058 A 
ATOM     99  C   UNL A   1      50.779  26.841  26.633  1.00  0.00     0.135 A 
ATOM    100  C   UNL A   1      49.896  27.369  24.460  1.00  0.00     0.135 A 
ATOM    101  F   UNL A   1      50.648  26.741  27.965  1.00  0.00    -0.206 F 
ATOM    102  C   UNL A   1      52.011  26.529  26.066  1.00  0.00     0.059 A 
ATOM    103  C   UNL A   1      51.109  27.035  23.869  1.00  0.00     0.059 A 
ATOM    104  F   UNL A   1      48.894  27.770  23.662  1.00  0.00    -0.206 F 
ATOM    105  C   UNL A   1      52.165  26.627  24.682  1.00  0.00     0.060 A 
BRANCH 105 106
ATOM    106  S   UNL A   1      53.757  26.182  23.954  1.00  0.00     0.124 S 
ATOM    107  O   UNL A   1      54.579  27.329  24.324  1.00  0.00    -0.237 OA
ATOM    108  O   UNL A   1      54.072  24.930  24.634  1.00  0.00    -0.237 OA
ATOM    109  O   UNL A   1      53.457  26.057  22.531  1.00  0.00    -0.744 OA
ENDBRANCH 105 106
ENDBRANCH  73  98
ENDBRANCH  47  48
ENDBRANCH  39  42
ENDBRANCH  37  38
ENDBRANCH  36  37
ENDBRANCH   1  36
TORSDOF 20
ENDMDL
MODEL 3
REMARK VINA RESULT:     -10.0      8.734     16.693
REMARK SMILES COc1ccc(/C=C2/SC(=S)N(NS(=O)(=O)c3ccccc3)C2=O)c(C(=O)NCCCCNC(=O)c2ccc(-c3c4nc(c(-c5c(F)cc(S(=O)(=O)[O-])cc5F)c5ccc([nH]5)c(-c5c(F)cc(S(=O)(=O)[O-])cc5F)c5nc(c(-c6c(F)cc(S(=O)(=O)[O-])cc6F)c6ccc3[nH]6)C=C5)C=C4)cc2)c1OC
REMARK SMILES IDX 30 1 29 2 28 3 26 4 27 5 25 7 3 8 4 9 102 10 5 11 6 12 2 13
REMARK SMILES IDX 1 14 103 15 104 16 7 17 8 18 9 19 23 20 10 21 12 22 24 23
REMARK SMILES IDX 11 24 13 25 14 27 15 28 16 29 17 30 18 31 22 32 19 33 21 34
REMARK SMILES IDX 20 35 31 36 32 37 33 38 34 39 35 41 36 42 37 43 101 44 38 45
REMARK SMILES IDX 100 46 39 47 40 48 41 49 94 50 42 51 99 52 93 53 95 54 43 55
REMARK SMILES IDX 98 56 92 57 91 58 44 60 78 61 57 62 77 63 58 64 61 65 76 66
REMARK SMILES IDX 96 67 59 68 60 69 75 71 97 72 62 73 45 74 46 75 55 76 47 77
REMARK SMILES IDX 48 78 54 79 56 80 49 81 50 82 51 83 52 84 53 85 79 86 80 87
REMARK SMILES IDX 89 88 81 89 82 90 88 91 90 92 83 93 84 94 85 95 86 96 87 97
REMARK SMILES IDX 63 98 64 99 73 100 65 101 66 102 72 103 74 104 67 105 68 106
REMARK SMILES IDX 69 107 70 108 71 109
REMARK H PARENT 28 6 13 26 33 40 95 59 61 70
REMARK Flexibility Score: inf
ROOT
ATOM      1  C   UNL A   1      45.270  22.623  40.325  1.00  0.00     0.023 C 
ENDROOT
BRANCH   1   2
ATOM      2  C   UNL A   1      45.884  21.235  40.356  1.00  0.00     0.116 C 
BRANCH   2   3
ATOM      3  N   UNL A   1      46.385  20.717  41.610  1.00  0.00    -0.352 N 
ATOM      4  C   UNL A   1      46.474  19.389  41.990  1.00  0.00     0.255 C 
ATOM      5  O   UNL A   1      47.045  19.093  43.038  1.00  0.00    -0.269 OA
ATOM      6  H   UNL A   1      46.695  21.382  42.266  1.00  0.00     0.163 HD
BRANCH   4   7
ATOM      7  C   UNL A   1      45.775  18.321  41.212  1.00  0.00     0.092 A 
ATOM      8  C   UNL A   1      43.889  16.814  40.854  1.00  0.00     0.161 A 
ATOM      9  C   UNL A   1      44.627  16.163  39.859  1.00  0.00     0.051 A 
ATOM     10  C   UNL A   1      44.431  17.937  41.504  1.00  0.00     0.174 A 
ATOM     11  C   UNL A   1      45.908  16.596  39.513  1.00  0.00     0.013 A 
ATOM     12  C   UNL A   1      46.517  17.658  40.199  1.00  0.00    -0.007 A 
BRANCH   8  13
ATOM     13  O   UNL A   1      42.770  16.131  41.252  1.00  0.00    -0.493 OA
ATOM     14  C   UNL A   1      42.297  15.127  40.364  1.00  0.00     0.278 C 
ENDBRANCH   8  13
BRANCH  10  15
ATOM     15  O   UNL A   1      43.727  18.758  42.352  1.00  0.00    -0.492 OA
ATOM     16  C   UNL A   1      43.693  18.440  43.741  1.00  0.00     0.278 C 
ENDBRANCH  10  15
BRANCH  12  17
ATOM     17  C   UNL A   1      47.895  17.986  39.755  1.00  0.00     0.030 C 
ATOM     18  C   UNL A   1      48.279  18.878  38.827  1.00  0.00     0.082 C 
ATOM     19  S   UNL A   1      49.933  19.348  38.580  1.00  0.00    -0.053 SA
ATOM     20  C   UNL A   1      47.400  19.719  37.971  1.00  0.00     0.281 C 
ATOM     21  C   UNL A   1      49.496  20.768  37.627  1.00  0.00     0.164 C 
ATOM     22  N   UNL A   1      48.128  20.785  37.471  1.00  0.00    -0.209 N 
ATOM     23  O   UNL A   1      46.226  19.501  37.753  1.00  0.00    -0.267 OA
ATOM     24  S   UNL A   1      50.591  21.889  37.059  1.00  0.00    -0.050 S 
BRANCH  22  25
ATOM     25  N   UNL A   1      47.396  21.900  36.835  1.00  0.00    -0.114 NA
ATOM     26  H   UNL A   1      47.897  22.767  37.032  1.00  0.00     0.168 HD
BRANCH  25  27
ATOM     27  S   UNL A   1      47.229  21.747  35.127  1.00  0.00     0.257 S 
ATOM     28  O   UNL A   1      48.355  22.434  34.521  1.00  0.00    -0.205 OA
ATOM     29  O   UNL A   1      46.997  20.343  34.881  1.00  0.00    -0.205 OA
BRANCH  27  30
ATOM     30  C   UNL A   1      45.761  22.642  34.690  1.00  0.00     0.084 A 
ATOM     31  C   UNL A   1      44.682  22.642  35.578  1.00  0.00     0.022 A 
ATOM     32  C   UNL A   1      45.713  23.438  33.543  1.00  0.00     0.022 A 
ATOM     33  C   UNL A   1      43.501  23.299  35.247  1.00  0.00     0.001 A 
ATOM     34  C   UNL A   1      44.545  24.151  33.250  1.00  0.00     0.001 A 
ATOM     35  C   UNL A   1      43.429  24.052  34.083  1.00  0.00     0.000 A 
ENDBRANCH  27  30
ENDBRANCH  25  27
ENDBRANCH  22  25
ENDBRANCH  12  17
ENDBRANCH   4   7
ENDBRANCH   2   3
ENDBRANCH   1   2
BRANCH   1  36
ATOM     36  C   UNL A   1      45.668  23.527  39.168  1.00  0.00     0.023 C 
BRANCH  36  37
ATOM     37  C   UNL A   1      45.489  25.029  39.355  1.00  0.00     0.116 C 
BRANCH  37  38
ATOM     38  N   UNL A   1      46.707  25.818  39.219  1.00  0.00    -0.352 N 
ATOM     39  C   UNL A   1      46.973  26.878  38.378  1.00  0.00     0.251 C 
ATOM     40  H   UNL A   1      47.447  25.556  39.814  1.00  0.00     0.163 HD
ATOM     41  O   UNL A   1      48.075  27.418  38.398  1.00  0.00    -0.269 OA
BRANCH  39  42
ATOM     42  C   UNL A   1      45.944  27.319  37.408  1.00  0.00     0.039 A 
ATOM     43  C   UNL A   1      44.640  26.834  37.541  1.00  0.00     0.014 A 
ATOM     44  C   UNL A   1      46.240  28.269  36.429  1.00  0.00     0.014 A 
ATOM     45  C   UNL A   1      43.614  27.390  36.770  1.00  0.00     0.010 A 
ATOM     46  C   UNL A   1      45.204  28.891  35.738  1.00  0.00     0.010 A 
ATOM     47  C   UNL A   1      43.876  28.468  35.908  1.00  0.00    -0.014 A 
BRANCH  47  48
ATOM     48  C   UNL A   1      42.783  29.183  35.195  1.00  0.00     0.031 A 
ATOM     49  C   UNL A   1      42.386  28.764  33.804  1.00  0.00     0.074 A 
ATOM     50  C   UNL A   1      42.204  30.262  35.762  1.00  0.00     0.049 A 
ATOM     51  N   UNL A   1      41.520  29.311  32.992  1.00  0.00    -0.248 NA
ATOM     52  C   UNL A   1      43.081  27.596  33.239  1.00  0.00     0.031 C 
ATOM     53  C   UNL A   1      42.534  30.808  37.081  1.00  0.00     0.029 A 
ATOM     54  N   UNL A   1      41.222  31.102  35.299  1.00  0.00    -0.354 N 
ATOM     55  C   UNL A   1      41.585  28.574  31.815  1.00  0.00     0.074 A 
ATOM     56  C   UNL A   1      42.613  27.574  32.001  1.00  0.00     0.031 C 
ATOM     57  C   UNL A   1      41.746  31.865  37.334  1.00  0.00     0.029 A 
ATOM     58  C   UNL A   1      40.884  32.104  36.180  1.00  0.00     0.049 A 
ATOM     59  H   UNL A   1      40.798  30.998  34.415  1.00  0.00     0.167 HD
ATOM     60  C   UNL A   1      40.840  28.702  30.690  1.00  0.00     0.037 A 
ATOM     61  C   UNL A   1      39.985  33.103  36.073  1.00  0.00     0.037 A 
ATOM     62  C   UNL A   1      39.791  29.674  30.525  1.00  0.00     0.049 A 
ATOM     63  C   UNL A   1      39.167  33.221  34.815  1.00  0.00     0.074 A 
ATOM     64  C   UNL A   1      38.924  29.829  29.458  1.00  0.00     0.029 A 
ATOM     65  N   UNL A   1      39.470  30.659  31.448  1.00  0.00    -0.354 N 
ATOM     66  N   UNL A   1      39.187  32.464  33.743  1.00  0.00    -0.248 NA
ATOM     67  C   UNL A   1      38.201  34.327  34.752  1.00  0.00     0.031 C 
ATOM     68  C   UNL A   1      38.111  30.939  29.713  1.00  0.00     0.029 A 
ATOM     69  C   UNL A   1      38.435  31.442  30.963  1.00  0.00     0.049 A 
ATOM     70  H   UNL A   1      39.911  30.783  32.318  1.00  0.00     0.167 HD
ATOM     71  C   UNL A   1      38.215  32.983  32.893  1.00  0.00     0.074 A 
ATOM     72  C   UNL A   1      37.621  34.113  33.579  1.00  0.00     0.031 C 
ATOM     73  C   UNL A   1      37.846  32.559  31.660  1.00  0.00     0.037 A 
BRANCH  60  74
ATOM     74  C   UNL A   1      41.136  27.767  29.549  1.00  0.00     0.058 A 
ATOM     75  C   UNL A   1      42.281  27.912  28.751  1.00  0.00     0.135 A 
ATOM     76  C   UNL A   1      40.272  26.697  29.264  1.00  0.00     0.135 A 
ATOM     77  F   UNL A   1      43.135  28.925  28.968  1.00  0.00    -0.206 F 
ATOM     78  C   UNL A   1      42.543  27.052  27.688  1.00  0.00     0.059 A 
ATOM     79  C   UNL A   1      40.530  25.806  28.225  1.00  0.00     0.059 A 
ATOM     80  F   UNL A   1      39.162  26.509  29.994  1.00  0.00    -0.206 F 
ATOM     81  C   UNL A   1      41.659  26.003  27.432  1.00  0.00     0.060 A 
BRANCH  81  82
ATOM     82  S   UNL A   1      42.010  24.900  26.047  1.00  0.00     0.124 S 
ATOM     83  O   UNL A   1      41.814  25.792  24.909  1.00  0.00    -0.237 OA
ATOM     84  O   UNL A   1      43.388  24.500  26.308  1.00  0.00    -0.237 OA
ATOM     85  O   UNL A   1      41.014  23.843  26.194  1.00  0.00    -0.744 OA
ENDBRANCH  81  82
ENDBRANCH  60  74
BRANCH  61  86
ATOM     86  C   UNL A   1      39.782  34.050  37.202  1.00  0.00     0.058 A 
ATOM     87  C   UNL A   1      40.428  35.296  37.216  1.00  0.00     0.135 A 
ATOM     88  C   UNL A   1      38.938  33.741  38.280  1.00  0.00     0.135 A 
ATOM     89  F   UNL A   1      41.251  35.635  36.212  1.00  0.00    -0.206 F 
ATOM     90  C   UNL A   1      40.258  36.195  38.263  1.00  0.00     0.059 A 
ATOM     91  C   UNL A   1      38.732  34.635  39.327  1.00  0.00     0.059 A 
ATOM     92  F   UNL A   1      38.286  32.569  38.309  1.00  0.00    -0.206 F 
ATOM     93  C   UNL A   1      39.404  35.856  39.314  1.00  0.00     0.060 A 
BRANCH  93  94
ATOM     94  S   UNL A   1      39.151  37.054  40.642  1.00  0.00     0.124 S 
ATOM     95  O   UNL A   1      38.301  38.043  39.990  1.00  0.00    -0.237 OA
ATOM     96  O   UNL A   1      38.510  36.240  41.671  1.00  0.00    -0.237 OA
ATOM     97  O   UNL A   1      40.506  37.495  40.958  1.00  0.00    -0.744 OA
ENDBRANCH  93  94
ENDBRANCH  61  86
BRANCH  73  98
ATOM     98  C   UNL A   1      36.720  33.290  30.981  1.00  0.00     0.058 A 
ATOM     99  C   UNL A   1      36.950  34.192  29.931  1.00  0.00     0.135 A 
ATOM    100  C   UNL A   1      35.388  33.041  31.351  1.00  0.00     0.135 A 
ATOM    101  F   UNL A   1      38.203  34.472  29.542  1.00  0.00    -0.206 F 
ATOM    102  C   UNL A   1      35.899  34.838  29.285  1.00  0.00     0.059 A 
ATOM    103  C   UNL A   1      34.322  33.653  30.701  1.00  0.00     0.059 A 
ATOM    104  F   UNL A   1      35.113  32.179  32.343  1.00  0.00    -0.206 F 
ATOM    105  C   UNL A   1      34.588  34.559  29.676  1.00  0.00     0.060 A 
BRANCH 105 106
ATOM    106  S   UNL A   1      33.233  35.374  28.805  1.00  0.00     0.124 S 
ATOM    107  O   UNL A   1      32.489  35.968  29.911  1.00  0.00    -0.237 OA
ATOM    108  O   UNL A   1      33.938  36.313  27.938  1.00  0.00    -0.237 OA
ATOM    109  O   UNL A   1      32.563  34.275  28.115  1.00  0.00    -0.744 OA
ENDBRANCH 105 106
ENDBRANCH  73  98
ENDBRANCH  47  48
ENDBRANCH  39  42
ENDBRANCH  37  38
ENDBRANCH  36  37
ENDBRANCH   1  36
TORSDOF 20
ENDMDL
