MODEL 1
REMARK VINA RESULT:     -12.8      0.000      0.000
REMARK SMILES CC[C@H](C)N1C(=O)c2ccccc2[C@@H](C(=O)NCCCCNC(=O)c2ccc(-c3c4nc(c(-c5c(F)cc(S(=O)(=O)[O-])cc5F)c5ccc([nH]5)c(-c5c(F)cc(S(=O)(=O)[O-])cc5F)c5nc(c(-c6c(F)cc(S(=O)(=O)[O-])cc6F)c6ccc3[nH]6)C=C5)C=C4)cc2)C12CCCCC2
REMARK SMILES IDX 20 1 19 2 18 3 17 4 15 5 16 6 14 8 5 9 6 10 91 11 7 12 8 13
REMARK SMILES IDX 92 14 96 15 9 16 13 17 93 18 95 19 10 20 12 21 94 22 11 23
REMARK SMILES IDX 3 24 4 25 2 26 1 27 21 28 22 29 23 30 24 32 25 33 26 34
REMARK SMILES IDX 90 35 27 36 89 37 28 38 29 39 30 40 83 41 31 42 88 43 82 44
REMARK SMILES IDX 84 45 32 46 87 47 81 48 80 49 33 51 67 52 46 53 66 54 47 55
REMARK SMILES IDX 50 56 65 57 85 58 48 59 49 60 64 62 86 63 51 64 34 65 35 66
REMARK SMILES IDX 44 67 36 68 37 69 43 70 45 71 38 72 39 73 40 74 41 75 42 76
REMARK SMILES IDX 68 77 69 78 78 79 70 80 71 81 77 82 79 83 72 84 73 85 74 86
REMARK SMILES IDX 75 87 76 88 52 89 53 90 62 91 54 92 55 93 61 94 63 95 56 96
REMARK SMILES IDX 57 97 58 98 59 99 60 100
REMARK H PARENT 17 7 22 31 84 50 50 61
REMARK Flexibility Score: inf
ROOT
ATOM      1  C   UNL A   1      37.402  23.322  25.398  1.00  0.00     0.023 C 
ENDROOT
BRANCH   1   2
ATOM      2  C   UNL A   1      36.029  22.992  25.951  1.00  0.00     0.023 C 
BRANCH   2   3
ATOM      3  C   UNL A   1      34.915  23.971  25.567  1.00  0.00     0.116 C 
BRANCH   3   4
ATOM      4  N   UNL A   1      33.824  24.050  26.528  1.00  0.00    -0.355 N 
ATOM      5  C   UNL A   1      32.506  24.384  26.410  1.00  0.00     0.229 C 
ATOM      6  O   UNL A   1      31.811  24.232  27.422  1.00  0.00    -0.274 OA
ATOM      7  H   UNL A   1      34.091  23.817  27.447  1.00  0.00     0.163 HD
BRANCH   5   8
ATOM      8  C   UNL A   1      31.860  24.885  25.102  1.00  0.00     0.135 C 
ATOM      9  N   UNL A   1      32.164  26.533  23.160  1.00  0.00    -0.329 N 
ATOM     10  C   UNL A   1      32.817  25.542  22.399  1.00  0.00     0.254 C 
ATOM     11  C   UNL A   1      32.140  26.404  24.690  1.00  0.00     0.059 C 
ATOM     12  O   UNL A   1      33.434  25.767  21.361  1.00  0.00    -0.269 OA
ATOM     13  C   UNL A   1      32.608  24.136  22.803  1.00  0.00     0.044 A 
ATOM     14  C   UNL A   1      33.504  26.956  25.173  1.00  0.00     0.030 C 
ATOM     15  C   UNL A   1      31.038  27.287  25.346  1.00  0.00     0.030 C 
ATOM     16  C   UNL A   1      32.936  23.107  21.906  1.00  0.00     0.014 A 
ATOM     17  C   UNL A   1      32.028  23.829  24.028  1.00  0.00    -0.020 A 
ATOM     18  C   UNL A   1      33.679  27.239  26.666  1.00  0.00     0.002 C 
ATOM     19  C   UNL A   1      31.169  27.481  26.858  1.00  0.00     0.002 C 
ATOM     20  C   UNL A   1      32.638  21.777  22.210  1.00  0.00     0.001 A 
ATOM     21  C   UNL A   1      31.676  22.488  24.298  1.00  0.00     0.005 A 
ATOM     22  C   UNL A   1      32.529  28.043  27.249  1.00  0.00     0.000 C 
ATOM     23  C   UNL A   1      31.982  21.471  23.397  1.00  0.00     0.000 A 
BRANCH   9  24
ATOM     24  C   UNL A   1      31.809  27.759  22.385  1.00  0.00     0.082 C 
ATOM     25  C   UNL A   1      30.303  27.991  22.257  1.00  0.00     0.031 C 
BRANCH  24  26
ATOM     26  C   UNL A   1      32.679  29.022  22.582  1.00  0.00     0.021 C 
ATOM     27  C   UNL A   1      34.193  28.858  22.621  1.00  0.00     0.006 C 
ENDBRANCH  24  26
ENDBRANCH   9  24
ENDBRANCH   5   8
ENDBRANCH   3   4
ENDBRANCH   2   3
ENDBRANCH   1   2
BRANCH   1  28
ATOM     28  C   UNL A   1      38.258  24.093  26.378  1.00  0.00     0.116 C 
BRANCH  28  29
ATOM     29  N   UNL A   1      39.681  23.965  26.080  1.00  0.00    -0.352 N 
ATOM     30  C   UNL A   1      40.710  24.786  26.475  1.00  0.00     0.251 C 
ATOM     31  H   UNL A   1      39.936  23.193  25.525  1.00  0.00     0.163 HD
ATOM     32  O   UNL A   1      41.830  24.672  25.989  1.00  0.00    -0.269 OA
BRANCH  30  33
ATOM     33  C   UNL A   1      40.418  25.823  27.479  1.00  0.00     0.039 A 
ATOM     34  C   UNL A   1      41.119  27.029  27.426  1.00  0.00     0.014 A 
ATOM     35  C   UNL A   1      39.543  25.550  28.532  1.00  0.00     0.014 A 
ATOM     36  C   UNL A   1      41.109  27.863  28.528  1.00  0.00     0.010 A 
ATOM     37  C   UNL A   1      39.432  26.465  29.581  1.00  0.00     0.010 A 
ATOM     38  C   UNL A   1      40.248  27.607  29.608  1.00  0.00    -0.014 A 
BRANCH  38  39
ATOM     39  C   UNL A   1      40.210  28.578  30.730  1.00  0.00     0.031 A 
ATOM     40  C   UNL A   1      41.233  28.533  31.833  1.00  0.00     0.074 A 
ATOM     41  C   UNL A   1      39.280  29.554  30.694  1.00  0.00     0.049 A 
ATOM     42  N   UNL A   1      41.318  29.286  32.899  1.00  0.00    -0.248 NA
ATOM     43  C   UNL A   1      42.292  27.514  31.735  1.00  0.00     0.031 C 
ATOM     44  C   UNL A   1      38.257  29.705  29.652  1.00  0.00     0.029 A 
ATOM     45  N   UNL A   1      39.064  30.625  31.519  1.00  0.00    -0.354 N 
ATOM     46  C   UNL A   1      42.415  28.816  33.613  1.00  0.00     0.074 A 
ATOM     47  C   UNL A   1      42.959  27.703  32.867  1.00  0.00     0.031 C 
ATOM     48  C   UNL A   1      37.588  30.848  29.850  1.00  0.00     0.029 A 
ATOM     49  C   UNL A   1      38.058  31.456  31.087  1.00  0.00     0.049 A 
ATOM     50  H   UNL A   1      39.581  30.785  32.342  1.00  0.00     0.167 HD
ATOM     51  C   UNL A   1      42.918  29.281  34.781  1.00  0.00     0.037 A 
ATOM     52  C   UNL A   1      37.547  32.571  31.638  1.00  0.00     0.037 A 
ATOM     53  C   UNL A   1      42.383  30.414  35.491  1.00  0.00     0.049 A 
ATOM     54  C   UNL A   1      38.100  33.036  32.952  1.00  0.00     0.074 A 
ATOM     55  C   UNL A   1      42.808  30.958  36.692  1.00  0.00     0.029 A 
ATOM     56  N   UNL A   1      41.316  31.189  35.058  1.00  0.00    -0.354 N 
ATOM     57  N   UNL A   1      39.097  32.539  33.644  1.00  0.00    -0.248 NA
ATOM     58  C   UNL A   1      37.442  34.190  33.575  1.00  0.00     0.031 C 
ATOM     59  C   UNL A   1      41.980  32.044  36.996  1.00  0.00     0.029 A 
ATOM     60  C   UNL A   1      41.064  32.201  35.968  1.00  0.00     0.049 A 
ATOM     61  H   UNL A   1      40.812  31.040  34.226  1.00  0.00     0.167 HD
ATOM     62  C   UNL A   1      39.188  33.321  34.787  1.00  0.00     0.074 A 
ATOM     63  C   UNL A   1      38.160  34.339  34.679  1.00  0.00     0.031 C 
ATOM     64  C   UNL A   1      40.035  33.200  35.836  1.00  0.00     0.037 A 
BRANCH  51  65
ATOM     65  C   UNL A   1      44.101  28.569  35.379  1.00  0.00     0.058 A 
ATOM     66  C   UNL A   1      45.417  28.946  35.075  1.00  0.00     0.135 A 
ATOM     67  C   UNL A   1      43.915  27.551  36.330  1.00  0.00     0.135 A 
ATOM     68  F   UNL A   1      45.654  29.899  34.159  1.00  0.00    -0.206 F 
ATOM     69  C   UNL A   1      46.509  28.337  35.689  1.00  0.00     0.059 A 
ATOM     70  C   UNL A   1      44.990  26.942  36.972  1.00  0.00     0.059 A 
ATOM     71  F   UNL A   1      42.676  27.150  36.654  1.00  0.00    -0.206 F 
ATOM     72  C   UNL A   1      46.285  27.340  36.640  1.00  0.00     0.060 A 
BRANCH  72  73
ATOM     73  S   UNL A   1      47.712  26.586  37.452  1.00  0.00     0.124 S 
ATOM     74  O   UNL A   1      48.245  27.715  38.208  1.00  0.00    -0.237 OA
ATOM     75  O   UNL A   1      47.095  25.528  38.246  1.00  0.00    -0.237 OA
ATOM     76  O   UNL A   1      48.538  26.131  36.339  1.00  0.00    -0.744 OA
ENDBRANCH  72  73
ENDBRANCH  51  65
BRANCH  52  77
ATOM     77  C   UNL A   1      36.438  33.293  30.962  1.00  0.00     0.058 A 
ATOM     78  C   UNL A   1      35.140  33.271  31.486  1.00  0.00     0.135 A 
ATOM     79  C   UNL A   1      36.663  34.046  29.798  1.00  0.00     0.135 A 
ATOM     80  F   UNL A   1      34.875  32.563  32.595  1.00  0.00    -0.206 F 
ATOM     81  C   UNL A   1      34.098  33.964  30.877  1.00  0.00     0.059 A 
ATOM     82  C   UNL A   1      35.646  34.769  29.187  1.00  0.00     0.059 A 
ATOM     83  F   UNL A   1      37.895  34.113  29.267  1.00  0.00    -0.206 F 
ATOM     84  C   UNL A   1      34.364  34.713  29.729  1.00  0.00     0.060 A 
BRANCH  84  85
ATOM     85  S   UNL A   1      33.017  35.649  28.973  1.00  0.00     0.124 S 
ATOM     86  O   UNL A   1      33.749  36.688  28.259  1.00  0.00    -0.237 OA
ATOM     87  O   UNL A   1      32.368  34.639  28.142  1.00  0.00    -0.237 OA
ATOM     88  O   UNL A   1      32.237  36.100  30.122  1.00  0.00    -0.744 OA
ENDBRANCH  84  85
ENDBRANCH  52  77
BRANCH  64  89
ATOM     89  C   UNL A   1      39.891  34.201  36.944  1.00  0.00     0.058 A 
ATOM     90  C   UNL A   1      40.448  35.484  36.843  1.00  0.00     0.135 A 
ATOM     91  C   UNL A   1      39.147  33.889  38.093  1.00  0.00     0.135 A 
ATOM     92  F   UNL A   1      41.175  35.823  35.767  1.00  0.00    -0.206 F 
ATOM     93  C   UNL A   1      40.285  36.424  37.854  1.00  0.00     0.059 A 
ATOM     94  C   UNL A   1      38.953  34.821  39.107  1.00  0.00     0.059 A 
ATOM     95  F   UNL A   1      38.592  32.675  38.231  1.00  0.00    -0.206 F 
ATOM     96  C   UNL A   1      39.533  36.084  38.981  1.00  0.00     0.060 A 
BRANCH  96  97
ATOM     97  S   UNL A   1      39.297  37.327  40.267  1.00  0.00     0.124 S 
ATOM     98  O   UNL A   1      40.674  37.706  40.564  1.00  0.00    -0.237 OA
ATOM     99  O   UNL A   1      38.495  38.336  39.581  1.00  0.00    -0.237 OA
ATOM    100  O   UNL A   1      38.605  36.595  41.323  1.00  0.00    -0.744 OA
ENDBRANCH  96  97
ENDBRANCH  64  89
ENDBRANCH  38  39
ENDBRANCH  30  33
ENDBRANCH  28  29
ENDBRANCH   1  28
TORSDOF 16
ENDMDL
MODEL 2
REMARK VINA RESULT:     -12.6      1.171      2.713
REMARK SMILES CC[C@H](C)N1C(=O)c2ccccc2[C@@H](C(=O)NCCCCNC(=O)c2ccc(-c3c4nc(c(-c5c(F)cc(S(=O)(=O)[O-])cc5F)c5ccc([nH]5)c(-c5c(F)cc(S(=O)(=O)[O-])cc5F)c5nc(c(-c6c(F)cc(S(=O)(=O)[O-])cc6F)c6ccc3[nH]6)C=C5)C=C4)cc2)C12CCCCC2
REMARK SMILES IDX 20 1 19 2 18 3 17 4 15 5 16 6 14 8 5 9 6 10 91 11 7 12 8 13
REMARK SMILES IDX 92 14 96 15 9 16 13 17 93 18 95 19 10 20 12 21 94 22 11 23
REMARK SMILES IDX 3 24 4 25 2 26 1 27 21 28 22 29 23 30 24 32 25 33 26 34
REMARK SMILES IDX 90 35 27 36 89 37 28 38 29 39 30 40 83 41 31 42 88 43 82 44
REMARK SMILES IDX 84 45 32 46 87 47 81 48 80 49 33 51 67 52 46 53 66 54 47 55
REMARK SMILES IDX 50 56 65 57 85 58 48 59 49 60 64 62 86 63 51 64 34 65 35 66
REMARK SMILES IDX 44 67 36 68 37 69 43 70 45 71 38 72 39 73 40 74 41 75 42 76
REMARK SMILES IDX 68 77 69 78 78 79 70 80 71 81 77 82 79 83 72 84 73 85 74 86
REMARK SMILES IDX 75 87 76 88 52 89 53 90 62 91 54 92 55 93 61 94 63 95 56 96
REMARK SMILES IDX 57 97 58 98 59 99 60 100
REMARK H PARENT 17 7 22 31 84 50 50 61
REMARK Flexibility Score: inf
ROOT
ATOM      1  C   UNL A   1      37.091  23.712  25.144  1.00  0.00     0.023 C 
ENDROOT
BRANCH   1   2
ATOM      2  C   UNL A   1      35.646  23.439  25.514  1.00  0.00     0.023 C 
BRANCH   2   3
ATOM      3  C   UNL A   1      34.640  24.497  25.047  1.00  0.00     0.116 C 
BRANCH   3   4
ATOM      4  N   UNL A   1      33.631  24.848  26.037  1.00  0.00    -0.355 N 
ATOM      5  C   UNL A   1      32.771  25.902  26.152  1.00  0.00     0.229 C 
ATOM      6  O   UNL A   1      31.945  25.835  27.070  1.00  0.00    -0.274 OA
ATOM      7  H   UNL A   1      33.554  24.195  26.769  1.00  0.00     0.163 HD
BRANCH   5   8
ATOM      8  C   UNL A   1      32.761  27.111  25.194  1.00  0.00     0.135 C 
ATOM      9  N   UNL A   1      31.217  28.779  24.005  1.00  0.00    -0.329 N 
ATOM     10  C   UNL A   1      31.351  29.690  25.073  1.00  0.00     0.254 C 
ATOM     11  C   UNL A   1      31.475  27.286  24.261  1.00  0.00     0.059 C 
ATOM     12  O   UNL A   1      30.649  30.687  25.219  1.00  0.00    -0.269 OA
ATOM     13  C   UNL A   1      32.508  29.505  25.974  1.00  0.00     0.044 A 
ATOM     14  C   UNL A   1      30.163  26.738  24.872  1.00  0.00     0.030 C 
ATOM     15  C   UNL A   1      31.728  26.491  22.947  1.00  0.00     0.030 C 
ATOM     16  C   UNL A   1      32.889  30.553  26.827  1.00  0.00     0.014 A 
ATOM     17  C   UNL A   1      33.258  28.336  25.935  1.00  0.00    -0.020 A 
ATOM     18  C   UNL A   1      29.991  25.221  24.969  1.00  0.00     0.002 C 
ATOM     19  C   UNL A   1      31.651  24.968  23.077  1.00  0.00     0.002 C 
ATOM     20  C   UNL A   1      34.047  30.456  27.601  1.00  0.00     0.001 A 
ATOM     21  C   UNL A   1      34.460  28.272  26.674  1.00  0.00     0.005 A 
ATOM     22  C   UNL A   1      30.325  24.510  23.668  1.00  0.00     0.000 C 
ATOM     23  C   UNL A   1      34.847  29.323  27.503  1.00  0.00     0.000 A 
BRANCH   9  24
ATOM     24  C   UNL A   1      30.552  29.351  22.797  1.00  0.00     0.082 C 
ATOM     25  C   UNL A   1      31.506  29.585  21.624  1.00  0.00     0.031 C 
BRANCH  24  26
ATOM     26  C   UNL A   1      29.137  28.845  22.435  1.00  0.00     0.021 C 
ATOM     27  C   UNL A   1      27.942  29.484  23.128  1.00  0.00     0.006 C 
ENDBRANCH  24  26
ENDBRANCH   9  24
ENDBRANCH   5   8
ENDBRANCH   3   4
ENDBRANCH   2   3
ENDBRANCH   1   2
BRANCH   1  28
ATOM     28  C   UNL A   1      37.910  24.209  26.313  1.00  0.00     0.116 C 
BRANCH  28  29
ATOM     29  N   UNL A   1      39.330  23.915  26.151  1.00  0.00    -0.352 N 
ATOM     30  C   UNL A   1      40.406  24.602  26.663  1.00  0.00     0.251 C 
ATOM     31  H   UNL A   1      39.546  23.124  25.605  1.00  0.00     0.163 HD
ATOM     32  O   UNL A   1      41.547  24.360  26.285  1.00  0.00    -0.269 OA
BRANCH  30  33
ATOM     33  C   UNL A   1      40.141  25.654  27.659  1.00  0.00     0.039 A 
ATOM     34  C   UNL A   1      40.842  26.858  27.569  1.00  0.00     0.014 A 
ATOM     35  C   UNL A   1      39.293  25.398  28.737  1.00  0.00     0.014 A 
ATOM     36  C   UNL A   1      40.862  27.708  28.659  1.00  0.00     0.010 A 
ATOM     37  C   UNL A   1      39.211  26.329  29.775  1.00  0.00     0.010 A 
ATOM     38  C   UNL A   1      40.028  27.470  29.764  1.00  0.00    -0.014 A 
BRANCH  38  39
ATOM     39  C   UNL A   1      40.020  28.457  30.872  1.00  0.00     0.031 A 
ATOM     40  C   UNL A   1      41.036  28.391  31.980  1.00  0.00     0.074 A 
ATOM     41  C   UNL A   1      39.126  29.465  30.819  1.00  0.00     0.049 A 
ATOM     42  N   UNL A   1      41.143  29.155  33.037  1.00  0.00    -0.248 NA
ATOM     43  C   UNL A   1      42.058  27.334  31.902  1.00  0.00     0.031 C 
ATOM     44  C   UNL A   1      38.114  29.638  29.770  1.00  0.00     0.029 A 
ATOM     45  N   UNL A   1      38.946  30.555  31.627  1.00  0.00    -0.354 N 
ATOM     46  C   UNL A   1      42.220  28.657  33.762  1.00  0.00     0.074 A 
ATOM     47  C   UNL A   1      42.727  27.515  33.035  1.00  0.00     0.031 C 
ATOM     48  C   UNL A   1      37.486  30.807  29.949  1.00  0.00     0.029 A 
ATOM     49  C   UNL A   1      37.972  31.416  31.178  1.00  0.00     0.049 A 
ATOM     50  H   UNL A   1      39.464  30.708  32.450  1.00  0.00     0.167 HD
ATOM     51  C   UNL A   1      42.735  29.120  34.926  1.00  0.00     0.037 A 
ATOM     52  C   UNL A   1      37.499  32.556  31.712  1.00  0.00     0.037 A 
ATOM     53  C   UNL A   1      42.237  30.281  35.618  1.00  0.00     0.049 A 
ATOM     54  C   UNL A   1      38.063  33.019  33.022  1.00  0.00     0.074 A 
ATOM     55  C   UNL A   1      42.677  30.827  36.812  1.00  0.00     0.029 A 
ATOM     56  N   UNL A   1      41.201  31.088  35.168  1.00  0.00    -0.354 N 
ATOM     57  N   UNL A   1      39.038  32.497  33.725  1.00  0.00    -0.248 NA
ATOM     58  C   UNL A   1      37.443  34.205  33.625  1.00  0.00     0.031 C 
ATOM     59  C   UNL A   1      41.888  31.946  37.097  1.00  0.00     0.029 A 
ATOM     60  C   UNL A   1      40.982  32.121  36.064  1.00  0.00     0.049 A 
ATOM     61  H   UNL A   1      40.695  30.945  34.336  1.00  0.00     0.167 HD
ATOM     62  C   UNL A   1      39.152  33.291  34.857  1.00  0.00     0.074 A 
ATOM     63  C   UNL A   1      38.162  34.343  34.730  1.00  0.00     0.031 C 
ATOM     64  C   UNL A   1      39.990  33.155  35.913  1.00  0.00     0.037 A 
BRANCH  51  65
ATOM     65  C   UNL A   1      43.889  28.375  35.539  1.00  0.00     0.058 A 
ATOM     66  C   UNL A   1      45.219  28.695  35.231  1.00  0.00     0.135 A 
ATOM     67  C   UNL A   1      43.663  27.382  36.509  1.00  0.00     0.135 A 
ATOM     68  F   UNL A   1      45.493  29.621  34.298  1.00  0.00    -0.206 F 
ATOM     69  C   UNL A   1      46.285  28.056  35.858  1.00  0.00     0.059 A 
ATOM     70  C   UNL A   1      44.713  26.746  37.165  1.00  0.00     0.059 A 
ATOM     71  F   UNL A   1      42.409  27.036  36.839  1.00  0.00    -0.206 F 
ATOM     72  C   UNL A   1      46.022  27.087  36.828  1.00  0.00     0.060 A 
BRANCH  72  73
ATOM     73  S   UNL A   1      47.419  26.295  37.657  1.00  0.00     0.124 S 
ATOM     74  O   UNL A   1      48.487  27.258  37.412  1.00  0.00    -0.237 OA
ATOM     75  O   UNL A   1      46.951  26.205  39.036  1.00  0.00    -0.237 OA
ATOM     76  O   UNL A   1      47.552  25.020  36.959  1.00  0.00    -0.744 OA
ENDBRANCH  72  73
ENDBRANCH  51  65
BRANCH  52  77
ATOM     77  C   UNL A   1      36.420  33.307  31.021  1.00  0.00     0.058 A 
ATOM     78  C   UNL A   1      36.698  34.097  29.898  1.00  0.00     0.135 A 
ATOM     79  C   UNL A   1      35.084  33.222  31.449  1.00  0.00     0.135 A 
ATOM     80  F   UNL A   1      37.959  34.211  29.453  1.00  0.00    -0.206 F 
ATOM     81  C   UNL A   1      35.692  34.784  29.225  1.00  0.00     0.059 A 
ATOM     82  C   UNL A   1      34.059  33.877  30.777  1.00  0.00     0.059 A 
ATOM     83  F   UNL A   1      34.764  32.463  32.509  1.00  0.00    -0.206 F 
ATOM     84  C   UNL A   1      34.374  34.665  29.672  1.00  0.00     0.060 A 
BRANCH  84  85
ATOM     85  S   UNL A   1      33.069  35.521  28.765  1.00  0.00     0.124 S 
ATOM     86  O   UNL A   1      33.837  36.488  27.992  1.00  0.00    -0.237 OA
ATOM     87  O   UNL A   1      32.459  34.434  28.005  1.00  0.00    -0.237 OA
ATOM     88  O   UNL A   1      32.235  36.078  29.826  1.00  0.00    -0.744 OA
ENDBRANCH  84  85
ENDBRANCH  52  77
BRANCH  64  89
ATOM     89  C   UNL A   1      39.877  34.176  37.006  1.00  0.00     0.058 A 
ATOM     90  C   UNL A   1      40.532  35.413  36.916  1.00  0.00     0.135 A 
ATOM     91  C   UNL A   1      39.068  33.932  38.126  1.00  0.00     0.135 A 
ATOM     92  F   UNL A   1      41.324  35.685  35.868  1.00  0.00    -0.206 F 
ATOM     93  C   UNL A   1      40.400  36.373  37.912  1.00  0.00     0.059 A 
ATOM     94  C   UNL A   1      38.904  34.887  39.124  1.00  0.00     0.059 A 
ATOM     95  F   UNL A   1      38.419  32.764  38.251  1.00  0.00    -0.206 F 
ATOM     96  C   UNL A   1      39.580  36.102  39.011  1.00  0.00     0.060 A 
BRANCH  96  97
ATOM     97  S   UNL A   1      39.387  37.374  40.276  1.00  0.00     0.124 S 
ATOM     98  O   UNL A   1      40.765  37.816  40.460  1.00  0.00    -0.237 OA
ATOM     99  O   UNL A   1      38.496  38.329  39.624  1.00  0.00    -0.237 OA
ATOM    100  O   UNL A   1      38.805  36.648  41.400  1.00  0.00    -0.744 OA
ENDBRANCH  96  97
ENDBRANCH  64  89
ENDBRANCH  38  39
ENDBRANCH  30  33
ENDBRANCH  28  29
ENDBRANCH   1  28
TORSDOF 16
ENDMDL
MODEL 3
REMARK VINA RESULT:     -12.3      2.413      8.805
REMARK SMILES CC[C@H](C)N1C(=O)c2ccccc2[C@@H](C(=O)NCCCCNC(=O)c2ccc(-c3c4nc(c(-c5c(F)cc(S(=O)(=O)[O-])cc5F)c5ccc([nH]5)c(-c5c(F)cc(S(=O)(=O)[O-])cc5F)c5nc(c(-c6c(F)cc(S(=O)(=O)[O-])cc6F)c6ccc3[nH]6)C=C5)C=C4)cc2)C12CCCCC2
REMARK SMILES IDX 20 1 19 2 18 3 17 4 15 5 16 6 14 8 5 9 6 10 91 11 7 12 8 13
REMARK SMILES IDX 92 14 96 15 9 16 13 17 93 18 95 19 10 20 12 21 94 22 11 23
REMARK SMILES IDX 3 24 4 25 2 26 1 27 21 28 22 29 23 30 24 32 25 33 26 34
REMARK SMILES IDX 90 35 27 36 89 37 28 38 29 39 30 40 83 41 31 42 88 43 82 44
REMARK SMILES IDX 84 45 32 46 87 47 81 48 80 49 33 51 67 52 46 53 66 54 47 55
REMARK SMILES IDX 50 56 65 57 85 58 48 59 49 60 64 62 86 63 51 64 34 65 35 66
REMARK SMILES IDX 44 67 36 68 37 69 43 70 45 71 38 72 39 73 40 74 41 75 42 76
REMARK SMILES IDX 68 77 69 78 78 79 70 80 71 81 77 82 79 83 72 84 73 85 74 86
REMARK SMILES IDX 75 87 76 88 52 89 53 90 62 91 54 92 55 93 61 94 63 95 56 96
REMARK SMILES IDX 57 97 58 98 59 99 60 100
REMARK H PARENT 17 7 22 31 84 50 50 61
REMARK Flexibility Score: inf
ROOT
ATOM      1  C   UNL A   1      36.598  23.289  24.401  1.00  0.00     0.023 C 
ENDROOT
BRANCH   1   2
ATOM      2  C   UNL A   1      35.123  23.306  24.755  1.00  0.00     0.023 C 
BRANCH   2   3
ATOM      3  C   UNL A   1      34.435  24.669  24.629  1.00  0.00     0.116 C 
BRANCH   3   4
ATOM      4  N   UNL A   1      33.600  25.030  25.767  1.00  0.00    -0.355 N 
ATOM      5  C   UNL A   1      32.806  26.109  26.030  1.00  0.00     0.229 C 
ATOM      6  O   UNL A   1      32.126  26.049  27.061  1.00  0.00    -0.274 OA
ATOM      7  H   UNL A   1      33.612  24.363  26.491  1.00  0.00     0.163 HD
BRANCH   5   8
ATOM      8  C   UNL A   1      32.695  27.339  25.106  1.00  0.00     0.135 C 
ATOM      9  N   UNL A   1      31.025  28.986  24.068  1.00  0.00    -0.329 N 
ATOM     10  C   UNL A   1      31.206  29.876  25.147  1.00  0.00     0.254 C 
ATOM     11  C   UNL A   1      31.343  27.497  24.268  1.00  0.00     0.059 C 
ATOM     12  O   UNL A   1      30.487  30.847  25.366  1.00  0.00    -0.269 OA
ATOM     13  C   UNL A   1      32.427  29.705  25.961  1.00  0.00     0.044 A 
ATOM     14  C   UNL A   1      30.092  26.895  24.953  1.00  0.00     0.030 C 
ATOM     15  C   UNL A   1      31.526  26.740  22.919  1.00  0.00     0.030 C 
ATOM     16  C   UNL A   1      32.836  30.744  26.813  1.00  0.00     0.014 A 
ATOM     17  C   UNL A   1      33.207  28.561  25.841  1.00  0.00    -0.020 A 
ATOM     18  C   UNL A   1      29.972  25.371  25.023  1.00  0.00     0.002 C 
ATOM     19  C   UNL A   1      31.503  25.213  23.016  1.00  0.00     0.002 C 
ATOM     20  C   UNL A   1      34.047  30.664  27.502  1.00  0.00     0.001 A 
ATOM     21  C   UNL A   1      34.458  28.517  26.494  1.00  0.00     0.005 A 
ATOM     22  C   UNL A   1      30.235  24.701  23.685  1.00  0.00     0.000 C 
ATOM     23  C   UNL A   1      34.872  29.559  27.321  1.00  0.00     0.000 A 
BRANCH   9  24
ATOM     24  C   UNL A   1      30.262  29.566  22.923  1.00  0.00     0.082 C 
ATOM     25  C   UNL A   1      31.094  29.732  21.651  1.00  0.00     0.031 C 
BRANCH  24  26
ATOM     26  C   UNL A   1      28.795  29.120  22.725  1.00  0.00     0.021 C 
ATOM     27  C   UNL A   1      27.688  30.125  23.012  1.00  0.00     0.006 C 
ENDBRANCH  24  26
ENDBRANCH   9  24
ENDBRANCH   5   8
ENDBRANCH   3   4
ENDBRANCH   2   3
ENDBRANCH   1   2
BRANCH   1  28
ATOM     28  C   UNL A   1      37.477  23.761  25.536  1.00  0.00     0.116 C 
BRANCH  28  29
ATOM     29  N   UNL A   1      38.684  22.951  25.666  1.00  0.00    -0.352 N 
ATOM     30  C   UNL A   1      39.883  23.296  26.244  1.00  0.00     0.251 C 
ATOM     31  H   UNL A   1      38.634  22.042  25.290  1.00  0.00     0.163 HD
ATOM     32  O   UNL A   1      40.876  22.590  26.107  1.00  0.00    -0.269 OA
BRANCH  30  33
ATOM     33  C   UNL A   1      39.942  24.553  27.009  1.00  0.00     0.039 A 
ATOM     34  C   UNL A   1      40.758  25.587  26.544  1.00  0.00     0.014 A 
ATOM     35  C   UNL A   1      39.287  24.656  28.236  1.00  0.00     0.014 A 
ATOM     36  C   UNL A   1      41.087  26.621  27.400  1.00  0.00     0.010 A 
ATOM     37  C   UNL A   1      39.516  25.775  29.040  1.00  0.00     0.010 A 
ATOM     38  C   UNL A   1      40.452  26.744  28.647  1.00  0.00    -0.014 A 
BRANCH  38  39
ATOM     39  C   UNL A   1      40.775  27.919  29.494  1.00  0.00     0.031 A 
ATOM     40  C   UNL A   1      39.810  29.065  29.636  1.00  0.00     0.074 A 
ATOM     41  C   UNL A   1      41.925  27.897  30.200  1.00  0.00     0.049 A 
ATOM     42  N   UNL A   1      39.956  30.177  30.309  1.00  0.00    -0.248 NA
ATOM     43  C   UNL A   1      38.521  28.957  28.931  1.00  0.00     0.031 C 
ATOM     44  C   UNL A   1      42.919  26.818  30.156  1.00  0.00     0.029 A 
ATOM     45  N   UNL A   1      42.435  28.772  31.120  1.00  0.00    -0.354 N 
ATOM     46  C   UNL A   1      38.797  30.913  30.087  1.00  0.00     0.074 A 
ATOM     47  C   UNL A   1      37.961  30.129  29.205  1.00  0.00     0.031 C 
ATOM     48  C   UNL A   1      43.866  27.052  31.073  1.00  0.00     0.029 A 
ATOM     49  C   UNL A   1      43.608  28.343  31.694  1.00  0.00     0.049 A 
ATOM     50  H   UNL A   1      42.003  29.628  31.349  1.00  0.00     0.167 HD
ATOM     51  C   UNL A   1      38.467  32.130  30.582  1.00  0.00     0.037 A 
ATOM     52  C   UNL A   1      44.407  28.935  32.600  1.00  0.00     0.037 A 
ATOM     53  C   UNL A   1      39.299  32.880  31.488  1.00  0.00     0.049 A 
ATOM     54  C   UNL A   1      44.033  30.299  33.098  1.00  0.00     0.074 A 
ATOM     55  C   UNL A   1      39.067  34.129  32.038  1.00  0.00     0.029 A 
ATOM     56  N   UNL A   1      40.516  32.443  31.993  1.00  0.00    -0.354 N 
ATOM     57  N   UNL A   1      42.964  31.007  32.826  1.00  0.00    -0.248 NA
ATOM     58  C   UNL A   1      44.987  30.957  33.999  1.00  0.00     0.031 C 
ATOM     59  C   UNL A   1      40.156  34.457  32.852  1.00  0.00     0.029 A 
ATOM     60  C   UNL A   1      41.049  33.399  32.840  1.00  0.00     0.049 A 
ATOM     61  H   UNL A   1      40.939  31.580  31.778  1.00  0.00     0.167 HD
ATOM     62  C   UNL A   1      43.114  32.197  33.523  1.00  0.00     0.074 A 
ATOM     63  C   UNL A   1      44.365  32.101  34.249  1.00  0.00     0.031 C 
ATOM     64  C   UNL A   1      42.297  33.277  33.550  1.00  0.00     0.037 A 
BRANCH  51  65
ATOM     65  C   UNL A   1      37.159  32.740  30.157  1.00  0.00     0.058 A 
ATOM     66  C   UNL A   1      35.968  32.487  30.853  1.00  0.00     0.135 A 
ATOM     67  C   UNL A   1      37.113  33.654  29.090  1.00  0.00     0.135 A 
ATOM     68  F   UNL A   1      35.952  31.608  31.868  1.00  0.00    -0.206 F 
ATOM     69  C   UNL A   1      34.775  33.113  30.504  1.00  0.00     0.059 A 
ATOM     70  C   UNL A   1      35.936  34.309  28.737  1.00  0.00     0.059 A 
ATOM     71  F   UNL A   1      38.223  33.930  28.389  1.00  0.00    -0.206 F 
ATOM     72  C   UNL A   1      34.770  34.027  29.449  1.00  0.00     0.060 A 
BRANCH  72  73
ATOM     73  S   UNL A   1      33.220  34.858  29.034  1.00  0.00     0.124 S 
ATOM     74  O   UNL A   1      32.667  33.956  28.029  1.00  0.00    -0.237 OA
ATOM     75  O   UNL A   1      32.525  34.877  30.317  1.00  0.00    -0.237 OA
ATOM     76  O   UNL A   1      33.652  36.160  28.538  1.00  0.00    -0.744 OA
ENDBRANCH  72  73
ENDBRANCH  51  65
BRANCH  52  77
ATOM     77  C   UNL A   1      45.643  28.250  33.059  1.00  0.00     0.058 A 
ATOM     78  C   UNL A   1      45.625  27.404  34.175  1.00  0.00     0.135 A 
ATOM     79  C   UNL A   1      46.858  28.402  32.370  1.00  0.00     0.135 A 
ATOM     80  F   UNL A   1      44.488  27.229  34.867  1.00  0.00    -0.206 F 
ATOM     81  C   UNL A   1      46.769  26.736  34.600  1.00  0.00     0.059 A 
ATOM     82  C   UNL A   1      48.007  27.725  32.758  1.00  0.00     0.059 A 
ATOM     83  F   UNL A   1      46.921  29.188  31.284  1.00  0.00    -0.206 F 
ATOM     84  C   UNL A   1      47.956  26.902  33.881  1.00  0.00     0.060 A 
BRANCH  84  85
ATOM     85  S   UNL A   1      49.424  25.994  34.410  1.00  0.00     0.124 S 
ATOM     86  O   UNL A   1      50.468  26.994  34.222  1.00  0.00    -0.237 OA
ATOM     87  O   UNL A   1      49.099  25.661  35.793  1.00  0.00    -0.237 OA
ATOM     88  O   UNL A   1      49.463  24.858  33.493  1.00  0.00    -0.744 OA
ENDBRANCH  84  85
ENDBRANCH  52  77
BRANCH  64  89
ATOM     89  C   UNL A   1      42.729  34.434  34.401  1.00  0.00     0.058 A 
ATOM     90  C   UNL A   1      42.435  34.480  35.771  1.00  0.00     0.135 A 
ATOM     91  C   UNL A   1      43.486  35.479  33.849  1.00  0.00     0.135 A 
ATOM     92  F   UNL A   1      41.705  33.507  36.339  1.00  0.00    -0.206 F 
ATOM     93  C   UNL A   1      42.865  35.535  36.567  1.00  0.00     0.059 A 
ATOM     94  C   UNL A   1      43.945  36.534  34.631  1.00  0.00     0.059 A 
ATOM     95  F   UNL A   1      43.795  35.475  32.543  1.00  0.00    -0.206 F 
ATOM     96  C   UNL A   1      43.623  36.555  35.988  1.00  0.00     0.060 A 
BRANCH  96  97
ATOM     97  S   UNL A   1      44.208  37.898  37.042  1.00  0.00     0.124 S 
ATOM     98  O   UNL A   1      45.501  37.384  37.482  1.00  0.00    -0.237 OA
ATOM     99  O   UNL A   1      44.255  39.024  36.114  1.00  0.00    -0.237 OA
ATOM    100  O   UNL A   1      43.183  37.988  38.077  1.00  0.00    -0.744 OA
ENDBRANCH  96  97
ENDBRANCH  64  89
ENDBRANCH  38  39
ENDBRANCH  30  33
ENDBRANCH  28  29
ENDBRANCH   1  28
TORSDOF 16
ENDMDL
