MODEL 1
REMARK VINA RESULT:     -12.4      0.000      0.000
REMARK SMILES O=C(NCCCCNC(=O)c1cc(/C=C/c2cccc3ccccc23)ncn1)c1ccc(-c2c3nc(c(-c4c(F)cc(S(=O)(=O)[O-])cc4F)c4ccc([nH]4)c(-c4c(F)cc(S(=O)(=O)[O-])cc4F)c4nc(c(-c5c(F)cc(S(=O)(=O)[O-])cc5F)c5ccc2[nH]5)C=C4)C=C3)cc1
REMARK SMILES IDX 5 1 4 2 3 3 1 4 2 5 29 7 30 8 94 9 31 10 93 11 32 12 33 13
REMARK SMILES IDX 34 14 87 15 35 16 92 17 86 18 88 19 36 20 91 21 85 22 84 23
REMARK SMILES IDX 37 25 71 26 50 27 70 28 51 29 54 30 69 31 89 32 52 33 53 34
REMARK SMILES IDX 68 36 90 37 55 38 38 39 39 40 48 41 40 42 41 43 47 44 49 45
REMARK SMILES IDX 42 46 43 47 44 48 45 49 46 50 72 51 73 52 82 53 74 54 75 55
REMARK SMILES IDX 81 56 83 57 76 58 77 59 78 60 79 61 80 62 56 63 57 64 66 65
REMARK SMILES IDX 58 66 59 67 65 68 67 69 60 70 61 71 62 72 63 73 64 74 6 75
REMARK SMILES IDX 7 76 8 77 9 78 10 80 11 81 12 82 28 83 13 84 27 85 26 86
REMARK SMILES IDX 14 87 15 88 16 89 17 90 25 91 18 92 20 93 24 94 19 95 21 96
REMARK SMILES IDX 23 97 22 98
REMARK H PARENT 3 6 88 24 54 35 8 79
REMARK Flexibility Score: inf
ROOT
ATOM      1  C   UNL A   1      34.023  28.841  27.436  1.00  0.00     0.023 C 
ENDROOT
BRANCH   1   2
ATOM      2  C   UNL A   1      35.339  29.549  27.734  1.00  0.00     0.116 C 
BRANCH   2   3
ATOM      3  N   UNL A   1      35.336  30.225  29.022  1.00  0.00    -0.352 N 
ATOM      4  O   UNL A   1      36.104  30.831  31.049  1.00  0.00    -0.269 OA
ATOM      5  C   UNL A   1      36.347  30.355  29.942  1.00  0.00     0.251 C 
ATOM      6  H   UNL A   1      34.484  30.651  29.270  1.00  0.00     0.163 HD
BRANCH   5   7
ATOM      7  C   UNL A   1      37.716  29.903  29.612  1.00  0.00     0.039 A 
ATOM      8  C   UNL A   1      38.597  29.488  30.614  1.00  0.00     0.014 A 
ATOM      9  C   UNL A   1      38.117  29.882  28.272  1.00  0.00     0.014 A 
ATOM     10  C   UNL A   1      39.917  29.179  30.294  1.00  0.00     0.010 A 
ATOM     11  C   UNL A   1      39.420  29.501  27.946  1.00  0.00     0.010 A 
ATOM     12  C   UNL A   1      40.339  29.174  28.956  1.00  0.00    -0.014 A 
BRANCH  12  13
ATOM     13  C   UNL A   1      41.724  28.766  28.614  1.00  0.00     0.031 A 
ATOM     14  C   UNL A   1      42.834  29.777  28.553  1.00  0.00     0.074 A 
ATOM     15  C   UNL A   1      41.970  27.473  28.326  1.00  0.00     0.049 A 
ATOM     16  N   UNL A   1      44.083  29.610  28.203  1.00  0.00    -0.248 NA
ATOM     17  C   UNL A   1      42.493  31.159  28.925  1.00  0.00     0.031 C 
ATOM     18  C   UNL A   1      40.968  26.405  28.339  1.00  0.00     0.029 A 
ATOM     19  N   UNL A   1      43.128  26.840  27.953  1.00  0.00    -0.354 N 
ATOM     20  C   UNL A   1      44.673  30.865  28.284  1.00  0.00     0.074 A 
ATOM     21  C   UNL A   1      43.638  31.789  28.701  1.00  0.00     0.031 C 
ATOM     22  C   UNL A   1      41.553  25.251  27.991  1.00  0.00     0.029 A 
ATOM     23  C   UNL A   1      42.955  25.506  27.674  1.00  0.00     0.049 A 
ATOM     24  H   UNL A   1      43.997  27.298  27.890  1.00  0.00     0.167 HD
ATOM     25  C   UNL A   1      45.960  31.212  28.038  1.00  0.00     0.037 A 
ATOM     26  C   UNL A   1      43.814  24.593  27.183  1.00  0.00     0.037 A 
ATOM     27  C   UNL A   1      46.982  30.280  27.630  1.00  0.00     0.049 A 
ATOM     28  C   UNL A   1      45.229  24.998  26.897  1.00  0.00     0.074 A 
ATOM     29  C   UNL A   1      48.326  30.521  27.405  1.00  0.00     0.029 A 
ATOM     30  N   UNL A   1      46.769  28.933  27.372  1.00  0.00    -0.354 N 
ATOM     31  N   UNL A   1      45.786  26.178  27.029  1.00  0.00    -0.248 NA
ATOM     32  C   UNL A   1      46.135  23.956  26.397  1.00  0.00     0.031 C 
ATOM     33  C   UNL A   1      48.916  29.331  26.963  1.00  0.00     0.029 A 
ATOM     34  C   UNL A   1      47.951  28.336  26.962  1.00  0.00     0.049 A 
ATOM     35  H   UNL A   1      45.906  28.470  27.465  1.00  0.00     0.167 HD
ATOM     36  C   UNL A   1      47.112  26.019  26.646  1.00  0.00     0.074 A 
ATOM     37  C   UNL A   1      47.275  24.625  26.282  1.00  0.00     0.031 C 
ATOM     38  C   UNL A   1      48.102  26.945  26.605  1.00  0.00     0.037 A 
BRANCH  25  39
ATOM     39  C   UNL A   1      46.325  32.667  28.165  1.00  0.00     0.058 A 
ATOM     40  C   UNL A   1      46.195  33.563  27.093  1.00  0.00     0.135 A 
ATOM     41  C   UNL A   1      46.810  33.173  29.382  1.00  0.00     0.135 A 
ATOM     42  F   UNL A   1      45.745  33.131  25.903  1.00  0.00    -0.206 F 
ATOM     43  C   UNL A   1      46.577  34.896  27.206  1.00  0.00     0.059 A 
ATOM     44  C   UNL A   1      47.173  34.509  29.528  1.00  0.00     0.059 A 
ATOM     45  F   UNL A   1      46.948  32.363  30.444  1.00  0.00    -0.206 F 
ATOM     46  C   UNL A   1      47.076  35.357  28.426  1.00  0.00     0.060 A 
BRANCH  46  47
ATOM     47  S   UNL A   1      47.615  37.076  28.547  1.00  0.00     0.124 S 
ATOM     48  O   UNL A   1      47.030  37.648  27.337  1.00  0.00    -0.237 OA
ATOM     49  O   UNL A   1      47.012  37.506  29.805  1.00  0.00    -0.237 OA
ATOM     50  O   UNL A   1      49.071  36.977  28.555  1.00  0.00    -0.744 OA
ENDBRANCH  46  47
ENDBRANCH  25  39
BRANCH  26  51
ATOM     51  C   UNL A   1      43.324  23.215  26.927  1.00  0.00     0.058 A 
ATOM     52  C   UNL A   1      43.180  22.727  25.622  1.00  0.00     0.135 A 
ATOM     53  C   UNL A   1      43.087  22.328  27.989  1.00  0.00     0.135 A 
ATOM     54  F   UNL A   1      43.392  23.540  24.575  1.00  0.00    -0.206 F 
ATOM     55  C   UNL A   1      42.831  21.404  25.375  1.00  0.00     0.059 A 
ATOM     56  C   UNL A   1      42.761  20.994  27.769  1.00  0.00     0.059 A 
ATOM     57  F   UNL A   1      43.232  22.744  29.258  1.00  0.00    -0.206 F 
ATOM     58  C   UNL A   1      42.637  20.540  26.457  1.00  0.00     0.060 A 
BRANCH  58  59
ATOM     59  S   UNL A   1      42.295  18.799  26.125  1.00  0.00     0.124 S 
ATOM     60  O   UNL A   1      42.559  18.194  27.425  1.00  0.00    -0.237 OA
ATOM     61  O   UNL A   1      40.896  18.835  25.710  1.00  0.00    -0.237 OA
ATOM     62  O   UNL A   1      43.245  18.466  25.068  1.00  0.00    -0.744 OA
ENDBRANCH  58  59
ENDBRANCH  26  51
BRANCH  38  63
ATOM     63  C   UNL A   1      49.467  26.486  26.179  1.00  0.00     0.058 A 
ATOM     64  C   UNL A   1      49.913  26.632  24.858  1.00  0.00     0.135 A 
ATOM     65  C   UNL A   1      50.372  25.981  27.128  1.00  0.00     0.135 A 
ATOM     66  F   UNL A   1      49.083  27.098  23.911  1.00  0.00    -0.206 F 
ATOM     67  C   UNL A   1      51.213  26.296  24.489  1.00  0.00     0.059 A 
ATOM     68  C   UNL A   1      51.681  25.660  26.787  1.00  0.00     0.059 A 
ATOM     69  F   UNL A   1      49.993  25.827  28.406  1.00  0.00    -0.206 F 
ATOM     70  C   UNL A   1      52.093  25.820  25.465  1.00  0.00     0.060 A 
BRANCH  70  71
ATOM     71  S   UNL A   1      53.798  25.463  24.992  1.00  0.00     0.124 S 
ATOM     72  O   UNL A   1      53.769  24.010  24.858  1.00  0.00    -0.237 OA
ATOM     73  O   UNL A   1      53.941  26.212  23.748  1.00  0.00    -0.237 OA
ATOM     74  O   UNL A   1      54.577  25.974  26.117  1.00  0.00    -0.744 OA
ENDBRANCH  70  71
ENDBRANCH  38  63
ENDBRANCH  12  13
ENDBRANCH   5   7
ENDBRANCH   2   3
ENDBRANCH   1   2
BRANCH   1  75
ATOM     75  C   UNL A   1      32.832  29.759  27.166  1.00  0.00     0.023 C 
BRANCH  75  76
ATOM     76  C   UNL A   1      31.996  29.405  25.941  1.00  0.00     0.116 C 
BRANCH  76  77
ATOM     77  N   UNL A   1      32.644  29.747  24.684  1.00  0.00    -0.351 N 
ATOM     78  C   UNL A   1      32.995  28.922  23.635  1.00  0.00     0.270 C 
ATOM     79  H   UNL A   1      32.863  30.700  24.567  1.00  0.00     0.163 HD
ATOM     80  O   UNL A   1      33.598  29.380  22.670  1.00  0.00    -0.268 OA
BRANCH  78  81
ATOM     81  C   UNL A   1      32.616  27.484  23.678  1.00  0.00     0.132 A 
ATOM     82  C   UNL A   1      33.573  26.546  23.993  1.00  0.00     0.062 A 
ATOM     83  N   UNL A   1      31.344  27.187  23.341  1.00  0.00    -0.231 NA
ATOM     84  C   UNL A   1      33.184  25.237  23.851  1.00  0.00     0.067 A 
ATOM     85  C   UNL A   1      31.062  25.884  23.297  1.00  0.00     0.223 A 
ATOM     86  N   UNL A   1      31.928  24.882  23.517  1.00  0.00    -0.237 NA
BRANCH  84  87
ATOM     87  C   UNL A   1      34.195  24.178  23.966  1.00  0.00     0.029 C 
ATOM     88  C   UNL A   1      34.523  23.560  25.112  1.00  0.00     0.011 C 
BRANCH  88  89
ATOM     89  C   UNL A   1      35.485  22.442  25.165  1.00  0.00    -0.018 A 
ATOM     90  C   UNL A   1      35.063  21.168  24.747  1.00  0.00     0.009 A 
ATOM     91  C   UNL A   1      36.829  22.633  25.598  1.00  0.00    -0.011 A 
ATOM     92  C   UNL A   1      35.931  20.083  24.772  1.00  0.00     0.001 A 
ATOM     93  C   UNL A   1      37.709  21.519  25.600  1.00  0.00    -0.018 A 
ATOM     94  C   UNL A   1      37.350  23.874  26.044  1.00  0.00     0.009 A 
ATOM     95  C   UNL A   1      37.245  20.260  25.194  1.00  0.00     0.009 A 
ATOM     96  C   UNL A   1      39.042  21.675  26.013  1.00  0.00     0.009 A 
ATOM     97  C   UNL A   1      38.679  24.012  26.452  1.00  0.00     0.001 A 
ATOM     98  C   UNL A   1      39.527  22.913  26.432  1.00  0.00     0.001 A 
ENDBRANCH  88  89
ENDBRANCH  84  87
ENDBRANCH  78  81
ENDBRANCH  76  77
ENDBRANCH  75  76
ENDBRANCH   1  75
TORSDOF 16
ENDMDL
MODEL 2
REMARK VINA RESULT:     -12.2      6.578     12.292
REMARK SMILES O=C(NCCCCNC(=O)c1cc(/C=C/c2cccc3ccccc23)ncn1)c1ccc(-c2c3nc(c(-c4c(F)cc(S(=O)(=O)[O-])cc4F)c4ccc([nH]4)c(-c4c(F)cc(S(=O)(=O)[O-])cc4F)c4nc(c(-c5c(F)cc(S(=O)(=O)[O-])cc5F)c5ccc2[nH]5)C=C4)C=C3)cc1
REMARK SMILES IDX 5 1 4 2 3 3 1 4 2 5 29 7 30 8 94 9 31 10 93 11 32 12 33 13
REMARK SMILES IDX 34 14 87 15 35 16 92 17 86 18 88 19 36 20 91 21 85 22 84 23
REMARK SMILES IDX 37 25 71 26 50 27 70 28 51 29 54 30 69 31 89 32 52 33 53 34
REMARK SMILES IDX 68 36 90 37 55 38 38 39 39 40 48 41 40 42 41 43 47 44 49 45
REMARK SMILES IDX 42 46 43 47 44 48 45 49 46 50 72 51 73 52 82 53 74 54 75 55
REMARK SMILES IDX 81 56 83 57 76 58 77 59 78 60 79 61 80 62 56 63 57 64 66 65
REMARK SMILES IDX 58 66 59 67 65 68 67 69 60 70 61 71 62 72 63 73 64 74 6 75
REMARK SMILES IDX 7 76 8 77 9 78 10 80 11 81 12 82 28 83 13 84 27 85 26 86
REMARK SMILES IDX 14 87 15 88 16 89 17 90 25 91 18 92 20 93 24 94 19 95 21 96
REMARK SMILES IDX 23 97 22 98
REMARK H PARENT 3 6 88 24 54 35 8 79
REMARK Flexibility Score: inf
ROOT
ATOM      1  C   UNL A   1      38.707  23.191  26.523  1.00  0.00     0.023 C 
ENDROOT
BRANCH   1   2
ATOM      2  C   UNL A   1      40.107  23.413  27.082  1.00  0.00     0.116 C 
BRANCH   2   3
ATOM      3  N   UNL A   1      41.024  23.968  26.100  1.00  0.00    -0.352 N 
ATOM      4  O   UNL A   1      42.208  25.557  25.031  1.00  0.00    -0.269 OA
ATOM      5  C   UNL A   1      41.574  25.225  26.030  1.00  0.00     0.251 C 
ATOM      6  H   UNL A   1      41.291  23.353  25.379  1.00  0.00     0.163 HD
BRANCH   5   7
ATOM      7  C   UNL A   1      41.382  26.183  27.140  1.00  0.00     0.039 A 
ATOM      8  C   UNL A   1      42.194  27.314  27.262  1.00  0.00     0.014 A 
ATOM      9  C   UNL A   1      40.361  25.949  28.067  1.00  0.00     0.014 A 
ATOM     10  C   UNL A   1      42.074  28.138  28.378  1.00  0.00     0.010 A 
ATOM     11  C   UNL A   1      40.195  26.818  29.147  1.00  0.00     0.010 A 
ATOM     12  C   UNL A   1      41.067  27.903  29.327  1.00  0.00    -0.014 A 
BRANCH  12  13
ATOM     13  C   UNL A   1      40.893  28.831  30.472  1.00  0.00     0.031 A 
ATOM     14  C   UNL A   1      41.730  28.693  31.712  1.00  0.00     0.074 A 
ATOM     15  C   UNL A   1      39.946  29.786  30.398  1.00  0.00     0.049 A 
ATOM     16  N   UNL A   1      41.664  29.367  32.831  1.00  0.00    -0.248 NA
ATOM     17  C   UNL A   1      42.772  27.654  31.697  1.00  0.00     0.031 C 
ATOM     18  C   UNL A   1      39.064  30.006  29.249  1.00  0.00     0.029 A 
ATOM     19  N   UNL A   1      39.556  30.738  31.305  1.00  0.00    -0.354 N 
ATOM     20  C   UNL A   1      42.632  28.821  33.664  1.00  0.00     0.074 A 
ATOM     21  C   UNL A   1      43.261  27.745  32.926  1.00  0.00     0.031 C 
ATOM     22  C   UNL A   1      38.238  31.026  29.520  1.00  0.00     0.029 A 
ATOM     23  C   UNL A   1      38.491  31.494  30.880  1.00  0.00     0.049 A 
ATOM     24  H   UNL A   1      39.996  30.865  32.177  1.00  0.00     0.167 HD
ATOM     25  C   UNL A   1      42.966  29.187  34.926  1.00  0.00     0.037 A 
ATOM     26  C   UNL A   1      37.770  32.433  31.520  1.00  0.00     0.037 A 
ATOM     27  C   UNL A   1      42.335  30.264  35.646  1.00  0.00     0.049 A 
ATOM     28  C   UNL A   1      38.140  32.812  32.922  1.00  0.00     0.074 A 
ATOM     29  C   UNL A   1      42.635  30.747  36.908  1.00  0.00     0.029 A 
ATOM     30  N   UNL A   1      41.268  31.016  35.174  1.00  0.00    -0.354 N 
ATOM     31  N   UNL A   1      39.093  32.322  33.679  1.00  0.00    -0.248 NA
ATOM     32  C   UNL A   1      37.345  33.868  33.562  1.00  0.00     0.031 C 
ATOM     33  C   UNL A   1      41.717  31.757  37.219  1.00  0.00     0.029 A 
ATOM     34  C   UNL A   1      40.878  31.940  36.131  1.00  0.00     0.049 A 
ATOM     35  H   UNL A   1      40.848  30.908  34.291  1.00  0.00     0.167 HD
ATOM     36  C   UNL A   1      39.025  33.020  34.878  1.00  0.00     0.074 A 
ATOM     37  C   UNL A   1      37.939  33.971  34.744  1.00  0.00     0.031 C 
ATOM     38  C   UNL A   1      39.796  32.885  35.984  1.00  0.00     0.037 A 
BRANCH  25  39
ATOM     39  C   UNL A   1      44.037  28.389  35.621  1.00  0.00     0.058 A 
ATOM     40  C   UNL A   1      45.401  28.686  35.470  1.00  0.00     0.135 A 
ATOM     41  C   UNL A   1      43.692  27.312  36.454  1.00  0.00     0.135 A 
ATOM     42  F   UNL A   1      45.788  29.699  34.678  1.00  0.00    -0.206 F 
ATOM     43  C   UNL A   1      46.386  27.915  36.080  1.00  0.00     0.059 A 
ATOM     44  C   UNL A   1      44.659  26.544  37.096  1.00  0.00     0.059 A 
ATOM     45  F   UNL A   1      42.403  26.988  36.641  1.00  0.00    -0.206 F 
ATOM     46  C   UNL A   1      46.005  26.838  36.882  1.00  0.00     0.060 A 
BRANCH  46  47
ATOM     47  S   UNL A   1      47.292  25.816  37.629  1.00  0.00     0.124 S 
ATOM     48  O   UNL A   1      48.370  26.787  37.799  1.00  0.00    -0.237 OA
ATOM     49  O   UNL A   1      46.655  25.357  38.860  1.00  0.00    -0.237 OA
ATOM     50  O   UNL A   1      47.530  24.783  36.626  1.00  0.00    -0.744 OA
ENDBRANCH  46  47
ENDBRANCH  25  39
BRANCH  26  51
ATOM     51  C   UNL A   1      36.618  33.053  30.816  1.00  0.00     0.058 A 
ATOM     52  C   UNL A   1      35.300  32.793  31.214  1.00  0.00     0.135 A 
ATOM     53  C   UNL A   1      36.823  33.997  29.797  1.00  0.00     0.135 A 
ATOM     54  F   UNL A   1      35.055  31.895  32.181  1.00  0.00    -0.206 F 
ATOM     55  C   UNL A   1      34.223  33.456  30.635  1.00  0.00     0.059 A 
ATOM     56  C   UNL A   1      35.764  34.691  29.220  1.00  0.00     0.059 A 
ATOM     57  F   UNL A   1      38.069  34.295  29.397  1.00  0.00    -0.206 F 
ATOM     58  C   UNL A   1      34.467  34.415  29.648  1.00  0.00     0.060 A 
BRANCH  58  59
ATOM     59  S   UNL A   1      33.072  35.349  28.983  1.00  0.00     0.124 S 
ATOM     60  O   UNL A   1      33.737  36.533  28.453  1.00  0.00    -0.237 OA
ATOM     61  O   UNL A   1      32.527  34.425  27.994  1.00  0.00    -0.237 OA
ATOM     62  O   UNL A   1      32.228  35.569  30.154  1.00  0.00    -0.744 OA
ENDBRANCH  58  59
ENDBRANCH  26  51
BRANCH  38  63
ATOM     63  C   UNL A   1      39.522  33.804  37.141  1.00  0.00     0.058 A 
ATOM     64  C   UNL A   1      38.724  33.408  38.223  1.00  0.00     0.135 A 
ATOM     65  C   UNL A   1      40.146  35.062  37.208  1.00  0.00     0.135 A 
ATOM     66  F   UNL A   1      38.096  32.221  38.201  1.00  0.00    -0.206 F 
ATOM     67  C   UNL A   1      38.552  34.226  39.336  1.00  0.00     0.059 A 
ATOM     68  C   UNL A   1      40.007  35.885  38.320  1.00  0.00     0.059 A 
ATOM     69  F   UNL A   1      40.924  35.484  36.199  1.00  0.00    -0.206 F 
ATOM     70  C   UNL A   1      39.207  35.459  39.379  1.00  0.00     0.060 A 
BRANCH  70  71
ATOM     71  S   UNL A   1      39.043  36.476  40.862  1.00  0.00     0.124 S 
ATOM     72  O   UNL A   1      38.083  35.703  41.644  1.00  0.00    -0.237 OA
ATOM     73  O   UNL A   1      40.409  36.499  41.378  1.00  0.00    -0.237 OA
ATOM     74  O   UNL A   1      38.552  37.751  40.348  1.00  0.00    -0.744 OA
ENDBRANCH  70  71
ENDBRANCH  38  63
ENDBRANCH  12  13
ENDBRANCH   5   7
ENDBRANCH   2   3
ENDBRANCH   1   2
BRANCH   1  75
ATOM     75  C   UNL A   1      38.521  21.908  25.716  1.00  0.00     0.023 C 
BRANCH  75  76
ATOM     76  C   UNL A   1      37.135  21.708  25.111  1.00  0.00     0.116 C 
BRANCH  76  77
ATOM     77  N   UNL A   1      36.160  21.200  26.064  1.00  0.00    -0.351 N 
ATOM     78  C   UNL A   1      34.845  21.578  26.245  1.00  0.00     0.270 C 
ATOM     79  H   UNL A   1      36.484  20.489  26.663  1.00  0.00     0.163 HD
ATOM     80  O   UNL A   1      34.182  21.078  27.149  1.00  0.00    -0.268 OA
BRANCH  78  81
ATOM     81  C   UNL A   1      34.236  22.575  25.323  1.00  0.00     0.132 A 
ATOM     82  C   UNL A   1      34.055  23.868  25.757  1.00  0.00     0.062 A 
ATOM     83  N   UNL A   1      33.844  22.116  24.117  1.00  0.00    -0.231 NA
ATOM     84  C   UNL A   1      33.342  24.679  24.909  1.00  0.00     0.067 A 
ATOM     85  C   UNL A   1      33.218  23.011  23.351  1.00  0.00     0.223 A 
ATOM     86  N   UNL A   1      32.925  24.276  23.693  1.00  0.00    -0.237 NA
BRANCH  84  87
ATOM     87  C   UNL A   1      32.926  26.007  25.379  1.00  0.00     0.029 C 
ATOM     88  C   UNL A   1      33.361  27.168  24.862  1.00  0.00     0.011 C 
BRANCH  88  89
ATOM     89  C   UNL A   1      32.850  28.479  25.310  1.00  0.00    -0.018 A 
ATOM     90  C   UNL A   1      31.625  28.938  24.793  1.00  0.00     0.009 A 
ATOM     91  C   UNL A   1      33.551  29.265  26.270  1.00  0.00    -0.011 A 
ATOM     92  C   UNL A   1      31.097  30.162  25.187  1.00  0.00     0.001 A 
ATOM     93  C   UNL A   1      32.989  30.504  26.675  1.00  0.00    -0.018 A 
ATOM     94  C   UNL A   1      34.793  28.895  26.844  1.00  0.00     0.009 A 
ATOM     95  C   UNL A   1      31.775  30.937  26.122  1.00  0.00     0.009 A 
ATOM     96  C   UNL A   1      33.650  31.301  27.624  1.00  0.00     0.009 A 
ATOM     97  C   UNL A   1      35.437  29.699  27.787  1.00  0.00     0.001 A 
ATOM     98  C   UNL A   1      34.863  30.900  28.181  1.00  0.00     0.001 A 
ENDBRANCH  88  89
ENDBRANCH  84  87
ENDBRANCH  78  81
ENDBRANCH  76  77
ENDBRANCH  75  76
ENDBRANCH   1  75
TORSDOF 16
ENDMDL
MODEL 3
REMARK VINA RESULT:     -12.1      0.879      1.939
REMARK SMILES O=C(NCCCCNC(=O)c1cc(/C=C/c2cccc3ccccc23)ncn1)c1ccc(-c2c3nc(c(-c4c(F)cc(S(=O)(=O)[O-])cc4F)c4ccc([nH]4)c(-c4c(F)cc(S(=O)(=O)[O-])cc4F)c4nc(c(-c5c(F)cc(S(=O)(=O)[O-])cc5F)c5ccc2[nH]5)C=C4)C=C3)cc1
REMARK SMILES IDX 5 1 4 2 3 3 1 4 2 5 29 7 30 8 94 9 31 10 93 11 32 12 33 13
REMARK SMILES IDX 34 14 87 15 35 16 92 17 86 18 88 19 36 20 91 21 85 22 84 23
REMARK SMILES IDX 37 25 71 26 50 27 70 28 51 29 54 30 69 31 89 32 52 33 53 34
REMARK SMILES IDX 68 36 90 37 55 38 38 39 39 40 48 41 40 42 41 43 47 44 49 45
REMARK SMILES IDX 42 46 43 47 44 48 45 49 46 50 72 51 73 52 82 53 74 54 75 55
REMARK SMILES IDX 81 56 83 57 76 58 77 59 78 60 79 61 80 62 56 63 57 64 66 65
REMARK SMILES IDX 58 66 59 67 65 68 67 69 60 70 61 71 62 72 63 73 64 74 6 75
REMARK SMILES IDX 7 76 8 77 9 78 10 80 11 81 12 82 28 83 13 84 27 85 26 86
REMARK SMILES IDX 14 87 15 88 16 89 17 90 25 91 18 92 20 93 24 94 19 95 21 96
REMARK SMILES IDX 23 97 22 98
REMARK H PARENT 3 6 88 24 54 35 8 79
REMARK Flexibility Score: inf
ROOT
ATOM      1  C   UNL A   1      34.269  29.547  27.281  1.00  0.00     0.023 C 
ENDROOT
BRANCH   1   2
ATOM      2  C   UNL A   1      35.419  30.417  27.775  1.00  0.00     0.116 C 
BRANCH   2   3
ATOM      3  N   UNL A   1      35.320  30.731  29.191  1.00  0.00    -0.352 N 
ATOM      4  O   UNL A   1      35.943  30.781  31.354  1.00  0.00    -0.269 OA
ATOM      5  C   UNL A   1      36.266  30.611  30.180  1.00  0.00     0.251 C 
ATOM      6  H   UNL A   1      34.448  31.081  29.484  1.00  0.00     0.163 HD
BRANCH   5   7
ATOM      7  C   UNL A   1      37.659  30.255  29.837  1.00  0.00     0.039 A 
ATOM      8  C   UNL A   1      38.077  30.186  28.505  1.00  0.00     0.014 A 
ATOM      9  C   UNL A   1      38.567  30.000  30.870  1.00  0.00     0.014 A 
ATOM     10  C   UNL A   1      39.358  29.734  28.201  1.00  0.00     0.010 A 
ATOM     11  C   UNL A   1      39.874  29.618  30.564  1.00  0.00     0.010 A 
ATOM     12  C   UNL A   1      40.273  29.455  29.228  1.00  0.00    -0.014 A 
BRANCH  12  13
ATOM     13  C   UNL A   1      41.662  29.051  28.897  1.00  0.00     0.031 A 
ATOM     14  C   UNL A   1      42.778  30.058  28.889  1.00  0.00     0.074 A 
ATOM     15  C   UNL A   1      41.907  27.767  28.571  1.00  0.00     0.049 A 
ATOM     16  N   UNL A   1      44.032  29.896  28.555  1.00  0.00    -0.248 NA
ATOM     17  C   UNL A   1      42.437  31.429  29.300  1.00  0.00     0.031 C 
ATOM     18  C   UNL A   1      40.899  26.705  28.531  1.00  0.00     0.029 A 
ATOM     19  N   UNL A   1      43.068  27.141  28.197  1.00  0.00    -0.354 N 
ATOM     20  C   UNL A   1      44.627  31.144  28.688  1.00  0.00     0.074 A 
ATOM     21  C   UNL A   1      43.589  32.059  29.117  1.00  0.00     0.031 C 
ATOM     22  C   UNL A   1      41.485  25.559  28.155  1.00  0.00     0.029 A 
ATOM     23  C   UNL A   1      42.893  25.817  27.872  1.00  0.00     0.049 A 
ATOM     24  H   UNL A   1      43.941  27.595  28.165  1.00  0.00     0.167 HD
ATOM     25  C   UNL A   1      45.920  31.491  28.476  1.00  0.00     0.037 A 
ATOM     26  C   UNL A   1      43.757  24.916  27.366  1.00  0.00     0.037 A 
ATOM     27  C   UNL A   1      46.944  30.568  28.056  1.00  0.00     0.049 A 
ATOM     28  C   UNL A   1      45.178  25.323  27.118  1.00  0.00     0.074 A 
ATOM     29  C   UNL A   1      48.293  30.809  27.862  1.00  0.00     0.029 A 
ATOM     30  N   UNL A   1      46.729  29.231  27.750  1.00  0.00    -0.354 N 
ATOM     31  N   UNL A   1      45.739  26.495  27.299  1.00  0.00    -0.248 NA
ATOM     32  C   UNL A   1      46.088  24.293  26.601  1.00  0.00     0.031 C 
ATOM     33  C   UNL A   1      48.884  29.631  27.392  1.00  0.00     0.029 A 
ATOM     34  C   UNL A   1      47.915  28.642  27.341  1.00  0.00     0.049 A 
ATOM     35  H   UNL A   1      45.862  28.770  27.812  1.00  0.00     0.167 HD
ATOM     36  C   UNL A   1      47.070  26.341  26.934  1.00  0.00     0.074 A 
ATOM     37  C   UNL A   1      47.233  24.959  26.527  1.00  0.00     0.031 C 
ATOM     38  C   UNL A   1      48.065  27.262  26.942  1.00  0.00     0.037 A 
BRANCH  25  39
ATOM     39  C   UNL A   1      46.289  32.939  28.658  1.00  0.00     0.058 A 
ATOM     40  C   UNL A   1      46.716  33.448  29.894  1.00  0.00     0.135 A 
ATOM     41  C   UNL A   1      46.218  33.831  27.575  1.00  0.00     0.135 A 
ATOM     42  F   UNL A   1      46.794  32.642  30.966  1.00  0.00    -0.206 F 
ATOM     43  C   UNL A   1      47.012  34.797  30.064  1.00  0.00     0.059 A 
ATOM     44  C   UNL A   1      46.536  35.179  27.715  1.00  0.00     0.059 A 
ATOM     45  F   UNL A   1      45.824  33.398  26.367  1.00  0.00    -0.206 F 
ATOM     46  C   UNL A   1      46.908  35.657  28.970  1.00  0.00     0.060 A 
BRANCH  46  47
ATOM     47  S   UNL A   1      47.248  37.414  29.213  1.00  0.00     0.124 S 
ATOM     48  O   UNL A   1      48.132  37.379  30.375  1.00  0.00    -0.237 OA
ATOM     49  O   UNL A   1      47.877  37.791  27.951  1.00  0.00    -0.237 OA
ATOM     50  O   UNL A   1      45.926  37.987  29.448  1.00  0.00    -0.744 OA
ENDBRANCH  46  47
ENDBRANCH  25  39
BRANCH  26  51
ATOM     51  C   UNL A   1      43.264  23.550  27.056  1.00  0.00     0.058 A 
ATOM     52  C   UNL A   1      43.027  23.147  25.736  1.00  0.00     0.135 A 
ATOM     53  C   UNL A   1      43.120  22.591  28.072  1.00  0.00     0.135 A 
ATOM     54  F   UNL A   1      43.148  24.030  24.732  1.00  0.00    -0.206 F 
ATOM     55  C   UNL A   1      42.676  21.837  25.429  1.00  0.00     0.059 A 
ATOM     56  C   UNL A   1      42.794  21.269  27.788  1.00  0.00     0.059 A 
ATOM     57  F   UNL A   1      43.357  22.925  29.350  1.00  0.00    -0.206 F 
ATOM     58  C   UNL A   1      42.575  20.901  26.462  1.00  0.00     0.060 A 
BRANCH  58  59
ATOM     59  S   UNL A   1      42.228  19.180  26.041  1.00  0.00     0.124 S 
ATOM     60  O   UNL A   1      40.784  19.211  25.842  1.00  0.00    -0.237 OA
ATOM     61  O   UNL A   1      43.035  18.989  24.840  1.00  0.00    -0.237 OA
ATOM     62  O   UNL A   1      42.689  18.447  27.217  1.00  0.00    -0.744 OA
ENDBRANCH  58  59
ENDBRANCH  26  51
BRANCH  38  63
ATOM     63  C   UNL A   1      49.436  26.810  26.524  1.00  0.00     0.058 A 
ATOM     64  C   UNL A   1      50.267  26.085  27.389  1.00  0.00     0.135 A 
ATOM     65  C   UNL A   1      49.882  27.027  25.210  1.00  0.00     0.135 A 
ATOM     66  F   UNL A   1      49.893  25.863  28.660  1.00  0.00    -0.206 F 
ATOM     67  C   UNL A   1      51.495  25.585  26.966  1.00  0.00     0.059 A 
ATOM     68  C   UNL A   1      51.094  26.517  24.759  1.00  0.00     0.059 A 
ATOM     69  F   UNL A   1      49.120  27.712  24.343  1.00  0.00    -0.206 F 
ATOM     70  C   UNL A   1      51.896  25.798  25.644  1.00  0.00     0.060 A 
BRANCH  70  71
ATOM     71  S   UNL A   1      53.452  25.077  25.084  1.00  0.00     0.124 S 
ATOM     72  O   UNL A   1      54.413  25.721  25.974  1.00  0.00    -0.237 OA
ATOM     73  O   UNL A   1      53.236  23.651  25.311  1.00  0.00    -0.237 OA
ATOM     74  O   UNL A   1      53.528  25.477  23.682  1.00  0.00    -0.744 OA
ENDBRANCH  70  71
ENDBRANCH  38  63
ENDBRANCH  12  13
ENDBRANCH   5   7
ENDBRANCH   2   3
ENDBRANCH   1   2
BRANCH   1  75
ATOM     75  C   UNL A   1      32.916  30.249  27.177  1.00  0.00     0.023 C 
BRANCH  75  76
ATOM     76  C   UNL A   1      32.123  29.960  25.907  1.00  0.00     0.116 C 
BRANCH  76  77
ATOM     77  N   UNL A   1      32.959  29.847  24.722  1.00  0.00    -0.351 N 
ATOM     78  C   UNL A   1      32.981  28.851  23.767  1.00  0.00     0.270 C 
ATOM     79  H   UNL A   1      33.597  30.584  24.582  1.00  0.00     0.163 HD
ATOM     80  O   UNL A   1      33.804  28.890  22.859  1.00  0.00    -0.268 OA
BRANCH  78  81
ATOM     81  C   UNL A   1      31.986  27.747  23.839  1.00  0.00     0.132 A 
ATOM     82  C   UNL A   1      32.383  26.514  24.303  1.00  0.00     0.062 A 
ATOM     83  N   UNL A   1      30.748  28.023  23.379  1.00  0.00    -0.231 NA
ATOM     84  C   UNL A   1      31.451  25.512  24.185  1.00  0.00     0.067 A 
ATOM     85  C   UNL A   1      29.907  26.988  23.370  1.00  0.00     0.223 A 
ATOM     86  N   UNL A   1      30.201  25.729  23.733  1.00  0.00    -0.237 NA
BRANCH  84  87
ATOM     87  C   UNL A   1      31.857  24.128  24.463  1.00  0.00     0.029 C 
ATOM     88  C   UNL A   1      32.856  23.487  23.836  1.00  0.00     0.011 C 
BRANCH  88  89
ATOM     89  C   UNL A   1      33.284  22.124  24.209  1.00  0.00    -0.018 A 
ATOM     90  C   UNL A   1      32.305  21.126  24.357  1.00  0.00     0.009 A 
ATOM     91  C   UNL A   1      34.659  21.797  24.390  1.00  0.00    -0.011 A 
ATOM     92  C   UNL A   1      32.656  19.826  24.701  1.00  0.00     0.001 A 
ATOM     93  C   UNL A   1      35.003  20.460  24.724  1.00  0.00    -0.018 A 
ATOM     94  C   UNL A   1      35.719  22.730  24.272  1.00  0.00     0.009 A 
ATOM     95  C   UNL A   1      33.996  19.497  24.881  1.00  0.00     0.009 A 
ATOM     96  C   UNL A   1      36.348  20.102  24.902  1.00  0.00     0.009 A 
ATOM     97  C   UNL A   1      37.054  22.357  24.452  1.00  0.00     0.001 A 
ATOM     98  C   UNL A   1      37.369  21.042  24.762  1.00  0.00     0.001 A 
ENDBRANCH  88  89
ENDBRANCH  84  87
ENDBRANCH  78  81
ENDBRANCH  76  77
ENDBRANCH  75  76
ENDBRANCH   1  75
TORSDOF 16
ENDMDL
