MODEL 1
REMARK VINA RESULT:     -11.6      0.000      0.000
REMARK SMILES CN(C)C(=O)c1cccc(NCc2cc(C(=O)NCCCCNC(=O)c3ccc(-c4c5nc(c(-c6c(F)cc(S(=O)(=O)[O-])cc6F)c6ccc([nH]6)c(-c6c(F)cc(S(=O)(=O)[O-])cc6F)c6nc(c(-c7c(F)cc(S(=O)(=O)[O-])cc7F)c7ccc4[nH]7)C=C6)C=C5)cc3)cs2)c1
REMARK SMILES IDX 20 1 19 2 18 3 16 4 17 5 15 7 13 8 14 9 93 10 92 11 12 12
REMARK SMILES IDX 11 13 10 15 6 16 7 17 94 18 8 19 9 20 4 21 1 22 2 23 3 24
REMARK SMILES IDX 5 25 21 26 22 27 23 28 24 29 25 31 26 32 27 33 91 34 28 35
REMARK SMILES IDX 90 36 29 37 30 38 31 39 84 40 32 41 89 42 83 43 85 44 33 45
REMARK SMILES IDX 88 46 82 47 81 48 34 50 68 51 47 52 67 53 48 54 51 55 66 56
REMARK SMILES IDX 86 57 49 58 50 59 65 61 87 62 52 63 35 64 36 65 45 66 37 67
REMARK SMILES IDX 38 68 44 69 46 70 39 71 40 72 41 73 42 74 43 75 69 76 70 77
REMARK SMILES IDX 79 78 71 79 72 80 78 81 80 82 73 83 74 84 75 85 76 86 77 87
REMARK SMILES IDX 53 88 54 89 63 90 55 91 56 92 62 93 64 94 57 95 58 96 59 97
REMARK SMILES IDX 60 98 61 99
REMARK H PARENT 18 6 11 14 23 30 85 49 51 60
REMARK Flexibility Score: inf
ROOT
ATOM      1  C   UNL A   1      32.669  29.474  24.950  1.00  0.00     0.023 C 
ENDROOT
BRANCH   1   2
ATOM      2  C   UNL A   1      31.151  29.661  24.959  1.00  0.00     0.116 C 
BRANCH   2   3
ATOM      3  N   UNL A   1      30.645  29.815  23.612  1.00  0.00    -0.352 N 
ATOM      4  C   UNL A   1      30.460  28.914  22.594  1.00  0.00     0.252 C 
ATOM      5  O   UNL A   1      29.947  29.342  21.561  1.00  0.00    -0.269 OA
ATOM      6  H   UNL A   1      30.384  30.737  23.385  1.00  0.00     0.163 HD
BRANCH   4   7
ATOM      7  C   UNL A   1      30.811  27.496  22.735  1.00  0.00     0.050 A 
ATOM      8  C   UNL A   1      31.945  25.426  22.599  1.00  0.00     0.024 A 
ATOM      9  C   UNL A   1      31.859  26.724  22.134  1.00  0.00     0.031 A 
ATOM     10  S   UNL A   1      30.654  25.072  23.659  1.00  0.00    -0.146 S 
ATOM     11  C   UNL A   1      30.041  26.661  23.534  1.00  0.00     0.079 A 
BRANCH   8  12
ATOM     12  C   UNL A   1      32.980  24.384  22.275  1.00  0.00     0.159 C 
BRANCH  12  13
ATOM     13  N   UNL A   1      32.535  23.012  22.490  1.00  0.00    -0.380 N 
ATOM     14  H   UNL A   1      31.866  22.663  21.857  1.00  0.00     0.160 HD
BRANCH  13  15
ATOM     15  C   UNL A   1      32.949  22.151  23.487  1.00  0.00     0.035 A 
ATOM     16  C   UNL A   1      34.807  21.226  24.784  1.00  0.00     0.042 A 
ATOM     17  C   UNL A   1      33.942  20.334  25.420  1.00  0.00     0.014 A 
ATOM     18  C   UNL A   1      34.315  22.112  23.817  1.00  0.00     0.039 A 
ATOM     19  C   UNL A   1      32.586  20.359  25.111  1.00  0.00     0.003 A 
ATOM     20  C   UNL A   1      32.098  21.264  24.158  1.00  0.00     0.026 A 
BRANCH  16  21
ATOM     21  C   UNL A   1      36.258  21.122  25.074  1.00  0.00     0.253 C 
ATOM     22  C   UNL A   1      38.361  22.069  25.844  1.00  0.00     0.146 C 
ATOM     23  N   UNL A   1      36.945  22.230  25.567  1.00  0.00    -0.345 N 
ATOM     24  C   UNL A   1      36.319  23.458  26.021  1.00  0.00     0.146 C 
ATOM     25  O   UNL A   1      36.794  20.035  24.871  1.00  0.00    -0.269 OA
ENDBRANCH  16  21
ENDBRANCH  13  15
ENDBRANCH  12  13
ENDBRANCH   8  12
ENDBRANCH   4   7
ENDBRANCH   2   3
ENDBRANCH   1   2
BRANCH   1  26
ATOM     26  C   UNL A   1      33.141  28.219  25.692  1.00  0.00     0.023 C 
BRANCH  26  27
ATOM     27  C   UNL A   1      33.610  28.458  27.126  1.00  0.00     0.116 C 
BRANCH  27  28
ATOM     28  N   UNL A   1      33.531  29.855  27.526  1.00  0.00    -0.352 N 
ATOM     29  C   UNL A   1      34.474  30.608  28.185  1.00  0.00     0.251 C 
ATOM     30  H   UNL A   1      32.695  30.321  27.294  1.00  0.00     0.163 HD
ATOM     31  O   UNL A   1      34.185  31.714  28.624  1.00  0.00    -0.269 OA
BRANCH  29  32
ATOM     32  C   UNL A   1      35.828  30.048  28.369  1.00  0.00     0.039 A 
ATOM     33  C   UNL A   1      36.737  30.085  27.312  1.00  0.00     0.014 A 
ATOM     34  C   UNL A   1      36.207  29.535  29.615  1.00  0.00     0.014 A 
ATOM     35  C   UNL A   1      38.053  29.676  27.529  1.00  0.00     0.010 A 
ATOM     36  C   UNL A   1      37.537  29.208  29.849  1.00  0.00     0.010 A 
ATOM     37  C   UNL A   1      38.474  29.278  28.809  1.00  0.00    -0.014 A 
BRANCH  37  38
ATOM     38  C   UNL A   1      39.898  28.958  29.086  1.00  0.00     0.031 A 
ATOM     39  C   UNL A   1      40.811  30.000  29.672  1.00  0.00     0.074 A 
ATOM     40  C   UNL A   1      40.382  27.746  28.741  1.00  0.00     0.049 A 
ATOM     41  N   UNL A   1      42.089  29.918  29.941  1.00  0.00    -0.248 NA
ATOM     42  C   UNL A   1      40.221  31.315  29.969  1.00  0.00     0.031 C 
ATOM     43  C   UNL A   1      39.609  26.678  28.105  1.00  0.00     0.029 A 
ATOM     44  N   UNL A   1      41.638  27.212  28.870  1.00  0.00    -0.354 N 
ATOM     45  C   UNL A   1      42.455  31.167  30.431  1.00  0.00     0.074 A 
ATOM     46  C   UNL A   1      41.279  32.006  30.362  1.00  0.00     0.031 C 
ATOM     47  C   UNL A   1      40.398  25.606  27.930  1.00  0.00     0.029 A 
ATOM     48  C   UNL A   1      41.742  25.924  28.400  1.00  0.00     0.049 A 
ATOM     49  H   UNL A   1      42.396  27.705  29.263  1.00  0.00     0.167 HD
ATOM     50  C   UNL A   1      43.652  31.568  30.919  1.00  0.00     0.037 A 
ATOM     51  C   UNL A   1      42.802  25.093  28.349  1.00  0.00     0.037 A 
ATOM     52  C   UNL A   1      44.813  30.717  30.997  1.00  0.00     0.049 A 
ATOM     53  C   UNL A   1      44.123  25.563  28.894  1.00  0.00     0.074 A 
ATOM     54  C   UNL A   1      46.057  31.008  31.530  1.00  0.00     0.029 A 
ATOM     55  N   UNL A   1      44.876  29.413  30.527  1.00  0.00    -0.354 N 
ATOM     56  N   UNL A   1      44.430  26.722  29.426  1.00  0.00    -0.248 NA
ATOM     57  C   UNL A   1      45.240  24.610  28.840  1.00  0.00     0.031 C 
ATOM     58  C   UNL A   1      46.888  29.900  31.330  1.00  0.00     0.029 A 
ATOM     59  C   UNL A   1      46.144  28.896  30.730  1.00  0.00     0.049 A 
ATOM     60  H   UNL A   1      44.128  28.928  30.108  1.00  0.00     0.167 HD
ATOM     61  C   UNL A   1      45.768  26.629  29.794  1.00  0.00     0.074 A 
ATOM     62  C   UNL A   1      46.204  25.292  29.441  1.00  0.00     0.031 C 
ATOM     63  C   UNL A   1      46.564  27.564  30.372  1.00  0.00     0.037 A 
BRANCH  50  64
ATOM     64  C   UNL A   1      43.769  32.986  31.409  1.00  0.00     0.058 A 
ATOM     65  C   UNL A   1      44.151  34.034  30.555  1.00  0.00     0.135 A 
ATOM     66  C   UNL A   1      43.455  33.311  32.739  1.00  0.00     0.135 A 
ATOM     67  F   UNL A   1      44.479  33.782  29.278  1.00  0.00    -0.206 F 
ATOM     68  C   UNL A   1      44.248  35.345  31.009  1.00  0.00     0.059 A 
ATOM     69  C   UNL A   1      43.513  34.621  33.206  1.00  0.00     0.059 A 
ATOM     70  F   UNL A   1      43.084  32.350  33.600  1.00  0.00    -0.206 F 
ATOM     71  C   UNL A   1      43.924  35.629  32.337  1.00  0.00     0.060 A 
BRANCH  71  72
ATOM     72  S   UNL A   1      44.046  37.338  32.905  1.00  0.00     0.124 S 
ATOM     73  O   UNL A   1      42.916  37.421  33.824  1.00  0.00    -0.237 OA
ATOM     74  O   UNL A   1      45.368  37.367  33.522  1.00  0.00    -0.237 OA
ATOM     75  O   UNL A   1      43.914  38.116  31.676  1.00  0.00    -0.744 OA
ENDBRANCH  71  72
ENDBRANCH  50  64
BRANCH  51  76
ATOM     76  C   UNL A   1      42.649  23.726  27.781  1.00  0.00     0.058 A 
ATOM     77  C   UNL A   1      42.694  23.510  26.395  1.00  0.00     0.135 A 
ATOM     78  C   UNL A   1      42.465  22.608  28.610  1.00  0.00     0.135 A 
ATOM     79  F   UNL A   1      42.861  24.546  25.559  1.00  0.00    -0.206 F 
ATOM     80  C   UNL A   1      42.543  22.239  25.850  1.00  0.00     0.059 A 
ATOM     81  C   UNL A   1      42.342  21.324  28.089  1.00  0.00     0.059 A 
ATOM     82  F   UNL A   1      42.433  22.757  29.943  1.00  0.00    -0.206 F 
ATOM     83  C   UNL A   1      42.371  21.151  26.706  1.00  0.00     0.060 A 
BRANCH  83  84
ATOM     84  S   UNL A   1      42.225  19.499  25.990  1.00  0.00     0.124 S 
ATOM     85  O   UNL A   1      43.081  19.610  24.816  1.00  0.00    -0.237 OA
ATOM     86  O   UNL A   1      42.726  18.654  27.070  1.00  0.00    -0.237 OA
ATOM     87  O   UNL A   1      40.795  19.376  25.721  1.00  0.00    -0.744 OA
ENDBRANCH  83  84
ENDBRANCH  51  76
BRANCH  63  88
ATOM     88  C   UNL A   1      47.980  27.164  30.688  1.00  0.00     0.058 A 
ATOM     89  C   UNL A   1      48.317  26.515  31.887  1.00  0.00     0.135 A 
ATOM     90  C   UNL A   1      49.009  27.402  29.762  1.00  0.00     0.135 A 
ATOM     91  F   UNL A   1      47.374  26.267  32.810  1.00  0.00    -0.206 F 
ATOM     92  C   UNL A   1      49.628  26.146  32.169  1.00  0.00     0.059 A 
ATOM     93  C   UNL A   1      50.320  27.013  30.010  1.00  0.00     0.059 A 
ATOM     94  F   UNL A   1      48.741  28.009  28.595  1.00  0.00    -0.206 F 
ATOM     95  C   UNL A   1      50.623  26.400  31.224  1.00  0.00     0.060 A 
BRANCH  95  96
ATOM     96  S   UNL A   1      52.317  25.898  31.597  1.00  0.00     0.124 S 
ATOM     97  O   UNL A   1      52.958  26.039  30.294  1.00  0.00    -0.237 OA
ATOM     98  O   UNL A   1      52.715  26.872  32.609  1.00  0.00    -0.237 OA
ATOM     99  O   UNL A   1      52.168  24.528  32.078  1.00  0.00    -0.744 OA
ENDBRANCH  95  96
ENDBRANCH  63  88
ENDBRANCH  37  38
ENDBRANCH  29  32
ENDBRANCH  27  28
ENDBRANCH  26  27
ENDBRANCH   1  26
TORSDOF 18
ENDMDL
MODEL 2
REMARK VINA RESULT:     -11.3      3.306      9.502
REMARK SMILES CN(C)C(=O)c1cccc(NCc2cc(C(=O)NCCCCNC(=O)c3ccc(-c4c5nc(c(-c6c(F)cc(S(=O)(=O)[O-])cc6F)c6ccc([nH]6)c(-c6c(F)cc(S(=O)(=O)[O-])cc6F)c6nc(c(-c7c(F)cc(S(=O)(=O)[O-])cc7F)c7ccc4[nH]7)C=C6)C=C5)cc3)cs2)c1
REMARK SMILES IDX 20 1 19 2 18 3 16 4 17 5 15 7 13 8 14 9 93 10 92 11 12 12
REMARK SMILES IDX 11 13 10 15 6 16 7 17 94 18 8 19 9 20 4 21 1 22 2 23 3 24
REMARK SMILES IDX 5 25 21 26 22 27 23 28 24 29 25 31 26 32 27 33 91 34 28 35
REMARK SMILES IDX 90 36 29 37 30 38 31 39 84 40 32 41 89 42 83 43 85 44 33 45
REMARK SMILES IDX 88 46 82 47 81 48 34 50 68 51 47 52 67 53 48 54 51 55 66 56
REMARK SMILES IDX 86 57 49 58 50 59 65 61 87 62 52 63 35 64 36 65 45 66 37 67
REMARK SMILES IDX 38 68 44 69 46 70 39 71 40 72 41 73 42 74 43 75 69 76 70 77
REMARK SMILES IDX 79 78 71 79 72 80 78 81 80 82 73 83 74 84 75 85 76 86 77 87
REMARK SMILES IDX 53 88 54 89 63 90 55 91 56 92 62 93 64 94 57 95 58 96 59 97
REMARK SMILES IDX 60 98 61 99
REMARK H PARENT 18 6 11 14 23 30 85 49 51 60
REMARK Flexibility Score: inf
ROOT
ATOM      1  C   UNL A   1      37.157  21.593  24.876  1.00  0.00     0.023 C 
ENDROOT
BRANCH   1   2
ATOM      2  C   UNL A   1      35.841  21.398  25.629  1.00  0.00     0.116 C 
BRANCH   2   3
ATOM      3  N   UNL A   1      35.137  20.233  25.140  1.00  0.00    -0.352 N 
ATOM      4  C   UNL A   1      33.849  20.057  24.701  1.00  0.00     0.252 C 
ATOM      5  O   UNL A   1      33.553  18.938  24.286  1.00  0.00    -0.269 OA
ATOM      6  H   UNL A   1      35.684  19.414  25.119  1.00  0.00     0.163 HD
BRANCH   4   7
ATOM      7  C   UNL A   1      32.876  21.155  24.681  1.00  0.00     0.050 A 
ATOM      8  C   UNL A   1      31.386  22.866  25.348  1.00  0.00     0.024 A 
ATOM      9  C   UNL A   1      32.133  21.771  25.741  1.00  0.00     0.031 A 
ATOM     10  S   UNL A   1      31.449  23.070  23.654  1.00  0.00    -0.146 S 
ATOM     11  C   UNL A   1      32.515  21.746  23.478  1.00  0.00     0.079 A 
BRANCH   8  12
ATOM     12  C   UNL A   1      30.585  23.806  26.205  1.00  0.00     0.159 C 
BRANCH  12  13
ATOM     13  N   UNL A   1      31.364  24.885  26.799  1.00  0.00    -0.380 N 
ATOM     14  H   UNL A   1      31.439  24.884  27.781  1.00  0.00     0.160 HD
BRANCH  13  15
ATOM     15  C   UNL A   1      32.009  25.909  26.133  1.00  0.00     0.035 A 
ATOM     16  C   UNL A   1      31.853  28.108  25.070  1.00  0.00     0.042 A 
ATOM     17  C   UNL A   1      33.180  28.019  24.651  1.00  0.00     0.014 A 
ATOM     18  C   UNL A   1      31.271  27.055  25.789  1.00  0.00     0.039 A 
ATOM     19  C   UNL A   1      33.929  26.895  24.985  1.00  0.00     0.003 A 
ATOM     20  C   UNL A   1      33.347  25.856  25.724  1.00  0.00     0.026 A 
BRANCH  16  21
ATOM     21  C   UNL A   1      31.057  29.280  24.632  1.00  0.00     0.253 C 
ATOM     22  C   UNL A   1      29.503  30.366  23.108  1.00  0.00     0.146 C 
ATOM     23  N   UNL A   1      30.271  29.193  23.484  1.00  0.00    -0.345 N 
ATOM     24  C   UNL A   1      29.997  27.965  22.760  1.00  0.00     0.146 C 
ATOM     25  O   UNL A   1      31.121  30.293  25.326  1.00  0.00    -0.269 OA
ENDBRANCH  16  21
ENDBRANCH  13  15
ENDBRANCH  12  13
ENDBRANCH   8  12
ENDBRANCH   4   7
ENDBRANCH   2   3
ENDBRANCH   1   2
BRANCH   1  26
ATOM     26  C   UNL A   1      38.138  20.426  25.035  1.00  0.00     0.023 C 
BRANCH  26  27
ATOM     27  C   UNL A   1      39.315  20.698  25.970  1.00  0.00     0.116 C 
BRANCH  27  28
ATOM     28  N   UNL A   1      40.192  19.547  26.131  1.00  0.00    -0.352 N 
ATOM     29  C   UNL A   1      41.560  19.528  26.256  1.00  0.00     0.251 C 
ATOM     30  H   UNL A   1      39.747  18.668  26.155  1.00  0.00     0.163 HD
ATOM     31  O   UNL A   1      42.172  18.469  26.188  1.00  0.00    -0.269 OA
BRANCH  29  32
ATOM     32  C   UNL A   1      42.274  20.807  26.449  1.00  0.00     0.039 A 
ATOM     33  C   UNL A   1      42.654  21.556  25.336  1.00  0.00     0.014 A 
ATOM     34  C   UNL A   1      42.515  21.282  27.742  1.00  0.00     0.014 A 
ATOM     35  C   UNL A   1      43.210  22.823  25.523  1.00  0.00     0.010 A 
ATOM     36  C   UNL A   1      42.991  22.575  27.923  1.00  0.00     0.010 A 
ATOM     37  C   UNL A   1      43.339  23.360  26.815  1.00  0.00    -0.014 A 
BRANCH  37  38
ATOM     38  C   UNL A   1      43.813  24.752  27.025  1.00  0.00     0.031 A 
ATOM     39  C   UNL A   1      45.266  25.095  26.845  1.00  0.00     0.074 A 
ATOM     40  C   UNL A   1      42.940  25.691  27.446  1.00  0.00     0.049 A 
ATOM     41  N   UNL A   1      45.871  26.241  27.025  1.00  0.00    -0.248 NA
ATOM     42  C   UNL A   1      46.165  24.003  26.438  1.00  0.00     0.031 C 
ATOM     43  C   UNL A   1      41.519  25.461  27.719  1.00  0.00     0.029 A 
ATOM     44  N   UNL A   1      43.118  27.022  27.724  1.00  0.00    -0.354 N 
ATOM     45  C   UNL A   1      47.215  26.008  26.760  1.00  0.00     0.074 A 
ATOM     46  C   UNL A   1      47.348  24.598  26.470  1.00  0.00     0.031 C 
ATOM     47  C   UNL A   1      40.950  26.617  28.093  1.00  0.00     0.029 A 
ATOM     48  C   UNL A   1      41.970  27.661  28.129  1.00  0.00     0.049 A 
ATOM     49  H   UNL A   1      43.987  27.477  27.642  1.00  0.00     0.167 HD
ATOM     50  C   UNL A   1      48.239  26.894  26.734  1.00  0.00     0.037 A 
ATOM     51  C   UNL A   1      41.762  28.941  28.493  1.00  0.00     0.037 A 
ATOM     52  C   UNL A   1      48.092  28.300  27.010  1.00  0.00     0.049 A 
ATOM     53  C   UNL A   1      42.916  29.905  28.460  1.00  0.00     0.074 A 
ATOM     54  C   UNL A   1      49.056  29.293  26.952  1.00  0.00     0.029 A 
ATOM     55  N   UNL A   1      46.911  28.914  27.400  1.00  0.00    -0.354 N 
ATOM     56  N   UNL A   1      44.167  29.682  28.130  1.00  0.00    -0.248 NA
ATOM     57  C   UNL A   1      42.631  31.295  28.838  1.00  0.00     0.031 C 
ATOM     58  C   UNL A   1      48.469  30.495  27.361  1.00  0.00     0.029 A 
ATOM     59  C   UNL A   1      47.126  30.265  27.614  1.00  0.00     0.049 A 
ATOM     60  H   UNL A   1      46.046  28.456  27.510  1.00  0.00     0.167 HD
ATOM     61  C   UNL A   1      44.812  30.910  28.237  1.00  0.00     0.074 A 
ATOM     62  C   UNL A   1      43.808  31.873  28.643  1.00  0.00     0.031 C 
ATOM     63  C   UNL A   1      46.117  31.212  28.019  1.00  0.00     0.037 A 
BRANCH  50  64
ATOM     64  C   UNL A   1      49.609  26.369  26.393  1.00  0.00     0.058 A 
ATOM     65  C   UNL A   1      50.117  26.427  25.085  1.00  0.00     0.135 A 
ATOM     66  C   UNL A   1      50.442  25.840  27.393  1.00  0.00     0.135 A 
ATOM     67  F   UNL A   1      49.360  26.907  24.085  1.00  0.00    -0.206 F 
ATOM     68  C   UNL A   1      51.386  25.951  24.775  1.00  0.00     0.059 A 
ATOM     69  C   UNL A   1      51.728  25.389  27.111  1.00  0.00     0.059 A 
ATOM     70  F   UNL A   1      50.009  25.760  28.661  1.00  0.00    -0.206 F 
ATOM     71  C   UNL A   1      52.186  25.436  25.796  1.00  0.00     0.060 A 
BRANCH  71  72
ATOM     72  S   UNL A   1      53.834  24.832  25.376  1.00  0.00     0.124 S 
ATOM     73  O   UNL A   1      54.563  25.090  26.614  1.00  0.00    -0.237 OA
ATOM     74  O   UNL A   1      53.583  23.428  25.069  1.00  0.00    -0.237 OA
ATOM     75  O   UNL A   1      54.221  25.660  24.237  1.00  0.00    -0.744 OA
ENDBRANCH  71  72
ENDBRANCH  50  64
BRANCH  51  76
ATOM     76  C   UNL A   1      40.401  29.388  28.897  1.00  0.00     0.058 A 
ATOM     77  C   UNL A   1      39.395  29.597  27.942  1.00  0.00     0.135 A 
ATOM     78  C   UNL A   1      40.075  29.606  30.245  1.00  0.00     0.135 A 
ATOM     79  F   UNL A   1      39.657  29.408  26.639  1.00  0.00    -0.206 F 
ATOM     80  C   UNL A   1      38.121  30.023  28.304  1.00  0.00     0.059 A 
ATOM     81  C   UNL A   1      38.800  30.004  30.635  1.00  0.00     0.059 A 
ATOM     82  F   UNL A   1      40.995  29.403  31.201  1.00  0.00    -0.206 F 
ATOM     83  C   UNL A   1      37.832  30.220  29.655  1.00  0.00     0.060 A 
BRANCH  83  84
ATOM     84  S   UNL A   1      36.162  30.727  30.119  1.00  0.00     0.124 S 
ATOM     85  O   UNL A   1      36.313  32.173  30.230  1.00  0.00    -0.237 OA
ATOM     86  O   UNL A   1      35.374  30.251  28.987  1.00  0.00    -0.237 OA
ATOM     87  O   UNL A   1      35.933  30.018  31.375  1.00  0.00    -0.744 OA
ENDBRANCH  83  84
ENDBRANCH  51  76
BRANCH  63  88
ATOM     88  C   UNL A   1      46.528  32.651  28.184  1.00  0.00     0.058 A 
ATOM     89  C   UNL A   1      47.067  33.134  29.388  1.00  0.00     0.135 A 
ATOM     90  C   UNL A   1      46.416  33.549  27.111  1.00  0.00     0.135 A 
ATOM     91  F   UNL A   1      47.192  32.319  30.447  1.00  0.00    -0.206 F 
ATOM     92  C   UNL A   1      47.448  34.463  29.531  1.00  0.00     0.059 A 
ATOM     93  C   UNL A   1      46.821  34.875  27.222  1.00  0.00     0.059 A 
ATOM     94  F   UNL A   1      45.918  33.139  25.934  1.00  0.00    -0.206 F 
ATOM     95  C   UNL A   1      47.321  35.327  28.442  1.00  0.00     0.060 A 
BRANCH  95  96
ATOM     96  S   UNL A   1      47.837  37.046  28.637  1.00  0.00     0.124 S 
ATOM     97  O   UNL A   1      47.245  37.666  27.457  1.00  0.00    -0.237 OA
ATOM     98  O   UNL A   1      47.234  37.410  29.916  1.00  0.00    -0.237 OA
ATOM     99  O   UNL A   1      49.295  36.966  28.639  1.00  0.00    -0.744 OA
ENDBRANCH  95  96
ENDBRANCH  63  88
ENDBRANCH  37  38
ENDBRANCH  29  32
ENDBRANCH  27  28
ENDBRANCH  26  27
ENDBRANCH   1  26
TORSDOF 18
ENDMDL
MODEL 3
REMARK VINA RESULT:     -11.3      0.508      8.153
REMARK SMILES CN(C)C(=O)c1cccc(NCc2cc(C(=O)NCCCCNC(=O)c3ccc(-c4c5nc(c(-c6c(F)cc(S(=O)(=O)[O-])cc6F)c6ccc([nH]6)c(-c6c(F)cc(S(=O)(=O)[O-])cc6F)c6nc(c(-c7c(F)cc(S(=O)(=O)[O-])cc7F)c7ccc4[nH]7)C=C6)C=C5)cc3)cs2)c1
REMARK SMILES IDX 20 1 19 2 18 3 16 4 17 5 15 7 13 8 14 9 93 10 92 11 12 12
REMARK SMILES IDX 11 13 10 15 6 16 7 17 94 18 8 19 9 20 4 21 1 22 2 23 3 24
REMARK SMILES IDX 5 25 21 26 22 27 23 28 24 29 25 31 26 32 27 33 91 34 28 35
REMARK SMILES IDX 90 36 29 37 30 38 31 39 84 40 32 41 89 42 83 43 85 44 33 45
REMARK SMILES IDX 88 46 82 47 81 48 34 50 68 51 47 52 67 53 48 54 51 55 66 56
REMARK SMILES IDX 86 57 49 58 50 59 65 61 87 62 52 63 35 64 36 65 45 66 37 67
REMARK SMILES IDX 38 68 44 69 46 70 39 71 40 72 41 73 42 74 43 75 69 76 70 77
REMARK SMILES IDX 79 78 71 79 72 80 78 81 80 82 73 83 74 84 75 85 76 86 77 87
REMARK SMILES IDX 53 88 54 89 63 90 55 91 56 92 62 93 64 94 57 95 58 96 59 97
REMARK SMILES IDX 60 98 61 99
REMARK H PARENT 18 6 11 14 23 30 85 49 51 60
REMARK Flexibility Score: inf
ROOT
ATOM      1  C   UNL A   1      32.769  29.340  24.917  1.00  0.00     0.023 C 
ENDROOT
BRANCH   1   2
ATOM      2  C   UNL A   1      31.256  29.549  24.987  1.00  0.00     0.116 C 
BRANCH   2   3
ATOM      3  N   UNL A   1      30.705  29.756  23.665  1.00  0.00    -0.352 N 
ATOM      4  C   UNL A   1      30.464  28.892  22.627  1.00  0.00     0.252 C 
ATOM      5  O   UNL A   1      29.923  29.363  21.628  1.00  0.00    -0.269 OA
ATOM      6  H   UNL A   1      30.456  30.690  23.476  1.00  0.00     0.163 HD
BRANCH   4   7
ATOM      7  C   UNL A   1      30.791  27.463  22.710  1.00  0.00     0.050 A 
ATOM      8  C   UNL A   1      31.892  25.382  22.498  1.00  0.00     0.024 A 
ATOM      9  C   UNL A   1      31.833  26.701  22.088  1.00  0.00     0.031 A 
ATOM     10  S   UNL A   1      30.583  25.005  23.527  1.00  0.00    -0.146 S 
ATOM     11  C   UNL A   1      29.998  26.608  23.464  1.00  0.00     0.079 A 
BRANCH   8  12
ATOM     12  C   UNL A   1      32.914  24.338  22.140  1.00  0.00     0.159 C 
BRANCH  12  13
ATOM     13  N   UNL A   1      32.474  22.968  22.372  1.00  0.00    -0.380 N 
ATOM     14  H   UNL A   1      31.753  22.633  21.790  1.00  0.00     0.160 HD
BRANCH  13  15
ATOM     15  C   UNL A   1      32.958  22.089  23.321  1.00  0.00     0.035 A 
ATOM     16  C   UNL A   1      34.866  21.318  24.646  1.00  0.00     0.042 A 
ATOM     17  C   UNL A   1      34.107  20.265  25.159  1.00  0.00     0.014 A 
ATOM     18  C   UNL A   1      34.300  22.209  23.725  1.00  0.00     0.039 A 
ATOM     19  C   UNL A   1      32.776  20.132  24.775  1.00  0.00     0.003 A 
ATOM     20  C   UNL A   1      32.210  21.040  23.870  1.00  0.00     0.026 A 
BRANCH  16  21
ATOM     21  C   UNL A   1      36.302  21.389  25.011  1.00  0.00     0.253 C 
ATOM     22  C   UNL A   1      38.219  22.556  25.945  1.00  0.00     0.146 C 
ATOM     23  N   UNL A   1      36.810  22.546  25.597  1.00  0.00    -0.345 N 
ATOM     24  C   UNL A   1      36.004  23.653  26.079  1.00  0.00     0.146 C 
ATOM     25  O   UNL A   1      36.989  20.394  24.782  1.00  0.00    -0.269 OA
ENDBRANCH  16  21
ENDBRANCH  13  15
ENDBRANCH  12  13
ENDBRANCH   8  12
ENDBRANCH   4   7
ENDBRANCH   2   3
ENDBRANCH   1   2
BRANCH   1  26
ATOM     26  C   UNL A   1      33.254  28.085  25.651  1.00  0.00     0.023 C 
BRANCH  26  27
ATOM     27  C   UNL A   1      33.691  28.313  27.096  1.00  0.00     0.116 C 
BRANCH  27  28
ATOM     28  N   UNL A   1      33.534  29.694  27.528  1.00  0.00    -0.352 N 
ATOM     29  C   UNL A   1      34.441  30.491  28.185  1.00  0.00     0.251 C 
ATOM     30  H   UNL A   1      32.667  30.112  27.321  1.00  0.00     0.163 HD
ATOM     31  O   UNL A   1      34.092  31.567  28.653  1.00  0.00    -0.269 OA
BRANCH  29  32
ATOM     32  C   UNL A   1      35.831  30.012  28.333  1.00  0.00     0.039 A 
ATOM     33  C   UNL A   1      36.699  30.076  27.244  1.00  0.00     0.014 A 
ATOM     34  C   UNL A   1      36.280  29.550  29.575  1.00  0.00     0.014 A 
ATOM     35  C   UNL A   1      38.043  29.747  27.422  1.00  0.00     0.010 A 
ATOM     36  C   UNL A   1      37.634  29.304  29.768  1.00  0.00     0.010 A 
ATOM     37  C   UNL A   1      38.530  29.403  28.695  1.00  0.00    -0.014 A 
BRANCH  37  38
ATOM     38  C   UNL A   1      39.978  29.170  28.927  1.00  0.00     0.031 A 
ATOM     39  C   UNL A   1      40.593  27.834  28.613  1.00  0.00     0.074 A 
ATOM     40  C   UNL A   1      40.723  30.145  29.488  1.00  0.00     0.049 A 
ATOM     41  N   UNL A   1      41.825  27.432  28.788  1.00  0.00    -0.248 NA
ATOM     42  C   UNL A   1      39.702  26.803  28.055  1.00  0.00     0.031 C 
ATOM     43  C   UNL A   1      40.223  31.460  29.897  1.00  0.00     0.029 A 
ATOM     44  N   UNL A   1      42.054  30.182  29.816  1.00  0.00    -0.354 N 
ATOM     45  C   UNL A   1      41.856  26.106  28.370  1.00  0.00     0.074 A 
ATOM     46  C   UNL A   1      40.506  25.753  27.993  1.00  0.00     0.031 C 
ATOM     47  C   UNL A   1      41.240  32.184  30.391  1.00  0.00     0.029 A 
ATOM     48  C   UNL A   1      42.453  31.374  30.374  1.00  0.00     0.049 A 
ATOM     49  H   UNL A   1      42.667  29.425  29.667  1.00  0.00     0.167 HD
ATOM     50  C   UNL A   1      42.918  25.270  28.283  1.00  0.00     0.037 A 
ATOM     51  C   UNL A   1      43.660  31.768  30.825  1.00  0.00     0.037 A 
ATOM     52  C   UNL A   1      44.262  25.638  28.647  1.00  0.00     0.049 A 
ATOM     53  C   UNL A   1      44.823  30.820  30.721  1.00  0.00     0.074 A 
ATOM     54  C   UNL A   1      45.419  24.885  28.540  1.00  0.00     0.029 A 
ATOM     55  N   UNL A   1      44.631  26.860  29.192  1.00  0.00    -0.354 N 
ATOM     56  N   UNL A   1      44.849  29.596  30.249  1.00  0.00    -0.248 NA
ATOM     57  C   UNL A   1      46.123  31.309  31.202  1.00  0.00     0.031 C 
ATOM     58  C   UNL A   1      46.476  25.630  29.073  1.00  0.00     0.029 A 
ATOM     59  C   UNL A   1      45.991  26.871  29.454  1.00  0.00     0.049 A 
ATOM     60  H   UNL A   1      44.016  27.608  29.369  1.00  0.00     0.167 HD
ATOM     61  C   UNL A   1      46.171  29.177  30.352  1.00  0.00     0.074 A 
ATOM     62  C   UNL A   1      46.916  30.287  30.913  1.00  0.00     0.031 C 
ATOM     63  C   UNL A   1      46.719  27.983  30.013  1.00  0.00     0.037 A 
BRANCH  50  64
ATOM     64  C   UNL A   1      42.670  23.876  27.771  1.00  0.00     0.058 A 
ATOM     65  C   UNL A   1      42.521  22.785  28.642  1.00  0.00     0.135 A 
ATOM     66  C   UNL A   1      42.539  23.633  26.394  1.00  0.00     0.135 A 
ATOM     67  F   UNL A   1      42.652  22.954  29.968  1.00  0.00    -0.206 F 
ATOM     68  C   UNL A   1      42.282  21.500  28.166  1.00  0.00     0.059 A 
ATOM     69  C   UNL A   1      42.268  22.361  25.897  1.00  0.00     0.059 A 
ATOM     70  F   UNL A   1      42.672  24.638  25.514  1.00  0.00    -0.206 F 
ATOM     71  C   UNL A   1      42.155  21.298  26.792  1.00  0.00     0.060 A 
BRANCH  71  72
ATOM     72  S   UNL A   1      41.835  19.626  26.194  1.00  0.00     0.124 S 
ATOM     73  O   UNL A   1      42.271  18.822  27.330  1.00  0.00    -0.237 OA
ATOM     74  O   UNL A   1      40.396  19.652  25.951  1.00  0.00    -0.237 OA
ATOM     75  O   UNL A   1      42.667  19.526  24.998  1.00  0.00    -0.744 OA
ENDBRANCH  71  72
ENDBRANCH  50  64
BRANCH  51  76
ATOM     76  C   UNL A   1      43.831  33.133  31.395  1.00  0.00     0.058 A 
ATOM     77  C   UNL A   1      44.122  34.230  30.570  1.00  0.00     0.135 A 
ATOM     78  C   UNL A   1      43.698  33.370  32.772  1.00  0.00     0.135 A 
ATOM     79  F   UNL A   1      44.265  34.055  29.247  1.00  0.00    -0.206 F 
ATOM     80  C   UNL A   1      44.294  35.509  31.089  1.00  0.00     0.059 A 
ATOM     81  C   UNL A   1      43.836  34.645  33.311  1.00  0.00     0.059 A 
ATOM     82  F   UNL A   1      43.402  32.360  33.603  1.00  0.00    -0.206 F 
ATOM     83  C   UNL A   1      44.145  35.707  32.463  1.00  0.00     0.060 A 
BRANCH  83  84
ATOM     84  S   UNL A   1      44.322  37.379  33.121  1.00  0.00     0.124 S 
ATOM     85  O   UNL A   1      44.588  38.146  31.910  1.00  0.00    -0.237 OA
ATOM     86  O   UNL A   1      43.022  37.600  33.746  1.00  0.00    -0.237 OA
ATOM     87  O   UNL A   1      45.442  37.257  34.050  1.00  0.00    -0.744 OA
ENDBRANCH  83  84
ENDBRANCH  51  76
BRANCH  63  88
ATOM     88  C   UNL A   1      48.203  27.824  30.210  1.00  0.00     0.058 A 
ATOM     89  C   UNL A   1      48.740  27.271  31.385  1.00  0.00     0.135 A 
ATOM     90  C   UNL A   1      49.098  28.197  29.194  1.00  0.00     0.135 A 
ATOM     91  F   UNL A   1      47.930  26.903  32.390  1.00  0.00    -0.206 F 
ATOM     92  C   UNL A   1      50.112  27.125  31.557  1.00  0.00     0.059 A 
ATOM     93  C   UNL A   1      50.472  28.029  29.333  1.00  0.00     0.059 A 
ATOM     94  F   UNL A   1      48.639  28.719  28.046  1.00  0.00    -0.206 F 
ATOM     95  C   UNL A   1      50.970  27.507  30.525  1.00  0.00     0.060 A 
BRANCH  95  96
ATOM     96  S   UNL A   1      52.748  27.293  30.756  1.00  0.00     0.124 S 
ATOM     97  O   UNL A   1      52.897  25.853  30.574  1.00  0.00    -0.237 OA
ATOM     98  O   UNL A   1      53.304  28.129  29.696  1.00  0.00    -0.237 OA
ATOM     99  O   UNL A   1      52.975  27.781  32.114  1.00  0.00    -0.744 OA
ENDBRANCH  95  96
ENDBRANCH  63  88
ENDBRANCH  37  38
ENDBRANCH  29  32
ENDBRANCH  27  28
ENDBRANCH  26  27
ENDBRANCH   1  26
TORSDOF 18
ENDMDL
