MODEL 1
REMARK VINA RESULT:     -11.4      0.000      0.000
REMARK SMILES Cc1cccc(NC(=O)COc2ccc(N3C[C@@H](C(=O)NCCCCNC(=O)c4ccc(-c5c6nc(c(-c7c(F)cc(S(=O)(=O)[O-])cc7F)c7ccc([nH]7)c(-c7c(F)cc(S(=O)(=O)[O-])cc7F)c7nc(c(-c8c(F)cc(S(=O)(=O)[O-])cc8F)c8ccc5[nH]8)C=C7)C=C6)cc4)CC3=O)cc2)c1
REMARK SMILES IDX 22 1 21 2 19 3 20 4 18 6 16 7 17 8 96 9 95 10 97 11 15 12
REMARK SMILES IDX 12 13 13 14 99 15 14 16 98 17 11 18 10 19 8 20 7 21 9 23
REMARK SMILES IDX 6 24 1 25 2 26 3 27 100 28 4 29 5 30 23 31 24 32 25 33 26 34
REMARK SMILES IDX 27 35 28 37 29 38 30 39 94 40 31 41 93 42 32 43 33 44 34 45
REMARK SMILES IDX 87 46 35 47 92 48 86 49 88 50 36 51 91 52 85 53 84 54 37 56
REMARK SMILES IDX 71 57 50 58 70 59 51 60 54 61 69 62 89 63 52 64 53 65 68 67
REMARK SMILES IDX 90 68 55 69 38 70 39 71 48 72 40 73 41 74 47 75 49 76 42 77
REMARK SMILES IDX 43 78 44 79 45 80 46 81 72 82 73 83 82 84 74 85 75 86 81 87
REMARK SMILES IDX 83 88 76 89 77 90 78 91 79 92 80 93 56 94 57 95 66 96 58 97
REMARK SMILES IDX 59 98 65 99 67 100 60 101 61 102 62 103 63 104 64 105
REMARK H PARENT 21 5 7 22 26 36 88 55 54 66
REMARK Flexibility Score: inf
ROOT
ATOM      1  C   UNL A   1      42.935  29.697  28.219  1.00  0.00     0.116 C 
ENDROOT
BRANCH   1   2
ATOM      2  N   UNL A   1      41.830  29.944  29.139  1.00  0.00    -0.356 N 
ATOM      3  C   UNL A   1      40.547  29.510  29.189  1.00  0.00     0.225 C 
ATOM      4  O   UNL A   1      39.859  29.894  30.141  1.00  0.00    -0.275 OA
ATOM      5  H   UNL A   1      42.066  30.550  29.877  1.00  0.00     0.163 HD
BRANCH   3   6
ATOM      6  C   UNL A   1      39.931  28.575  28.171  1.00  0.00     0.107 C 
ATOM      7  N   UNL A   1      40.410  26.368  27.488  1.00  0.00    -0.312 N 
ATOM      8  C   UNL A   1      39.932  27.127  28.618  1.00  0.00     0.139 C 
ATOM      9  C   UNL A   1      40.819  27.178  26.431  1.00  0.00     0.227 C 
ATOM     10  C   UNL A   1      40.549  28.614  26.788  1.00  0.00     0.116 C 
ATOM     11  O   UNL A   1      41.268  26.845  25.344  1.00  0.00    -0.274 OA
BRANCH   7  12
ATOM     12  C   UNL A   1      40.514  24.956  27.523  1.00  0.00     0.044 A 
ATOM     13  C   UNL A   1      40.714  22.146  27.613  1.00  0.00     0.120 A 
ATOM     14  C   UNL A   1      39.709  22.757  26.867  1.00  0.00     0.048 A 
ATOM     15  C   UNL A   1      41.634  22.935  28.297  1.00  0.00     0.048 A 
ATOM     16  C   UNL A   1      39.589  24.151  26.848  1.00  0.00     0.030 A 
ATOM     17  C   UNL A   1      41.541  24.330  28.237  1.00  0.00     0.030 A 
BRANCH  13  18
ATOM     18  O   UNL A   1      40.772  20.786  27.535  1.00  0.00    -0.484 OA
BRANCH  18  19
ATOM     19  C   UNL A   1      42.070  20.226  27.419  1.00  0.00     0.329 C 
BRANCH  19  20
ATOM     20  C   UNL A   1      42.449  19.454  26.155  1.00  0.00     0.262 C 
ATOM     21  N   UNL A   1      43.421  19.847  25.288  1.00  0.00    -0.323 N 
ATOM     22  H   UNL A   1      43.611  19.169  24.600  1.00  0.00     0.170 HD
ATOM     23  O   UNL A   1      41.858  18.400  25.879  1.00  0.00    -0.271 OA
BRANCH  21  24
ATOM     24  C   UNL A   1      44.215  20.994  25.149  1.00  0.00     0.041 A 
ATOM     25  C   UNL A   1      43.471  24.744  25.087  1.00  0.00     0.044 C 
ATOM     26  C   UNL A   1      44.213  23.443  25.058  1.00  0.00    -0.049 A 
ATOM     27  C   UNL A   1      45.602  23.430  24.910  1.00  0.00     0.003 A 
ATOM     28  C   UNL A   1      43.534  22.222  25.179  1.00  0.00     0.029 A 
ATOM     29  C   UNL A   1      46.291  22.219  24.901  1.00  0.00     0.002 A 
ATOM     30  C   UNL A   1      45.602  21.009  25.032  1.00  0.00     0.026 A 
ENDBRANCH  21  24
ENDBRANCH  19  20
ENDBRANCH  18  19
ENDBRANCH  13  18
ENDBRANCH   7  12
ENDBRANCH   3   6
ENDBRANCH   1   2
BRANCH   1  31
ATOM     31  C   UNL A   1      44.281  29.469  28.924  1.00  0.00     0.023 C 
BRANCH  31  32
ATOM     32  C   UNL A   1      45.324  28.670  28.137  1.00  0.00     0.023 C 
BRANCH  32  33
ATOM     33  C   UNL A   1      44.797  27.365  27.555  1.00  0.00     0.116 C 
BRANCH  33  34
ATOM     34  N   UNL A   1      45.812  26.573  26.878  1.00  0.00    -0.352 N 
ATOM     35  C   UNL A   1      46.806  25.818  27.477  1.00  0.00     0.251 C 
ATOM     36  H   UNL A   1      45.791  26.573  25.894  1.00  0.00     0.163 HD
ATOM     37  O   UNL A   1      47.836  25.489  26.900  1.00  0.00    -0.269 OA
BRANCH  35  38
ATOM     38  C   UNL A   1      46.492  25.271  28.811  1.00  0.00     0.039 A 
ATOM     39  C   UNL A   1      45.315  24.521  28.926  1.00  0.00     0.014 A 
ATOM     40  C   UNL A   1      47.159  25.750  29.936  1.00  0.00     0.014 A 
ATOM     41  C   UNL A   1      44.694  24.411  30.165  1.00  0.00     0.010 A 
ATOM     42  C   UNL A   1      46.501  25.711  31.148  1.00  0.00     0.010 A 
ATOM     43  C   UNL A   1      45.246  25.090  31.247  1.00  0.00    -0.014 A 
BRANCH  43  44
ATOM     44  C   UNL A   1      44.559  25.276  32.518  1.00  0.00     0.031 A 
ATOM     45  C   UNL A   1      44.104  26.628  32.906  1.00  0.00     0.074 A 
ATOM     46  C   UNL A   1      44.246  24.196  33.266  1.00  0.00     0.049 A 
ATOM     47  N   UNL A   1      43.659  26.939  34.075  1.00  0.00    -0.248 NA
ATOM     48  C   UNL A   1      44.198  27.777  32.007  1.00  0.00     0.031 C 
ATOM     49  C   UNL A   1      43.273  24.115  34.350  1.00  0.00     0.029 A 
ATOM     50  N   UNL A   1      44.933  22.980  33.327  1.00  0.00    -0.354 N 
ATOM     51  C   UNL A   1      43.145  28.213  34.002  1.00  0.00     0.074 A 
ATOM     52  C   UNL A   1      43.628  28.731  32.748  1.00  0.00     0.031 C 
ATOM     53  C   UNL A   1      43.563  23.055  35.120  1.00  0.00     0.029 A 
ATOM     54  C   UNL A   1      44.830  22.519  34.654  1.00  0.00     0.049 A 
ATOM     55  H   UNL A   1      45.400  22.533  32.585  1.00  0.00     0.167 HD
ATOM     56  C   UNL A   1      42.253  28.608  34.954  1.00  0.00     0.037 A 
ATOM     57  C   UNL A   1      45.946  22.399  35.435  1.00  0.00     0.037 A 
ATOM     58  C   UNL A   1      42.342  27.721  36.120  1.00  0.00     0.049 A 
ATOM     59  C   UNL A   1      45.955  23.322  36.635  1.00  0.00     0.074 A 
ATOM     60  C   UNL A   1      41.549  26.695  36.604  1.00  0.00     0.029 A 
ATOM     61  N   UNL A   1      43.553  27.637  36.809  1.00  0.00    -0.354 N 
ATOM     62  N   UNL A   1      45.157  24.347  36.780  1.00  0.00    -0.248 NA
ATOM     63  C   UNL A   1      46.862  23.166  37.769  1.00  0.00     0.031 C 
ATOM     64  C   UNL A   1      42.346  25.908  37.482  1.00  0.00     0.029 A 
ATOM     65  C   UNL A   1      43.602  26.488  37.576  1.00  0.00     0.049 A 
ATOM     66  H   UNL A   1      44.274  28.304  36.756  1.00  0.00     0.167 HD
ATOM     67  C   UNL A   1      45.445  24.999  37.950  1.00  0.00     0.074 A 
ATOM     68  C   UNL A   1      46.499  24.200  38.549  1.00  0.00     0.031 C 
ATOM     69  C   UNL A   1      44.806  26.147  38.329  1.00  0.00     0.037 A 
BRANCH  56  70
ATOM     70  C   UNL A   1      41.151  29.642  34.746  1.00  0.00     0.058 A 
ATOM     71  C   UNL A   1      41.086  30.792  35.567  1.00  0.00     0.135 A 
ATOM     72  C   UNL A   1      40.045  29.505  33.872  1.00  0.00     0.135 A 
ATOM     73  F   UNL A   1      42.056  31.067  36.452  1.00  0.00    -0.206 F 
ATOM     74  C   UNL A   1      40.009  31.693  35.552  1.00  0.00     0.059 A 
ATOM     75  C   UNL A   1      38.979  30.407  33.814  1.00  0.00     0.059 A 
ATOM     76  F   UNL A   1      39.892  28.462  33.055  1.00  0.00    -0.206 F 
ATOM     77  C   UNL A   1      38.953  31.486  34.676  1.00  0.00     0.060 A 
BRANCH  77  78
ATOM     78  S   UNL A   1      37.538  32.602  34.685  1.00  0.00     0.124 S 
ATOM     79  O   UNL A   1      36.685  32.016  33.656  1.00  0.00    -0.237 OA
ATOM     80  O   UNL A   1      37.056  32.485  36.057  1.00  0.00    -0.237 OA
ATOM     81  O   UNL A   1      38.122  33.897  34.342  1.00  0.00    -0.744 OA
ENDBRANCH  77  78
ENDBRANCH  56  70
BRANCH  57  82
ATOM     82  C   UNL A   1      47.136  21.931  34.669  1.00  0.00     0.058 A 
ATOM     83  C   UNL A   1      48.185  22.855  34.482  1.00  0.00     0.135 A 
ATOM     84  C   UNL A   1      47.448  20.569  34.551  1.00  0.00     0.135 A 
ATOM     85  F   UNL A   1      47.939  24.173  34.567  1.00  0.00    -0.206 F 
ATOM     86  C   UNL A   1      49.512  22.449  34.374  1.00  0.00     0.059 A 
ATOM     87  C   UNL A   1      48.774  20.140  34.430  1.00  0.00     0.059 A 
ATOM     88  F   UNL A   1      46.494  19.641  34.708  1.00  0.00    -0.206 F 
ATOM     89  C   UNL A   1      49.799  21.088  34.423  1.00  0.00     0.060 A 
BRANCH  89  90
ATOM     90  S   UNL A   1      51.526  20.601  34.673  1.00  0.00     0.124 S 
ATOM     91  O   UNL A   1      52.163  21.103  33.461  1.00  0.00    -0.237 OA
ATOM     92  O   UNL A   1      51.863  21.317  35.905  1.00  0.00    -0.237 OA
ATOM     93  O   UNL A   1      51.450  19.151  34.794  1.00  0.00    -0.744 OA
ENDBRANCH  89  90
ENDBRANCH  57  82
BRANCH  69  94
ATOM     94  C   UNL A   1      45.215  27.021  39.494  1.00  0.00     0.058 A 
ATOM     95  C   UNL A   1      44.846  26.775  40.828  1.00  0.00     0.135 A 
ATOM     96  C   UNL A   1      46.127  28.085  39.300  1.00  0.00     0.135 A 
ATOM     97  F   UNL A   1      44.083  25.723  41.159  1.00  0.00    -0.206 F 
ATOM     98  C   UNL A   1      45.284  27.574  41.887  1.00  0.00     0.059 A 
ATOM     99  C   UNL A   1      46.622  28.859  40.348  1.00  0.00     0.059 A 
ATOM    100  F   UNL A   1      46.578  28.403  38.077  1.00  0.00    -0.206 F 
ATOM    101  C   UNL A   1      46.171  28.617  41.637  1.00  0.00     0.060 A 
BRANCH 101 102
ATOM    102  S   UNL A   1      46.784  29.627  42.999  1.00  0.00     0.124 S 
ATOM    103  O   UNL A   1      45.591  29.750  43.829  1.00  0.00    -0.237 OA
ATOM    104  O   UNL A   1      47.857  28.808  43.556  1.00  0.00    -0.237 OA
ATOM    105  O   UNL A   1      47.222  30.849  42.333  1.00  0.00    -0.744 OA
ENDBRANCH 101 102
ENDBRANCH  69  94
ENDBRANCH  43  44
ENDBRANCH  35  38
ENDBRANCH  33  34
ENDBRANCH  32  33
ENDBRANCH  31  32
ENDBRANCH   1  31
TORSDOF 19
ENDMDL
MODEL 2
REMARK VINA RESULT:     -11.2      5.140     11.968
REMARK SMILES Cc1cccc(NC(=O)COc2ccc(N3C[C@@H](C(=O)NCCCCNC(=O)c4ccc(-c5c6nc(c(-c7c(F)cc(S(=O)(=O)[O-])cc7F)c7ccc([nH]7)c(-c7c(F)cc(S(=O)(=O)[O-])cc7F)c7nc(c(-c8c(F)cc(S(=O)(=O)[O-])cc8F)c8ccc5[nH]8)C=C7)C=C6)cc4)CC3=O)cc2)c1
REMARK SMILES IDX 22 1 21 2 19 3 20 4 18 6 16 7 17 8 96 9 95 10 97 11 15 12
REMARK SMILES IDX 12 13 13 14 99 15 14 16 98 17 11 18 10 19 8 20 7 21 9 23
REMARK SMILES IDX 6 24 1 25 2 26 3 27 100 28 4 29 5 30 23 31 24 32 25 33 26 34
REMARK SMILES IDX 27 35 28 37 29 38 30 39 94 40 31 41 93 42 32 43 33 44 34 45
REMARK SMILES IDX 87 46 35 47 92 48 86 49 88 50 36 51 91 52 85 53 84 54 37 56
REMARK SMILES IDX 71 57 50 58 70 59 51 60 54 61 69 62 89 63 52 64 53 65 68 67
REMARK SMILES IDX 90 68 55 69 38 70 39 71 48 72 40 73 41 74 47 75 49 76 42 77
REMARK SMILES IDX 43 78 44 79 45 80 46 81 72 82 73 83 82 84 74 85 75 86 81 87
REMARK SMILES IDX 83 88 76 89 77 90 78 91 79 92 80 93 56 94 57 95 66 96 58 97
REMARK SMILES IDX 59 98 65 99 67 100 60 101 61 102 62 103 63 104 64 105
REMARK H PARENT 21 5 7 22 26 36 88 55 54 66
REMARK Flexibility Score: inf
ROOT
ATOM      1  C   UNL A   1      44.288  23.864  31.986  1.00  0.00     0.116 C 
ENDROOT
BRANCH   1   2
ATOM      2  N   UNL A   1      44.990  24.707  32.946  1.00  0.00    -0.356 N 
ATOM      3  C   UNL A   1      44.579  25.637  33.842  1.00  0.00     0.225 C 
ATOM      4  O   UNL A   1      45.448  26.164  34.545  1.00  0.00    -0.275 OA
ATOM      5  H   UNL A   1      45.965  24.571  32.944  1.00  0.00     0.163 HD
BRANCH   3   6
ATOM      6  C   UNL A   1      43.133  26.038  34.040  1.00  0.00     0.107 C 
ATOM      7  N   UNL A   1      42.081  27.988  34.852  1.00  0.00    -0.312 N 
ATOM      8  C   UNL A   1      42.880  27.504  33.751  1.00  0.00     0.139 C 
ATOM      9  C   UNL A   1      41.907  27.032  35.851  1.00  0.00     0.227 C 
ATOM     10  C   UNL A   1      42.556  25.748  35.411  1.00  0.00     0.116 C 
ATOM     11  O   UNL A   1      41.289  27.130  36.900  1.00  0.00    -0.274 OA
BRANCH   7  12
ATOM     12  C   UNL A   1      41.617  29.324  34.910  1.00  0.00     0.044 A 
ATOM     13  C   UNL A   1      40.702  31.989  35.010  1.00  0.00     0.120 A 
ATOM     14  C   UNL A   1      39.852  30.967  34.593  1.00  0.00     0.048 A 
ATOM     15  C   UNL A   1      42.002  31.681  35.398  1.00  0.00     0.048 A 
ATOM     16  C   UNL A   1      40.315  29.650  34.512  1.00  0.00     0.030 A 
ATOM     17  C   UNL A   1      42.448  30.354  35.363  1.00  0.00     0.030 A 
BRANCH  13  18
ATOM     18  O   UNL A   1      40.147  33.231  35.093  1.00  0.00    -0.484 OA
BRANCH  18  19
ATOM     19  C   UNL A   1      40.577  34.032  36.182  1.00  0.00     0.329 C 
BRANCH  19  20
ATOM     20  C   UNL A   1      39.907  35.382  36.437  1.00  0.00     0.262 C 
ATOM     21  N   UNL A   1      39.315  35.724  37.614  1.00  0.00    -0.323 N 
ATOM     22  H   UNL A   1      39.045  36.672  37.639  1.00  0.00     0.170 HD
ATOM     23  O   UNL A   1      39.889  36.238  35.542  1.00  0.00    -0.271 OA
BRANCH  21  24
ATOM     24  C   UNL A   1      39.002  35.042  38.798  1.00  0.00     0.041 A 
ATOM     25  C   UNL A   1      36.939  31.923  39.596  1.00  0.00     0.044 C 
ATOM     26  C   UNL A   1      37.811  33.131  39.763  1.00  0.00    -0.049 A 
ATOM     27  C   UNL A   1      38.261  33.501  41.032  1.00  0.00     0.003 A 
ATOM     28  C   UNL A   1      38.189  33.906  38.657  1.00  0.00     0.029 A 
ATOM     29  C   UNL A   1      39.086  34.614  41.182  1.00  0.00     0.002 A 
ATOM     30  C   UNL A   1      39.464  35.373  40.069  1.00  0.00     0.026 A 
ENDBRANCH  21  24
ENDBRANCH  19  20
ENDBRANCH  18  19
ENDBRANCH  13  18
ENDBRANCH   7  12
ENDBRANCH   3   6
ENDBRANCH   1   2
BRANCH   1  31
ATOM     31  C   UNL A   1      44.253  24.450  30.565  1.00  0.00     0.023 C 
BRANCH  31  32
ATOM     32  C   UNL A   1      43.355  23.722  29.561  1.00  0.00     0.023 C 
BRANCH  32  33
ATOM     33  C   UNL A   1      42.480  24.647  28.724  1.00  0.00     0.116 C 
BRANCH  33  34
ATOM     34  N   UNL A   1      41.649  23.950  27.755  1.00  0.00    -0.352 N 
ATOM     35  C   UNL A   1      40.300  24.156  27.524  1.00  0.00     0.251 C 
ATOM     36  H   UNL A   1      42.091  23.261  27.208  1.00  0.00     0.163 HD
ATOM     37  O   UNL A   1      39.576  23.320  26.995  1.00  0.00    -0.269 OA
BRANCH  35  38
ATOM     38  C   UNL A   1      39.795  25.517  27.791  1.00  0.00     0.039 A 
ATOM     39  C   UNL A   1      40.242  26.535  26.939  1.00  0.00     0.014 A 
ATOM     40  C   UNL A   1      39.179  25.806  29.006  1.00  0.00     0.014 A 
ATOM     41  C   UNL A   1      40.245  27.850  27.391  1.00  0.00     0.010 A 
ATOM     42  C   UNL A   1      39.258  27.098  29.485  1.00  0.00     0.010 A 
ATOM     43  C   UNL A   1      39.841  28.104  28.699  1.00  0.00    -0.014 A 
BRANCH  43  44
ATOM     44  C   UNL A   1      40.048  29.378  29.374  1.00  0.00     0.031 A 
ATOM     45  C   UNL A   1      39.037  30.448  29.232  1.00  0.00     0.074 A 
ATOM     46  C   UNL A   1      41.099  29.521  30.211  1.00  0.00     0.049 A 
ATOM     47  N   UNL A   1      39.203  31.663  29.626  1.00  0.00    -0.248 NA
ATOM     48  C   UNL A   1      37.764  30.239  28.544  1.00  0.00     0.031 C 
ATOM     49  C   UNL A   1      41.287  30.541  31.237  1.00  0.00     0.029 A 
ATOM     50  N   UNL A   1      42.335  28.873  30.137  1.00  0.00    -0.354 N 
ATOM     51  C   UNL A   1      37.992  32.307  29.519  1.00  0.00     0.074 A 
ATOM     52  C   UNL A   1      37.180  31.427  28.720  1.00  0.00     0.031 C 
ATOM     53  C   UNL A   1      42.594  30.631  31.529  1.00  0.00     0.029 A 
ATOM     54  C   UNL A   1      43.305  29.792  30.581  1.00  0.00     0.049 A 
ATOM     55  H   UNL A   1      42.496  27.951  29.832  1.00  0.00     0.167 HD
ATOM     56  C   UNL A   1      37.793  33.441  30.249  1.00  0.00     0.037 A 
ATOM     57  C   UNL A   1      44.270  30.248  29.726  1.00  0.00     0.037 A 
ATOM     58  C   UNL A   1      39.084  33.983  30.690  1.00  0.00     0.049 A 
ATOM     59  C   UNL A   1      44.190  31.735  29.450  1.00  0.00     0.074 A 
ATOM     60  C   UNL A   1      39.753  33.993  31.901  1.00  0.00     0.029 A 
ATOM     61  N   UNL A   1      40.017  34.365  29.724  1.00  0.00    -0.354 N 
ATOM     62  N   UNL A   1      43.153  32.479  29.730  1.00  0.00    -0.248 NA
ATOM     63  C   UNL A   1      45.271  32.503  28.837  1.00  0.00     0.031 C 
ATOM     64  C   UNL A   1      41.129  34.243  31.633  1.00  0.00     0.029 A 
ATOM     65  C   UNL A   1      41.284  34.442  30.270  1.00  0.00     0.049 A 
ATOM     66  H   UNL A   1      39.801  34.555  28.783  1.00  0.00     0.167 HD
ATOM     67  C   UNL A   1      43.381  33.766  29.320  1.00  0.00     0.074 A 
ATOM     68  C   UNL A   1      44.735  33.736  28.797  1.00  0.00     0.031 C 
ATOM     69  C   UNL A   1      42.438  34.751  29.430  1.00  0.00     0.037 A 
BRANCH  56  70
ATOM     70  C   UNL A   1      36.440  33.929  30.757  1.00  0.00     0.058 A 
ATOM     71  C   UNL A   1      35.451  34.368  29.844  1.00  0.00     0.135 A 
ATOM     72  C   UNL A   1      36.093  34.136  32.114  1.00  0.00     0.135 A 
ATOM     73  F   UNL A   1      35.626  34.244  28.520  1.00  0.00    -0.206 F 
ATOM     74  C   UNL A   1      34.257  34.990  30.240  1.00  0.00     0.059 A 
ATOM     75  C   UNL A   1      34.895  34.721  32.533  1.00  0.00     0.059 A 
ATOM     76  F   UNL A   1      36.911  33.839  33.124  1.00  0.00    -0.206 F 
ATOM     77  C   UNL A   1      33.991  35.171  31.591  1.00  0.00     0.060 A 
BRANCH  77  78
ATOM     78  S   UNL A   1      32.488  36.019  32.111  1.00  0.00     0.124 S 
ATOM     79  O   UNL A   1      32.024  36.607  30.860  1.00  0.00    -0.237 OA
ATOM     80  O   UNL A   1      31.681  34.925  32.641  1.00  0.00    -0.237 OA
ATOM     81  O   UNL A   1      32.963  36.976  33.107  1.00  0.00    -0.744 OA
ENDBRANCH  77  78
ENDBRANCH  56  70
BRANCH  57  82
ATOM     82  C   UNL A   1      44.746  29.196  28.782  1.00  0.00     0.058 A 
ATOM     83  C   UNL A   1      44.311  29.289  27.443  1.00  0.00     0.135 A 
ATOM     84  C   UNL A   1      45.908  28.452  29.033  1.00  0.00     0.135 A 
ATOM     85  F   UNL A   1      43.195  29.975  27.149  1.00  0.00    -0.206 F 
ATOM     86  C   UNL A   1      45.089  28.829  26.385  1.00  0.00     0.059 A 
ATOM     87  C   UNL A   1      46.698  27.971  27.984  1.00  0.00     0.059 A 
ATOM     88  F   UNL A   1      46.368  28.319  30.285  1.00  0.00    -0.206 F 
ATOM     89  C   UNL A   1      46.317  28.237  26.667  1.00  0.00     0.060 A 
BRANCH  89  90
ATOM     90  S   UNL A   1      47.474  28.006  25.292  1.00  0.00     0.124 S 
ATOM     91  O   UNL A   1      47.635  26.557  25.269  1.00  0.00    -0.237 OA
ATOM     92  O   UNL A   1      46.724  28.574  24.171  1.00  0.00    -0.237 OA
ATOM     93  O   UNL A   1      48.645  28.765  25.710  1.00  0.00    -0.744 OA
ENDBRANCH  89  90
ENDBRANCH  57  82
BRANCH  69  94
ATOM     94  C   UNL A   1      42.549  36.128  28.815  1.00  0.00     0.058 A 
ATOM     95  C   UNL A   1      43.266  37.192  29.392  1.00  0.00     0.135 A 
ATOM     96  C   UNL A   1      42.028  36.375  27.522  1.00  0.00     0.135 A 
ATOM     97  F   UNL A   1      43.909  37.047  30.560  1.00  0.00    -0.206 F 
ATOM     98  C   UNL A   1      43.391  38.436  28.771  1.00  0.00     0.059 A 
ATOM     99  C   UNL A   1      42.190  37.590  26.860  1.00  0.00     0.059 A 
ATOM    100  F   UNL A   1      41.349  35.431  26.853  1.00  0.00    -0.206 F 
ATOM    101  C   UNL A   1      42.846  38.628  27.505  1.00  0.00     0.060 A 
BRANCH 101 102
ATOM    102  S   UNL A   1      43.041  40.214  26.669  1.00  0.00     0.124 S 
ATOM    103  O   UNL A   1      41.760  40.339  25.982  1.00  0.00    -0.237 OA
ATOM    104  O   UNL A   1      43.257  41.143  27.775  1.00  0.00    -0.237 OA
ATOM    105  O   UNL A   1      44.202  39.994  25.812  1.00  0.00    -0.744 OA
ENDBRANCH 101 102
ENDBRANCH  69  94
ENDBRANCH  43  44
ENDBRANCH  35  38
ENDBRANCH  33  34
ENDBRANCH  32  33
ENDBRANCH  31  32
ENDBRANCH   1  31
TORSDOF 19
ENDMDL
MODEL 3
REMARK VINA RESULT:     -11.1      5.035     11.507
REMARK SMILES Cc1cccc(NC(=O)COc2ccc(N3C[C@@H](C(=O)NCCCCNC(=O)c4ccc(-c5c6nc(c(-c7c(F)cc(S(=O)(=O)[O-])cc7F)c7ccc([nH]7)c(-c7c(F)cc(S(=O)(=O)[O-])cc7F)c7nc(c(-c8c(F)cc(S(=O)(=O)[O-])cc8F)c8ccc5[nH]8)C=C7)C=C6)cc4)CC3=O)cc2)c1
REMARK SMILES IDX 22 1 21 2 19 3 20 4 18 6 16 7 17 8 96 9 95 10 97 11 15 12
REMARK SMILES IDX 12 13 13 14 99 15 14 16 98 17 11 18 10 19 8 20 7 21 9 23
REMARK SMILES IDX 6 24 1 25 2 26 3 27 100 28 4 29 5 30 23 31 24 32 25 33 26 34
REMARK SMILES IDX 27 35 28 37 29 38 30 39 94 40 31 41 93 42 32 43 33 44 34 45
REMARK SMILES IDX 87 46 35 47 92 48 86 49 88 50 36 51 91 52 85 53 84 54 37 56
REMARK SMILES IDX 71 57 50 58 70 59 51 60 54 61 69 62 89 63 52 64 53 65 68 67
REMARK SMILES IDX 90 68 55 69 38 70 39 71 48 72 40 73 41 74 47 75 49 76 42 77
REMARK SMILES IDX 43 78 44 79 45 80 46 81 72 82 73 83 82 84 74 85 75 86 81 87
REMARK SMILES IDX 83 88 76 89 77 90 78 91 79 92 80 93 56 94 57 95 66 96 58 97
REMARK SMILES IDX 59 98 65 99 67 100 60 101 61 102 62 103 63 104 64 105
REMARK H PARENT 21 5 7 22 26 36 88 55 54 66
REMARK Flexibility Score: inf
ROOT
ATOM      1  C   UNL A   1      44.501  24.275  31.665  1.00  0.00     0.116 C 
ENDROOT
BRANCH   1   2
ATOM      2  N   UNL A   1      45.152  25.522  32.049  1.00  0.00    -0.356 N 
ATOM      3  C   UNL A   1      44.793  26.547  32.860  1.00  0.00     0.225 C 
ATOM      4  O   UNL A   1      45.605  27.468  32.998  1.00  0.00    -0.275 OA
ATOM      5  H   UNL A   1      46.036  25.645  31.634  1.00  0.00     0.163 HD
BRANCH   3   6
ATOM      6  C   UNL A   1      43.481  26.609  33.612  1.00  0.00     0.107 C 
ATOM      7  N   UNL A   1      42.349  28.325  34.772  1.00  0.00    -0.312 N 
ATOM      8  C   UNL A   1      42.764  27.934  33.446  1.00  0.00     0.139 C 
ATOM      9  C   UNL A   1      42.824  27.464  35.759  1.00  0.00     0.227 C 
ATOM     10  C   UNL A   1      43.567  26.333  35.100  1.00  0.00     0.116 C 
ATOM     11  O   UNL A   1      42.650  27.519  36.967  1.00  0.00    -0.274 OA
BRANCH   7  12
ATOM     12  C   UNL A   1      41.610  29.509  35.007  1.00  0.00     0.044 A 
ATOM     13  C   UNL A   1      40.151  31.878  35.463  1.00  0.00     0.120 A 
ATOM     14  C   UNL A   1      39.588  30.833  34.734  1.00  0.00     0.048 A 
ATOM     15  C   UNL A   1      41.433  31.735  35.984  1.00  0.00     0.048 A 
ATOM     16  C   UNL A   1      40.324  29.670  34.479  1.00  0.00     0.030 A 
ATOM     17  C   UNL A   1      42.149  30.551  35.769  1.00  0.00     0.030 A 
BRANCH  13  18
ATOM     18  O   UNL A   1      39.342  32.951  35.690  1.00  0.00    -0.484 OA
BRANCH  18  19
ATOM     19  C   UNL A   1      39.930  34.035  36.391  1.00  0.00     0.329 C 
BRANCH  19  20
ATOM     20  C   UNL A   1      40.310  35.306  35.633  1.00  0.00     0.262 C 
ATOM     21  N   UNL A   1      41.550  35.545  35.125  1.00  0.00    -0.323 N 
ATOM     22  H   UNL A   1      41.580  36.355  34.565  1.00  0.00     0.170 HD
ATOM     23  O   UNL A   1      39.460  36.189  35.448  1.00  0.00    -0.271 OA
BRANCH  21  24
ATOM     24  C   UNL A   1      42.794  34.904  35.213  1.00  0.00     0.041 A 
ATOM     25  C   UNL A   1      45.210  34.188  38.089  1.00  0.00     0.044 C 
ATOM     26  C   UNL A   1      44.607  34.232  36.717  1.00  0.00    -0.049 A 
ATOM     27  C   UNL A   1      45.276  33.651  35.638  1.00  0.00     0.003 A 
ATOM     28  C   UNL A   1      43.369  34.852  36.493  1.00  0.00     0.029 A 
ATOM     29  C   UNL A   1      44.705  33.677  34.368  1.00  0.00     0.002 A 
ATOM     30  C   UNL A   1      43.465  34.290  34.159  1.00  0.00     0.026 A 
ENDBRANCH  21  24
ENDBRANCH  19  20
ENDBRANCH  18  19
ENDBRANCH  13  18
ENDBRANCH   7  12
ENDBRANCH   3   6
ENDBRANCH   1   2
BRANCH   1  31
ATOM     31  C   UNL A   1      44.418  24.070  30.143  1.00  0.00     0.023 C 
BRANCH  31  32
ATOM     32  C   UNL A   1      43.074  23.568  29.607  1.00  0.00     0.023 C 
BRANCH  32  33
ATOM     33  C   UNL A   1      42.424  24.498  28.590  1.00  0.00     0.116 C 
BRANCH  33  34
ATOM     34  N   UNL A   1      41.570  23.813  27.632  1.00  0.00    -0.352 N 
ATOM     35  C   UNL A   1      40.221  24.037  27.419  1.00  0.00     0.251 C 
ATOM     36  H   UNL A   1      41.996  23.120  27.077  1.00  0.00     0.163 HD
ATOM     37  O   UNL A   1      39.479  23.212  26.899  1.00  0.00    -0.269 OA
BRANCH  35  38
ATOM     38  C   UNL A   1      39.737  25.403  27.696  1.00  0.00     0.039 A 
ATOM     39  C   UNL A   1      40.176  26.416  26.833  1.00  0.00     0.014 A 
ATOM     40  C   UNL A   1      39.152  25.701  28.924  1.00  0.00     0.014 A 
ATOM     41  C   UNL A   1      40.204  27.731  27.284  1.00  0.00     0.010 A 
ATOM     42  C   UNL A   1      39.256  26.992  29.399  1.00  0.00     0.010 A 
ATOM     43  C   UNL A   1      39.832  27.991  28.600  1.00  0.00    -0.014 A 
BRANCH  43  44
ATOM     44  C   UNL A   1      40.068  29.263  29.269  1.00  0.00     0.031 A 
ATOM     45  C   UNL A   1      39.066  30.343  29.149  1.00  0.00     0.074 A 
ATOM     46  C   UNL A   1      41.139  29.396  30.081  1.00  0.00     0.049 A 
ATOM     47  N   UNL A   1      39.253  31.558  29.537  1.00  0.00    -0.248 NA
ATOM     48  C   UNL A   1      37.775  30.148  28.490  1.00  0.00     0.031 C 
ATOM     49  C   UNL A   1      41.362  30.414  31.101  1.00  0.00     0.029 A 
ATOM     50  N   UNL A   1      42.366  28.734  29.979  1.00  0.00    -0.354 N 
ATOM     51  C   UNL A   1      38.048  32.214  29.457  1.00  0.00     0.074 A 
ATOM     52  C   UNL A   1      37.208  31.342  28.677  1.00  0.00     0.031 C 
ATOM     53  C   UNL A   1      42.676  30.490  31.363  1.00  0.00     0.029 A 
ATOM     54  C   UNL A   1      43.357  29.643  30.400  1.00  0.00     0.049 A 
ATOM     55  H   UNL A   1      42.510  27.810  29.672  1.00  0.00     0.167 HD
ATOM     56  C   UNL A   1      37.878  33.351  30.190  1.00  0.00     0.037 A 
ATOM     57  C   UNL A   1      44.306  30.088  29.523  1.00  0.00     0.037 A 
ATOM     58  C   UNL A   1      39.184  33.879  30.601  1.00  0.00     0.049 A 
ATOM     59  C   UNL A   1      44.236  31.575  29.247  1.00  0.00     0.074 A 
ATOM     60  C   UNL A   1      39.881  33.883  31.796  1.00  0.00     0.029 A 
ATOM     61  N   UNL A   1      40.098  34.251  29.614  1.00  0.00    -0.354 N 
ATOM     62  N   UNL A   1      43.214  32.330  29.550  1.00  0.00    -0.248 NA
ATOM     63  C   UNL A   1      45.311  32.331  28.609  1.00  0.00     0.031 C 
ATOM     64  C   UNL A   1      41.253  34.118  31.497  1.00  0.00     0.029 A 
ATOM     65  C   UNL A   1      41.379  34.314  30.131  1.00  0.00     0.049 A 
ATOM     66  H   UNL A   1      39.863  34.442  28.677  1.00  0.00     0.167 HD
ATOM     67  C   UNL A   1      43.446  33.615  29.133  1.00  0.00     0.074 A 
ATOM     68  C   UNL A   1      44.788  33.570  28.579  1.00  0.00     0.031 C 
ATOM     69  C   UNL A   1      42.516  34.610  29.264  1.00  0.00     0.037 A 
BRANCH  56  70
ATOM     70  C   UNL A   1      36.542  33.854  30.728  1.00  0.00     0.058 A 
ATOM     71  C   UNL A   1      35.554  34.343  29.841  1.00  0.00     0.135 A 
ATOM     72  C   UNL A   1      36.214  34.027  32.095  1.00  0.00     0.135 A 
ATOM     73  F   UNL A   1      35.712  34.256  28.512  1.00  0.00    -0.206 F 
ATOM     74  C   UNL A   1      34.378  34.980  30.269  1.00  0.00     0.059 A 
ATOM     75  C   UNL A   1      35.035  34.626  32.545  1.00  0.00     0.059 A 
ATOM     76  F   UNL A   1      37.036  33.680  33.086  1.00  0.00    -0.206 F 
ATOM     77  C   UNL A   1      34.131  35.126  31.627  1.00  0.00     0.060 A 
BRANCH  77  78
ATOM     78  S   UNL A   1      32.654  35.991  32.191  1.00  0.00     0.124 S 
ATOM     79  O   UNL A   1      31.817  34.889  32.653  1.00  0.00    -0.237 OA
ATOM     80  O   UNL A   1      33.184  36.870  33.228  1.00  0.00    -0.237 OA
ATOM     81  O   UNL A   1      32.177  36.670  30.989  1.00  0.00    -0.744 OA
ENDBRANCH  77  78
ENDBRANCH  56  70
BRANCH  57  82
ATOM     82  C   UNL A   1      44.749  29.030  28.570  1.00  0.00     0.058 A 
ATOM     83  C   UNL A   1      44.171  29.040  27.284  1.00  0.00     0.135 A 
ATOM     84  C   UNL A   1      45.978  28.371  28.719  1.00  0.00     0.135 A 
ATOM     85  F   UNL A   1      42.986  29.643  27.088  1.00  0.00    -0.206 F 
ATOM     86  C   UNL A   1      44.861  28.587  26.164  1.00  0.00     0.059 A 
ATOM     87  C   UNL A   1      46.683  27.898  27.608  1.00  0.00     0.059 A 
ATOM     88  F   UNL A   1      46.575  28.318  29.918  1.00  0.00    -0.206 F 
ATOM     89  C   UNL A   1      46.149  28.085  26.331  1.00  0.00     0.060 A 
BRANCH  89  90
ATOM     90  S   UNL A   1      47.167  27.871  24.849  1.00  0.00     0.124 S 
ATOM     91  O   UNL A   1      46.595  28.857  23.940  1.00  0.00    -0.237 OA
ATOM     92  O   UNL A   1      48.504  28.181  25.356  1.00  0.00    -0.237 OA
ATOM     93  O   UNL A   1      46.943  26.476  24.489  1.00  0.00    -0.744 OA
ENDBRANCH  89  90
ENDBRANCH  57  82
BRANCH  69  94
ATOM     94  C   UNL A   1      42.629  35.985  28.645  1.00  0.00     0.058 A 
ATOM     95  C   UNL A   1      42.177  36.306  27.353  1.00  0.00     0.135 A 
ATOM     96  C   UNL A   1      43.090  37.078  29.418  1.00  0.00     0.135 A 
ATOM     97  F   UNL A   1      41.606  35.383  26.565  1.00  0.00    -0.206 F 
ATOM     98  C   UNL A   1      42.251  37.600  26.833  1.00  0.00     0.059 A 
ATOM     99  C   UNL A   1      43.119  38.386  28.939  1.00  0.00     0.059 A 
ATOM    100  F   UNL A   1      43.522  36.908  30.677  1.00  0.00    -0.206 F 
ATOM    101  C   UNL A   1      42.726  38.634  27.632  1.00  0.00     0.060 A 
BRANCH 101 102
ATOM    102  S   UNL A   1      42.781  40.319  26.991  1.00  0.00     0.124 S 
ATOM    103  O   UNL A   1      41.413  40.494  26.518  1.00  0.00    -0.237 OA
ATOM    104  O   UNL A   1      43.147  41.105  28.166  1.00  0.00    -0.237 OA
ATOM    105  O   UNL A   1      43.806  40.244  25.955  1.00  0.00    -0.744 OA
ENDBRANCH 101 102
ENDBRANCH  69  94
ENDBRANCH  43  44
ENDBRANCH  35  38
ENDBRANCH  33  34
ENDBRANCH  32  33
ENDBRANCH  31  32
ENDBRANCH   1  31
TORSDOF 19
ENDMDL
