MODEL 1
REMARK VINA RESULT:     -11.2      0.000      0.000
REMARK SMILES COc1ccc(OC)c(-c2cc(C(=O)NCCCCNC(=O)c3ccc(-c4c5nc(c(-c6c(F)cc(S(=O)(=O)[O-])cc6F)c6ccc([nH]6)c(-c6c(F)cc(S(=O)(=O)[O-])cc6F)c6nc(c(-c7c(F)cc(S(=O)(=O)[O-])cc7F)c7ccc4[nH]7)C=C6)C=C5)cc3)ccn2)c1
REMARK SMILES IDX 18 1 17 2 16 3 15 4 13 5 14 6 12 8 10 9 11 10 91 11 90 12
REMARK SMILES IDX 89 13 9 14 3 15 4 16 92 17 5 18 6 19 2 20 1 21 7 22 8 23
REMARK SMILES IDX 19 24 20 25 21 26 22 28 23 29 24 30 88 31 25 32 87 33 26 34
REMARK SMILES IDX 27 35 28 36 81 37 29 38 86 39 80 40 82 41 30 42 85 43 79 44
REMARK SMILES IDX 78 45 31 47 65 48 44 49 64 50 45 51 48 52 63 53 83 54 46 55
REMARK SMILES IDX 47 56 62 58 84 59 49 60 32 61 33 62 42 63 34 64 35 65 41 66
REMARK SMILES IDX 43 67 36 68 37 69 38 70 39 71 40 72 66 73 67 74 76 75 68 76
REMARK SMILES IDX 69 77 75 78 77 79 70 80 71 81 72 82 73 83 74 84 50 85 51 86
REMARK SMILES IDX 60 87 52 88 53 89 59 90 61 91 54 92 55 93 56 94 57 95 58 96
REMARK H PARENT 15 7 20 27 82 46 48 57
REMARK Flexibility Score: inf
ROOT
ATOM      1  C   UNL A   1      33.742  28.169  25.681  1.00  0.00     0.023 C 
ENDROOT
BRANCH   1   2
ATOM      2  C   UNL A   1      33.156  29.333  24.875  1.00  0.00     0.023 C 
BRANCH   2   3
ATOM      3  C   UNL A   1      32.314  28.899  23.672  1.00  0.00     0.116 C 
BRANCH   3   4
ATOM      4  N   UNL A   1      31.208  28.058  24.096  1.00  0.00    -0.352 N 
ATOM      5  C   UNL A   1      30.981  26.710  23.979  1.00  0.00     0.251 C 
ATOM      6  O   UNL A   1      29.962  26.241  24.482  1.00  0.00    -0.269 OA
ATOM      7  H   UNL A   1      30.485  28.547  24.552  1.00  0.00     0.163 HD
BRANCH   5   8
ATOM      8  C   UNL A   1      31.941  25.782  23.326  1.00  0.00     0.043 A 
ATOM      9  C   UNL A   1      33.495  23.957  23.293  1.00  0.00     0.075 A 
ATOM     10  C   UNL A   1      32.718  24.859  24.013  1.00  0.00     0.043 A 
ATOM     11  N   UNL A   1      33.589  23.993  21.943  1.00  0.00    -0.256 NA
ATOM     12  C   UNL A   1      32.903  24.963  21.301  1.00  0.00     0.112 A 
ATOM     13  C   UNL A   1      32.067  25.861  21.938  1.00  0.00     0.034 A 
BRANCH   9  14
ATOM     14  C   UNL A   1      34.144  22.835  23.977  1.00  0.00     0.046 A 
ATOM     15  C   UNL A   1      36.319  21.810  24.513  1.00  0.00     0.119 A 
ATOM     16  C   UNL A   1      35.657  20.684  24.984  1.00  0.00     0.050 A 
ATOM     17  C   UNL A   1      35.564  22.878  24.031  1.00  0.00     0.060 A 
ATOM     18  C   UNL A   1      34.262  20.630  24.967  1.00  0.00     0.051 A 
ATOM     19  C   UNL A   1      33.491  21.691  24.467  1.00  0.00     0.128 A 
BRANCH  15  20
ATOM     20  O   UNL A   1      37.683  21.732  24.547  1.00  0.00    -0.497 OA
ATOM     21  C   UNL A   1      38.337  22.220  25.712  1.00  0.00     0.278 C 
ENDBRANCH  15  20
BRANCH  19  22
ATOM     22  O   UNL A   1      32.155  21.388  24.476  1.00  0.00    -0.496 OA
ATOM     23  C   UNL A   1      31.335  21.882  25.523  1.00  0.00     0.278 C 
ENDBRANCH  19  22
ENDBRANCH   9  14
ENDBRANCH   5   8
ENDBRANCH   3   4
ENDBRANCH   2   3
ENDBRANCH   1   2
BRANCH   1  24
ATOM     24  C   UNL A   1      33.690  28.348  27.195  1.00  0.00     0.116 C 
BRANCH  24  25
ATOM     25  N   UNL A   1      33.560  29.738  27.606  1.00  0.00    -0.352 N 
ATOM     26  C   UNL A   1      34.507  30.547  28.191  1.00  0.00     0.251 C 
ATOM     27  H   UNL A   1      32.682  30.152  27.444  1.00  0.00     0.163 HD
ATOM     28  O   UNL A   1      34.209  31.670  28.570  1.00  0.00    -0.269 OA
BRANCH  26  29
ATOM     29  C   UNL A   1      35.874  30.020  28.395  1.00  0.00     0.039 A 
ATOM     30  C   UNL A   1      36.775  30.068  27.329  1.00  0.00     0.014 A 
ATOM     31  C   UNL A   1      36.270  29.520  29.638  1.00  0.00     0.014 A 
ATOM     32  C   UNL A   1      38.100  29.676  27.531  1.00  0.00     0.010 A 
ATOM     33  C   UNL A   1      37.604  29.187  29.853  1.00  0.00     0.010 A 
ATOM     34  C   UNL A   1      38.533  29.267  28.803  1.00  0.00    -0.014 A 
BRANCH  34  35
ATOM     35  C   UNL A   1      39.955  28.930  29.059  1.00  0.00     0.031 A 
ATOM     36  C   UNL A   1      40.885  29.968  29.623  1.00  0.00     0.074 A 
ATOM     37  C   UNL A   1      40.422  27.713  28.718  1.00  0.00     0.049 A 
ATOM     38  N   UNL A   1      42.172  29.891  29.840  1.00  0.00    -0.248 NA
ATOM     39  C   UNL A   1      40.295  31.273  29.963  1.00  0.00     0.031 C 
ATOM     40  C   UNL A   1      39.628  26.640  28.114  1.00  0.00     0.029 A 
ATOM     41  N   UNL A   1      41.681  27.175  28.817  1.00  0.00    -0.354 N 
ATOM     42  C   UNL A   1      42.549  31.137  30.328  1.00  0.00     0.074 A 
ATOM     43  C   UNL A   1      41.364  31.967  30.330  1.00  0.00     0.031 C 
ATOM     44  C   UNL A   1      40.415  25.570  27.911  1.00  0.00     0.029 A 
ATOM     45  C   UNL A   1      41.772  25.889  28.340  1.00  0.00     0.049 A 
ATOM     46  H   UNL A   1      42.446  27.665  29.195  1.00  0.00     0.167 HD
ATOM     47  C   UNL A   1      43.767  31.544  30.757  1.00  0.00     0.037 A 
ATOM     48  C   UNL A   1      42.833  25.063  28.253  1.00  0.00     0.037 A 
ATOM     49  C   UNL A   1      44.936  30.704  30.782  1.00  0.00     0.049 A 
ATOM     50  C   UNL A   1      44.172  25.534  28.751  1.00  0.00     0.074 A 
ATOM     51  C   UNL A   1      46.203  31.007  31.250  1.00  0.00     0.029 A 
ATOM     52  N   UNL A   1      44.980  29.396  30.326  1.00  0.00    -0.354 N 
ATOM     53  N   UNL A   1      44.497  26.698  29.262  1.00  0.00    -0.248 NA
ATOM     54  C   UNL A   1      45.287  24.580  28.668  1.00  0.00     0.031 C 
ATOM     55  C   UNL A   1      47.022  29.890  31.047  1.00  0.00     0.029 A 
ATOM     56  C   UNL A   1      46.255  28.881  30.489  1.00  0.00     0.049 A 
ATOM     57  H   UNL A   1      44.218  28.905  29.941  1.00  0.00     0.167 HD
ATOM     58  C   UNL A   1      45.846  26.607  29.585  1.00  0.00     0.074 A 
ATOM     59  C   UNL A   1      46.273  25.271  29.222  1.00  0.00     0.031 C 
ATOM     60  C   UNL A   1      46.659  27.544  30.131  1.00  0.00     0.037 A 
BRANCH  47  61
ATOM     61  C   UNL A   1      43.895  32.958  31.250  1.00  0.00     0.058 A 
ATOM     62  C   UNL A   1      44.088  34.030  30.363  1.00  0.00     0.135 A 
ATOM     63  C   UNL A   1      43.783  33.253  32.618  1.00  0.00     0.135 A 
ATOM     64  F   UNL A   1      44.218  33.801  29.046  1.00  0.00    -0.206 F 
ATOM     65  C   UNL A   1      44.191  35.340  30.816  1.00  0.00     0.059 A 
ATOM     66  C   UNL A   1      43.859  34.560  33.092  1.00  0.00     0.059 A 
ATOM     67  F   UNL A   1      43.600  32.266  33.509  1.00  0.00    -0.206 F 
ATOM     68  C   UNL A   1      44.076  35.596  32.183  1.00  0.00     0.060 A 
BRANCH  68  69
ATOM     69  S   UNL A   1      44.201  37.303  32.756  1.00  0.00     0.124 S 
ATOM     70  O   UNL A   1      45.479  37.279  33.461  1.00  0.00    -0.237 OA
ATOM     71  O   UNL A   1      44.182  38.054  31.505  1.00  0.00    -0.237 OA
ATOM     72  O   UNL A   1      43.021  37.466  33.599  1.00  0.00    -0.744 OA
ENDBRANCH  68  69
ENDBRANCH  47  61
BRANCH  48  73
ATOM     73  C   UNL A   1      42.669  23.697  27.689  1.00  0.00     0.058 A 
ATOM     74  C   UNL A   1      42.403  22.601  28.522  1.00  0.00     0.135 A 
ATOM     75  C   UNL A   1      42.775  23.460  26.310  1.00  0.00     0.135 A 
ATOM     76  F   UNL A   1      42.298  22.777  29.848  1.00  0.00    -0.206 F 
ATOM     77  C   UNL A   1      42.268  21.313  28.013  1.00  0.00     0.059 A 
ATOM     78  C   UNL A   1      42.622  22.186  25.774  1.00  0.00     0.059 A 
ATOM     79  F   UNL A   1      43.011  24.478  25.468  1.00  0.00    -0.206 F 
ATOM     80  C   UNL A   1      42.381  21.116  26.636  1.00  0.00     0.060 A 
BRANCH  80  81
ATOM     81  S   UNL A   1      42.169  19.447  25.979  1.00  0.00     0.124 S 
ATOM     82  O   UNL A   1      40.719  19.368  25.844  1.00  0.00    -0.237 OA
ATOM     83  O   UNL A   1      42.924  19.508  24.732  1.00  0.00    -0.237 OA
ATOM     84  O   UNL A   1      42.754  18.603  27.017  1.00  0.00    -0.744 OA
ENDBRANCH  80  81
ENDBRANCH  48  73
BRANCH  60  85
ATOM     85  C   UNL A   1      48.083  27.150  30.402  1.00  0.00     0.058 A 
ATOM     86  C   UNL A   1      49.107  27.416  29.480  1.00  0.00     0.135 A 
ATOM     87  C   UNL A   1      48.434  26.546  31.620  1.00  0.00     0.135 A 
ATOM     88  F   UNL A   1      48.821  27.986  28.299  1.00  0.00    -0.206 F 
ATOM     89  C   UNL A   1      50.429  27.080  29.749  1.00  0.00     0.059 A 
ATOM     90  C   UNL A   1      49.753  26.222  31.919  1.00  0.00     0.059 A 
ATOM     91  F   UNL A   1      47.492  26.279  32.539  1.00  0.00    -0.206 F 
ATOM     92  C   UNL A   1      50.743  26.483  30.972  1.00  0.00     0.060 A 
BRANCH  92  93
ATOM     93  S   UNL A   1      52.468  26.084  31.325  1.00  0.00     0.124 S 
ATOM     94  O   UNL A   1      53.057  26.127  29.991  1.00  0.00    -0.237 OA
ATOM     95  O   UNL A   1      52.861  27.163  32.227  1.00  0.00    -0.237 OA
ATOM     96  O   UNL A   1      52.391  24.761  31.936  1.00  0.00    -0.744 OA
ENDBRANCH  92  93
ENDBRANCH  60  85
ENDBRANCH  34  35
ENDBRANCH  26  29
ENDBRANCH  24  25
ENDBRANCH   1  24
TORSDOF 17
ENDMDL
MODEL 2
REMARK VINA RESULT:     -11.1      2.717      3.389
REMARK SMILES COc1ccc(OC)c(-c2cc(C(=O)NCCCCNC(=O)c3ccc(-c4c5nc(c(-c6c(F)cc(S(=O)(=O)[O-])cc6F)c6ccc([nH]6)c(-c6c(F)cc(S(=O)(=O)[O-])cc6F)c6nc(c(-c7c(F)cc(S(=O)(=O)[O-])cc7F)c7ccc4[nH]7)C=C6)C=C5)cc3)ccn2)c1
REMARK SMILES IDX 18 1 17 2 16 3 15 4 13 5 14 6 12 8 10 9 11 10 91 11 90 12
REMARK SMILES IDX 89 13 9 14 3 15 4 16 92 17 5 18 6 19 2 20 1 21 7 22 8 23
REMARK SMILES IDX 19 24 20 25 21 26 22 28 23 29 24 30 88 31 25 32 87 33 26 34
REMARK SMILES IDX 27 35 28 36 81 37 29 38 86 39 80 40 82 41 30 42 85 43 79 44
REMARK SMILES IDX 78 45 31 47 65 48 44 49 64 50 45 51 48 52 63 53 83 54 46 55
REMARK SMILES IDX 47 56 62 58 84 59 49 60 32 61 33 62 42 63 34 64 35 65 41 66
REMARK SMILES IDX 43 67 36 68 37 69 38 70 39 71 40 72 66 73 67 74 76 75 68 76
REMARK SMILES IDX 69 77 75 78 77 79 70 80 71 81 72 82 73 83 74 84 50 85 51 86
REMARK SMILES IDX 60 87 52 88 53 89 59 90 61 91 54 92 55 93 56 94 57 95 58 96
REMARK H PARENT 15 7 20 27 82 46 48 57
REMARK Flexibility Score: inf
ROOT
ATOM      1  C   UNL A   1      34.343  29.522  27.264  1.00  0.00     0.023 C 
ENDROOT
BRANCH   1   2
ATOM      2  C   UNL A   1      33.051  30.262  26.905  1.00  0.00     0.023 C 
BRANCH   2   3
ATOM      3  C   UNL A   1      32.337  29.710  25.668  1.00  0.00     0.116 C 
BRANCH   3   4
ATOM      4  N   UNL A   1      33.249  29.632  24.541  1.00  0.00    -0.352 N 
ATOM      5  C   UNL A   1      33.598  28.597  23.711  1.00  0.00     0.251 C 
ATOM      6  O   UNL A   1      34.373  28.824  22.783  1.00  0.00    -0.269 OA
ATOM      7  H   UNL A   1      33.703  30.481  24.334  1.00  0.00     0.163 HD
BRANCH   5   8
ATOM      8  C   UNL A   1      33.032  27.229  23.841  1.00  0.00     0.043 A 
ATOM      9  C   UNL A   1      32.931  25.013  24.751  1.00  0.00     0.075 A 
ATOM     10  C   UNL A   1      33.608  26.219  24.602  1.00  0.00     0.043 A 
ATOM     11  N   UNL A   1      31.765  24.749  24.116  1.00  0.00    -0.256 NA
ATOM     12  C   UNL A   1      31.273  25.708  23.302  1.00  0.00     0.112 A 
ATOM     13  C   UNL A   1      31.855  26.952  23.143  1.00  0.00     0.034 A 
BRANCH   9  14
ATOM     14  C   UNL A   1      33.401  24.022  25.723  1.00  0.00     0.046 A 
ATOM     15  C   UNL A   1      35.169  22.373  26.199  1.00  0.00     0.119 A 
ATOM     16  C   UNL A   1      34.418  21.898  27.267  1.00  0.00     0.050 A 
ATOM     17  C   UNL A   1      34.667  23.435  25.448  1.00  0.00     0.060 A 
ATOM     18  C   UNL A   1      33.185  22.476  27.572  1.00  0.00     0.051 A 
ATOM     19  C   UNL A   1      32.660  23.534  26.813  1.00  0.00     0.128 A 
BRANCH  15  20
ATOM     20  O   UNL A   1      36.339  21.705  25.977  1.00  0.00    -0.497 OA
ATOM     21  C   UNL A   1      36.294  20.571  25.120  1.00  0.00     0.278 C 
ENDBRANCH  15  20
BRANCH  19  22
ATOM     22  O   UNL A   1      31.410  23.889  27.244  1.00  0.00    -0.496 OA
ATOM     23  C   UNL A   1      30.290  23.109  26.856  1.00  0.00     0.278 C 
ENDBRANCH  19  22
ENDBRANCH   9  14
ENDBRANCH   5   8
ENDBRANCH   3   4
ENDBRANCH   2   3
ENDBRANCH   1   2
BRANCH   1  24
ATOM     24  C   UNL A   1      35.482  30.418  27.741  1.00  0.00     0.116 C 
BRANCH  24  25
ATOM     25  N   UNL A   1      35.404  30.743  29.156  1.00  0.00    -0.352 N 
ATOM     26  C   UNL A   1      36.347  30.524  30.135  1.00  0.00     0.251 C 
ATOM     27  H   UNL A   1      34.571  31.176  29.451  1.00  0.00     0.163 HD
ATOM     28  O   UNL A   1      36.089  30.766  31.305  1.00  0.00    -0.269 OA
BRANCH  26  29
ATOM     29  C   UNL A   1      37.655  29.949  29.756  1.00  0.00     0.039 A 
ATOM     30  C   UNL A   1      38.019  29.946  28.407  1.00  0.00     0.014 A 
ATOM     31  C   UNL A   1      38.528  29.452  30.727  1.00  0.00     0.014 A 
ATOM     32  C   UNL A   1      39.292  29.507  28.039  1.00  0.00     0.010 A 
ATOM     33  C   UNL A   1      39.817  29.072  30.366  1.00  0.00     0.010 A 
ATOM     34  C   UNL A   1      40.213  29.101  29.019  1.00  0.00    -0.014 A 
BRANCH  34  35
ATOM     35  C   UNL A   1      41.599  28.714  28.657  1.00  0.00     0.031 A 
ATOM     36  C   UNL A   1      42.684  29.754  28.613  1.00  0.00     0.074 A 
ATOM     37  C   UNL A   1      41.863  27.441  28.300  1.00  0.00     0.049 A 
ATOM     38  N   UNL A   1      43.932  29.629  28.244  1.00  0.00    -0.248 NA
ATOM     39  C   UNL A   1      42.309  31.121  29.013  1.00  0.00     0.031 C 
ATOM     40  C   UNL A   1      40.881  26.354  28.253  1.00  0.00     0.029 A 
ATOM     41  N   UNL A   1      43.033  26.847  27.898  1.00  0.00    -0.354 N 
ATOM     42  C   UNL A   1      44.489  30.897  28.353  1.00  0.00     0.074 A 
ATOM     43  C   UNL A   1      43.430  31.789  28.777  1.00  0.00     0.031 C 
ATOM     44  C   UNL A   1      41.494  25.225  27.859  1.00  0.00     0.029 A 
ATOM     45  C   UNL A   1      42.900  25.512  27.597  1.00  0.00     0.049 A 
ATOM     46  H   UNL A   1      43.887  27.332  27.831  1.00  0.00     0.167 HD
ATOM     47  C   UNL A   1      45.770  31.280  28.141  1.00  0.00     0.037 A 
ATOM     48  C   UNL A   1      43.808  24.623  27.152  1.00  0.00     0.037 A 
ATOM     49  C   UNL A   1      46.826  30.383  27.751  1.00  0.00     0.049 A 
ATOM     50  C   UNL A   1      45.229  25.070  26.940  1.00  0.00     0.074 A 
ATOM     51  C   UNL A   1      48.168  30.664  27.565  1.00  0.00     0.029 A 
ATOM     52  N   UNL A   1      46.660  29.031  27.491  1.00  0.00    -0.354 N 
ATOM     53  N   UNL A   1      45.750  26.263  27.103  1.00  0.00    -0.248 NA
ATOM     54  C   UNL A   1      46.188  24.050  26.492  1.00  0.00     0.031 C 
ATOM     55  C   UNL A   1      48.809  29.486  27.162  1.00  0.00     0.029 A 
ATOM     56  C   UNL A   1      47.873  28.465  27.135  1.00  0.00     0.049 A 
ATOM     57  H   UNL A   1      45.806  28.545  27.550  1.00  0.00     0.167 HD
ATOM     58  C   UNL A   1      47.101  26.131  26.801  1.00  0.00     0.074 A 
ATOM     59  C   UNL A   1      47.319  24.741  26.459  1.00  0.00     0.031 C 
ATOM     60  C   UNL A   1      48.072  27.076  26.807  1.00  0.00     0.037 A 
BRANCH  47  61
ATOM     61  C   UNL A   1      46.106  32.731  28.344  1.00  0.00     0.058 A 
ATOM     62  C   UNL A   1      46.003  33.661  27.296  1.00  0.00     0.135 A 
ATOM     63  C   UNL A   1      46.497  33.207  29.605  1.00  0.00     0.135 A 
ATOM     64  F   UNL A   1      45.650  33.256  26.065  1.00  0.00    -0.206 F 
ATOM     65  C   UNL A   1      46.299  35.006  27.486  1.00  0.00     0.059 A 
ATOM     66  C   UNL A   1      46.774  34.554  29.824  1.00  0.00     0.059 A 
ATOM     67  F   UNL A   1      46.613  32.360  30.641  1.00  0.00    -0.206 F 
ATOM     68  C   UNL A   1      46.684  35.443  28.754  1.00  0.00     0.060 A 
BRANCH  68  69
ATOM     69  S   UNL A   1      47.055  37.194  28.987  1.00  0.00     0.124 S 
ATOM     70  O   UNL A   1      46.355  37.475  30.237  1.00  0.00    -0.237 OA
ATOM     71  O   UNL A   1      48.512  37.198  29.063  1.00  0.00    -0.237 OA
ATOM     72  O   UNL A   1      46.491  37.823  27.797  1.00  0.00    -0.744 OA
ENDBRANCH  68  69
ENDBRANCH  47  61
BRANCH  48  73
ATOM     73  C   UNL A   1      43.408  23.213  26.897  1.00  0.00     0.058 A 
ATOM     74  C   UNL A   1      43.141  22.337  27.958  1.00  0.00     0.135 A 
ATOM     75  C   UNL A   1      43.286  22.716  25.591  1.00  0.00     0.135 A 
ATOM     76  F   UNL A   1      43.250  22.766  29.225  1.00  0.00    -0.206 F 
ATOM     77  C   UNL A   1      42.786  21.010  27.737  1.00  0.00     0.059 A 
ATOM     78  C   UNL A   1      42.910  21.400  25.342  1.00  0.00     0.059 A 
ATOM     79  F   UNL A   1      43.513  23.520  24.540  1.00  0.00    -0.206 F 
ATOM     80  C   UNL A   1      42.675  20.551  26.424  1.00  0.00     0.060 A 
BRANCH  80  81
ATOM     81  S   UNL A   1      42.179  18.836  26.144  1.00  0.00     0.124 S 
ATOM     82  O   UNL A   1      40.780  18.995  25.762  1.00  0.00    -0.237 OA
ATOM     83  O   UNL A   1      43.089  18.422  25.081  1.00  0.00    -0.237 OA
ATOM     84  O   UNL A   1      42.413  18.206  27.440  1.00  0.00    -0.744 OA
ENDBRANCH  80  81
ENDBRANCH  48  73
BRANCH  60  85
ATOM     85  C   UNL A   1      49.467  26.634  26.465  1.00  0.00     0.058 A 
ATOM     86  C   UNL A   1      50.315  26.066  27.428  1.00  0.00     0.135 A 
ATOM     87  C   UNL A   1      49.941  26.734  25.146  1.00  0.00     0.135 A 
ATOM     88  F   UNL A   1      49.911  25.955  28.703  1.00  0.00    -0.206 F 
ATOM     89  C   UNL A   1      51.594  25.628  27.099  1.00  0.00     0.059 A 
ATOM     90  C   UNL A   1      51.207  26.281  24.791  1.00  0.00     0.059 A 
ATOM     91  F   UNL A   1      49.164  27.261  24.187  1.00  0.00    -0.206 F 
ATOM     92  C   UNL A   1      52.030  25.739  25.777  1.00  0.00     0.060 A 
BRANCH  92  93
ATOM     93  S   UNL A   1      53.678  25.135  25.354  1.00  0.00     0.124 S 
ATOM     94  O   UNL A   1      54.480  25.686  26.441  1.00  0.00    -0.237 OA
ATOM     95  O   UNL A   1      53.495  23.686  25.373  1.00  0.00    -0.237 OA
ATOM     96  O   UNL A   1      53.923  25.712  24.037  1.00  0.00    -0.744 OA
ENDBRANCH  92  93
ENDBRANCH  60  85
ENDBRANCH  34  35
ENDBRANCH  26  29
ENDBRANCH  24  25
ENDBRANCH   1  24
TORSDOF 17
ENDMDL
MODEL 3
REMARK VINA RESULT:     -11.1      2.903      9.271
REMARK SMILES COc1ccc(OC)c(-c2cc(C(=O)NCCCCNC(=O)c3ccc(-c4c5nc(c(-c6c(F)cc(S(=O)(=O)[O-])cc6F)c6ccc([nH]6)c(-c6c(F)cc(S(=O)(=O)[O-])cc6F)c6nc(c(-c7c(F)cc(S(=O)(=O)[O-])cc7F)c7ccc4[nH]7)C=C6)C=C5)cc3)ccn2)c1
REMARK SMILES IDX 18 1 17 2 16 3 15 4 13 5 14 6 12 8 10 9 11 10 91 11 90 12
REMARK SMILES IDX 89 13 9 14 3 15 4 16 92 17 5 18 6 19 2 20 1 21 7 22 8 23
REMARK SMILES IDX 19 24 20 25 21 26 22 28 23 29 24 30 88 31 25 32 87 33 26 34
REMARK SMILES IDX 27 35 28 36 81 37 29 38 86 39 80 40 82 41 30 42 85 43 79 44
REMARK SMILES IDX 78 45 31 47 65 48 44 49 64 50 45 51 48 52 63 53 83 54 46 55
REMARK SMILES IDX 47 56 62 58 84 59 49 60 32 61 33 62 42 63 34 64 35 65 41 66
REMARK SMILES IDX 43 67 36 68 37 69 38 70 39 71 40 72 66 73 67 74 76 75 68 76
REMARK SMILES IDX 69 77 75 78 77 79 70 80 71 81 72 82 73 83 74 84 50 85 51 86
REMARK SMILES IDX 60 87 52 88 53 89 59 90 61 91 54 92 55 93 56 94 57 95 58 96
REMARK H PARENT 15 7 20 27 82 46 48 57
REMARK Flexibility Score: inf
ROOT
ATOM      1  C   UNL A   1      35.736  23.363  26.016  1.00  0.00     0.023 C 
ENDROOT
BRANCH   1   2
ATOM      2  C   UNL A   1      35.553  21.878  26.344  1.00  0.00     0.023 C 
BRANCH   2   3
ATOM      3  C   UNL A   1      34.335  21.576  27.222  1.00  0.00     0.116 C 
BRANCH   3   4
ATOM      4  N   UNL A   1      33.406  20.702  26.528  1.00  0.00    -0.352 N 
ATOM      5  C   UNL A   1      32.625  20.888  25.415  1.00  0.00     0.251 C 
ATOM      6  O   UNL A   1      31.955  19.942  25.003  1.00  0.00    -0.269 OA
ATOM      7  H   UNL A   1      33.320  19.807  26.931  1.00  0.00     0.163 HD
BRANCH   5   8
ATOM      8  C   UNL A   1      32.600  22.160  24.648  1.00  0.00     0.043 A 
ATOM      9  C   UNL A   1      32.397  24.538  24.418  1.00  0.00     0.075 A 
ATOM     10  C   UNL A   1      32.273  23.393  25.198  1.00  0.00     0.043 A 
ATOM     11  N   UNL A   1      32.749  24.494  23.111  1.00  0.00    -0.256 NA
ATOM     12  C   UNL A   1      32.965  23.276  22.570  1.00  0.00     0.112 A 
ATOM     13  C   UNL A   1      32.916  22.097  23.290  1.00  0.00     0.034 A 
BRANCH   9  14
ATOM     14  C   UNL A   1      32.279  25.863  25.032  1.00  0.00     0.046 A 
ATOM     15  C   UNL A   1      33.540  27.686  26.109  1.00  0.00     0.119 A 
ATOM     16  C   UNL A   1      32.340  28.283  26.471  1.00  0.00     0.050 A 
ATOM     17  C   UNL A   1      33.503  26.496  25.382  1.00  0.00     0.060 A 
ATOM     18  C   UNL A   1      31.125  27.695  26.114  1.00  0.00     0.051 A 
ATOM     19  C   UNL A   1      31.074  26.488  25.399  1.00  0.00     0.128 A 
BRANCH  15  20
ATOM     20  O   UNL A   1      34.660  28.335  26.544  1.00  0.00    -0.497 OA
ATOM     21  C   UNL A   1      34.494  29.318  27.558  1.00  0.00     0.278 C 
ENDBRANCH  15  20
BRANCH  19  22
ATOM     22  O   UNL A   1      29.785  26.059  25.229  1.00  0.00    -0.496 OA
ATOM     23  C   UNL A   1      29.110  26.343  24.014  1.00  0.00     0.278 C 
ENDBRANCH  19  22
ENDBRANCH   9  14
ENDBRANCH   5   8
ENDBRANCH   3   4
ENDBRANCH   2   3
ENDBRANCH   1   2
BRANCH   1  24
ATOM     24  C   UNL A   1      36.958  23.684  25.161  1.00  0.00     0.116 C 
BRANCH  24  25
ATOM     25  N   UNL A   1      38.039  22.724  25.319  1.00  0.00    -0.352 N 
ATOM     26  C   UNL A   1      39.233  22.886  25.984  1.00  0.00     0.251 C 
ATOM     27  H   UNL A   1      37.898  21.847  24.897  1.00  0.00     0.163 HD
ATOM     28  O   UNL A   1      40.087  22.012  25.941  1.00  0.00    -0.269 OA
BRANCH  26  29
ATOM     29  C   UNL A   1      39.485  24.150  26.710  1.00  0.00     0.039 A 
ATOM     30  C   UNL A   1      38.981  24.290  28.004  1.00  0.00     0.014 A 
ATOM     31  C   UNL A   1      40.244  25.170  26.129  1.00  0.00     0.014 A 
ATOM     32  C   UNL A   1      39.297  25.429  28.747  1.00  0.00     0.010 A 
ATOM     33  C   UNL A   1      40.607  26.276  26.891  1.00  0.00     0.010 A 
ATOM     34  C   UNL A   1      40.142  26.414  28.208  1.00  0.00    -0.014 A 
BRANCH  34  35
ATOM     35  C   UNL A   1      40.561  27.589  29.012  1.00  0.00     0.031 A 
ATOM     36  C   UNL A   1      41.873  27.571  29.746  1.00  0.00     0.074 A 
ATOM     37  C   UNL A   1      39.727  28.641  29.136  1.00  0.00     0.049 A 
ATOM     38  N   UNL A   1      42.376  28.463  30.559  1.00  0.00    -0.248 NA
ATOM     39  C   UNL A   1      42.721  26.382  29.560  1.00  0.00     0.031 C 
ATOM     40  C   UNL A   1      38.405  28.752  28.515  1.00  0.00     0.029 A 
ATOM     41  N   UNL A   1      39.862  29.814  29.837  1.00  0.00    -0.354 N 
ATOM     42  C   UNL A   1      43.588  27.940  30.993  1.00  0.00     0.074 A 
ATOM     43  C   UNL A   1      43.724  26.631  30.390  1.00  0.00     0.031 C 
ATOM     44  C   UNL A   1      37.858  29.932  28.851  1.00  0.00     0.029 A 
ATOM     45  C   UNL A   1      38.774  30.647  29.733  1.00  0.00     0.049 A 
ATOM     46  H   UNL A   1      40.662  30.036  30.364  1.00  0.00     0.167 HD
ATOM     47  C   UNL A   1      44.514  28.508  31.801  1.00  0.00     0.037 A 
ATOM     48  C   UNL A   1      38.539  31.850  30.292  1.00  0.00     0.037 A 
ATOM     49  C   UNL A   1      44.387  29.823  32.373  1.00  0.00     0.049 A 
ATOM     50  C   UNL A   1      39.590  32.467  31.174  1.00  0.00     0.074 A 
ATOM     51  C   UNL A   1      45.295  30.510  33.160  1.00  0.00     0.029 A 
ATOM     52  N   UNL A   1      43.287  30.653  32.214  1.00  0.00    -0.354 N 
ATOM     53  N   UNL A   1      40.756  31.981  31.528  1.00  0.00    -0.248 NA
ATOM     54  C   UNL A   1      39.299  33.797  31.727  1.00  0.00     0.031 C 
ATOM     55  C   UNL A   1      44.730  31.744  33.504  1.00  0.00     0.029 A 
ATOM     56  C   UNL A   1      43.488  31.840  32.899  1.00  0.00     0.049 A 
ATOM     57  H   UNL A   1      42.482  30.430  31.693  1.00  0.00     0.167 HD
ATOM     58  C   UNL A   1      41.348  32.956  32.323  1.00  0.00     0.074 A 
ATOM     59  C   UNL A   1      40.417  34.063  32.389  1.00  0.00     0.031 C 
ATOM     60  C   UNL A   1      42.553  32.936  32.944  1.00  0.00     0.037 A 
BRANCH  47  61
ATOM     61  C   UNL A   1      45.754  27.716  32.104  1.00  0.00     0.058 A 
ATOM     62  C   UNL A   1      46.894  27.798  31.288  1.00  0.00     0.135 A 
ATOM     63  C   UNL A   1      45.822  26.896  33.242  1.00  0.00     0.135 A 
ATOM     64  F   UNL A   1      46.877  28.554  30.178  1.00  0.00    -0.206 F 
ATOM     65  C   UNL A   1      48.047  27.077  31.575  1.00  0.00     0.059 A 
ATOM     66  C   UNL A   1      46.975  26.184  33.562  1.00  0.00     0.059 A 
ATOM     67  F   UNL A   1      44.760  26.779  34.055  1.00  0.00    -0.206 F 
ATOM     68  C   UNL A   1      48.079  26.272  32.714  1.00  0.00     0.060 A 
BRANCH  68  69
ATOM     69  S   UNL A   1      49.587  25.350  33.079  1.00  0.00     0.124 S 
ATOM     70  O   UNL A   1      50.039  24.991  31.738  1.00  0.00    -0.237 OA
ATOM     71  O   UNL A   1      50.399  26.342  33.777  1.00  0.00    -0.237 OA
ATOM     72  O   UNL A   1      49.116  24.240  33.901  1.00  0.00    -0.744 OA
ENDBRANCH  68  69
ENDBRANCH  47  61
BRANCH  48  73
ATOM     73  C   UNL A   1      37.262  32.562  30.020  1.00  0.00     0.058 A 
ATOM     74  C   UNL A   1      37.201  33.593  29.072  1.00  0.00     0.135 A 
ATOM     75  C   UNL A   1      36.081  32.227  30.699  1.00  0.00     0.135 A 
ATOM     76  F   UNL A   1      38.306  33.954  28.401  1.00  0.00    -0.206 F 
ATOM     77  C   UNL A   1      36.019  34.284  28.820  1.00  0.00     0.059 A 
ATOM     78  C   UNL A   1      34.882  32.886  30.449  1.00  0.00     0.059 A 
ATOM     79  F   UNL A   1      36.083  31.234  31.602  1.00  0.00    -0.206 F 
ATOM     80  C   UNL A   1      34.865  33.923  29.515  1.00  0.00     0.060 A 
BRANCH  80  81
ATOM     81  S   UNL A   1      33.326  34.800  29.157  1.00  0.00     0.124 S 
ATOM     82  O   UNL A   1      32.747  34.929  30.489  1.00  0.00    -0.237 OA
ATOM     83  O   UNL A   1      33.810  36.034  28.548  1.00  0.00    -0.237 OA
ATOM     84  O   UNL A   1      32.630  33.893  28.249  1.00  0.00    -0.744 OA
ENDBRANCH  80  81
ENDBRANCH  48  73
BRANCH  60  85
ATOM     85  C   UNL A   1      42.950  34.159  33.720  1.00  0.00     0.058 A 
ATOM     86  C   UNL A   1      42.704  34.266  35.098  1.00  0.00     0.135 A 
ATOM     87  C   UNL A   1      43.629  35.213  33.089  1.00  0.00     0.135 A 
ATOM     88  F   UNL A   1      42.052  33.288  35.746  1.00  0.00    -0.206 F 
ATOM     89  C   UNL A   1      43.102  35.386  35.820  1.00  0.00     0.059 A 
ATOM     90  C   UNL A   1      44.057  36.332  33.795  1.00  0.00     0.059 A 
ATOM     91  F   UNL A   1      43.896  35.153  31.774  1.00  0.00    -0.206 F 
ATOM     92  C   UNL A   1      43.780  36.414  35.160  1.00  0.00     0.060 A 
BRANCH  92  93
ATOM     93  S   UNL A   1      44.325  37.846  36.114  1.00  0.00     0.124 S 
ATOM     94  O   UNL A   1      44.009  38.942  35.202  1.00  0.00    -0.237 OA
ATOM     95  O   UNL A   1      43.495  37.760  37.312  1.00  0.00    -0.237 OA
ATOM     96  O   UNL A   1      45.746  37.593  36.323  1.00  0.00    -0.744 OA
ENDBRANCH  92  93
ENDBRANCH  60  85
ENDBRANCH  34  35
ENDBRANCH  26  29
ENDBRANCH  24  25
ENDBRANCH   1  24
TORSDOF 17
ENDMDL
