MODEL 1
REMARK VINA RESULT:     -12.9      0.000      0.000
REMARK SMILES Cc1cccc2c1N=CN1C2=[NH+]NC(=O)[C@@H]1CC(=O)NCCCCNC(=O)c1ccc(-c2c3nc(c(-c4c(F)cc(S(=O)(=O)[O-])cc4F)c4ccc([nH]4)c(-c4c(F)cc(S(=O)(=O)[O-])cc4F)c4nc(c(-c5c(F)cc(S(=O)(=O)[O-])cc5F)c5ccc2[nH]5)C=C4)C=C3)cc1
REMARK SMILES IDX 23 1 22 2 21 3 20 4 18 5 19 6 17 8 16 9 1 10 2 11 3 12 7 13
REMARK SMILES IDX 4 14 6 15 8 16 5 17 11 18 9 19 10 20 12 21 13 22 14 24 15 26
REMARK SMILES IDX 24 27 25 28 26 29 27 31 28 32 29 33 93 34 30 35 92 36 31 37
REMARK SMILES IDX 32 38 33 39 86 40 34 41 91 42 85 43 87 44 35 45 90 46 84 47
REMARK SMILES IDX 83 48 36 50 70 51 49 52 69 53 50 54 53 55 68 56 88 57 51 58
REMARK SMILES IDX 52 59 67 61 89 62 54 63 37 64 38 65 47 66 39 67 40 68 46 69
REMARK SMILES IDX 48 70 41 71 42 72 43 73 44 74 45 75 71 76 72 77 81 78 73 79
REMARK SMILES IDX 74 80 80 81 82 82 75 83 76 84 77 85 78 86 79 87 55 88 56 89
REMARK SMILES IDX 65 90 57 91 58 92 64 93 66 94 59 95 60 96 61 97 62 98 63 99
REMARK H PARENT 20 7 12 23 13 25 25 30 87 49 53 60
REMARK Flexibility Score: inf
ROOT
ATOM      1  C   UNL A   1      40.272  22.045  27.318  1.00  0.00     0.023 C 
ENDROOT
BRANCH   1   2
ATOM      2  C   UNL A   1      39.484  21.755  26.058  1.00  0.00     0.023 C 
BRANCH   2   3
ATOM      3  C   UNL A   1      38.138  22.440  25.922  1.00  0.00     0.116 C 
BRANCH   3   4
ATOM      4  N   UNL A   1      37.776  22.546  24.527  1.00  0.00    -0.356 N 
ATOM      5  C   UNL A   1      36.673  23.109  23.964  1.00  0.00     0.224 C 
ATOM      6  O   UNL A   1      36.563  23.056  22.739  1.00  0.00    -0.275 OA
ATOM      7  H   UNL A   1      38.420  22.153  23.894  1.00  0.00     0.163 HD
BRANCH   5   8
ATOM      8  C   UNL A   1      35.671  23.877  24.812  1.00  0.00     0.160 C 
BRANCH   8   9
ATOM      9  C   UNL A   1      34.163  23.623  24.611  1.00  0.00     0.284 C 
ATOM     10  C   UNL A   1      34.444  17.210  24.871  1.00  0.00     0.047 C 
ATOM     11  C   UNL A   1      33.553  18.101  24.048  1.00  0.00    -0.024 A 
ATOM     12  C   UNL A   1      32.931  17.568  22.905  1.00  0.00     0.006 A 
ATOM     13  C   UNL A   1      33.441  19.476  24.326  1.00  0.00     0.085 A 
ATOM     14  C   UNL A   1      32.178  18.377  22.054  1.00  0.00     0.001 A 
ATOM     15  C   UNL A   1      32.733  20.290  23.415  1.00  0.00     0.092 A 
ATOM     16  N   UNL A   1      34.115  20.014  25.451  1.00  0.00    -0.215 NA
ATOM     17  C   UNL A   1      32.081  19.742  22.304  1.00  0.00     0.019 A 
ATOM     18  C   UNL A   1      32.924  21.773  23.533  1.00  0.00     0.309 C 
ATOM     19  C   UNL A   1      34.236  21.302  25.489  1.00  0.00     0.317 C 
ATOM     20  N   UNL A   1      33.785  22.193  24.543  1.00  0.00    -0.203 N 
ATOM     21  N   UNL A   1      32.361  22.534  22.643  1.00  0.00    -0.169 N 
ATOM     22  N   UNL A   1      32.674  23.851  22.649  1.00  0.00    -0.193 N 
ATOM     23  H   UNL A   1      31.726  22.165  21.987  1.00  0.00     0.340 HD
ATOM     24  C   UNL A   1      33.572  24.460  23.482  1.00  0.00     0.300 C 
ATOM     25  H   UNL A   1      32.215  24.422  21.991  1.00  0.00     0.216 HD
ATOM     26  O   UNL A   1      33.804  25.663  23.366  1.00  0.00    -0.267 OA
ENDBRANCH   8   9
ENDBRANCH   5   8
ENDBRANCH   3   4
ENDBRANCH   2   3
ENDBRANCH   1   2
BRANCH   1  27
ATOM     27  C   UNL A   1      40.651  23.503  27.472  1.00  0.00     0.116 C 
BRANCH  27  28
ATOM     28  N   UNL A   1      41.377  24.041  26.322  1.00  0.00    -0.352 N 
ATOM     29  C   UNL A   1      41.655  25.356  26.034  1.00  0.00     0.251 C 
ATOM     30  H   UNL A   1      41.709  23.378  25.674  1.00  0.00     0.163 HD
ATOM     31  O   UNL A   1      42.197  25.685  24.984  1.00  0.00    -0.269 OA
BRANCH  29  32
ATOM     32  C   UNL A   1      41.238  26.366  27.019  1.00  0.00     0.039 A 
ATOM     33  C   UNL A   1      40.239  26.046  27.940  1.00  0.00     0.014 A 
ATOM     34  C   UNL A   1      41.965  27.556  27.116  1.00  0.00     0.014 A 
ATOM     35  C   UNL A   1      40.018  26.899  29.018  1.00  0.00     0.010 A 
ATOM     36  C   UNL A   1      41.812  28.346  28.241  1.00  0.00     0.010 A 
ATOM     37  C   UNL A   1      40.827  28.031  29.192  1.00  0.00    -0.014 A 
BRANCH  37  38
ATOM     38  C   UNL A   1      40.622  28.970  30.316  1.00  0.00     0.031 A 
ATOM     39  C   UNL A   1      41.474  28.808  31.541  1.00  0.00     0.074 A 
ATOM     40  C   UNL A   1      39.636  29.885  30.269  1.00  0.00     0.049 A 
ATOM     41  N   UNL A   1      41.385  29.409  32.696  1.00  0.00    -0.248 NA
ATOM     42  C   UNL A   1      42.542  27.795  31.468  1.00  0.00     0.031 C 
ATOM     43  C   UNL A   1      38.722  30.094  29.145  1.00  0.00     0.029 A 
ATOM     44  N   UNL A   1      39.229  30.803  31.203  1.00  0.00    -0.354 N 
ATOM     45  C   UNL A   1      42.364  28.826  33.492  1.00  0.00     0.074 A 
ATOM     46  C   UNL A   1      42.986  27.780  32.713  1.00  0.00     0.031 C 
ATOM     47  C   UNL A   1      37.878  31.095  29.446  1.00  0.00     0.029 A 
ATOM     48  C   UNL A   1      38.169  31.574  30.793  1.00  0.00     0.049 A 
ATOM     49  H   UNL A   1      39.657  30.899  32.084  1.00  0.00     0.167 HD
ATOM     50  C   UNL A   1      42.734  29.157  34.750  1.00  0.00     0.037 A 
ATOM     51  C   UNL A   1      37.512  32.559  31.439  1.00  0.00     0.037 A 
ATOM     52  C   UNL A   1      42.137  30.233  35.491  1.00  0.00     0.049 A 
ATOM     53  C   UNL A   1      37.954  32.931  32.829  1.00  0.00     0.074 A 
ATOM     54  C   UNL A   1      42.470  30.702  36.748  1.00  0.00     0.029 A 
ATOM     55  N   UNL A   1      41.088  31.016  35.030  1.00  0.00    -0.354 N 
ATOM     56  N   UNL A   1      38.908  32.401  33.557  1.00  0.00    -0.248 NA
ATOM     57  C   UNL A   1      37.236  34.032  33.483  1.00  0.00     0.031 C 
ATOM     58  C   UNL A   1      41.602  31.756  37.058  1.00  0.00     0.029 A 
ATOM     59  C   UNL A   1      40.752  31.962  35.981  1.00  0.00     0.049 A 
ATOM     60  H   UNL A   1      40.648  30.913  34.156  1.00  0.00     0.167 HD
ATOM     61  C   UNL A   1      38.917  33.112  34.750  1.00  0.00     0.074 A 
ATOM     62  C   UNL A   1      37.879  34.119  34.641  1.00  0.00     0.031 C 
ATOM     63  C   UNL A   1      39.711  32.951  35.839  1.00  0.00     0.037 A 
BRANCH  50  64
ATOM     64  C   UNL A   1      43.838  28.352  35.371  1.00  0.00     0.058 A 
ATOM     65  C   UNL A   1      43.567  27.226  36.167  1.00  0.00     0.135 A 
ATOM     66  C   UNL A   1      45.180  28.728  35.202  1.00  0.00     0.135 A 
ATOM     67  F   UNL A   1      42.299  26.841  36.382  1.00  0.00    -0.206 F 
ATOM     68  C   UNL A   1      44.583  26.530  36.811  1.00  0.00     0.059 A 
ATOM     69  C   UNL A   1      46.215  28.027  35.814  1.00  0.00     0.059 A 
ATOM     70  F   UNL A   1      45.495  29.799  34.458  1.00  0.00    -0.206 F 
ATOM     71  C   UNL A   1      45.904  26.943  36.634  1.00  0.00     0.060 A 
BRANCH  71  72
ATOM     72  S   UNL A   1      47.209  26.045  37.501  1.00  0.00     0.124 S 
ATOM     73  O   UNL A   1      48.235  25.958  36.467  1.00  0.00    -0.237 OA
ATOM     74  O   UNL A   1      47.510  26.932  38.619  1.00  0.00    -0.237 OA
ATOM     75  O   UNL A   1      46.571  24.783  37.860  1.00  0.00    -0.744 OA
ENDBRANCH  71  72
ENDBRANCH  50  64
BRANCH  51  76
ATOM     76  C   UNL A   1      36.414  33.285  30.750  1.00  0.00     0.058 A 
ATOM     77  C   UNL A   1      35.086  33.133  31.174  1.00  0.00     0.135 A 
ATOM     78  C   UNL A   1      36.669  34.189  29.708  1.00  0.00     0.135 A 
ATOM     79  F   UNL A   1      34.791  32.275  32.162  1.00  0.00    -0.206 F 
ATOM     80  C   UNL A   1      34.049  33.859  30.597  1.00  0.00     0.059 A 
ATOM     81  C   UNL A   1      35.651  34.939  29.126  1.00  0.00     0.059 A 
ATOM     82  F   UNL A   1      37.926  34.379  29.277  1.00  0.00    -0.206 F 
ATOM     83  C   UNL A   1      34.343  34.769  29.580  1.00  0.00     0.060 A 
BRANCH  83  84
ATOM     84  S   UNL A   1      33.001  35.775  28.908  1.00  0.00     0.124 S 
ATOM     85  O   UNL A   1      32.326  34.821  28.035  1.00  0.00    -0.237 OA
ATOM     86  O   UNL A   1      32.276  36.159  30.116  1.00  0.00    -0.237 OA
ATOM     87  O   UNL A   1      33.701  36.864  28.234  1.00  0.00    -0.744 OA
ENDBRANCH  83  84
ENDBRANCH  51  76
BRANCH  63  88
ATOM     88  C   UNL A   1      39.497  33.884  36.994  1.00  0.00     0.058 A 
ATOM     89  C   UNL A   1      38.751  33.494  38.117  1.00  0.00     0.135 A 
ATOM     90  C   UNL A   1      40.122  35.141  37.018  1.00  0.00     0.135 A 
ATOM     91  F   UNL A   1      38.132  32.303  38.136  1.00  0.00    -0.206 F 
ATOM     92  C   UNL A   1      38.629  34.323  39.225  1.00  0.00     0.059 A 
ATOM     93  C   UNL A   1      40.030  35.976  38.125  1.00  0.00     0.059 A 
ATOM     94  F   UNL A   1      40.855  35.550  35.970  1.00  0.00    -0.206 F 
ATOM     95  C   UNL A   1      39.278  35.560  39.222  1.00  0.00     0.060 A 
BRANCH  95  96
ATOM     96  S   UNL A   1      39.161  36.599  40.694  1.00  0.00     0.124 S 
ATOM     97  O   UNL A   1      38.311  35.787  41.559  1.00  0.00    -0.237 OA
ATOM     98  O   UNL A   1      40.556  36.717  41.105  1.00  0.00    -0.237 OA
ATOM     99  O   UNL A   1      38.555  37.829  40.194  1.00  0.00    -0.744 OA
ENDBRANCH  95  96
ENDBRANCH  63  88
ENDBRANCH  37  38
ENDBRANCH  29  32
ENDBRANCH  27  28
ENDBRANCH   1  27
TORSDOF 15
ENDMDL
MODEL 2
REMARK VINA RESULT:     -12.9      5.824     12.542
REMARK SMILES Cc1cccc2c1N=CN1C2=[NH+]NC(=O)[C@@H]1CC(=O)NCCCCNC(=O)c1ccc(-c2c3nc(c(-c4c(F)cc(S(=O)(=O)[O-])cc4F)c4ccc([nH]4)c(-c4c(F)cc(S(=O)(=O)[O-])cc4F)c4nc(c(-c5c(F)cc(S(=O)(=O)[O-])cc5F)c5ccc2[nH]5)C=C4)C=C3)cc1
REMARK SMILES IDX 23 1 22 2 21 3 20 4 18 5 19 6 17 8 16 9 1 10 2 11 3 12 7 13
REMARK SMILES IDX 4 14 6 15 8 16 5 17 11 18 9 19 10 20 12 21 13 22 14 24 15 26
REMARK SMILES IDX 24 27 25 28 26 29 27 31 28 32 29 33 93 34 30 35 92 36 31 37
REMARK SMILES IDX 32 38 33 39 86 40 34 41 91 42 85 43 87 44 35 45 90 46 84 47
REMARK SMILES IDX 83 48 36 50 70 51 49 52 69 53 50 54 53 55 68 56 88 57 51 58
REMARK SMILES IDX 52 59 67 61 89 62 54 63 37 64 38 65 47 66 39 67 40 68 46 69
REMARK SMILES IDX 48 70 41 71 42 72 43 73 44 74 45 75 71 76 72 77 81 78 73 79
REMARK SMILES IDX 74 80 80 81 82 82 75 83 76 84 77 85 78 86 79 87 55 88 56 89
REMARK SMILES IDX 65 90 57 91 58 92 64 93 66 94 59 95 60 96 61 97 62 98 63 99
REMARK H PARENT 20 7 12 23 13 25 25 30 87 49 53 60
REMARK Flexibility Score: inf
ROOT
ATOM      1  C   UNL A   1      35.393  32.483  30.974  1.00  0.00     0.023 C 
ENDROOT
BRANCH   1   2
ATOM      2  C   UNL A   1      36.762  32.241  31.573  1.00  0.00     0.023 C 
BRANCH   2   3
ATOM      3  C   UNL A   1      36.807  31.844  33.036  1.00  0.00     0.116 C 
BRANCH   3   4
ATOM      4  N   UNL A   1      36.835  30.403  33.155  1.00  0.00    -0.356 N 
ATOM      5  C   UNL A   1      37.881  29.547  32.998  1.00  0.00     0.224 C 
ATOM      6  O   UNL A   1      37.660  28.343  33.124  1.00  0.00    -0.275 OA
ATOM      7  H   UNL A   1      35.975  29.982  33.382  1.00  0.00     0.163 HD
BRANCH   5   8
ATOM      8  C   UNL A   1      39.293  30.072  32.791  1.00  0.00     0.160 C 
BRANCH   8   9
ATOM      9  C   UNL A   1      40.247  30.164  33.999  1.00  0.00     0.284 C 
ATOM     10  C   UNL A   1      44.217  25.453  32.178  1.00  0.00     0.047 C 
ATOM     11  C   UNL A   1      43.775  25.857  33.559  1.00  0.00    -0.024 A 
ATOM     12  C   UNL A   1      43.899  24.931  34.609  1.00  0.00     0.006 A 
ATOM     13  C   UNL A   1      43.123  27.084  33.785  1.00  0.00     0.085 A 
ATOM     14  C   UNL A   1      43.411  25.220  35.884  1.00  0.00     0.001 A 
ATOM     15  C   UNL A   1      42.575  27.329  35.063  1.00  0.00     0.092 A 
ATOM     16  N   UNL A   1      42.954  27.990  32.707  1.00  0.00    -0.215 NA
ATOM     17  C   UNL A   1      42.742  26.419  36.113  1.00  0.00     0.019 A 
ATOM     18  C   UNL A   1      41.594  28.458  35.181  1.00  0.00     0.309 C 
ATOM     19  C   UNL A   1      42.098  28.943  32.883  1.00  0.00     0.317 C 
ATOM     20  N   UNL A   1      41.330  29.154  34.005  1.00  0.00    -0.203 N 
ATOM     21  N   UNL A   1      41.003  28.637  36.324  1.00  0.00    -0.169 N 
ATOM     22  N   UNL A   1      39.997  29.540  36.380  1.00  0.00    -0.193 N 
ATOM     23  H   UNL A   1      41.279  28.132  37.123  1.00  0.00     0.340 HD
ATOM     24  C   UNL A   1      39.505  30.262  35.328  1.00  0.00     0.300 C 
ATOM     25  H   UNL A   1      39.581  29.691  37.260  1.00  0.00     0.216 HD
ATOM     26  O   UNL A   1      38.556  31.028  35.495  1.00  0.00    -0.267 OA
ENDBRANCH   8   9
ENDBRANCH   5   8
ENDBRANCH   3   4
ENDBRANCH   2   3
ENDBRANCH   1   2
BRANCH   1  27
ATOM     27  C   UNL A   1      35.408  32.614  29.465  1.00  0.00     0.116 C 
BRANCH  27  28
ATOM     28  N   UNL A   1      34.408  31.780  28.799  1.00  0.00    -0.352 N 
ATOM     29  C   UNL A   1      34.590  30.559  28.193  1.00  0.00     0.251 C 
ATOM     30  H   UNL A   1      33.491  32.137  28.782  1.00  0.00     0.163 HD
ATOM     31  O   UNL A   1      33.683  30.000  27.586  1.00  0.00    -0.269 OA
BRANCH  29  32
ATOM     32  C   UNL A   1      35.932  29.963  28.265  1.00  0.00     0.039 A 
ATOM     33  C   UNL A   1      36.827  30.170  27.214  1.00  0.00     0.014 A 
ATOM     34  C   UNL A   1      36.335  29.346  29.453  1.00  0.00     0.014 A 
ATOM     35  C   UNL A   1      38.164  29.821  27.387  1.00  0.00     0.010 A 
ATOM     36  C   UNL A   1      37.680  29.096  29.657  1.00  0.00     0.010 A 
ATOM     37  C   UNL A   1      38.602  29.317  28.621  1.00  0.00    -0.014 A 
BRANCH  37  38
ATOM     38  C   UNL A   1      40.009  28.924  28.847  1.00  0.00     0.031 A 
ATOM     39  C   UNL A   1      40.956  29.954  29.389  1.00  0.00     0.074 A 
ATOM     40  C   UNL A   1      40.441  27.700  28.489  1.00  0.00     0.049 A 
ATOM     41  N   UNL A   1      42.251  29.892  29.535  1.00  0.00    -0.248 NA
ATOM     42  C   UNL A   1      40.366  31.249  29.774  1.00  0.00     0.031 C 
ATOM     43  C   UNL A   1      39.612  26.641  27.911  1.00  0.00     0.029 A 
ATOM     44  N   UNL A   1      41.693  27.147  28.547  1.00  0.00    -0.354 N 
ATOM     45  C   UNL A   1      42.631  31.145  30.000  1.00  0.00     0.074 A 
ATOM     46  C   UNL A   1      41.443  31.966  30.046  1.00  0.00     0.031 C 
ATOM     47  C   UNL A   1      40.376  25.557  27.690  1.00  0.00     0.029 A 
ATOM     48  C   UNL A   1      41.750  25.856  28.081  1.00  0.00     0.049 A 
ATOM     49  H   UNL A   1      42.479  27.630  28.891  1.00  0.00     0.167 HD
ATOM     50  C   UNL A   1      43.857  31.563  30.387  1.00  0.00     0.037 A 
ATOM     51  C   UNL A   1      42.798  25.014  27.985  1.00  0.00     0.037 A 
ATOM     52  C   UNL A   1      45.018  30.718  30.382  1.00  0.00     0.049 A 
ATOM     53  C   UNL A   1      44.150  25.488  28.443  1.00  0.00     0.074 A 
ATOM     54  C   UNL A   1      46.299  31.011  30.809  1.00  0.00     0.029 A 
ATOM     55  N   UNL A   1      45.030  29.404  29.935  1.00  0.00    -0.354 N 
ATOM     56  N   UNL A   1      44.491  26.662  28.921  1.00  0.00    -0.248 NA
ATOM     57  C   UNL A   1      45.258  24.527  28.355  1.00  0.00     0.031 C 
ATOM     58  C   UNL A   1      47.094  29.878  30.597  1.00  0.00     0.029 A 
ATOM     59  C   UNL A   1      46.299  28.871  30.067  1.00  0.00     0.049 A 
ATOM     60  H   UNL A   1      44.250  28.922  29.577  1.00  0.00     0.167 HD
ATOM     61  C   UNL A   1      45.848  26.579  29.204  1.00  0.00     0.074 A 
ATOM     62  C   UNL A   1      46.264  25.234  28.855  1.00  0.00     0.031 C 
ATOM     63  C   UNL A   1      46.678  27.527  29.709  1.00  0.00     0.037 A 
BRANCH  50  64
ATOM     64  C   UNL A   1      43.977  32.984  30.857  1.00  0.00     0.058 A 
ATOM     65  C   UNL A   1      43.707  33.343  32.188  1.00  0.00     0.135 A 
ATOM     66  C   UNL A   1      44.330  34.006  29.961  1.00  0.00     0.135 A 
ATOM     67  F   UNL A   1      43.340  32.407  33.078  1.00  0.00    -0.206 F 
ATOM     68  C   UNL A   1      43.736  34.669  32.604  1.00  0.00     0.059 A 
ATOM     69  C   UNL A   1      44.393  35.337  30.364  1.00  0.00     0.059 A 
ATOM     70  F   UNL A   1      44.591  33.720  28.676  1.00  0.00    -0.206 F 
ATOM     71  C   UNL A   1      44.073  35.660  31.682  1.00  0.00     0.060 A 
BRANCH  71  72
ATOM     72  S   UNL A   1      44.077  37.380  32.231  1.00  0.00     0.124 S 
ATOM     73  O   UNL A   1      43.633  38.070  31.024  1.00  0.00    -0.237 OA
ATOM     74  O   UNL A   1      43.125  37.359  33.336  1.00  0.00    -0.237 OA
ATOM     75  O   UNL A   1      45.468  37.610  32.609  1.00  0.00    -0.744 OA
ENDBRANCH  71  72
ENDBRANCH  50  64
BRANCH  51  76
ATOM     76  C   UNL A   1      42.586  23.631  27.484  1.00  0.00     0.058 A 
ATOM     77  C   UNL A   1      42.683  23.347  26.114  1.00  0.00     0.135 A 
ATOM     78  C   UNL A   1      42.351  22.559  28.359  1.00  0.00     0.135 A 
ATOM     79  F   UNL A   1      42.900  24.340  25.238  1.00  0.00    -0.206 F 
ATOM     80  C   UNL A   1      42.565  22.049  25.628  1.00  0.00     0.059 A 
ATOM     81  C   UNL A   1      42.245  21.250  27.898  1.00  0.00     0.059 A 
ATOM     82  F   UNL A   1      42.263  22.778  29.680  1.00  0.00    -0.206 F 
ATOM     83  C   UNL A   1      42.358  21.004  26.529  1.00  0.00     0.060 A 
BRANCH  83  84
ATOM     84  S   UNL A   1      42.304  19.315  25.893  1.00  0.00     0.124 S 
ATOM     85  O   UNL A   1      42.835  18.557  27.020  1.00  0.00    -0.237 OA
ATOM     86  O   UNL A   1      40.881  19.138  25.618  1.00  0.00    -0.237 OA
ATOM     87  O   UNL A   1      43.159  19.373  24.711  1.00  0.00    -0.744 OA
ENDBRANCH  83  84
ENDBRANCH  51  76
BRANCH  63  88
ATOM     88  C   UNL A   1      48.114  27.145  29.921  1.00  0.00     0.058 A 
ATOM     89  C   UNL A   1      49.100  27.465  28.977  1.00  0.00     0.135 A 
ATOM     90  C   UNL A   1      48.518  26.540  31.122  1.00  0.00     0.135 A 
ATOM     91  F   UNL A   1      48.759  28.039  27.812  1.00  0.00    -0.206 F 
ATOM     92  C   UNL A   1      50.442  27.193  29.214  1.00  0.00     0.059 A 
ATOM     93  C   UNL A   1      49.857  26.280  31.389  1.00  0.00     0.059 A 
ATOM     94  F   UNL A   1      47.610  26.227  32.060  1.00  0.00    -0.206 F 
ATOM     95  C   UNL A   1      50.811  26.606  30.426  1.00  0.00     0.060 A 
BRANCH  95  96
ATOM     96  S   UNL A   1      52.564  26.317  30.746  1.00  0.00     0.124 S 
ATOM     97  O   UNL A   1      52.976  27.602  31.300  1.00  0.00    -0.237 OA
ATOM     98  O   UNL A   1      52.530  25.202  31.687  1.00  0.00    -0.237 OA
ATOM     99  O   UNL A   1      53.102  25.999  29.427  1.00  0.00    -0.744 OA
ENDBRANCH  95  96
ENDBRANCH  63  88
ENDBRANCH  37  38
ENDBRANCH  29  32
ENDBRANCH  27  28
ENDBRANCH   1  27
TORSDOF 15
ENDMDL
MODEL 3
REMARK VINA RESULT:     -12.9      1.284      2.631
REMARK SMILES Cc1cccc2c1N=CN1C2=[NH+]NC(=O)[C@@H]1CC(=O)NCCCCNC(=O)c1ccc(-c2c3nc(c(-c4c(F)cc(S(=O)(=O)[O-])cc4F)c4ccc([nH]4)c(-c4c(F)cc(S(=O)(=O)[O-])cc4F)c4nc(c(-c5c(F)cc(S(=O)(=O)[O-])cc5F)c5ccc2[nH]5)C=C4)C=C3)cc1
REMARK SMILES IDX 23 1 22 2 21 3 20 4 18 5 19 6 17 8 16 9 1 10 2 11 3 12 7 13
REMARK SMILES IDX 4 14 6 15 8 16 5 17 11 18 9 19 10 20 12 21 13 22 14 24 15 26
REMARK SMILES IDX 24 27 25 28 26 29 27 31 28 32 29 33 93 34 30 35 92 36 31 37
REMARK SMILES IDX 32 38 33 39 86 40 34 41 91 42 85 43 87 44 35 45 90 46 84 47
REMARK SMILES IDX 83 48 36 50 70 51 49 52 69 53 50 54 53 55 68 56 88 57 51 58
REMARK SMILES IDX 52 59 67 61 89 62 54 63 37 64 38 65 47 66 39 67 40 68 46 69
REMARK SMILES IDX 48 70 41 71 42 72 43 73 44 74 45 75 71 76 72 77 81 78 73 79
REMARK SMILES IDX 74 80 80 81 82 82 75 83 76 84 77 85 78 86 79 87 55 88 56 89
REMARK SMILES IDX 65 90 57 91 58 92 64 93 66 94 59 95 60 96 61 97 62 98 63 99
REMARK H PARENT 20 7 12 23 13 25 25 30 87 49 53 60
REMARK Flexibility Score: inf
ROOT
ATOM      1  C   UNL A   1      40.522  22.229  27.650  1.00  0.00     0.023 C 
ENDROOT
BRANCH   1   2
ATOM      2  C   UNL A   1      40.391  21.281  26.477  1.00  0.00     0.023 C 
BRANCH   2   3
ATOM      3  C   UNL A   1      39.064  21.283  25.743  1.00  0.00     0.116 C 
BRANCH   3   4
ATOM      4  N   UNL A   1      38.248  22.384  26.201  1.00  0.00    -0.356 N 
ATOM      5  C   UNL A   1      37.274  23.067  25.540  1.00  0.00     0.224 C 
ATOM      6  O   UNL A   1      36.725  23.997  26.130  1.00  0.00    -0.275 OA
ATOM      7  H   UNL A   1      38.422  22.682  27.123  1.00  0.00     0.163 HD
BRANCH   5   8
ATOM      8  C   UNL A   1      36.804  22.618  24.165  1.00  0.00     0.160 C 
BRANCH   8   9
ATOM      9  C   UNL A   1      35.483  21.831  24.041  1.00  0.00     0.284 C 
ATOM     10  C   UNL A   1      31.558  26.906  24.375  1.00  0.00     0.047 C 
ATOM     11  C   UNL A   1      31.369  25.509  24.901  1.00  0.00    -0.024 A 
ATOM     12  C   UNL A   1      30.419  25.288  25.913  1.00  0.00     0.006 A 
ATOM     13  C   UNL A   1      32.211  24.457  24.494  1.00  0.00     0.085 A 
ATOM     14  C   UNL A   1      30.278  24.031  26.504  1.00  0.00     0.001 A 
ATOM     15  C   UNL A   1      32.100  23.213  25.152  1.00  0.00     0.092 A 
ATOM     16  N   UNL A   1      33.203  24.703  23.510  1.00  0.00    -0.215 NA
ATOM     17  C   UNL A   1      31.122  22.991  26.128  1.00  0.00     0.019 A 
ATOM     18  C   UNL A   1      33.222  22.235  24.960  1.00  0.00     0.309 C 
ATOM     19  C   UNL A   1      34.134  23.813  23.395  1.00  0.00     0.317 C 
ATOM     20  N   UNL A   1      34.262  22.663  24.139  1.00  0.00    -0.203 N 
ATOM     21  N   UNL A   1      33.187  21.126  25.635  1.00  0.00    -0.169 N 
ATOM     22  N   UNL A   1      34.278  20.327  25.593  1.00  0.00    -0.193 N 
ATOM     23  H   UNL A   1      32.392  20.875  26.159  1.00  0.00     0.340 HD
ATOM     24  C   UNL A   1      35.448  20.597  24.936  1.00  0.00     0.300 C 
ATOM     25  H   UNL A   1      34.227  19.473  26.081  1.00  0.00     0.216 HD
ATOM     26  O   UNL A   1      36.390  19.808  25.003  1.00  0.00    -0.267 OA
ENDBRANCH   8   9
ENDBRANCH   5   8
ENDBRANCH   3   4
ENDBRANCH   2   3
ENDBRANCH   1   2
BRANCH   1  27
ATOM     27  C   UNL A   1      41.623  23.255  27.478  1.00  0.00     0.116 C 
BRANCH  27  28
ATOM     28  N   UNL A   1      41.511  24.027  26.241  1.00  0.00    -0.352 N 
ATOM     29  C   UNL A   1      41.322  25.382  26.101  1.00  0.00     0.251 C 
ATOM     30  H   UNL A   1      41.581  23.513  25.404  1.00  0.00     0.163 HD
ATOM     31  O   UNL A   1      41.153  25.898  25.001  1.00  0.00    -0.269 OA
BRANCH  29  32
ATOM     32  C   UNL A   1      41.289  26.189  27.330  1.00  0.00     0.039 A 
ATOM     33  C   UNL A   1      42.250  27.185  27.516  1.00  0.00     0.014 A 
ATOM     34  C   UNL A   1      40.203  26.053  28.199  1.00  0.00     0.014 A 
ATOM     35  C   UNL A   1      42.077  28.105  28.547  1.00  0.00     0.010 A 
ATOM     36  C   UNL A   1      39.983  27.027  29.156  1.00  0.00     0.010 A 
ATOM     37  C   UNL A   1      40.926  28.051  29.347  1.00  0.00    -0.014 A 
BRANCH  37  38
ATOM     38  C   UNL A   1      40.705  29.000  30.460  1.00  0.00     0.031 A 
ATOM     39  C   UNL A   1      41.554  28.862  31.689  1.00  0.00     0.074 A 
ATOM     40  C   UNL A   1      39.707  29.901  30.400  1.00  0.00     0.049 A 
ATOM     41  N   UNL A   1      41.454  29.474  32.837  1.00  0.00    -0.248 NA
ATOM     42  C   UNL A   1      42.635  27.861  31.630  1.00  0.00     0.031 C 
ATOM     43  C   UNL A   1      38.795  30.086  29.270  1.00  0.00     0.029 A 
ATOM     44  N   UNL A   1      39.285  30.823  31.321  1.00  0.00    -0.354 N 
ATOM     45  C   UNL A   1      42.438  28.913  33.643  1.00  0.00     0.074 A 
ATOM     46  C   UNL A   1      43.076  27.867  32.877  1.00  0.00     0.031 C 
ATOM     47  C   UNL A   1      37.936  31.079  29.557  1.00  0.00     0.029 A 
ATOM     48  C   UNL A   1      38.217  31.577  30.900  1.00  0.00     0.049 A 
ATOM     49  H   UNL A   1      39.709  30.935  32.203  1.00  0.00     0.167 HD
ATOM     50  C   UNL A   1      42.799  29.262  34.898  1.00  0.00     0.037 A 
ATOM     51  C   UNL A   1      37.546  32.560  31.533  1.00  0.00     0.037 A 
ATOM     52  C   UNL A   1      42.186  30.338  35.625  1.00  0.00     0.049 A 
ATOM     53  C   UNL A   1      37.977  32.953  32.920  1.00  0.00     0.074 A 
ATOM     54  C   UNL A   1      42.509  30.825  36.878  1.00  0.00     0.029 A 
ATOM     55  N   UNL A   1      41.128  31.103  35.152  1.00  0.00    -0.354 N 
ATOM     56  N   UNL A   1      38.937  32.443  33.657  1.00  0.00    -0.248 NA
ATOM     57  C   UNL A   1      37.243  34.052  33.560  1.00  0.00     0.031 C 
ATOM     58  C   UNL A   1      41.627  31.871  37.174  1.00  0.00     0.029 A 
ATOM     59  C   UNL A   1      40.777  32.055  36.091  1.00  0.00     0.049 A 
ATOM     60  H   UNL A   1      40.693  30.985  34.278  1.00  0.00     0.167 HD
ATOM     61  C   UNL A   1      38.932  33.168  34.842  1.00  0.00     0.074 A 
ATOM     62  C   UNL A   1      37.881  34.159  34.719  1.00  0.00     0.031 C 
ATOM     63  C   UNL A   1      39.724  33.028  35.935  1.00  0.00     0.037 A 
BRANCH  50  64
ATOM     64  C   UNL A   1      43.911  28.478  35.532  1.00  0.00     0.058 A 
ATOM     65  C   UNL A   1      45.259  28.822  35.331  1.00  0.00     0.135 A 
ATOM     66  C   UNL A   1      43.633  27.349  36.318  1.00  0.00     0.135 A 
ATOM     67  F   UNL A   1      45.580  29.877  34.566  1.00  0.00    -0.206 F 
ATOM     68  C   UNL A   1      46.291  28.048  35.848  1.00  0.00     0.059 A 
ATOM     69  C   UNL A   1      44.651  26.576  36.869  1.00  0.00     0.059 A 
ATOM     70  F   UNL A   1      42.364  26.971  36.535  1.00  0.00    -0.206 F 
ATOM     71  C   UNL A   1      45.977  26.922  36.609  1.00  0.00     0.060 A 
BRANCH  71  72
ATOM     72  S   UNL A   1      47.329  25.911  37.249  1.00  0.00     0.124 S 
ATOM     73  O   UNL A   1      48.233  25.878  36.103  1.00  0.00    -0.237 OA
ATOM     74  O   UNL A   1      47.787  26.689  38.395  1.00  0.00    -0.237 OA
ATOM     75  O   UNL A   1      46.681  24.645  37.574  1.00  0.00    -0.744 OA
ENDBRANCH  71  72
ENDBRANCH  50  64
BRANCH  51  76
ATOM     76  C   UNL A   1      36.440  33.264  30.833  1.00  0.00     0.058 A 
ATOM     77  C   UNL A   1      35.113  33.100  31.253  1.00  0.00     0.135 A 
ATOM     78  C   UNL A   1      36.687  34.160  29.782  1.00  0.00     0.135 A 
ATOM     79  F   UNL A   1      34.826  32.248  32.250  1.00  0.00    -0.206 F 
ATOM     80  C   UNL A   1      34.068  33.806  30.665  1.00  0.00     0.059 A 
ATOM     81  C   UNL A   1      35.662  34.891  29.188  1.00  0.00     0.059 A 
ATOM     82  F   UNL A   1      37.943  34.362  29.353  1.00  0.00    -0.206 F 
ATOM     83  C   UNL A   1      34.354  34.709  29.640  1.00  0.00     0.060 A 
BRANCH  83  84
ATOM     84  S   UNL A   1      33.001  35.689  28.953  1.00  0.00     0.124 S 
ATOM     85  O   UNL A   1      33.719  36.819  28.374  1.00  0.00    -0.237 OA
ATOM     86  O   UNL A   1      32.404  34.757  28.001  1.00  0.00    -0.237 OA
ATOM     87  O   UNL A   1      32.179  35.993  30.120  1.00  0.00    -0.744 OA
ENDBRANCH  83  84
ENDBRANCH  51  76
BRANCH  63  88
ATOM     88  C   UNL A   1      39.494  33.972  37.079  1.00  0.00     0.058 A 
ATOM     89  C   UNL A   1      38.700  33.605  38.176  1.00  0.00     0.135 A 
ATOM     90  C   UNL A   1      40.151  35.211  37.121  1.00  0.00     0.135 A 
ATOM     91  F   UNL A   1      38.049  32.432  38.177  1.00  0.00    -0.206 F 
ATOM     92  C   UNL A   1      38.561  34.442  39.277  1.00  0.00     0.059 A 
ATOM     93  C   UNL A   1      40.043  36.053  38.222  1.00  0.00     0.059 A 
ATOM     94  F   UNL A   1      40.931  35.598  36.099  1.00  0.00    -0.206 F 
ATOM     95  C   UNL A   1      39.241  35.661  39.293  1.00  0.00     0.060 A 
BRANCH  95  96
ATOM     96  S   UNL A   1      39.100  36.708  40.757  1.00  0.00     0.124 S 
ATOM     97  O   UNL A   1      38.219  35.912  41.603  1.00  0.00    -0.237 OA
ATOM     98  O   UNL A   1      40.486  36.811  41.203  1.00  0.00    -0.237 OA
ATOM     99  O   UNL A   1      38.524  37.944  40.236  1.00  0.00    -0.744 OA
ENDBRANCH  95  96
ENDBRANCH  63  88
ENDBRANCH  37  38
ENDBRANCH  29  32
ENDBRANCH  27  28
ENDBRANCH   1  27
TORSDOF 15
ENDMDL
