MODEL 1
REMARK VINA RESULT:     -13.0      0.000      0.000
REMARK SMILES Cc1cc(C(=O)NCCCCNC(=O)c2ccc(-c3c4nc(c(-c5c(F)cc(S(=O)(=O)[O-])cc5F)c5ccc([nH]5)c(-c5c(F)cc(S(=O)(=O)[O-])cc5F)c5nc(c(-c6c(F)cc(S(=O)(=O)[O-])cc6F)c6ccc3[nH]6)C=C5)C=C4)cc2)nc(N2CCN(c3ccccc3Cl)CC2)n1
REMARK SMILES IDX 10 1 9 2 8 3 7 4 5 5 6 6 4 8 1 9 2 10 3 11 96 12 82 13 81 14
REMARK SMILES IDX 83 15 84 16 95 17 85 18 94 19 86 20 87 21 88 22 92 23 89 24
REMARK SMILES IDX 91 25 93 26 90 27 11 28 12 29 13 30 14 32 15 33 16 34 80 35
REMARK SMILES IDX 17 36 79 37 18 38 19 39 20 40 73 41 21 42 78 43 72 44 74 45
REMARK SMILES IDX 22 46 77 47 71 48 70 49 23 51 57 52 36 53 56 54 37 55 40 56
REMARK SMILES IDX 55 57 75 58 38 59 39 60 54 62 76 63 41 64 24 65 25 66 34 67
REMARK SMILES IDX 26 68 27 69 33 70 35 71 28 72 29 73 30 74 31 75 32 76 58 77
REMARK SMILES IDX 59 78 68 79 60 80 61 81 67 82 69 83 62 84 63 85 64 86 65 87
REMARK SMILES IDX 66 88 42 89 43 90 52 91 44 92 45 93 51 94 53 95 46 96 47 97
REMARK SMILES IDX 48 98 49 99 50 100
REMARK H PARENT 7 7 12 31 74 50 40 61
REMARK Flexibility Score: inf
ROOT
ATOM      1  C   UNL A   1      40.290  22.045  27.437  1.00  0.00     0.023 C 
ENDROOT
BRANCH   1   2
ATOM      2  C   UNL A   1      39.584  21.906  26.084  1.00  0.00     0.023 C 
BRANCH   2   3
ATOM      3  C   UNL A   1      38.218  22.590  26.029  1.00  0.00     0.116 C 
BRANCH   3   4
ATOM      4  N   UNL A   1      37.815  22.763  24.654  1.00  0.00    -0.351 N 
ATOM      5  C   UNL A   1      36.593  22.986  24.069  1.00  0.00     0.270 C 
ATOM      6  O   UNL A   1      36.576  22.982  22.834  1.00  0.00    -0.268 OA
ATOM      7  H   UNL A   1      38.558  22.710  24.011  1.00  0.00     0.163 HD
BRANCH   5   8
ATOM      8  C   UNL A   1      35.328  23.279  24.830  1.00  0.00     0.133 A 
ATOM      9  C   UNL A   1      33.134  22.441  27.730  1.00  0.00     0.067 C 
ATOM     10  C   UNL A   1      33.725  23.107  26.522  1.00  0.00     0.044 A 
ATOM     11  C   UNL A   1      34.845  22.581  25.909  1.00  0.00     0.058 A 
ATOM     12  N   UNL A   1      33.084  24.195  26.052  1.00  0.00    -0.218 NA
ATOM     13  C   UNL A   1      33.551  24.747  24.925  1.00  0.00     0.226 A 
ATOM     14  N   UNL A   1      34.664  24.333  24.323  1.00  0.00    -0.208 NA
BRANCH  13  15
ATOM     15  N   UNL A   1      32.864  25.756  24.296  1.00  0.00    -0.337 N 
ATOM     16  C   UNL A   1      32.619  27.009  25.002  1.00  0.00     0.141 C 
ATOM     17  C   UNL A   1      31.770  25.259  23.442  1.00  0.00     0.141 C 
ATOM     18  C   UNL A   1      32.176  28.100  23.993  1.00  0.00     0.138 C 
ATOM     19  C   UNL A   1      31.287  26.351  22.471  1.00  0.00     0.138 C 
ATOM     20  N   UNL A   1      31.043  27.603  23.202  1.00  0.00    -0.367 N 
BRANCH  20  21
ATOM     21  C   UNL A   1      30.005  28.424  22.811  1.00  0.00     0.056 A 
ATOM     22  C   UNL A   1      30.259  29.611  22.109  1.00  0.00     0.027 A 
ATOM     23  C   UNL A   1      28.659  28.113  23.102  1.00  0.00     0.064 A 
ATOM     24  C   UNL A   1      29.219  30.455  21.711  1.00  0.00     0.002 A 
ATOM     25  C   UNL A   1      27.619  28.960  22.711  1.00  0.00     0.023 A 
ATOM     26  Cl  UNL A   1      28.229  26.703  24.018  1.00  0.00    -0.082 Cl
ATOM     27  C   UNL A   1      27.899  30.132  22.015  1.00  0.00     0.002 A 
ENDBRANCH  20  21
ENDBRANCH  13  15
ENDBRANCH   5   8
ENDBRANCH   3   4
ENDBRANCH   2   3
ENDBRANCH   1   2
BRANCH   1  28
ATOM     28  C   UNL A   1      41.441  23.047  27.453  1.00  0.00     0.116 C 
BRANCH  28  29
ATOM     29  N   UNL A   1      41.513  23.845  26.243  1.00  0.00    -0.352 N 
ATOM     30  C   UNL A   1      41.437  25.216  26.114  1.00  0.00     0.251 C 
ATOM     31  H   UNL A   1      41.631  23.343  25.404  1.00  0.00     0.163 HD
ATOM     32  O   UNL A   1      41.404  25.730  25.008  1.00  0.00    -0.269 OA
BRANCH  30  33
ATOM     33  C   UNL A   1      41.346  26.039  27.337  1.00  0.00     0.039 A 
ATOM     34  C   UNL A   1      42.341  26.988  27.577  1.00  0.00     0.014 A 
ATOM     35  C   UNL A   1      40.269  25.899  28.214  1.00  0.00     0.014 A 
ATOM     36  C   UNL A   1      42.222  27.847  28.671  1.00  0.00     0.010 A 
ATOM     37  C   UNL A   1      40.119  26.795  29.267  1.00  0.00     0.010 A 
ATOM     38  C   UNL A   1      41.092  27.779  29.503  1.00  0.00    -0.014 A 
BRANCH  38  39
ATOM     39  C   UNL A   1      40.905  28.735  30.620  1.00  0.00     0.031 A 
ATOM     40  C   UNL A   1      41.747  28.619  31.859  1.00  0.00     0.074 A 
ATOM     41  C   UNL A   1      39.926  29.658  30.546  1.00  0.00     0.049 A 
ATOM     42  N   UNL A   1      41.684  29.310  32.967  1.00  0.00    -0.248 NA
ATOM     43  C   UNL A   1      42.776  27.567  31.863  1.00  0.00     0.031 C 
ATOM     44  C   UNL A   1      39.009  29.828  29.417  1.00  0.00     0.029 A 
ATOM     45  N   UNL A   1      39.531  30.617  31.442  1.00  0.00    -0.354 N 
ATOM     46  C   UNL A   1      42.649  28.767  33.806  1.00  0.00     0.074 A 
ATOM     47  C   UNL A   1      43.251  27.660  33.096  1.00  0.00     0.031 C 
ATOM     48  C   UNL A   1      38.169  30.842  29.683  1.00  0.00     0.029 A 
ATOM     49  C   UNL A   1      38.468  31.373  31.009  1.00  0.00     0.049 A 
ATOM     50  H   UNL A   1      39.968  30.750  32.315  1.00  0.00     0.167 HD
ATOM     51  C   UNL A   1      43.012  29.169  35.048  1.00  0.00     0.037 A 
ATOM     52  C   UNL A   1      37.807  32.378  31.615  1.00  0.00     0.037 A 
ATOM     53  C   UNL A   1      42.429  30.291  35.735  1.00  0.00     0.049 A 
ATOM     54  C   UNL A   1      38.247  32.826  32.980  1.00  0.00     0.074 A 
ATOM     55  C   UNL A   1      42.770  30.819  36.967  1.00  0.00     0.029 A 
ATOM     56  N   UNL A   1      41.380  31.058  35.246  1.00  0.00    -0.354 N 
ATOM     57  N   UNL A   1      39.206  32.343  33.735  1.00  0.00    -0.248 NA
ATOM     58  C   UNL A   1      37.523  33.957  33.575  1.00  0.00     0.031 C 
ATOM     59  C   UNL A   1      41.908  31.888  37.237  1.00  0.00     0.029 A 
ATOM     60  C   UNL A   1      41.053  32.048  36.157  1.00  0.00     0.049 A 
ATOM     61  H   UNL A   1      40.935  30.918  34.379  1.00  0.00     0.167 HD
ATOM     62  C   UNL A   1      39.216  33.126  34.884  1.00  0.00     0.074 A 
ATOM     63  C   UNL A   1      38.174  34.120  34.720  1.00  0.00     0.031 C 
ATOM     64  C   UNL A   1      40.017  33.033  35.973  1.00  0.00     0.037 A 
BRANCH  51  65
ATOM     65  C   UNL A   1      44.098  28.389  35.734  1.00  0.00     0.058 A 
ATOM     66  C   UNL A   1      45.456  28.694  35.544  1.00  0.00     0.135 A 
ATOM     67  C   UNL A   1      43.781  27.327  36.596  1.00  0.00     0.135 A 
ATOM     68  F   UNL A   1      45.816  29.690  34.717  1.00  0.00    -0.206 F 
ATOM     69  C   UNL A   1      46.461  27.951  36.153  1.00  0.00     0.059 A 
ATOM     70  C   UNL A   1      44.770  26.586  37.237  1.00  0.00     0.059 A 
ATOM     71  F   UNL A   1      42.499  26.992  36.813  1.00  0.00    -0.206 F 
ATOM     72  C   UNL A   1      46.107  26.894  36.993  1.00  0.00     0.060 A 
BRANCH  72  73
ATOM     73  S   UNL A   1      47.423  25.925  37.762  1.00  0.00     0.124 S 
ATOM     74  O   UNL A   1      46.682  25.196  38.787  1.00  0.00    -0.237 OA
ATOM     75  O   UNL A   1      47.917  25.124  36.648  1.00  0.00    -0.237 OA
ATOM     76  O   UNL A   1      48.346  26.941  38.258  1.00  0.00    -0.744 OA
ENDBRANCH  72  73
ENDBRANCH  51  65
BRANCH  52  77
ATOM     77  C   UNL A   1      36.684  33.050  30.911  1.00  0.00     0.058 A 
ATOM     78  C   UNL A   1      35.357  32.827  31.304  1.00  0.00     0.135 A 
ATOM     79  C   UNL A   1      36.916  33.953  29.862  1.00  0.00     0.135 A 
ATOM     80  F   UNL A   1      35.087  31.969  32.299  1.00  0.00    -0.206 F 
ATOM     81  C   UNL A   1      34.295  33.468  30.675  1.00  0.00     0.059 A 
ATOM     82  C   UNL A   1      35.871  34.622  29.231  1.00  0.00     0.059 A 
ATOM     83  F   UNL A   1      38.170  34.213  29.463  1.00  0.00    -0.206 F 
ATOM     84  C   UNL A   1      34.563  34.367  29.642  1.00  0.00     0.060 A 
BRANCH  84  85
ATOM     85  S   UNL A   1      33.182  35.247  28.878  1.00  0.00     0.124 S 
ATOM     86  O   UNL A   1      32.566  34.192  28.082  1.00  0.00    -0.237 OA
ATOM     87  O   UNL A   1      32.422  35.696  30.041  1.00  0.00    -0.237 OA
ATOM     88  O   UNL A   1      33.839  36.309  28.123  1.00  0.00    -0.744 OA
ENDBRANCH  84  85
ENDBRANCH  52  77
BRANCH  64  89
ATOM     89  C   UNL A   1      39.818  34.047  37.063  1.00  0.00     0.058 A 
ATOM     90  C   UNL A   1      39.107  33.740  38.233  1.00  0.00     0.135 A 
ATOM     91  C   UNL A   1      40.393  35.323  36.958  1.00  0.00     0.135 A 
ATOM     92  F   UNL A   1      38.532  32.535  38.377  1.00  0.00    -0.206 F 
ATOM     93  C   UNL A   1      38.958  34.670  39.256  1.00  0.00     0.059 A 
ATOM     94  C   UNL A   1      40.277  36.261  37.978  1.00  0.00     0.059 A 
ATOM     95  F   UNL A   1      41.091  35.662  35.863  1.00  0.00    -0.206 F 
ATOM     96  C   UNL A   1      39.548  35.929  39.120  1.00  0.00     0.060 A 
BRANCH  96  97
ATOM     97  S   UNL A   1      39.384  37.115  40.471  1.00  0.00     0.124 S 
ATOM     98  O   UNL A   1      40.771  37.275  40.891  1.00  0.00    -0.237 OA
ATOM     99  O   UNL A   1      38.786  38.269  39.805  1.00  0.00    -0.237 OA
ATOM    100  O   UNL A   1      38.514  36.428  41.420  1.00  0.00    -0.744 OA
ENDBRANCH  96  97
ENDBRANCH  64  89
ENDBRANCH  38  39
ENDBRANCH  30  33
ENDBRANCH  28  29
ENDBRANCH   1  28
TORSDOF 16
ENDMDL
MODEL 2
REMARK VINA RESULT:     -12.5      6.502     12.099
REMARK SMILES Cc1cc(C(=O)NCCCCNC(=O)c2ccc(-c3c4nc(c(-c5c(F)cc(S(=O)(=O)[O-])cc5F)c5ccc([nH]5)c(-c5c(F)cc(S(=O)(=O)[O-])cc5F)c5nc(c(-c6c(F)cc(S(=O)(=O)[O-])cc6F)c6ccc3[nH]6)C=C5)C=C4)cc2)nc(N2CCN(c3ccccc3Cl)CC2)n1
REMARK SMILES IDX 10 1 9 2 8 3 7 4 5 5 6 6 4 8 1 9 2 10 3 11 96 12 82 13 81 14
REMARK SMILES IDX 83 15 84 16 95 17 85 18 94 19 86 20 87 21 88 22 92 23 89 24
REMARK SMILES IDX 91 25 93 26 90 27 11 28 12 29 13 30 14 32 15 33 16 34 80 35
REMARK SMILES IDX 17 36 79 37 18 38 19 39 20 40 73 41 21 42 78 43 72 44 74 45
REMARK SMILES IDX 22 46 77 47 71 48 70 49 23 51 57 52 36 53 56 54 37 55 40 56
REMARK SMILES IDX 55 57 75 58 38 59 39 60 54 62 76 63 41 64 24 65 25 66 34 67
REMARK SMILES IDX 26 68 27 69 33 70 35 71 28 72 29 73 30 74 31 75 32 76 58 77
REMARK SMILES IDX 59 78 68 79 60 80 61 81 67 82 69 83 62 84 63 85 64 86 65 87
REMARK SMILES IDX 66 88 42 89 43 90 52 91 44 92 45 93 51 94 53 95 46 96 47 97
REMARK SMILES IDX 48 98 49 99 50 100
REMARK H PARENT 7 7 12 31 74 50 40 61
REMARK Flexibility Score: inf
ROOT
ATOM      1  C   UNL A   1      34.329  30.989  27.267  1.00  0.00     0.023 C 
ENDROOT
BRANCH   1   2
ATOM      2  C   UNL A   1      33.519  29.691  27.359  1.00  0.00     0.023 C 
BRANCH   2   3
ATOM      3  C   UNL A   1      33.957  28.620  26.360  1.00  0.00     0.116 C 
BRANCH   3   4
ATOM      4  N   UNL A   1      33.838  29.132  25.015  1.00  0.00    -0.351 N 
ATOM      5  C   UNL A   1      33.100  28.723  23.931  1.00  0.00     0.270 C 
ATOM      6  O   UNL A   1      33.310  29.329  22.876  1.00  0.00    -0.268 OA
ATOM      7  H   UNL A   1      34.392  29.926  24.842  1.00  0.00     0.163 HD
BRANCH   5   8
ATOM      8  C   UNL A   1      32.048  27.649  23.977  1.00  0.00     0.133 A 
ATOM      9  C   UNL A   1      28.414  26.798  23.948  1.00  0.00     0.067 C 
ATOM     10  C   UNL A   1      29.912  26.702  23.937  1.00  0.00     0.044 A 
ATOM     11  C   UNL A   1      30.689  27.839  24.024  1.00  0.00     0.058 A 
ATOM     12  N   UNL A   1      30.441  25.463  23.891  1.00  0.00    -0.218 NA
ATOM     13  C   UNL A   1      31.773  25.359  23.968  1.00  0.00     0.226 A 
ATOM     14  N   UNL A   1      32.583  26.415  23.984  1.00  0.00    -0.208 NA
BRANCH  13  15
ATOM     15  N   UNL A   1      32.379  24.132  24.087  1.00  0.00    -0.337 N 
ATOM     16  C   UNL A   1      33.059  23.549  22.935  1.00  0.00     0.141 C 
ATOM     17  C   UNL A   1      31.624  23.200  24.943  1.00  0.00     0.141 C 
ATOM     18  C   UNL A   1      33.964  22.379  23.397  1.00  0.00     0.138 C 
ATOM     19  C   UNL A   1      32.498  22.006  25.367  1.00  0.00     0.138 C 
ATOM     20  N   UNL A   1      33.171  21.432  24.192  1.00  0.00    -0.367 N 
BRANCH  20  21
ATOM     21  C   UNL A   1      33.373  20.070  24.126  1.00  0.00     0.056 A 
ATOM     22  C   UNL A   1      32.380  19.225  23.610  1.00  0.00     0.027 A 
ATOM     23  C   UNL A   1      34.571  19.470  24.574  1.00  0.00     0.064 A 
ATOM     24  C   UNL A   1      32.567  17.841  23.541  1.00  0.00     0.002 A 
ATOM     25  C   UNL A   1      34.756  18.086  24.513  1.00  0.00     0.023 A 
ATOM     26  Cl  UNL A   1      35.844  20.408  25.288  1.00  0.00    -0.082 Cl
ATOM     27  C   UNL A   1      33.754  17.272  23.995  1.00  0.00     0.002 A 
ENDBRANCH  20  21
ENDBRANCH  13  15
ENDBRANCH   5   8
ENDBRANCH   3   4
ENDBRANCH   2   3
ENDBRANCH   1   2
BRANCH   1  28
ATOM     28  C   UNL A   1      35.633  30.982  28.058  1.00  0.00     0.116 C 
BRANCH  28  29
ATOM     29  N   UNL A   1      35.430  30.781  29.482  1.00  0.00    -0.352 N 
ATOM     30  C   UNL A   1      36.341  30.354  30.425  1.00  0.00     0.251 C 
ATOM     31  H   UNL A   1      34.524  30.973  29.817  1.00  0.00     0.163 HD
ATOM     32  O   UNL A   1      35.982  30.129  31.569  1.00  0.00    -0.269 OA
BRANCH  30  33
ATOM     33  C   UNL A   1      37.739  30.130  30.010  1.00  0.00     0.039 A 
ATOM     34  C   UNL A   1      38.709  29.954  30.998  1.00  0.00     0.014 A 
ATOM     35  C   UNL A   1      38.081  30.057  28.657  1.00  0.00     0.014 A 
ATOM     36  C   UNL A   1      40.017  29.638  30.629  1.00  0.00     0.010 A 
ATOM     37  C   UNL A   1      39.369  29.682  28.292  1.00  0.00     0.010 A 
ATOM     38  C   UNL A   1      40.348  29.466  29.275  1.00  0.00    -0.014 A 
BRANCH  38  39
ATOM     39  C   UNL A   1      41.710  29.051  28.866  1.00  0.00     0.031 A 
ATOM     40  C   UNL A   1      42.820  30.062  28.805  1.00  0.00     0.074 A 
ATOM     41  C   UNL A   1      41.928  27.778  28.479  1.00  0.00     0.049 A 
ATOM     42  N   UNL A   1      44.055  29.909  28.404  1.00  0.00    -0.248 NA
ATOM     43  C   UNL A   1      42.488  31.433  29.224  1.00  0.00     0.031 C 
ATOM     44  C   UNL A   1      40.914  26.722  28.441  1.00  0.00     0.029 A 
ATOM     45  N   UNL A   1      43.067  27.162  28.029  1.00  0.00    -0.354 N 
ATOM     46  C   UNL A   1      44.642  31.164  28.503  1.00  0.00     0.074 A 
ATOM     47  C   UNL A   1      43.615  32.077  28.959  1.00  0.00     0.031 C 
ATOM     48  C   UNL A   1      41.482  25.584  28.009  1.00  0.00     0.029 A 
ATOM     49  C   UNL A   1      42.888  25.837  27.712  1.00  0.00     0.049 A 
ATOM     50  H   UNL A   1      43.931  27.626  27.942  1.00  0.00     0.167 HD
ATOM     51  C   UNL A   1      45.926  31.519  28.255  1.00  0.00     0.037 A 
ATOM     52  C   UNL A   1      43.760  24.929  27.231  1.00  0.00     0.037 A 
ATOM     53  C   UNL A   1      46.948  30.600  27.831  1.00  0.00     0.049 A 
ATOM     54  C   UNL A   1      45.186  25.338  26.991  1.00  0.00     0.074 A 
ATOM     55  C   UNL A   1      48.292  30.846  27.616  1.00  0.00     0.029 A 
ATOM     56  N   UNL A   1      46.738  29.255  27.559  1.00  0.00    -0.354 N 
ATOM     57  N   UNL A   1      45.741  26.516  27.152  1.00  0.00    -0.248 NA
ATOM     58  C   UNL A   1      46.105  24.297  26.513  1.00  0.00     0.031 C 
ATOM     59  C   UNL A   1      48.890  29.656  27.184  1.00  0.00     0.029 A 
ATOM     60  C   UNL A   1      47.924  28.661  27.164  1.00  0.00     0.049 A 
ATOM     61  H   UNL A   1      45.872  28.793  27.633  1.00  0.00     0.167 HD
ATOM     62  C   UNL A   1      47.081  26.353  26.817  1.00  0.00     0.074 A 
ATOM     63  C   UNL A   1      47.253  24.960  26.454  1.00  0.00     0.031 C 
ATOM     64  C   UNL A   1      48.078  27.271  26.813  1.00  0.00     0.037 A 
BRANCH  51  65
ATOM     65  C   UNL A   1      46.290  32.965  28.446  1.00  0.00     0.058 A 
ATOM     66  C   UNL A   1      46.228  33.885  27.388  1.00  0.00     0.135 A 
ATOM     67  C   UNL A   1      46.701  33.439  29.702  1.00  0.00     0.135 A 
ATOM     68  F   UNL A   1      45.857  33.482  26.162  1.00  0.00    -0.206 F 
ATOM     69  C   UNL A   1      46.597  35.215  27.557  1.00  0.00     0.059 A 
ATOM     70  C   UNL A   1      47.050  34.772  29.901  1.00  0.00     0.059 A 
ATOM     71  F   UNL A   1      46.779  32.602  30.749  1.00  0.00    -0.206 F 
ATOM     72  C   UNL A   1      47.013  35.647  28.817  1.00  0.00     0.060 A 
BRANCH  72  73
ATOM     73  S   UNL A   1      47.508  37.372  29.019  1.00  0.00     0.124 S 
ATOM     74  O   UNL A   1      47.523  37.833  27.634  1.00  0.00    -0.237 OA
ATOM     75  O   UNL A   1      46.439  37.910  29.854  1.00  0.00    -0.237 OA
ATOM     76  O   UNL A   1      48.814  37.277  29.664  1.00  0.00    -0.744 OA
ENDBRANCH  72  73
ENDBRANCH  51  65
BRANCH  52  77
ATOM     77  C   UNL A   1      43.309  23.535  26.983  1.00  0.00     0.058 A 
ATOM     78  C   UNL A   1      43.022  23.095  25.683  1.00  0.00     0.135 A 
ATOM     79  C   UNL A   1      43.192  22.609  28.031  1.00  0.00     0.135 A 
ATOM     80  F   UNL A   1      43.116  23.947  24.651  1.00  0.00    -0.206 F 
ATOM     81  C   UNL A   1      42.626  21.787  25.428  1.00  0.00     0.059 A 
ATOM     82  C   UNL A   1      42.817  21.289  27.799  1.00  0.00     0.059 A 
ATOM     83  F   UNL A   1      43.473  22.977  29.289  1.00  0.00    -0.206 F 
ATOM     84  C   UNL A   1      42.530  20.889  26.494  1.00  0.00     0.060 A 
BRANCH  84  85
ATOM     85  S   UNL A   1      42.080  19.175  26.144  1.00  0.00     0.124 S 
ATOM     86  O   UNL A   1      42.967  18.860  25.030  1.00  0.00    -0.237 OA
ATOM     87  O   UNL A   1      42.384  18.513  27.409  1.00  0.00    -0.237 OA
ATOM     88  O   UNL A   1      40.660  19.262  25.818  1.00  0.00    -0.744 OA
ENDBRANCH  84  85
ENDBRANCH  52  77
BRANCH  64  89
ATOM     89  C   UNL A   1      49.450  26.797  26.430  1.00  0.00     0.058 A 
ATOM     90  C   UNL A   1      50.327  26.242  27.373  1.00  0.00     0.135 A 
ATOM     91  C   UNL A   1      49.870  26.850  25.091  1.00  0.00     0.135 A 
ATOM     92  F   UNL A   1      49.974  26.177  28.667  1.00  0.00    -0.206 F 
ATOM     93  C   UNL A   1      51.583  25.770  27.006  1.00  0.00     0.059 A 
ATOM     94  C   UNL A   1      51.112  26.362  24.697  1.00  0.00     0.059 A 
ATOM     95  F   UNL A   1      49.064  27.363  24.149  1.00  0.00    -0.206 F 
ATOM     96  C   UNL A   1      51.966  25.833  25.664  1.00  0.00     0.060 A 
BRANCH  96  97
ATOM     97  S   UNL A   1      53.582  25.180  25.191  1.00  0.00     0.124 S 
ATOM     98  O   UNL A   1      53.722  25.700  23.836  1.00  0.00    -0.237 OA
ATOM     99  O   UNL A   1      54.465  25.772  26.192  1.00  0.00    -0.237 OA
ATOM    100  O   UNL A   1      53.406  23.735  25.296  1.00  0.00    -0.744 OA
ENDBRANCH  96  97
ENDBRANCH  64  89
ENDBRANCH  38  39
ENDBRANCH  30  33
ENDBRANCH  28  29
ENDBRANCH   1  28
TORSDOF 16
ENDMDL
MODEL 3
REMARK VINA RESULT:     -12.4      5.987      8.070
REMARK SMILES Cc1cc(C(=O)NCCCCNC(=O)c2ccc(-c3c4nc(c(-c5c(F)cc(S(=O)(=O)[O-])cc5F)c5ccc([nH]5)c(-c5c(F)cc(S(=O)(=O)[O-])cc5F)c5nc(c(-c6c(F)cc(S(=O)(=O)[O-])cc6F)c6ccc3[nH]6)C=C5)C=C4)cc2)nc(N2CCN(c3ccccc3Cl)CC2)n1
REMARK SMILES IDX 10 1 9 2 8 3 7 4 5 5 6 6 4 8 1 9 2 10 3 11 96 12 82 13 81 14
REMARK SMILES IDX 83 15 84 16 95 17 85 18 94 19 86 20 87 21 88 22 92 23 89 24
REMARK SMILES IDX 91 25 93 26 90 27 11 28 12 29 13 30 14 32 15 33 16 34 80 35
REMARK SMILES IDX 17 36 79 37 18 38 19 39 20 40 73 41 21 42 78 43 72 44 74 45
REMARK SMILES IDX 22 46 77 47 71 48 70 49 23 51 57 52 36 53 56 54 37 55 40 56
REMARK SMILES IDX 55 57 75 58 38 59 39 60 54 62 76 63 41 64 24 65 25 66 34 67
REMARK SMILES IDX 26 68 27 69 33 70 35 71 28 72 29 73 30 74 31 75 32 76 58 77
REMARK SMILES IDX 59 78 68 79 60 80 61 81 67 82 69 83 62 84 63 85 64 86 65 87
REMARK SMILES IDX 66 88 42 89 43 90 52 91 44 92 45 93 51 94 53 95 46 96 47 97
REMARK SMILES IDX 48 98 49 99 50 100
REMARK H PARENT 7 7 12 31 74 50 40 61
REMARK Flexibility Score: inf
ROOT
ATOM      1  C   UNL A   1      38.932  20.028  24.866  1.00  0.00     0.023 C 
ENDROOT
BRANCH   1   2
ATOM      2  C   UNL A   1      37.421  20.248  25.002  1.00  0.00     0.023 C 
BRANCH   2   3
ATOM      3  C   UNL A   1      37.029  21.712  25.206  1.00  0.00     0.116 C 
BRANCH   3   4
ATOM      4  N   UNL A   1      36.147  21.826  26.343  1.00  0.00    -0.351 N 
ATOM      5  C   UNL A   1      34.797  22.055  26.449  1.00  0.00     0.270 C 
ATOM      6  O   UNL A   1      34.362  22.201  27.594  1.00  0.00    -0.268 OA
ATOM      7  H   UNL A   1      36.601  21.719  27.210  1.00  0.00     0.163 HD
BRANCH   5   8
ATOM      8  C   UNL A   1      33.847  22.081  25.282  1.00  0.00     0.133 A 
ATOM      9  C   UNL A   1      32.153  20.172  22.559  1.00  0.00     0.067 C 
ATOM     10  C   UNL A   1      32.565  21.258  23.510  1.00  0.00     0.044 A 
ATOM     11  C   UNL A   1      33.562  21.036  24.438  1.00  0.00     0.058 A 
ATOM     12  N   UNL A   1      31.954  22.451  23.373  1.00  0.00    -0.218 NA
ATOM     13  C   UNL A   1      32.374  23.452  24.156  1.00  0.00     0.226 A 
ATOM     14  N   UNL A   1      33.280  23.289  25.117  1.00  0.00    -0.208 NA
BRANCH  13  15
ATOM     15  N   UNL A   1      31.916  24.733  23.970  1.00  0.00    -0.337 N 
ATOM     16  C   UNL A   1      30.983  25.312  24.932  1.00  0.00     0.141 C 
ATOM     17  C   UNL A   1      31.679  25.058  22.552  1.00  0.00     0.141 C 
ATOM     18  C   UNL A   1      30.907  26.847  24.729  1.00  0.00     0.138 C 
ATOM     19  C   UNL A   1      31.550  26.578  22.346  1.00  0.00     0.138 C 
ATOM     20  N   UNL A   1      30.606  27.140  23.323  1.00  0.00    -0.367 N 
BRANCH  20  21
ATOM     21  C   UNL A   1      29.791  28.189  22.950  1.00  0.00     0.056 A 
ATOM     22  C   UNL A   1      30.336  29.348  22.381  1.00  0.00     0.027 A 
ATOM     23  C   UNL A   1      28.390  28.146  23.127  1.00  0.00     0.064 A 
ATOM     24  C   UNL A   1      29.525  30.422  22.002  1.00  0.00     0.002 A 
ATOM     25  C   UNL A   1      27.580  29.221  22.757  1.00  0.00     0.023 A 
ATOM     26  Cl  UNL A   1      27.611  26.789  23.877  1.00  0.00    -0.082 Cl
ATOM     27  C   UNL A   1      28.148  30.360  22.193  1.00  0.00     0.002 A 
ENDBRANCH  20  21
ENDBRANCH  13  15
ENDBRANCH   5   8
ENDBRANCH   3   4
ENDBRANCH   2   3
ENDBRANCH   1   2
BRANCH   1  28
ATOM     28  C   UNL A   1      39.694  20.010  26.188  1.00  0.00     0.116 C 
BRANCH  28  29
ATOM     29  N   UNL A   1      40.900  19.203  26.135  1.00  0.00    -0.352 N 
ATOM     30  C   UNL A   1      42.212  19.619  26.206  1.00  0.00     0.251 C 
ATOM     31  H   UNL A   1      40.763  18.233  26.034  1.00  0.00     0.163 HD
ATOM     32  O   UNL A   1      43.120  18.823  26.035  1.00  0.00    -0.269 OA
BRANCH  30  33
ATOM     33  C   UNL A   1      42.491  21.049  26.443  1.00  0.00     0.039 A 
ATOM     34  C   UNL A   1      42.686  21.482  27.756  1.00  0.00     0.014 A 
ATOM     35  C   UNL A   1      42.597  21.944  25.376  1.00  0.00     0.014 A 
ATOM     36  C   UNL A   1      43.053  22.807  27.995  1.00  0.00     0.010 A 
ATOM     37  C   UNL A   1      43.022  23.247  25.610  1.00  0.00     0.010 A 
ATOM     38  C   UNL A   1      43.258  23.689  26.921  1.00  0.00    -0.014 A 
BRANCH  38  39
ATOM     39  C   UNL A   1      43.727  25.076  27.148  1.00  0.00     0.031 A 
ATOM     40  C   UNL A   1      45.171  25.429  26.925  1.00  0.00     0.074 A 
ATOM     41  C   UNL A   1      42.867  25.998  27.625  1.00  0.00     0.049 A 
ATOM     42  N   UNL A   1      45.785  26.563  27.138  1.00  0.00    -0.248 NA
ATOM     43  C   UNL A   1      46.044  24.355  26.425  1.00  0.00     0.031 C 
ATOM     44  C   UNL A   1      41.456  25.757  27.934  1.00  0.00     0.029 A 
ATOM     45  N   UNL A   1      43.057  27.317  27.947  1.00  0.00    -0.354 N 
ATOM     46  C   UNL A   1      47.117  26.336  26.816  1.00  0.00     0.074 A 
ATOM     47  C   UNL A   1      47.230  24.944  26.439  1.00  0.00     0.031 C 
ATOM     48  C   UNL A   1      40.904  26.896  28.385  1.00  0.00     0.029 A 
ATOM     49  C   UNL A   1      41.927  27.936  28.425  1.00  0.00     0.049 A 
ATOM     50  H   UNL A   1      43.922  27.776  27.847  1.00  0.00     0.167 HD
ATOM     51  C   UNL A   1      48.149  27.215  26.817  1.00  0.00     0.037 A 
ATOM     52  C   UNL A   1      41.738  29.200  28.851  1.00  0.00     0.037 A 
ATOM     53  C   UNL A   1      48.022  28.605  27.164  1.00  0.00     0.049 A 
ATOM     54  C   UNL A   1      42.890  30.165  28.816  1.00  0.00     0.074 A 
ATOM     55  C   UNL A   1      48.991  29.592  27.135  1.00  0.00     0.029 A 
ATOM     56  N   UNL A   1      46.851  29.206  27.605  1.00  0.00    -0.354 N 
ATOM     57  N   UNL A   1      44.131  29.951  28.447  1.00  0.00    -0.248 NA
ATOM     58  C   UNL A   1      42.617  31.543  29.246  1.00  0.00     0.031 C 
ATOM     59  C   UNL A   1      48.413  30.784  27.587  1.00  0.00     0.029 A 
ATOM     60  C   UNL A   1      47.076  30.548  27.863  1.00  0.00     0.049 A 
ATOM     61  H   UNL A   1      45.989  28.746  27.718  1.00  0.00     0.167 HD
ATOM     62  C   UNL A   1      44.782  31.172  28.579  1.00  0.00     0.074 A 
ATOM     63  C   UNL A   1      43.795  32.122  29.052  1.00  0.00     0.031 C 
ATOM     64  C   UNL A   1      46.078  31.480  28.328  1.00  0.00     0.037 A 
BRANCH  51  65
ATOM     65  C   UNL A   1      49.501  26.691  26.421  1.00  0.00     0.058 A 
ATOM     66  C   UNL A   1      49.982  26.814  25.108  1.00  0.00     0.135 A 
ATOM     67  C   UNL A   1      50.329  26.063  27.365  1.00  0.00     0.135 A 
ATOM     68  F   UNL A   1      49.224  27.391  24.161  1.00  0.00    -0.206 F 
ATOM     69  C   UNL A   1      51.219  26.299  24.734  1.00  0.00     0.059 A 
ATOM     70  C   UNL A   1      51.582  25.563  27.020  1.00  0.00     0.059 A 
ATOM     71  F   UNL A   1      49.918  25.918  28.635  1.00  0.00    -0.206 F 
ATOM     72  C   UNL A   1      52.008  25.669  25.697  1.00  0.00     0.060 A 
BRANCH  72  73
ATOM     73  S   UNL A   1      53.604  24.988  25.196  1.00  0.00     0.124 S 
ATOM     74  O   UNL A   1      53.377  23.558  25.374  1.00  0.00    -0.237 OA
ATOM     75  O   UNL A   1      53.720  25.443  23.814  1.00  0.00    -0.237 OA
ATOM     76  O   UNL A   1      54.542  25.597  26.133  1.00  0.00    -0.744 OA
ENDBRANCH  72  73
ENDBRANCH  51  65
BRANCH  52  77
ATOM     77  C   UNL A   1      40.392  29.629  29.311  1.00  0.00     0.058 A 
ATOM     78  C   UNL A   1      40.135  29.846  30.672  1.00  0.00     0.135 A 
ATOM     79  C   UNL A   1      39.351  29.864  28.400  1.00  0.00     0.135 A 
ATOM     80  F   UNL A   1      41.100  29.630  31.580  1.00  0.00    -0.206 F 
ATOM     81  C   UNL A   1      38.890  30.273  31.119  1.00  0.00     0.059 A 
ATOM     82  C   UNL A   1      38.101  30.312  28.821  1.00  0.00     0.059 A 
ATOM     83  F   UNL A   1      39.553  29.688  27.086  1.00  0.00    -0.206 F 
ATOM     84  C   UNL A   1      37.879  30.507  30.184  1.00  0.00     0.060 A 
BRANCH  84  85
ATOM     85  S   UNL A   1      36.286  31.128  30.767  1.00  0.00     0.124 S 
ATOM     86  O   UNL A   1      35.899  30.095  31.720  1.00  0.00    -0.237 OA
ATOM     87  O   UNL A   1      36.651  32.421  31.339  1.00  0.00    -0.237 OA
ATOM     88  O   UNL A   1      35.488  31.196  29.547  1.00  0.00    -0.744 OA
ENDBRANCH  84  85
ENDBRANCH  52  77
BRANCH  64  89
ATOM     89  C   UNL A   1      46.500  32.906  28.533  1.00  0.00     0.058 A 
ATOM     90  C   UNL A   1      46.403  33.858  27.507  1.00  0.00     0.135 A 
ATOM     91  C   UNL A   1      46.956  33.337  29.789  1.00  0.00     0.135 A 
ATOM     92  F   UNL A   1      45.980  33.493  26.286  1.00  0.00    -0.206 F 
ATOM     93  C   UNL A   1      46.760  35.186  27.714  1.00  0.00     0.059 A 
ATOM     94  C   UNL A   1      47.297  34.664  30.025  1.00  0.00     0.059 A 
ATOM     95  F   UNL A   1      47.059  32.467  30.806  1.00  0.00    -0.206 F 
ATOM     96  C   UNL A   1      47.205  35.581  28.978  1.00  0.00     0.060 A 
BRANCH  96  97
ATOM     97  S   UNL A   1      47.627  37.315  29.247  1.00  0.00     0.124 S 
ATOM     98  O   UNL A   1      48.233  37.671  27.970  1.00  0.00    -0.237 OA
ATOM     99  O   UNL A   1      46.325  37.917  29.521  1.00  0.00    -0.237 OA
ATOM    100  O   UNL A   1      48.540  37.268  30.385  1.00  0.00    -0.744 OA
ENDBRANCH  96  97
ENDBRANCH  64  89
ENDBRANCH  38  39
ENDBRANCH  30  33
ENDBRANCH  28  29
ENDBRANCH   1  28
TORSDOF 16
ENDMDL
