MODEL 1
REMARK VINA RESULT:     -11.5      0.000      0.000
REMARK SMILES C[C@H]1SCCC[C@]1(Nc1ccc(Cl)cc1)C(=O)NCCCCNC(=O)c1ccc(-c2c3nc(c(-c4c(F)cc(S(=O)(=O)[O-])cc4F)c4ccc([nH]4)c(-c4c(F)cc(S(=O)(=O)[O-])cc4F)c4nc(c(-c5c(F)cc(S(=O)(=O)[O-])cc5F)c5ccc2[nH]5)C=C4)C=C3)cc1
REMARK SMILES IDX 21 1 20 2 19 3 18 4 16 5 17 6 7 8 1 9 2 10 3 11 4 12 6 13
REMARK SMILES IDX 5 14 8 15 9 17 10 18 15 19 11 20 14 21 12 22 13 23 22 24
REMARK SMILES IDX 23 25 24 26 25 28 26 29 27 30 91 31 28 32 90 33 29 34 30 35
REMARK SMILES IDX 31 36 84 37 32 38 89 39 83 40 85 41 33 42 88 43 82 44 81 45
REMARK SMILES IDX 34 47 68 48 47 49 67 50 48 51 51 52 66 53 86 54 49 55 50 56
REMARK SMILES IDX 65 58 87 59 52 60 35 61 36 62 45 63 37 64 38 65 44 66 46 67
REMARK SMILES IDX 39 68 40 69 41 70 42 71 43 72 69 73 70 74 79 75 71 76 72 77
REMARK SMILES IDX 78 78 80 79 73 80 74 81 75 82 76 83 77 84 53 85 54 86 63 87
REMARK SMILES IDX 55 88 56 89 62 90 64 91 57 92 58 93 59 94 60 95 61 96
REMARK H PARENT 18 7 8 16 23 27 85 46 51 57
REMARK Flexibility Score: inf
ROOT
ATOM      1  C   UNL A   1      32.546  28.147  26.229  1.00  0.00     0.023 C 
ENDROOT
BRANCH   1   2
ATOM      2  C   UNL A   1      32.611  28.487  24.747  1.00  0.00     0.023 C 
BRANCH   2   3
ATOM      3  C   UNL A   1      31.821  27.544  23.843  1.00  0.00     0.116 C 
BRANCH   3   4
ATOM      4  N   UNL A   1      32.663  26.910  22.844  1.00  0.00    -0.354 N 
ATOM      5  C   UNL A   1      33.127  25.628  22.738  1.00  0.00     0.246 C 
ATOM      6  O   UNL A   1      33.766  25.377  21.707  1.00  0.00    -0.272 OA
ATOM      7  H   UNL A   1      32.949  27.506  22.115  1.00  0.00     0.163 HD
BRANCH   5   8
ATOM      8  C   UNL A   1      32.945  24.529  23.853  1.00  0.00     0.128 C 
ATOM      9  C   UNL A   1      30.444  24.063  23.083  1.00  0.00     0.022 C 
ATOM     10  C   UNL A   1      31.415  24.415  24.202  1.00  0.00     0.078 C 
ATOM     11  S   UNL A   1      31.094  23.175  25.530  1.00  0.00    -0.156 SA
ATOM     12  C   UNL A   1      32.052  23.975  26.832  1.00  0.00     0.070 C 
ATOM     13  C   UNL A   1      33.668  25.030  25.150  1.00  0.00     0.040 C 
ATOM     14  C   UNL A   1      33.498  24.155  26.399  1.00  0.00     0.014 C 
BRANCH   8  15
ATOM     15  N   UNL A   1      33.519  23.207  23.485  1.00  0.00    -0.370 N 
ATOM     16  H   UNL A   1      32.971  22.655  22.882  1.00  0.00     0.161 HD
BRANCH  15  17
ATOM     17  C   UNL A   1      34.723  22.655  23.881  1.00  0.00     0.035 A 
ATOM     18  C   UNL A   1      34.844  21.547  24.728  1.00  0.00     0.027 A 
ATOM     19  C   UNL A   1      35.903  23.347  23.560  1.00  0.00     0.027 A 
ATOM     20  C   UNL A   1      36.081  21.165  25.265  1.00  0.00     0.022 A 
ATOM     21  C   UNL A   1      37.141  22.988  24.108  1.00  0.00     0.022 A 
ATOM     22  C   UNL A   1      37.221  21.900  24.970  1.00  0.00     0.041 A 
ATOM     23  Cl  UNL A   1      38.723  21.485  25.694  1.00  0.00    -0.084 Cl
ENDBRANCH  15  17
ENDBRANCH   8  15
ENDBRANCH   5   8
ENDBRANCH   3   4
ENDBRANCH   2   3
ENDBRANCH   1   2
BRANCH   1  24
ATOM     24  C   UNL A   1      33.767  28.562  27.038  1.00  0.00     0.116 C 
BRANCH  24  25
ATOM     25  N   UNL A   1      33.661  29.902  27.600  1.00  0.00    -0.352 N 
ATOM     26  C   UNL A   1      34.615  30.624  28.287  1.00  0.00     0.251 C 
ATOM     27  H   UNL A   1      32.794  30.351  27.474  1.00  0.00     0.163 HD
ATOM     28  O   UNL A   1      34.343  31.698  28.789  1.00  0.00    -0.269 OA
BRANCH  26  29
ATOM     29  C   UNL A   1      35.967  30.039  28.428  1.00  0.00     0.039 A 
ATOM     30  C   UNL A   1      36.849  30.109  27.349  1.00  0.00     0.014 A 
ATOM     31  C   UNL A   1      36.372  29.503  29.652  1.00  0.00     0.014 A 
ATOM     32  C   UNL A   1      38.175  29.713  27.527  1.00  0.00     0.010 A 
ATOM     33  C   UNL A   1      37.710  29.191  29.849  1.00  0.00     0.010 A 
ATOM     34  C   UNL A   1      38.625  29.290  28.790  1.00  0.00    -0.014 A 
BRANCH  34  35
ATOM     35  C   UNL A   1      40.044  28.928  29.027  1.00  0.00     0.031 A 
ATOM     36  C   UNL A   1      40.988  29.961  29.581  1.00  0.00     0.074 A 
ATOM     37  C   UNL A   1      40.497  27.712  28.667  1.00  0.00     0.049 A 
ATOM     38  N   UNL A   1      42.279  29.884  29.763  1.00  0.00    -0.248 NA
ATOM     39  C   UNL A   1      40.405  31.264  29.941  1.00  0.00     0.031 C 
ATOM     40  C   UNL A   1      39.691  26.650  28.058  1.00  0.00     0.029 A 
ATOM     41  N   UNL A   1      41.752  27.166  28.751  1.00  0.00    -0.354 N 
ATOM     42  C   UNL A   1      42.667  31.135  30.228  1.00  0.00     0.074 A 
ATOM     43  C   UNL A   1      41.484  31.967  30.250  1.00  0.00     0.031 C 
ATOM     44  C   UNL A   1      40.467  25.573  27.847  1.00  0.00     0.029 A 
ATOM     45  C   UNL A   1      41.828  25.877  28.278  1.00  0.00     0.049 A 
ATOM     46  H   UNL A   1      42.527  27.652  29.116  1.00  0.00     0.167 HD
ATOM     47  C   UNL A   1      43.894  31.547  30.626  1.00  0.00     0.037 A 
ATOM     48  C   UNL A   1      42.878  25.036  28.203  1.00  0.00     0.037 A 
ATOM     49  C   UNL A   1      45.055  30.700  30.652  1.00  0.00     0.049 A 
ATOM     50  C   UNL A   1      44.218  25.495  28.710  1.00  0.00     0.074 A 
ATOM     51  C   UNL A   1      46.331  30.997  31.097  1.00  0.00     0.029 A 
ATOM     52  N   UNL A   1      45.076  29.380  30.226  1.00  0.00    -0.354 N 
ATOM     53  N   UNL A   1      44.556  26.665  29.196  1.00  0.00    -0.248 NA
ATOM     54  C   UNL A   1      45.316  24.519  28.667  1.00  0.00     0.031 C 
ATOM     55  C   UNL A   1      47.129  29.861  30.923  1.00  0.00     0.029 A 
ATOM     56  C   UNL A   1      46.342  28.848  30.397  1.00  0.00     0.049 A 
ATOM     57  H   UNL A   1      44.305  28.894  29.855  1.00  0.00     0.167 HD
ATOM     58  C   UNL A   1      45.899  26.559  29.542  1.00  0.00     0.074 A 
ATOM     59  C   UNL A   1      46.307  25.207  29.216  1.00  0.00     0.031 C 
ATOM     60  C   UNL A   1      46.720  27.494  30.081  1.00  0.00     0.037 A 
BRANCH  47  61
ATOM     61  C   UNL A   1      44.027  32.973  31.082  1.00  0.00     0.058 A 
ATOM     62  C   UNL A   1      43.756  33.347  32.408  1.00  0.00     0.135 A 
ATOM     63  C   UNL A   1      44.427  33.977  30.186  1.00  0.00     0.135 A 
ATOM     64  F   UNL A   1      43.351  32.429  33.300  1.00  0.00    -0.206 F 
ATOM     65  C   UNL A   1      43.843  34.672  32.822  1.00  0.00     0.059 A 
ATOM     66  C   UNL A   1      44.545  35.305  30.585  1.00  0.00     0.059 A 
ATOM     67  F   UNL A   1      44.696  33.674  28.907  1.00  0.00    -0.206 F 
ATOM     68  C   UNL A   1      44.232  35.645  31.901  1.00  0.00     0.060 A 
BRANCH  68  69
ATOM     69  S   UNL A   1      44.330  37.363  32.449  1.00  0.00     0.124 S 
ATOM     70  O   UNL A   1      43.473  37.339  33.630  1.00  0.00    -0.237 OA
ATOM     71  O   UNL A   1      45.757  37.531  32.705  1.00  0.00    -0.237 OA
ATOM     72  O   UNL A   1      43.810  38.111  31.308  1.00  0.00    -0.744 OA
ENDBRANCH  68  69
ENDBRANCH  47  61
BRANCH  48  73
ATOM     73  C   UNL A   1      42.694  23.660  27.672  1.00  0.00     0.058 A 
ATOM     74  C   UNL A   1      42.768  23.408  26.295  1.00  0.00     0.135 A 
ATOM     75  C   UNL A   1      42.457  22.572  28.526  1.00  0.00     0.135 A 
ATOM     76  F   UNL A   1      42.989  24.418  25.440  1.00  0.00    -0.206 F 
ATOM     77  C   UNL A   1      42.599  22.128  25.778  1.00  0.00     0.059 A 
ATOM     78  C   UNL A   1      42.304  21.279  28.034  1.00  0.00     0.059 A 
ATOM     79  F   UNL A   1      42.396  22.760  29.853  1.00  0.00    -0.206 F 
ATOM     80  C   UNL A   1      42.367  21.068  26.657  1.00  0.00     0.060 A 
BRANCH  80  81
ATOM     81  S   UNL A   1      42.199  19.401  25.982  1.00  0.00     0.124 S 
ATOM     82  O   UNL A   1      42.732  18.590  27.069  1.00  0.00    -0.237 OA
ATOM     83  O   UNL A   1      40.761  19.302  25.756  1.00  0.00    -0.237 OA
ATOM     84  O   UNL A   1      43.012  19.450  24.770  1.00  0.00    -0.744 OA
ENDBRANCH  80  81
ENDBRANCH  48  73
BRANCH  60  85
ATOM     85  C   UNL A   1      48.129  27.077  30.386  1.00  0.00     0.058 A 
ATOM     86  C   UNL A   1      49.170  27.280  29.467  1.00  0.00     0.135 A 
ATOM     87  C   UNL A   1      48.448  26.519  31.634  1.00  0.00     0.135 A 
ATOM     88  F   UNL A   1      48.912  27.805  28.259  1.00  0.00    -0.206 F 
ATOM     89  C   UNL A   1      50.480  26.924  29.769  1.00  0.00     0.059 A 
ATOM     90  C   UNL A   1      49.753  26.176  31.964  1.00  0.00     0.059 A 
ATOM     91  F   UNL A   1      47.487  26.316  32.549  1.00  0.00    -0.206 F 
ATOM     92  C   UNL A   1      50.761  26.372  31.020  1.00  0.00     0.060 A 
BRANCH  92  93
ATOM     93  S   UNL A   1      52.471  25.947  31.418  1.00  0.00     0.124 S 
ATOM     94  O   UNL A   1      53.102  26.017  30.105  1.00  0.00    -0.237 OA
ATOM     95  O   UNL A   1      52.847  26.997  32.358  1.00  0.00    -0.237 OA
ATOM     96  O   UNL A   1      52.361  24.610  31.993  1.00  0.00    -0.744 OA
ENDBRANCH  92  93
ENDBRANCH  60  85
ENDBRANCH  34  35
ENDBRANCH  26  29
ENDBRANCH  24  25
ENDBRANCH   1  24
TORSDOF 16
ENDMDL
MODEL 2
REMARK VINA RESULT:     -11.4      5.096     10.679
REMARK SMILES C[C@H]1SCCC[C@]1(Nc1ccc(Cl)cc1)C(=O)NCCCCNC(=O)c1ccc(-c2c3nc(c(-c4c(F)cc(S(=O)(=O)[O-])cc4F)c4ccc([nH]4)c(-c4c(F)cc(S(=O)(=O)[O-])cc4F)c4nc(c(-c5c(F)cc(S(=O)(=O)[O-])cc5F)c5ccc2[nH]5)C=C4)C=C3)cc1
REMARK SMILES IDX 21 1 20 2 19 3 18 4 16 5 17 6 7 8 1 9 2 10 3 11 4 12 6 13
REMARK SMILES IDX 5 14 8 15 9 17 10 18 15 19 11 20 14 21 12 22 13 23 22 24
REMARK SMILES IDX 23 25 24 26 25 28 26 29 27 30 91 31 28 32 90 33 29 34 30 35
REMARK SMILES IDX 31 36 84 37 32 38 89 39 83 40 85 41 33 42 88 43 82 44 81 45
REMARK SMILES IDX 34 47 68 48 47 49 67 50 48 51 51 52 66 53 86 54 49 55 50 56
REMARK SMILES IDX 65 58 87 59 52 60 35 61 36 62 45 63 37 64 38 65 44 66 46 67
REMARK SMILES IDX 39 68 40 69 41 70 42 71 43 72 69 73 70 74 79 75 71 76 72 77
REMARK SMILES IDX 78 78 80 79 73 80 74 81 75 82 76 83 77 84 53 85 54 86 63 87
REMARK SMILES IDX 55 88 56 89 62 90 64 91 57 92 58 93 59 94 60 95 61 96
REMARK H PARENT 18 7 8 16 23 27 85 46 51 57
REMARK Flexibility Score: inf
ROOT
ATOM      1  C   UNL A   1      36.953  23.968  25.262  1.00  0.00     0.023 C 
ENDROOT
BRANCH   1   2
ATOM      2  C   UNL A   1      35.517  23.587  25.591  1.00  0.00     0.023 C 
BRANCH   2   3
ATOM      3  C   UNL A   1      34.489  24.681  25.312  1.00  0.00     0.116 C 
BRANCH   3   4
ATOM      4  N   UNL A   1      34.474  25.076  23.915  1.00  0.00    -0.354 N 
ATOM      5  C   UNL A   1      33.631  25.899  23.220  1.00  0.00     0.246 C 
ATOM      6  O   UNL A   1      33.942  26.101  22.038  1.00  0.00    -0.272 OA
ATOM      7  H   UNL A   1      35.196  24.683  23.373  1.00  0.00     0.163 HD
BRANCH   5   8
ATOM      8  C   UNL A   1      32.312  26.519  23.818  1.00  0.00     0.128 C 
ATOM      9  C   UNL A   1      31.239  24.107  24.133  1.00  0.00     0.022 C 
ATOM     10  C   UNL A   1      31.125  25.516  23.566  1.00  0.00     0.078 C 
ATOM     11  S   UNL A   1      29.518  26.165  24.198  1.00  0.00    -0.156 SA
ATOM     12  C   UNL A   1      29.431  27.631  23.151  1.00  0.00     0.070 C 
ATOM     13  C   UNL A   1      31.980  27.822  23.012  1.00  0.00     0.040 C 
ATOM     14  C   UNL A   1      30.653  28.510  23.359  1.00  0.00     0.014 C 
BRANCH   8  15
ATOM     15  N   UNL A   1      32.422  26.880  25.257  1.00  0.00    -0.370 N 
ATOM     16  H   UNL A   1      32.128  26.191  25.895  1.00  0.00     0.161 HD
BRANCH  15  17
ATOM     17  C   UNL A   1      32.885  28.058  25.812  1.00  0.00     0.035 A 
ATOM     18  C   UNL A   1      34.238  28.373  25.983  1.00  0.00     0.027 A 
ATOM     19  C   UNL A   1      31.946  28.923  26.402  1.00  0.00     0.027 A 
ATOM     20  C   UNL A   1      34.644  29.479  26.742  1.00  0.00     0.022 A 
ATOM     21  C   UNL A   1      32.341  30.018  27.180  1.00  0.00     0.022 A 
ATOM     22  C   UNL A   1      33.693  30.285  27.355  1.00  0.00     0.041 A 
ATOM     23  Cl  UNL A   1      34.190  31.592  28.354  1.00  0.00    -0.084 Cl
ENDBRANCH  15  17
ENDBRANCH   8  15
ENDBRANCH   5   8
ENDBRANCH   3   4
ENDBRANCH   2   3
ENDBRANCH   1   2
BRANCH   1  24
ATOM     24  C   UNL A   1      37.854  24.177  26.471  1.00  0.00     0.116 C 
BRANCH  24  25
ATOM     25  N   UNL A   1      39.267  23.969  26.182  1.00  0.00    -0.352 N 
ATOM     26  C   UNL A   1      40.353  24.694  26.630  1.00  0.00     0.251 C 
ATOM     27  H   UNL A   1      39.476  23.211  25.589  1.00  0.00     0.163 HD
ATOM     28  O   UNL A   1      41.472  24.460  26.217  1.00  0.00    -0.269 OA
BRANCH  26  29
ATOM     29  C   UNL A   1      40.111  25.788  27.597  1.00  0.00     0.039 A 
ATOM     30  C   UNL A   1      39.312  25.537  28.713  1.00  0.00     0.014 A 
ATOM     31  C   UNL A   1      40.745  27.020  27.431  1.00  0.00     0.014 A 
ATOM     32  C   UNL A   1      39.216  26.506  29.713  1.00  0.00     0.010 A 
ATOM     33  C   UNL A   1      40.716  27.945  28.466  1.00  0.00     0.010 A 
ATOM     34  C   UNL A   1      39.951  27.700  29.616  1.00  0.00    -0.014 A 
BRANCH  34  35
ATOM     35  C   UNL A   1      39.923  28.718  30.694  1.00  0.00     0.031 A 
ATOM     36  C   UNL A   1      40.821  28.554  31.890  1.00  0.00     0.074 A 
ATOM     37  C   UNL A   1      39.038  29.733  30.638  1.00  0.00     0.049 A 
ATOM     38  N   UNL A   1      40.877  29.266  32.984  1.00  0.00    -0.248 NA
ATOM     39  C   UNL A   1      41.751  27.412  31.867  1.00  0.00     0.031 C 
ATOM     40  C   UNL A   1      38.070  29.960  29.561  1.00  0.00     0.029 A 
ATOM     41  N   UNL A   1      38.801  30.760  31.515  1.00  0.00    -0.354 N 
ATOM     42  C   UNL A   1      41.822  28.643  33.789  1.00  0.00     0.074 A 
ATOM     43  C   UNL A   1      42.276  27.467  33.081  1.00  0.00     0.031 C 
ATOM     44  C   UNL A   1      37.363  31.070  29.831  1.00  0.00     0.029 A 
ATOM     45  C   UNL A   1      37.805  31.617  31.109  1.00  0.00     0.049 A 
ATOM     46  H   UNL A   1      39.299  30.874  32.358  1.00  0.00     0.167 HD
ATOM     47  C   UNL A   1      42.291  29.030  34.999  1.00  0.00     0.037 A 
ATOM     48  C   UNL A   1      37.308  32.719  31.703  1.00  0.00     0.037 A 
ATOM     49  C   UNL A   1      41.875  30.229  35.673  1.00  0.00     0.049 A 
ATOM     50  C   UNL A   1      37.888  33.165  33.017  1.00  0.00     0.074 A 
ATOM     51  C   UNL A   1      42.332  30.749  36.871  1.00  0.00     0.029 A 
ATOM     52  N   UNL A   1      40.910  31.106  35.198  1.00  0.00    -0.354 N 
ATOM     53  N   UNL A   1      38.820  32.593  33.741  1.00  0.00    -0.248 NA
ATOM     54  C   UNL A   1      37.357  34.409  33.591  1.00  0.00     0.031 C 
ATOM     55  C   UNL A   1      41.630  31.932  37.130  1.00  0.00     0.029 A 
ATOM     56  C   UNL A   1      40.757  32.163  36.078  1.00  0.00     0.049 A 
ATOM     57  H   UNL A   1      40.407  30.992  34.359  1.00  0.00     0.167 HD
ATOM     58  C   UNL A   1      39.007  33.420  34.843  1.00  0.00     0.074 A 
ATOM     59  C   UNL A   1      38.096  34.536  34.685  1.00  0.00     0.031 C 
ATOM     60  C   UNL A   1      39.855  33.271  35.890  1.00  0.00     0.037 A 
BRANCH  47  61
ATOM     61  C   UNL A   1      43.320  28.152  35.652  1.00  0.00     0.058 A 
ATOM     62  C   UNL A   1      44.691  28.308  35.389  1.00  0.00     0.135 A 
ATOM     63  C   UNL A   1      42.935  27.143  36.549  1.00  0.00     0.135 A 
ATOM     64  F   UNL A   1      45.111  29.245  34.523  1.00  0.00    -0.206 F 
ATOM     65  C   UNL A   1      45.641  27.471  35.963  1.00  0.00     0.059 A 
ATOM     66  C   UNL A   1      43.872  26.311  37.156  1.00  0.00     0.059 A 
ATOM     67  F   UNL A   1      41.638  26.950  36.834  1.00  0.00    -0.206 F 
ATOM     68  C   UNL A   1      45.221  26.471  36.841  1.00  0.00     0.060 A 
BRANCH  68  69
ATOM     69  S   UNL A   1      46.465  25.384  37.572  1.00  0.00     0.124 S 
ATOM     70  O   UNL A   1      45.758  24.886  38.747  1.00  0.00    -0.237 OA
ATOM     71  O   UNL A   1      46.694  24.410  36.510  1.00  0.00    -0.237 OA
ATOM     72  O   UNL A   1      47.582  26.284  37.843  1.00  0.00    -0.744 OA
ENDBRANCH  68  69
ENDBRANCH  47  61
BRANCH  48  73
ATOM     73  C   UNL A   1      36.236  33.504  31.036  1.00  0.00     0.058 A 
ATOM     74  C   UNL A   1      34.949  33.570  31.587  1.00  0.00     0.135 A 
ATOM     75  C   UNL A   1      36.479  34.215  29.851  1.00  0.00     0.135 A 
ATOM     76  F   UNL A   1      34.668  32.904  32.717  1.00  0.00    -0.206 F 
ATOM     77  C   UNL A   1      33.932  34.299  30.979  1.00  0.00     0.059 A 
ATOM     78  C   UNL A   1      35.483  34.967  29.234  1.00  0.00     0.059 A 
ATOM     79  F   UNL A   1      37.700  34.198  29.296  1.00  0.00    -0.206 F 
ATOM     80  C   UNL A   1      34.210  34.995  29.801  1.00  0.00     0.060 A 
BRANCH  80  81
ATOM     81  S   UNL A   1      32.898  35.982  29.046  1.00  0.00     0.124 S 
ATOM     82  O   UNL A   1      33.667  37.005  28.347  1.00  0.00    -0.237 OA
ATOM     83  O   UNL A   1      32.221  35.002  28.203  1.00  0.00    -0.237 OA
ATOM     84  O   UNL A   1      32.127  36.445  30.196  1.00  0.00    -0.744 OA
ENDBRANCH  80  81
ENDBRANCH  48  73
BRANCH  60  85
ATOM     85  C   UNL A   1      39.865  34.357  36.926  1.00  0.00     0.058 A 
ATOM     86  C   UNL A   1      40.582  35.548  36.735  1.00  0.00     0.135 A 
ATOM     87  C   UNL A   1      39.103  34.225  38.098  1.00  0.00     0.135 A 
ATOM     88  F   UNL A   1      41.329  35.717  35.633  1.00  0.00    -0.206 F 
ATOM     89  C   UNL A   1      40.559  36.565  37.683  1.00  0.00     0.059 A 
ATOM     90  C   UNL A   1      39.049  35.238  39.048  1.00  0.00     0.059 A 
ATOM     91  F   UNL A   1      38.392  33.108  38.319  1.00  0.00    -0.206 F 
ATOM     92  C   UNL A   1      39.789  36.400  38.836  1.00  0.00     0.060 A 
BRANCH  92  93
ATOM     93  S   UNL A   1      39.736  37.742  40.045  1.00  0.00     0.124 S 
ATOM     94  O   UNL A   1      39.322  37.033  41.250  1.00  0.00    -0.237 OA
ATOM     95  O   UNL A   1      41.112  38.229  40.036  1.00  0.00    -0.237 OA
ATOM     96  O   UNL A   1      38.750  38.661  39.485  1.00  0.00    -0.744 OA
ENDBRANCH  92  93
ENDBRANCH  60  85
ENDBRANCH  34  35
ENDBRANCH  26  29
ENDBRANCH  24  25
ENDBRANCH   1  24
TORSDOF 16
ENDMDL
MODEL 3
REMARK VINA RESULT:     -11.3      3.138      9.333
REMARK SMILES C[C@H]1SCCC[C@]1(Nc1ccc(Cl)cc1)C(=O)NCCCCNC(=O)c1ccc(-c2c3nc(c(-c4c(F)cc(S(=O)(=O)[O-])cc4F)c4ccc([nH]4)c(-c4c(F)cc(S(=O)(=O)[O-])cc4F)c4nc(c(-c5c(F)cc(S(=O)(=O)[O-])cc5F)c5ccc2[nH]5)C=C4)C=C3)cc1
REMARK SMILES IDX 21 1 20 2 19 3 18 4 16 5 17 6 7 8 1 9 2 10 3 11 4 12 6 13
REMARK SMILES IDX 5 14 8 15 9 17 10 18 15 19 11 20 14 21 12 22 13 23 22 24
REMARK SMILES IDX 23 25 24 26 25 28 26 29 27 30 91 31 28 32 90 33 29 34 30 35
REMARK SMILES IDX 31 36 84 37 32 38 89 39 83 40 85 41 33 42 88 43 82 44 81 45
REMARK SMILES IDX 34 47 68 48 47 49 67 50 48 51 51 52 66 53 86 54 49 55 50 56
REMARK SMILES IDX 65 58 87 59 52 60 35 61 36 62 45 63 37 64 38 65 44 66 46 67
REMARK SMILES IDX 39 68 40 69 41 70 42 71 43 72 69 73 70 74 79 75 71 76 72 77
REMARK SMILES IDX 78 78 80 79 73 80 74 81 75 82 76 83 77 84 53 85 54 86 63 87
REMARK SMILES IDX 55 88 56 89 62 90 64 91 57 92 58 93 59 94 60 95 61 96
REMARK H PARENT 18 7 8 16 23 27 85 46 51 57
REMARK Flexibility Score: inf
ROOT
ATOM      1  C   UNL A   1      35.807  23.138  24.897  1.00  0.00     0.023 C 
ENDROOT
BRANCH   1   2
ATOM      2  C   UNL A   1      34.603  23.377  25.797  1.00  0.00     0.023 C 
BRANCH   2   3
ATOM      3  C   UNL A   1      33.403  24.013  25.099  1.00  0.00     0.116 C 
BRANCH   3   4
ATOM      4  N   UNL A   1      33.756  24.577  23.809  1.00  0.00    -0.354 N 
ATOM      5  C   UNL A   1      33.283  25.676  23.145  1.00  0.00     0.246 C 
ATOM      6  O   UNL A   1      33.859  25.943  22.081  1.00  0.00    -0.272 OA
ATOM      7  H   UNL A   1      34.459  24.084  23.327  1.00  0.00     0.163 HD
BRANCH   5   8
ATOM      8  C   UNL A   1      32.054  26.535  23.627  1.00  0.00     0.128 C 
ATOM      9  C   UNL A   1      30.402  24.477  23.310  1.00  0.00     0.022 C 
ATOM     10  C   UNL A   1      30.741  25.930  23.004  1.00  0.00     0.078 C 
ATOM     11  S   UNL A   1      29.239  26.889  23.479  1.00  0.00    -0.156 SA
ATOM     12  C   UNL A   1      29.713  28.456  22.723  1.00  0.00     0.070 C 
ATOM     13  C   UNL A   1      32.209  27.979  23.036  1.00  0.00     0.040 C 
ATOM     14  C   UNL A   1      31.040  28.940  23.285  1.00  0.00     0.014 C 
BRANCH   8  15
ATOM     15  N   UNL A   1      31.951  26.651  25.107  1.00  0.00    -0.370 N 
ATOM     16  H   UNL A   1      31.426  25.949  25.555  1.00  0.00     0.161 HD
BRANCH  15  17
ATOM     17  C   UNL A   1      32.498  27.616  25.931  1.00  0.00     0.035 A 
ATOM     18  C   UNL A   1      31.770  28.656  26.522  1.00  0.00     0.027 A 
ATOM     19  C   UNL A   1      33.898  27.666  26.049  1.00  0.00     0.027 A 
ATOM     20  C   UNL A   1      32.408  29.722  27.170  1.00  0.00     0.022 A 
ATOM     21  C   UNL A   1      34.546  28.738  26.675  1.00  0.00     0.022 A 
ATOM     22  C   UNL A   1      33.795  29.769  27.225  1.00  0.00     0.041 A 
ATOM     23  Cl  UNL A   1      34.581  31.118  27.944  1.00  0.00    -0.084 Cl
ENDBRANCH  15  17
ENDBRANCH   8  15
ENDBRANCH   5   8
ENDBRANCH   3   4
ENDBRANCH   2   3
ENDBRANCH   1   2
BRANCH   1  24
ATOM     24  C   UNL A   1      37.086  23.838  25.337  1.00  0.00     0.116 C 
BRANCH  24  25
ATOM     25  N   UNL A   1      38.211  22.930  25.515  1.00  0.00    -0.352 N 
ATOM     26  C   UNL A   1      39.400  23.153  26.178  1.00  0.00     0.251 C 
ATOM     27  H   UNL A   1      38.110  22.039  25.107  1.00  0.00     0.163 HD
ATOM     28  O   UNL A   1      40.293  22.328  26.153  1.00  0.00    -0.269 OA
BRANCH  26  29
ATOM     29  C   UNL A   1      39.572  24.440  26.889  1.00  0.00     0.039 A 
ATOM     30  C   UNL A   1      39.053  24.574  28.177  1.00  0.00     0.014 A 
ATOM     31  C   UNL A   1      40.316  25.466  26.305  1.00  0.00     0.014 A 
ATOM     32  C   UNL A   1      39.355  25.719  28.916  1.00  0.00     0.010 A 
ATOM     33  C   UNL A   1      40.685  26.562  27.073  1.00  0.00     0.010 A 
ATOM     34  C   UNL A   1      40.207  26.702  28.385  1.00  0.00    -0.014 A 
BRANCH  34  35
ATOM     35  C   UNL A   1      40.600  27.895  29.172  1.00  0.00     0.031 A 
ATOM     36  C   UNL A   1      41.926  27.908  29.883  1.00  0.00     0.074 A 
ATOM     37  C   UNL A   1      39.738  28.920  29.317  1.00  0.00     0.049 A 
ATOM     38  N   UNL A   1      42.415  28.801  30.703  1.00  0.00    -0.248 NA
ATOM     39  C   UNL A   1      42.801  26.743  29.672  1.00  0.00     0.031 C 
ATOM     40  C   UNL A   1      38.397  28.993  28.731  1.00  0.00     0.029 A 
ATOM     41  N   UNL A   1      39.857  30.096  30.013  1.00  0.00    -0.354 N 
ATOM     42  C   UNL A   1      43.635  28.291  31.129  1.00  0.00     0.074 A 
ATOM     43  C   UNL A   1      43.790  26.989  30.517  1.00  0.00     0.031 C 
ATOM     44  C   UNL A   1      37.829  30.162  29.072  1.00  0.00     0.029 A 
ATOM     45  C   UNL A   1      38.751  30.908  29.922  1.00  0.00     0.049 A 
ATOM     46  H   UNL A   1      40.660  30.336  30.530  1.00  0.00     0.167 HD
ATOM     47  C   UNL A   1      44.558  28.867  31.935  1.00  0.00     0.037 A 
ATOM     48  C   UNL A   1      38.511  32.118  30.464  1.00  0.00     0.037 A 
ATOM     49  C   UNL A   1      44.422  30.183  32.497  1.00  0.00     0.049 A 
ATOM     50  C   UNL A   1      39.577  32.765  31.305  1.00  0.00     0.074 A 
ATOM     51  C   UNL A   1      45.324  30.888  33.274  1.00  0.00     0.029 A 
ATOM     52  N   UNL A   1      43.315  31.001  32.327  1.00  0.00    -0.354 N 
ATOM     53  N   UNL A   1      40.749  32.292  31.654  1.00  0.00    -0.248 NA
ATOM     54  C   UNL A   1      39.293  34.113  31.817  1.00  0.00     0.031 C 
ATOM     55  C   UNL A   1      44.754  32.126  33.589  1.00  0.00     0.029 A 
ATOM     56  C   UNL A   1      43.510  32.203  32.985  1.00  0.00     0.049 A 
ATOM     57  H   UNL A   1      42.508  30.761  31.816  1.00  0.00     0.167 HD
ATOM     58  C   UNL A   1      41.354  33.293  32.406  1.00  0.00     0.074 A 
ATOM     59  C   UNL A   1      40.421  34.401  32.452  1.00  0.00     0.031 C 
ATOM     60  C   UNL A   1      42.572  33.297  33.002  1.00  0.00     0.037 A 
BRANCH  47  61
ATOM     61  C   UNL A   1      45.800  28.076  32.235  1.00  0.00     0.058 A 
ATOM     62  C   UNL A   1      45.883  27.239  33.360  1.00  0.00     0.135 A 
ATOM     63  C   UNL A   1      46.920  28.155  31.393  1.00  0.00     0.135 A 
ATOM     64  F   UNL A   1      44.846  27.143  34.209  1.00  0.00    -0.206 F 
ATOM     65  C   UNL A   1      47.045  26.536  33.660  1.00  0.00     0.059 A 
ATOM     66  C   UNL A   1      48.084  27.440  31.659  1.00  0.00     0.059 A 
ATOM     67  F   UNL A   1      46.895  28.942  30.306  1.00  0.00    -0.206 F 
ATOM     68  C   UNL A   1      48.143  26.648  32.806  1.00  0.00     0.060 A 
BRANCH  68  69
ATOM     69  S   UNL A   1      49.649  25.739  33.212  1.00  0.00     0.124 S 
ATOM     70  O   UNL A   1      49.120  24.403  33.467  1.00  0.00    -0.237 OA
ATOM     71  O   UNL A   1      50.442  25.885  31.996  1.00  0.00    -0.237 OA
ATOM     72  O   UNL A   1      50.165  26.446  34.380  1.00  0.00    -0.744 OA
ENDBRANCH  68  69
ENDBRANCH  47  61
BRANCH  48  73
ATOM     73  C   UNL A   1      37.229  32.817  30.186  1.00  0.00     0.058 A 
ATOM     74  C   UNL A   1      37.100  33.661  29.074  1.00  0.00     0.135 A 
ATOM     75  C   UNL A   1      36.107  32.643  31.010  1.00  0.00     0.135 A 
ATOM     76  F   UNL A   1      38.147  33.861  28.259  1.00  0.00    -0.206 F 
ATOM     77  C   UNL A   1      35.909  34.324  28.796  1.00  0.00     0.059 A 
ATOM     78  C   UNL A   1      34.899  33.280  30.741  1.00  0.00     0.059 A 
ATOM     79  F   UNL A   1      36.175  31.830  32.075  1.00  0.00    -0.206 F 
ATOM     80  C   UNL A   1      34.813  34.126  29.637  1.00  0.00     0.060 A 
BRANCH  80  81
ATOM     81  S   UNL A   1      33.254  34.949  29.239  1.00  0.00     0.124 S 
ATOM     82  O   UNL A   1      32.703  34.059  28.225  1.00  0.00    -0.237 OA
ATOM     83  O   UNL A   1      32.569  34.952  30.528  1.00  0.00    -0.237 OA
ATOM     84  O   UNL A   1      33.683  36.262  28.766  1.00  0.00    -0.744 OA
ENDBRANCH  80  81
ENDBRANCH  48  73
BRANCH  60  85
ATOM     85  C   UNL A   1      42.979  34.548  33.724  1.00  0.00     0.058 A 
ATOM     86  C   UNL A   1      42.827  34.677  35.113  1.00  0.00     0.135 A 
ATOM     87  C   UNL A   1      43.577  35.608  33.024  1.00  0.00     0.135 A 
ATOM     88  F   UNL A   1      42.255  33.693  35.824  1.00  0.00    -0.206 F 
ATOM     89  C   UNL A   1      43.238  35.825  35.782  1.00  0.00     0.059 A 
ATOM     90  C   UNL A   1      44.015  36.754  33.676  1.00  0.00     0.059 A 
ATOM     91  F   UNL A   1      43.753  35.525  31.695  1.00  0.00    -0.206 F 
ATOM     92  C   UNL A   1      43.831  36.858  35.054  1.00  0.00     0.060 A 
BRANCH  92  93
ATOM     93  S   UNL A   1      44.396  38.329  35.936  1.00  0.00     0.124 S 
ATOM     94  O   UNL A   1      45.828  38.074  36.044  1.00  0.00    -0.237 OA
ATOM     95  O   UNL A   1      44.011  39.407  35.031  1.00  0.00    -0.237 OA
ATOM     96  O   UNL A   1      43.651  38.277  37.191  1.00  0.00    -0.744 OA
ENDBRANCH  92  93
ENDBRANCH  60  85
ENDBRANCH  34  35
ENDBRANCH  26  29
ENDBRANCH  24  25
ENDBRANCH   1  24
TORSDOF 16
ENDMDL
