MODEL 1
REMARK VINA RESULT:     -10.4      0.000      0.000
REMARK SMILES C#CCN(CC(=O)NCCCCNC(=O)c1ccc(-c2c3nc(c(-c4c(F)cc(S(=O)(=O)[O-])cc4F)c4ccc([nH]4)c(-c4c(F)cc(S(=O)(=O)[O-])cc4F)c4nc(c(-c5c(F)cc(S(=O)(=O)[O-])cc5F)c5ccc2[nH]5)C=C4)C=C3)cc1)C(=O)NCCc1ccco1
REMARK SMILES IDX 9 1 8 2 6 3 7 4 5 6 4 7 3 8 2 9 1 10 82 11 83 12 84 13 85 15
REMARK SMILES IDX 86 16 87 17 88 18 91 19 89 20 90 21 10 22 11 23 12 24 13 25
REMARK SMILES IDX 14 26 15 28 16 29 17 30 81 31 18 32 80 33 19 34 20 35 21 36
REMARK SMILES IDX 74 37 22 38 79 39 73 40 75 41 23 42 78 43 72 44 71 45 24 47
REMARK SMILES IDX 58 48 37 49 57 50 38 51 41 52 56 53 76 54 39 55 40 56 55 58
REMARK SMILES IDX 77 59 42 60 25 61 26 62 35 63 27 64 28 65 34 66 36 67 29 68
REMARK SMILES IDX 30 69 31 70 32 71 33 72 59 73 60 74 69 75 61 76 62 77 68 78
REMARK SMILES IDX 70 79 63 80 64 81 65 82 66 83 67 84 43 85 44 86 53 87 45 88
REMARK SMILES IDX 46 89 52 90 54 91 47 92 48 93 49 94 50 95 51 96
REMARK H PARENT 8 5 84 14 13 27 75 46 41 57
REMARK Flexibility Score: inf
ROOT
ATOM      1  C   UNL A   1      33.619  30.187  26.851  1.00  0.00     0.116 C 
ENDROOT
BRANCH   1   2
ATOM      2  N   UNL A   1      32.579  29.499  27.585  1.00  0.00    -0.355 N 
ATOM      3  C   UNL A   1      31.782  28.464  27.191  1.00  0.00     0.239 C 
ATOM      4  O   UNL A   1      31.196  27.832  28.077  1.00  0.00    -0.273 OA
ATOM      5  H   UNL A   1      32.424  29.825  28.500  1.00  0.00     0.163 HD
BRANCH   3   6
ATOM      6  C   UNL A   1      31.722  27.987  25.730  1.00  0.00     0.222 C 
BRANCH   6   7
ATOM      7  N   UNL A   1      31.436  26.567  25.545  1.00  0.00    -0.304 N 
BRANCH   7   8
ATOM      8  C   UNL A   1      30.266  26.247  24.732  1.00  0.00     0.211 C 
BRANCH   8   9
ATOM      9  C   UNL A   1      30.473  25.016  23.866  1.00  0.00    -0.085 C 
ATOM     10  C   UNL A   1      30.652  23.961  23.122  1.00  0.00     0.006 C 
ENDBRANCH   8   9
ENDBRANCH   7   8
BRANCH   7  11
ATOM     11  C   UNL A   1      32.138  25.508  26.048  1.00  0.00     0.318 C 
ATOM     12  O   UNL A   1      31.746  24.899  27.050  1.00  0.00    -0.249 OA
ATOM     13  N   UNL A   1      33.288  25.048  25.537  1.00  0.00    -0.337 N 
ATOM     14  H   UNL A   1      33.627  24.296  26.074  1.00  0.00     0.165 HD
BRANCH  13  15
ATOM     15  C   UNL A   1      34.190  25.328  24.423  1.00  0.00     0.125 C 
BRANCH  15  16
ATOM     16  C   UNL A   1      34.628  24.051  23.703  1.00  0.00     0.096 C 
BRANCH  16  17
ATOM     17  C   UNL A   1      35.847  23.458  24.316  1.00  0.00     0.105 A 
ATOM     18  C   UNL A   1      36.632  22.366  24.011  1.00  0.00     0.045 A 
ATOM     19  O   UNL A   1      36.323  24.080  25.432  1.00  0.00    -0.469 OA
ATOM     20  C   UNL A   1      37.642  22.316  25.002  1.00  0.00     0.042 A 
ATOM     21  C   UNL A   1      37.410  23.378  25.843  1.00  0.00     0.195 A 
ENDBRANCH  16  17
ENDBRANCH  15  16
ENDBRANCH  13  15
ENDBRANCH   7  11
ENDBRANCH   6   7
ENDBRANCH   3   6
ENDBRANCH   1   2
BRANCH   1  22
ATOM     22  C   UNL A   1      34.872  30.454  27.681  1.00  0.00     0.023 C 
BRANCH  22  23
ATOM     23  C   UNL A   1      35.178  31.925  27.960  1.00  0.00     0.023 C 
BRANCH  23  24
ATOM     24  C   UNL A   1      36.074  32.194  29.163  1.00  0.00     0.116 C 
BRANCH  24  25
ATOM     25  N   UNL A   1      35.795  31.336  30.304  1.00  0.00    -0.352 N 
ATOM     26  C   UNL A   1      36.616  30.400  30.891  1.00  0.00     0.251 C 
ATOM     27  H   UNL A   1      34.905  31.438  30.709  1.00  0.00     0.163 HD
ATOM     28  O   UNL A   1      36.196  29.705  31.811  1.00  0.00    -0.269 OA
BRANCH  26  29
ATOM     29  C   UNL A   1      37.985  30.209  30.372  1.00  0.00     0.039 A 
ATOM     30  C   UNL A   1      39.051  30.203  31.275  1.00  0.00     0.014 A 
ATOM     31  C   UNL A   1      38.212  29.987  29.009  1.00  0.00     0.014 A 
ATOM     32  C   UNL A   1      40.336  29.898  30.823  1.00  0.00     0.010 A 
ATOM     33  C   UNL A   1      39.480  29.617  28.574  1.00  0.00     0.010 A 
ATOM     34  C   UNL A   1      40.553  29.562  29.477  1.00  0.00    -0.014 A 
BRANCH  34  35
ATOM     35  C   UNL A   1      41.890  29.131  28.996  1.00  0.00     0.031 A 
ATOM     36  C   UNL A   1      43.004  30.131  28.860  1.00  0.00     0.074 A 
ATOM     37  C   UNL A   1      42.073  27.855  28.601  1.00  0.00     0.049 A 
ATOM     38  N   UNL A   1      44.211  29.962  28.385  1.00  0.00    -0.248 NA
ATOM     39  C   UNL A   1      42.712  31.510  29.284  1.00  0.00     0.031 C 
ATOM     40  C   UNL A   1      41.048  26.808  28.621  1.00  0.00     0.029 A 
ATOM     41  N   UNL A   1      43.178  27.226  28.087  1.00  0.00    -0.354 N 
ATOM     42  C   UNL A   1      44.814  31.213  28.433  1.00  0.00     0.074 A 
ATOM     43  C   UNL A   1      43.825  32.139  28.941  1.00  0.00     0.031 C 
ATOM     44  C   UNL A   1      41.576  25.667  28.153  1.00  0.00     0.029 A 
ATOM     45  C   UNL A   1      42.964  25.906  27.769  1.00  0.00     0.049 A 
ATOM     46  H   UNL A   1      44.044  27.678  27.957  1.00  0.00     0.167 HD
ATOM     47  C   UNL A   1      46.082  31.554  28.101  1.00  0.00     0.037 A 
ATOM     48  C   UNL A   1      43.789  24.992  27.221  1.00  0.00     0.037 A 
ATOM     49  C   UNL A   1      47.071  30.619  27.629  1.00  0.00     0.049 A 
ATOM     50  C   UNL A   1      45.204  25.384  26.893  1.00  0.00     0.074 A 
ATOM     51  C   UNL A   1      48.406  30.848  27.348  1.00  0.00     0.029 A 
ATOM     52  N   UNL A   1      46.830  29.279  27.364  1.00  0.00    -0.354 N 
ATOM     53  N   UNL A   1      45.784  26.554  27.024  1.00  0.00    -0.248 NA
ATOM     54  C   UNL A   1      46.078  24.334  26.355  1.00  0.00     0.031 C 
ATOM     55  C   UNL A   1      48.964  29.654  26.877  1.00  0.00     0.029 A 
ATOM     56  C   UNL A   1      47.987  28.672  26.902  1.00  0.00     0.049 A 
ATOM     57  H   UNL A   1      45.965  28.825  27.486  1.00  0.00     0.167 HD
ATOM     58  C   UNL A   1      47.096  26.375  26.600  1.00  0.00     0.074 A 
ATOM     59  C   UNL A   1      47.228  24.982  26.223  1.00  0.00     0.031 C 
ATOM     60  C   UNL A   1      48.101  27.284  26.531  1.00  0.00     0.037 A 
BRANCH  47  61
ATOM     61  C   UNL A   1      46.472  32.999  28.240  1.00  0.00     0.058 A 
ATOM     62  C   UNL A   1      47.005  33.507  29.435  1.00  0.00     0.135 A 
ATOM     63  C   UNL A   1      46.328  33.883  27.159  1.00  0.00     0.135 A 
ATOM     64  F   UNL A   1      47.150  32.709  30.505  1.00  0.00    -0.206 F 
ATOM     65  C   UNL A   1      47.349  34.848  29.566  1.00  0.00     0.059 A 
ATOM     66  C   UNL A   1      46.691  35.223  27.258  1.00  0.00     0.059 A 
ATOM     67  F   UNL A   1      45.825  33.450  25.993  1.00  0.00    -0.206 F 
ATOM     68  C   UNL A   1      47.184  35.701  28.473  1.00  0.00     0.060 A 
BRANCH  68  69
ATOM     69  S   UNL A   1      47.625  37.441  28.658  1.00  0.00     0.124 S 
ATOM     70  O   UNL A   1      46.426  37.977  29.296  1.00  0.00    -0.237 OA
ATOM     71  O   UNL A   1      48.814  37.375  29.502  1.00  0.00    -0.237 OA
ATOM     72  O   UNL A   1      47.857  37.881  27.287  1.00  0.00    -0.744 OA
ENDBRANCH  68  69
ENDBRANCH  47  61
BRANCH  48  73
ATOM     73  C   UNL A   1      43.298  23.613  26.972  1.00  0.00     0.058 A 
ATOM     74  C   UNL A   1      43.015  23.170  25.672  1.00  0.00     0.135 A 
ATOM     75  C   UNL A   1      43.136  22.698  28.025  1.00  0.00     0.135 A 
ATOM     76  F   UNL A   1      43.150  24.010  24.634  1.00  0.00    -0.206 F 
ATOM     77  C   UNL A   1      42.579  21.873  25.422  1.00  0.00     0.059 A 
ATOM     78  C   UNL A   1      42.722  21.389  27.798  1.00  0.00     0.059 A 
ATOM     79  F   UNL A   1      43.411  23.068  29.285  1.00  0.00    -0.206 F 
ATOM     80  C   UNL A   1      42.440  20.988  26.492  1.00  0.00     0.060 A 
BRANCH  80  81
ATOM     81  S   UNL A   1      41.939  19.287  26.152  1.00  0.00     0.124 S 
ATOM     82  O   UNL A   1      40.514  19.448  25.887  1.00  0.00    -0.237 OA
ATOM     83  O   UNL A   1      42.768  18.946  25.001  1.00  0.00    -0.237 OA
ATOM     84  O   UNL A   1      42.278  18.585  27.387  1.00  0.00    -0.744 OA
ENDBRANCH  80  81
ENDBRANCH  48  73
BRANCH  60  85
ATOM     85  C   UNL A   1      49.438  26.798  26.049  1.00  0.00     0.058 A 
ATOM     86  C   UNL A   1      49.831  26.939  24.709  1.00  0.00     0.135 A 
ATOM     87  C   UNL A   1      50.357  26.233  26.948  1.00  0.00     0.135 A 
ATOM     88  F   UNL A   1      48.987  27.466  23.808  1.00  0.00    -0.206 F 
ATOM     89  C   UNL A   1      51.085  26.521  24.273  1.00  0.00     0.059 A 
ATOM     90  C   UNL A   1      51.624  25.829  26.538  1.00  0.00     0.059 A 
ATOM     91  F   UNL A   1      50.033  26.085  28.241  1.00  0.00    -0.206 F 
ATOM     92  C   UNL A   1      51.975  25.968  25.196  1.00  0.00     0.060 A 
BRANCH  92  93
ATOM     93  S   UNL A   1      53.612  25.462  24.627  1.00  0.00     0.124 S 
ATOM     94  O   UNL A   1      53.537  24.012  24.769  1.00  0.00    -0.237 OA
ATOM     95  O   UNL A   1      53.637  25.964  23.256  1.00  0.00    -0.237 OA
ATOM     96  O   UNL A   1      54.517  26.138  25.552  1.00  0.00    -0.744 OA
ENDBRANCH  92  93
ENDBRANCH  60  85
ENDBRANCH  34  35
ENDBRANCH  26  29
ENDBRANCH  24  25
ENDBRANCH  23  24
ENDBRANCH  22  23
ENDBRANCH   1  22
TORSDOF 21
ENDMDL
MODEL 2
REMARK VINA RESULT:     -10.4      4.807     10.375
REMARK SMILES C#CCN(CC(=O)NCCCCNC(=O)c1ccc(-c2c3nc(c(-c4c(F)cc(S(=O)(=O)[O-])cc4F)c4ccc([nH]4)c(-c4c(F)cc(S(=O)(=O)[O-])cc4F)c4nc(c(-c5c(F)cc(S(=O)(=O)[O-])cc5F)c5ccc2[nH]5)C=C4)C=C3)cc1)C(=O)NCCc1ccco1
REMARK SMILES IDX 9 1 8 2 6 3 7 4 5 6 4 7 3 8 2 9 1 10 82 11 83 12 84 13 85 15
REMARK SMILES IDX 86 16 87 17 88 18 91 19 89 20 90 21 10 22 11 23 12 24 13 25
REMARK SMILES IDX 14 26 15 28 16 29 17 30 81 31 18 32 80 33 19 34 20 35 21 36
REMARK SMILES IDX 74 37 22 38 79 39 73 40 75 41 23 42 78 43 72 44 71 45 24 47
REMARK SMILES IDX 58 48 37 49 57 50 38 51 41 52 56 53 76 54 39 55 40 56 55 58
REMARK SMILES IDX 77 59 42 60 25 61 26 62 35 63 27 64 28 65 34 66 36 67 29 68
REMARK SMILES IDX 30 69 31 70 32 71 33 72 59 73 60 74 69 75 61 76 62 77 68 78
REMARK SMILES IDX 70 79 63 80 64 81 65 82 66 83 67 84 43 85 44 86 53 87 45 88
REMARK SMILES IDX 46 89 52 90 54 91 47 92 48 93 49 94 50 95 51 96
REMARK H PARENT 8 5 84 14 13 27 75 46 41 57
REMARK Flexibility Score: inf
ROOT
ATOM      1  C   UNL A   1      34.003  21.572  25.867  1.00  0.00     0.116 C 
ENDROOT
BRANCH   1   2
ATOM      2  N   UNL A   1      32.987  21.899  26.842  1.00  0.00    -0.355 N 
ATOM      3  C   UNL A   1      32.203  23.012  26.936  1.00  0.00     0.239 C 
ATOM      4  O   UNL A   1      31.195  22.936  27.647  1.00  0.00    -0.273 OA
ATOM      5  H   UNL A   1      32.839  21.220  27.539  1.00  0.00     0.163 HD
BRANCH   3   6
ATOM      6  C   UNL A   1      32.457  24.266  26.083  1.00  0.00     0.222 C 
BRANCH   6   7
ATOM      7  N   UNL A   1      31.332  24.705  25.263  1.00  0.00    -0.304 N 
BRANCH   7   8
ATOM      8  C   UNL A   1      31.070  23.923  24.057  1.00  0.00     0.211 C 
BRANCH   8   9
ATOM      9  C   UNL A   1      32.329  23.649  23.251  1.00  0.00    -0.085 C 
ATOM     10  C   UNL A   1      33.409  23.414  22.561  1.00  0.00     0.006 C 
ENDBRANCH   8   9
ENDBRANCH   7   8
BRANCH   7  11
ATOM     11  C   UNL A   1      30.500  25.764  25.495  1.00  0.00     0.318 C 
ATOM     12  O   UNL A   1      29.630  25.714  26.373  1.00  0.00    -0.249 OA
ATOM     13  N   UNL A   1      30.529  26.915  24.811  1.00  0.00    -0.337 N 
ATOM     14  H   UNL A   1      29.826  27.525  25.132  1.00  0.00     0.165 HD
BRANCH  13  15
ATOM     15  C   UNL A   1      31.290  27.538  23.731  1.00  0.00     0.125 C 
BRANCH  15  16
ATOM     16  C   UNL A   1      32.801  27.430  23.956  1.00  0.00     0.096 C 
BRANCH  16  17
ATOM     17  C   UNL A   1      33.235  28.160  25.177  1.00  0.00     0.105 A 
ATOM     18  C   UNL A   1      33.855  27.777  26.347  1.00  0.00     0.045 A 
ATOM     19  O   UNL A   1      32.973  29.498  25.202  1.00  0.00    -0.469 OA
ATOM     20  C   UNL A   1      33.972  28.948  27.135  1.00  0.00     0.042 A 
ATOM     21  C   UNL A   1      33.420  29.966  26.396  1.00  0.00     0.195 A 
ENDBRANCH  16  17
ENDBRANCH  15  16
ENDBRANCH  13  15
ENDBRANCH   7  11
ENDBRANCH   6   7
ENDBRANCH   3   6
ENDBRANCH   1   2
BRANCH   1  22
ATOM     22  C   UNL A   1      35.397  22.059  26.256  1.00  0.00     0.023 C 
BRANCH  22  23
ATOM     23  C   UNL A   1      35.725  23.501  25.870  1.00  0.00     0.023 C 
BRANCH  23  24
ATOM     24  C   UNL A   1      36.953  23.682  24.989  1.00  0.00     0.116 C 
BRANCH  24  25
ATOM     25  N   UNL A   1      38.009  22.714  25.247  1.00  0.00    -0.352 N 
ATOM     26  C   UNL A   1      39.149  22.873  26.001  1.00  0.00     0.251 C 
ATOM     27  H   UNL A   1      37.891  21.832  24.828  1.00  0.00     0.163 HD
ATOM     28  O   UNL A   1      39.978  21.971  26.058  1.00  0.00    -0.269 OA
BRANCH  26  29
ATOM     29  C   UNL A   1      39.386  24.154  26.697  1.00  0.00     0.039 A 
ATOM     30  C   UNL A   1      38.873  24.322  27.986  1.00  0.00     0.014 A 
ATOM     31  C   UNL A   1      40.150  25.163  26.103  1.00  0.00     0.014 A 
ATOM     32  C   UNL A   1      39.191  25.472  28.710  1.00  0.00     0.010 A 
ATOM     33  C   UNL A   1      40.522  26.275  26.851  1.00  0.00     0.010 A 
ATOM     34  C   UNL A   1      40.052  26.438  28.164  1.00  0.00    -0.014 A 
BRANCH  34  35
ATOM     35  C   UNL A   1      40.490  27.615  28.955  1.00  0.00     0.031 A 
ATOM     36  C   UNL A   1      41.796  27.584  29.698  1.00  0.00     0.074 A 
ATOM     37  C   UNL A   1      39.668  28.677  29.073  1.00  0.00     0.049 A 
ATOM     38  N   UNL A   1      42.310  28.479  30.502  1.00  0.00    -0.248 NA
ATOM     39  C   UNL A   1      42.619  26.374  29.541  1.00  0.00     0.031 C 
ATOM     40  C   UNL A   1      38.346  28.797  28.455  1.00  0.00     0.029 A 
ATOM     41  N   UNL A   1      39.816  29.851  29.768  1.00  0.00    -0.354 N 
ATOM     42  C   UNL A   1      43.501  27.934  30.963  1.00  0.00     0.074 A 
ATOM     43  C   UNL A   1      43.613  26.612  30.384  1.00  0.00     0.031 C 
ATOM     44  C   UNL A   1      37.808  29.981  28.790  1.00  0.00     0.029 A 
ATOM     45  C   UNL A   1      38.731  30.691  29.670  1.00  0.00     0.049 A 
ATOM     46  H   UNL A   1      40.621  30.071  30.290  1.00  0.00     0.167 HD
ATOM     47  C   UNL A   1      44.427  28.491  31.779  1.00  0.00     0.037 A 
ATOM     48  C   UNL A   1      38.501  31.893  30.232  1.00  0.00     0.037 A 
ATOM     49  C   UNL A   1      44.326  29.821  32.323  1.00  0.00     0.049 A 
ATOM     50  C   UNL A   1      39.559  32.508  31.107  1.00  0.00     0.074 A 
ATOM     51  C   UNL A   1      45.249  30.509  33.089  1.00  0.00     0.029 A 
ATOM     52  N   UNL A   1      43.233  30.660  32.163  1.00  0.00    -0.354 N 
ATOM     53  N   UNL A   1      40.720  32.013  31.466  1.00  0.00    -0.248 NA
ATOM     54  C   UNL A   1      39.282  33.847  31.645  1.00  0.00     0.031 C 
ATOM     55  C   UNL A   1      44.700  31.752  33.424  1.00  0.00     0.029 A 
ATOM     56  C   UNL A   1      43.450  31.853  32.833  1.00  0.00     0.049 A 
ATOM     57  H   UNL A   1      42.423  30.442  31.648  1.00  0.00     0.167 HD
ATOM     58  C   UNL A   1      41.319  32.987  32.256  1.00  0.00     0.074 A 
ATOM     59  C   UNL A   1      40.399  34.105  32.313  1.00  0.00     0.031 C 
ATOM     60  C   UNL A   1      42.524  32.956  32.879  1.00  0.00     0.037 A 
BRANCH  47  61
ATOM     61  C   UNL A   1      45.632  27.664  32.130  1.00  0.00     0.058 A 
ATOM     62  C   UNL A   1      45.650  26.828  33.258  1.00  0.00     0.135 A 
ATOM     63  C   UNL A   1      46.778  27.694  31.319  1.00  0.00     0.135 A 
ATOM     64  F   UNL A   1      44.588  26.773  34.076  1.00  0.00    -0.206 F 
ATOM     65  C   UNL A   1      46.773  26.078  33.590  1.00  0.00     0.059 A 
ATOM     66  C   UNL A   1      47.903  26.930  31.616  1.00  0.00     0.059 A 
ATOM     67  F   UNL A   1      46.814  28.475  30.229  1.00  0.00    -0.206 F 
ATOM     68  C   UNL A   1      47.898  26.139  32.765  1.00  0.00     0.060 A 
BRANCH  68  69
ATOM     69  S   UNL A   1      49.352  25.168  33.212  1.00  0.00     0.124 S 
ATOM     70  O   UNL A   1      50.104  26.126  34.016  1.00  0.00    -0.237 OA
ATOM     71  O   UNL A   1      48.768  24.048  33.944  1.00  0.00    -0.237 OA
ATOM     72  O   UNL A   1      49.944  24.828  31.922  1.00  0.00    -0.744 OA
ENDBRANCH  68  69
ENDBRANCH  47  61
BRANCH  48  73
ATOM     73  C   UNL A   1      37.223  32.600  29.962  1.00  0.00     0.058 A 
ATOM     74  C   UNL A   1      36.078  32.338  30.726  1.00  0.00     0.135 A 
ATOM     75  C   UNL A   1      37.131  33.576  28.957  1.00  0.00     0.135 A 
ATOM     76  F   UNL A   1      36.116  31.409  31.695  1.00  0.00    -0.206 F 
ATOM     77  C   UNL A   1      34.881  33.011  30.501  1.00  0.00     0.059 A 
ATOM     78  C   UNL A   1      35.951  34.278  28.727  1.00  0.00     0.059 A 
ATOM     79  F   UNL A   1      38.204  33.875  28.210  1.00  0.00    -0.206 F 
ATOM     80  C   UNL A   1      34.829  33.983  29.501  1.00  0.00     0.060 A 
BRANCH  80  81
ATOM     81  S   UNL A   1      33.292  34.899  29.260  1.00  0.00     0.124 S 
ATOM     82  O   UNL A   1      33.785  36.176  28.759  1.00  0.00    -0.237 OA
ATOM     83  O   UNL A   1      32.584  34.064  28.295  1.00  0.00    -0.237 OA
ATOM     84  O   UNL A   1      32.707  34.928  30.598  1.00  0.00    -0.744 OA
ENDBRANCH  80  81
ENDBRANCH  48  73
BRANCH  60  85
ATOM     85  C   UNL A   1      42.928  34.175  33.659  1.00  0.00     0.058 A 
ATOM     86  C   UNL A   1      42.819  34.222  35.058  1.00  0.00     0.135 A 
ATOM     87  C   UNL A   1      43.480  35.288  33.005  1.00  0.00     0.135 A 
ATOM     88  F   UNL A   1      42.291  33.186  35.729  1.00  0.00    -0.206 F 
ATOM     89  C   UNL A   1      43.227  35.339  35.780  1.00  0.00     0.059 A 
ATOM     90  C   UNL A   1      43.917  36.406  33.710  1.00  0.00     0.059 A 
ATOM     91  F   UNL A   1      43.615  35.290  31.670  1.00  0.00    -0.206 F 
ATOM     92  C   UNL A   1      43.776  36.425  35.097  1.00  0.00     0.060 A 
BRANCH  92  93
ATOM     93  S   UNL A   1      44.338  37.855  36.047  1.00  0.00     0.124 S 
ATOM     94  O   UNL A   1      43.429  37.822  37.189  1.00  0.00    -0.237 OA
ATOM     95  O   UNL A   1      45.728  37.514  36.334  1.00  0.00    -0.237 OA
ATOM     96  O   UNL A   1      44.149  38.971  35.126  1.00  0.00    -0.744 OA
ENDBRANCH  92  93
ENDBRANCH  60  85
ENDBRANCH  34  35
ENDBRANCH  26  29
ENDBRANCH  24  25
ENDBRANCH  23  24
ENDBRANCH  22  23
ENDBRANCH   1  22
TORSDOF 21
ENDMDL
MODEL 3
REMARK VINA RESULT:     -10.4      2.001      3.622
REMARK SMILES C#CCN(CC(=O)NCCCCNC(=O)c1ccc(-c2c3nc(c(-c4c(F)cc(S(=O)(=O)[O-])cc4F)c4ccc([nH]4)c(-c4c(F)cc(S(=O)(=O)[O-])cc4F)c4nc(c(-c5c(F)cc(S(=O)(=O)[O-])cc5F)c5ccc2[nH]5)C=C4)C=C3)cc1)C(=O)NCCc1ccco1
REMARK SMILES IDX 9 1 8 2 6 3 7 4 5 6 4 7 3 8 2 9 1 10 82 11 83 12 84 13 85 15
REMARK SMILES IDX 86 16 87 17 88 18 91 19 89 20 90 21 10 22 11 23 12 24 13 25
REMARK SMILES IDX 14 26 15 28 16 29 17 30 81 31 18 32 80 33 19 34 20 35 21 36
REMARK SMILES IDX 74 37 22 38 79 39 73 40 75 41 23 42 78 43 72 44 71 45 24 47
REMARK SMILES IDX 58 48 37 49 57 50 38 51 41 52 56 53 76 54 39 55 40 56 55 58
REMARK SMILES IDX 77 59 42 60 25 61 26 62 35 63 27 64 28 65 34 66 36 67 29 68
REMARK SMILES IDX 30 69 31 70 32 71 33 72 59 73 60 74 69 75 61 76 62 77 68 78
REMARK SMILES IDX 70 79 63 80 64 81 65 82 66 83 67 84 43 85 44 86 53 87 45 88
REMARK SMILES IDX 46 89 52 90 54 91 47 92 48 93 49 94 50 95 51 96
REMARK H PARENT 8 5 84 14 13 27 75 46 41 57
REMARK Flexibility Score: inf
ROOT
ATOM      1  C   UNL A   1      32.093  28.708  27.282  1.00  0.00     0.116 C 
ENDROOT
BRANCH   1   2
ATOM      2  N   UNL A   1      31.407  27.438  27.375  1.00  0.00    -0.355 N 
ATOM      3  C   UNL A   1      31.270  26.457  26.437  1.00  0.00     0.239 C 
ATOM      4  O   UNL A   1      30.927  25.338  26.833  1.00  0.00    -0.273 OA
ATOM      5  H   UNL A   1      30.977  27.255  28.241  1.00  0.00     0.163 HD
BRANCH   3   6
ATOM      6  C   UNL A   1      31.669  26.670  24.966  1.00  0.00     0.222 C 
BRANCH   6   7
ATOM      7  N   UNL A   1      30.667  26.276  23.981  1.00  0.00    -0.304 N 
BRANCH   7   8
ATOM      8  C   UNL A   1      30.994  25.114  23.159  1.00  0.00     0.211 C 
BRANCH   8   9
ATOM      9  C   UNL A   1      31.875  25.466  21.971  1.00  0.00    -0.085 C 
ATOM     10  C   UNL A   1      32.630  25.767  20.953  1.00  0.00     0.006 C 
ENDBRANCH   8   9
ENDBRANCH   7   8
BRANCH   7  11
ATOM     11  C   UNL A   1      29.461  26.872  23.741  1.00  0.00     0.318 C 
ATOM     12  O   UNL A   1      28.402  26.242  23.850  1.00  0.00    -0.249 OA
ATOM     13  N   UNL A   1      29.308  28.148  23.362  1.00  0.00    -0.337 N 
ATOM     14  H   UNL A   1      28.356  28.355  23.223  1.00  0.00     0.165 HD
BRANCH  13  15
ATOM     15  C   UNL A   1      30.131  29.324  23.091  1.00  0.00     0.125 C 
BRANCH  15  16
ATOM     16  C   UNL A   1      29.439  30.621  23.522  1.00  0.00     0.096 C 
BRANCH  16  17
ATOM     17  C   UNL A   1      28.806  31.321  22.372  1.00  0.00     0.105 A 
ATOM     18  C   UNL A   1      28.375  32.615  22.164  1.00  0.00     0.045 A 
ATOM     19  O   UNL A   1      28.563  30.563  21.266  1.00  0.00    -0.469 OA
ATOM     20  C   UNL A   1      27.832  32.645  20.857  1.00  0.00     0.042 A 
ATOM     21  C   UNL A   1      27.968  31.374  20.353  1.00  0.00     0.195 A 
ENDBRANCH  16  17
ENDBRANCH  15  16
ENDBRANCH  13  15
ENDBRANCH   7  11
ENDBRANCH   6   7
ENDBRANCH   3   6
ENDBRANCH   1   2
BRANCH   1  22
ATOM     22  C   UNL A   1      33.608  28.571  27.151  1.00  0.00     0.023 C 
BRANCH  22  23
ATOM     23  C   UNL A   1      34.401  29.873  27.261  1.00  0.00     0.023 C 
BRANCH  23  24
ATOM     24  C   UNL A   1      35.675  29.798  28.091  1.00  0.00     0.116 C 
BRANCH  24  25
ATOM     25  N   UNL A   1      35.497  30.211  29.476  1.00  0.00    -0.352 N 
ATOM     26  C   UNL A   1      36.457  30.384  30.446  1.00  0.00     0.251 C 
ATOM     27  H   UNL A   1      34.571  30.389  29.753  1.00  0.00     0.163 HD
ATOM     28  O   UNL A   1      36.127  30.669  31.593  1.00  0.00    -0.269 OA
BRANCH  26  29
ATOM     29  C   UNL A   1      37.879  30.175  30.105  1.00  0.00     0.039 A 
ATOM     30  C   UNL A   1      38.733  29.652  31.080  1.00  0.00     0.014 A 
ATOM     31  C   UNL A   1      38.356  30.445  28.819  1.00  0.00     0.014 A 
ATOM     32  C   UNL A   1      40.049  29.329  30.742  1.00  0.00     0.010 A 
ATOM     33  C   UNL A   1      39.645  30.059  28.468  1.00  0.00     0.010 A 
ATOM     34  C   UNL A   1      40.502  29.491  29.424  1.00  0.00    -0.014 A 
BRANCH  34  35
ATOM     35  C   UNL A   1      41.861  29.054  29.017  1.00  0.00     0.031 A 
ATOM     36  C   UNL A   1      42.987  30.047  28.953  1.00  0.00     0.074 A 
ATOM     37  C   UNL A   1      42.059  27.780  28.624  1.00  0.00     0.049 A 
ATOM     38  N   UNL A   1      44.219  29.874  28.547  1.00  0.00    -0.248 NA
ATOM     39  C   UNL A   1      42.680  31.425  29.370  1.00  0.00     0.031 C 
ATOM     40  C   UNL A   1      41.028  26.740  28.578  1.00  0.00     0.029 A 
ATOM     41  N   UNL A   1      43.188  27.147  28.169  1.00  0.00    -0.354 N 
ATOM     42  C   UNL A   1      44.826  31.120  28.638  1.00  0.00     0.074 A 
ATOM     43  C   UNL A   1      43.816  32.049  29.095  1.00  0.00     0.031 C 
ATOM     44  C   UNL A   1      41.575  25.598  28.131  1.00  0.00     0.029 A 
ATOM     45  C   UNL A   1      42.985  25.830  27.830  1.00  0.00     0.049 A 
ATOM     46  H   UNL A   1      44.062  27.594  28.093  1.00  0.00     0.167 HD
ATOM     47  C   UNL A   1      46.113  31.454  28.382  1.00  0.00     0.037 A 
ATOM     48  C   UNL A   1      43.834  24.915  27.324  1.00  0.00     0.037 A 
ATOM     49  C   UNL A   1      47.121  30.516  27.961  1.00  0.00     0.049 A 
ATOM     50  C   UNL A   1      45.267  25.300  27.081  1.00  0.00     0.074 A 
ATOM     51  C   UNL A   1      48.472  30.738  27.759  1.00  0.00     0.029 A 
ATOM     52  N   UNL A   1      46.888  29.180  27.672  1.00  0.00    -0.354 N 
ATOM     53  N   UNL A   1      45.847  26.464  27.253  1.00  0.00    -0.248 NA
ATOM     54  C   UNL A   1      46.164  24.248  26.585  1.00  0.00     0.031 C 
ATOM     55  C   UNL A   1      49.049  29.544  27.312  1.00  0.00     0.029 A 
ATOM     56  C   UNL A   1      48.066  28.568  27.274  1.00  0.00     0.049 A 
ATOM     57  H   UNL A   1      46.014  28.731  27.741  1.00  0.00     0.167 HD
ATOM     58  C   UNL A   1      47.180  26.280  26.904  1.00  0.00     0.074 A 
ATOM     59  C   UNL A   1      47.324  24.889  26.524  1.00  0.00     0.031 C 
ATOM     60  C   UNL A   1      48.192  27.182  26.899  1.00  0.00     0.037 A 
BRANCH  47  61
ATOM     61  C   UNL A   1      46.504  32.896  28.554  1.00  0.00     0.058 A 
ATOM     62  C   UNL A   1      46.961  33.395  29.784  1.00  0.00     0.135 A 
ATOM     63  C   UNL A   1      46.437  33.787  27.470  1.00  0.00     0.135 A 
ATOM     64  F   UNL A   1      47.031  32.590  30.856  1.00  0.00    -0.206 F 
ATOM     65  C   UNL A   1      47.306  34.732  29.944  1.00  0.00     0.059 A 
ATOM     66  C   UNL A   1      46.802  35.124  27.600  1.00  0.00     0.059 A 
ATOM     67  F   UNL A   1      46.007  33.363  26.272  1.00  0.00    -0.206 F 
ATOM     68  C   UNL A   1      47.218  35.591  28.847  1.00  0.00     0.060 A 
BRANCH  68  69
ATOM     69  S   UNL A   1      47.658  37.327  29.070  1.00  0.00     0.124 S 
ATOM     70  O   UNL A   1      48.774  37.465  28.139  1.00  0.00    -0.237 OA
ATOM     71  O   UNL A   1      46.428  38.015  28.689  1.00  0.00    -0.237 OA
ATOM     72  O   UNL A   1      48.006  37.411  30.484  1.00  0.00    -0.744 OA
ENDBRANCH  68  69
ENDBRANCH  47  61
BRANCH  48  73
ATOM     73  C   UNL A   1      43.349  23.540  27.036  1.00  0.00     0.058 A 
ATOM     74  C   UNL A   1      43.127  23.113  25.720  1.00  0.00     0.135 A 
ATOM     75  C   UNL A   1      43.132  22.616  28.071  1.00  0.00     0.135 A 
ATOM     76  F   UNL A   1      43.316  23.963  24.699  1.00  0.00    -0.206 F 
ATOM     77  C   UNL A   1      42.698  21.820  25.436  1.00  0.00     0.059 A 
ATOM     78  C   UNL A   1      42.724  21.311  27.810  1.00  0.00     0.059 A 
ATOM     79  F   UNL A   1      43.348  22.971  29.346  1.00  0.00    -0.206 F 
ATOM     80  C   UNL A   1      42.504  20.925  26.489  1.00  0.00     0.060 A 
BRANCH  80  81
ATOM     81  S   UNL A   1      42.012  19.230  26.106  1.00  0.00     0.124 S 
ATOM     82  O   UNL A   1      42.867  18.926  24.966  1.00  0.00    -0.237 OA
ATOM     83  O   UNL A   1      42.329  18.530  27.347  1.00  0.00    -0.237 OA
ATOM     84  O   UNL A   1      40.587  19.354  25.813  1.00  0.00    -0.744 OA
ENDBRANCH  80  81
ENDBRANCH  48  73
BRANCH  60  85
ATOM     85  C   UNL A   1      49.552  26.691  26.491  1.00  0.00     0.058 A 
ATOM     86  C   UNL A   1      50.402  26.044  27.401  1.00  0.00     0.135 A 
ATOM     87  C   UNL A   1      49.986  26.820  25.162  1.00  0.00     0.135 A 
ATOM     88  F   UNL A   1      50.036  25.901  28.685  1.00  0.00    -0.206 F 
ATOM     89  C   UNL A   1      51.647  25.558  27.011  1.00  0.00     0.059 A 
ATOM     90  C   UNL A   1      51.217  26.320  24.746  1.00  0.00     0.059 A 
ATOM     91  F   UNL A   1      49.207  27.422  24.251  1.00  0.00    -0.206 F 
ATOM     92  C   UNL A   1      52.044  25.700  25.681  1.00  0.00     0.060 A 
BRANCH  92  93
ATOM     93  S   UNL A   1      53.645  25.032  25.177  1.00  0.00     0.124 S 
ATOM     94  O   UNL A   1      54.492  25.425  26.298  1.00  0.00    -0.237 OA
ATOM     95  O   UNL A   1      53.367  23.603  25.063  1.00  0.00    -0.237 OA
ATOM     96  O   UNL A   1      53.916  25.715  23.915  1.00  0.00    -0.744 OA
ENDBRANCH  92  93
ENDBRANCH  60  85
ENDBRANCH  34  35
ENDBRANCH  26  29
ENDBRANCH  24  25
ENDBRANCH  23  24
ENDBRANCH  22  23
ENDBRANCH   1  22
TORSDOF 21
ENDMDL
