MODEL 1
REMARK VINA RESULT:     -10.7      0.000      0.000
REMARK SMILES O=C(NCCCCNC(=O)[C@@H](Cc1ccc(F)cc1)C[C@H](O)C(F)(F)F)c1ccc(-c2c3nc(c(-c4c(F)cc(S(=O)(=O)[O-])cc4F)c4ccc([nH]4)c(-c4c(F)cc(S(=O)(=O)[O-])cc4F)c4nc(c(-c5c(F)cc(S(=O)(=O)[O-])cc5F)c5ccc2[nH]5)C=C4)C=C3)cc1
REMARK SMILES IDX 5 1 4 2 3 3 1 4 2 5 27 7 28 8 92 9 29 10 91 11 30 12 31 13
REMARK SMILES IDX 32 14 85 15 33 16 90 17 84 18 86 19 34 20 89 21 83 22 82 23
REMARK SMILES IDX 35 25 69 26 48 27 68 28 49 29 52 30 67 31 87 32 50 33 51 34
REMARK SMILES IDX 66 36 88 37 53 38 36 39 37 40 46 41 38 42 39 43 45 44 47 45
REMARK SMILES IDX 40 46 41 47 42 48 43 49 44 50 70 51 71 52 80 53 72 54 73 55
REMARK SMILES IDX 79 56 81 57 74 58 75 59 76 60 77 61 78 62 54 63 55 64 64 65
REMARK SMILES IDX 56 66 57 67 63 68 65 69 58 70 59 71 60 72 61 73 62 74 6 75
REMARK SMILES IDX 7 76 8 77 9 78 10 80 11 81 12 82 13 83 14 84 19 85 15 86
REMARK SMILES IDX 18 87 16 88 17 89 20 90 21 91 23 92 24 93 25 94 26 95 22 96
REMARK H PARENT 3 6 86 24 52 35 8 79 22 97
REMARK Flexibility Score: inf
ROOT
ATOM      1  C   UNL A   1      32.968  28.203  25.645  1.00  0.00     0.023 C 
ENDROOT
BRANCH   1   2
ATOM      2  C   UNL A   1      33.984  28.566  26.718  1.00  0.00     0.116 C 
BRANCH   2   3
ATOM      3  N   UNL A   1      33.720  29.829  27.397  1.00  0.00    -0.352 N 
ATOM      4  O   UNL A   1      34.256  31.590  28.724  1.00  0.00    -0.269 OA
ATOM      5  C   UNL A   1      34.600  30.557  28.167  1.00  0.00     0.251 C 
ATOM      6  H   UNL A   1      32.814  30.201  27.294  1.00  0.00     0.163 HD
BRANCH   5   7
ATOM      7  C   UNL A   1      35.965  30.021  28.339  1.00  0.00     0.039 A 
ATOM      8  C   UNL A   1      36.374  29.566  29.595  1.00  0.00     0.014 A 
ATOM      9  C   UNL A   1      36.863  30.092  27.274  1.00  0.00     0.014 A 
ATOM     10  C   UNL A   1      37.720  29.328  29.826  1.00  0.00     0.010 A 
ATOM     11  C   UNL A   1      38.203  29.762  27.486  1.00  0.00     0.010 A 
ATOM     12  C   UNL A   1      38.645  29.407  28.770  1.00  0.00    -0.014 A 
BRANCH  12  13
ATOM     13  C   UNL A   1      40.052  29.015  29.016  1.00  0.00     0.031 A 
ATOM     14  C   UNL A   1      40.575  27.667  28.608  1.00  0.00     0.074 A 
ATOM     15  C   UNL A   1      40.858  29.917  29.610  1.00  0.00     0.049 A 
ATOM     16  N   UNL A   1      41.765  27.163  28.799  1.00  0.00    -0.248 NA
ATOM     17  C   UNL A   1      39.650  26.764  27.902  1.00  0.00     0.031 C 
ATOM     18  C   UNL A   1      40.440  31.254  30.048  1.00  0.00     0.029 A 
ATOM     19  N   UNL A   1      42.185  29.862  29.940  1.00  0.00    -0.354 N 
ATOM     20  C   UNL A   1      41.731  25.882  28.264  1.00  0.00     0.074 A 
ATOM     21  C   UNL A   1      40.398  25.679  27.740  1.00  0.00     0.031 C 
ATOM     22  C   UNL A   1      41.495  31.900  30.560  1.00  0.00     0.029 A 
ATOM     23  C   UNL A   1      42.642  31.001  30.557  1.00  0.00     0.049 A 
ATOM     24  H   UNL A   1      42.757  29.082  29.754  1.00  0.00     0.167 HD
ATOM     25  C   UNL A   1      42.729  24.968  28.220  1.00  0.00     0.037 A 
ATOM     26  C   UNL A   1      43.840  31.283  31.103  1.00  0.00     0.037 A 
ATOM     27  C   UNL A   1      44.060  25.205  28.716  1.00  0.00     0.049 A 
ATOM     28  C   UNL A   1      44.912  30.238  31.066  1.00  0.00     0.074 A 
ATOM     29  C   UNL A   1      45.161  24.368  28.651  1.00  0.00     0.029 A 
ATOM     30  N   UNL A   1      44.470  26.355  29.374  1.00  0.00    -0.354 N 
ATOM     31  N   UNL A   1      44.870  29.043  30.528  1.00  0.00    -0.248 NA
ATOM     32  C   UNL A   1      46.182  30.564  31.726  1.00  0.00     0.031 C 
ATOM     33  C   UNL A   1      46.225  24.994  29.308  1.00  0.00     0.029 A 
ATOM     34  C   UNL A   1      45.797  26.236  29.750  1.00  0.00     0.049 A 
ATOM     35  H   UNL A   1      43.902  27.141  29.547  1.00  0.00     0.167 HD
ATOM     36  C   UNL A   1      46.102  28.466  30.797  1.00  0.00     0.074 A 
ATOM     37  C   UNL A   1      46.880  29.453  31.518  1.00  0.00     0.031 C 
ATOM     38  C   UNL A   1      46.545  27.226  30.483  1.00  0.00     0.037 A 
BRANCH  25  39
ATOM     39  C   UNL A   1      42.450  23.618  27.621  1.00  0.00     0.058 A 
ATOM     40  C   UNL A   1      42.253  22.503  28.453  1.00  0.00     0.135 A 
ATOM     41  C   UNL A   1      42.526  23.399  26.238  1.00  0.00     0.135 A 
ATOM     42  F   UNL A   1      42.165  22.661  29.783  1.00  0.00    -0.206 F 
ATOM     43  C   UNL A   1      42.175  21.214  27.936  1.00  0.00     0.059 A 
ATOM     44  C   UNL A   1      42.436  22.118  25.697  1.00  0.00     0.059 A 
ATOM     45  F   UNL A   1      42.697  24.433  25.399  1.00  0.00    -0.206 F 
ATOM     46  C   UNL A   1      42.283  21.030  26.557  1.00  0.00     0.060 A 
BRANCH  46  47
ATOM     47  S   UNL A   1      42.213  19.347  25.904  1.00  0.00     0.124 S 
ATOM     48  O   UNL A   1      42.711  18.566  27.030  1.00  0.00    -0.237 OA
ATOM     49  O   UNL A   1      40.792  19.195  25.602  1.00  0.00    -0.237 OA
ATOM     50  O   UNL A   1      43.089  19.401  24.737  1.00  0.00    -0.744 OA
ENDBRANCH  46  47
ENDBRANCH  25  39
BRANCH  26  51
ATOM     51  C   UNL A   1      44.041  32.591  31.774  1.00  0.00     0.058 A 
ATOM     52  C   UNL A   1      44.547  33.692  31.064  1.00  0.00     0.135 A 
ATOM     53  C   UNL A   1      43.798  32.749  33.144  1.00  0.00     0.135 A 
ATOM     54  F   UNL A   1      44.808  33.584  29.751  1.00  0.00    -0.206 F 
ATOM     55  C   UNL A   1      44.842  34.893  31.696  1.00  0.00     0.059 A 
ATOM     56  C   UNL A   1      44.061  33.950  33.796  1.00  0.00     0.059 A 
ATOM     57  F   UNL A   1      43.307  31.726  33.860  1.00  0.00    -0.206 F 
ATOM     58  C   UNL A   1      44.604  35.009  33.065  1.00  0.00     0.060 A 
BRANCH  58  59
ATOM     59  S   UNL A   1      45.003  36.570  33.877  1.00  0.00     0.124 S 
ATOM     60  O   UNL A   1      44.561  37.538  32.876  1.00  0.00    -0.237 OA
ATOM     61  O   UNL A   1      44.201  36.503  35.093  1.00  0.00    -0.237 OA
ATOM     62  O   UNL A   1      46.446  36.485  34.076  1.00  0.00    -0.744 OA
ENDBRANCH  58  59
ENDBRANCH  26  51
BRANCH  38  63
ATOM     63  C   UNL A   1      47.923  26.851  30.938  1.00  0.00     0.058 A 
ATOM     64  C   UNL A   1      49.039  27.105  30.128  1.00  0.00     0.135 A 
ATOM     65  C   UNL A   1      48.120  26.155  32.140  1.00  0.00     0.135 A 
ATOM     66  F   UNL A   1      48.898  27.768  28.969  1.00  0.00    -0.206 F 
ATOM     67  C   UNL A   1      50.306  26.657  30.483  1.00  0.00     0.059 A 
ATOM     68  C   UNL A   1      49.380  25.714  32.525  1.00  0.00     0.059 A 
ATOM     69  F   UNL A   1      47.081  25.906  32.953  1.00  0.00    -0.206 F 
ATOM     70  C   UNL A   1      50.464  25.953  31.679  1.00  0.00     0.060 A 
BRANCH  70  71
ATOM     71  S   UNL A   1      52.112  25.361  32.116  1.00  0.00     0.124 S 
ATOM     72  O   UNL A   1      52.390  26.121  33.330  1.00  0.00    -0.237 OA
ATOM     73  O   UNL A   1      51.886  23.930  32.300  1.00  0.00    -0.237 OA
ATOM     74  O   UNL A   1      52.918  25.717  30.952  1.00  0.00    -0.744 OA
ENDBRANCH  70  71
ENDBRANCH  38  63
ENDBRANCH  12  13
ENDBRANCH   5   7
ENDBRANCH   2   3
ENDBRANCH   1   2
BRANCH   1  75
ATOM     75  C   UNL A   1      31.561  27.984  26.178  1.00  0.00     0.023 C 
BRANCH  75  76
ATOM     76  C   UNL A   1      30.752  26.913  25.455  1.00  0.00     0.116 C 
BRANCH  76  77
ATOM     77  N   UNL A   1      30.385  25.848  26.363  1.00  0.00    -0.356 N 
ATOM     78  C   UNL A   1      30.811  24.569  26.466  1.00  0.00     0.223 C 
ATOM     79  H   UNL A   1      29.702  26.100  27.024  1.00  0.00     0.163 HD
ATOM     80  O   UNL A   1      30.219  23.853  27.281  1.00  0.00    -0.275 OA
BRANCH  78  81
ATOM     81  C   UNL A   1      32.008  23.998  25.702  1.00  0.00     0.085 C 
BRANCH  81  82
ATOM     82  C   UNL A   1      32.992  23.166  26.563  1.00  0.00     0.049 C 
BRANCH  82  83
ATOM     83  C   UNL A   1      34.373  22.744  26.107  1.00  0.00    -0.047 A 
ATOM     84  C   UNL A   1      34.695  21.431  25.732  1.00  0.00     0.007 A 
ATOM     85  C   UNL A   1      35.364  23.736  25.943  1.00  0.00     0.007 A 
ATOM     86  C   UNL A   1      35.988  21.101  25.309  1.00  0.00     0.039 A 
ATOM     87  C   UNL A   1      36.649  23.411  25.499  1.00  0.00     0.039 A 
ATOM     88  C   UNL A   1      36.954  22.091  25.199  1.00  0.00     0.123 A 
ATOM     89  F   UNL A   1      38.189  21.772  24.796  1.00  0.00    -0.207 F 
ENDBRANCH  82  83
ENDBRANCH  81  82
BRANCH  81  90
ATOM     90  C   UNL A   1      31.672  23.479  24.300  1.00  0.00     0.055 C 
BRANCH  90  91
ATOM     91  C   UNL A   1      32.540  24.039  23.159  1.00  0.00     0.220 C 
BRANCH  91  92
ATOM     92  C   UNL A   1      33.396  22.979  22.446  1.00  0.00     0.414 C 
ATOM     93  F   UNL A   1      33.014  21.740  22.844  1.00  0.00    -0.168 F 
ATOM     94  F   UNL A   1      33.271  23.028  21.107  1.00  0.00    -0.168 F 
ATOM     95  F   UNL A   1      34.708  23.111  22.743  1.00  0.00    -0.168 F 
ENDBRANCH  91  92
BRANCH  91  96
ATOM     96  O   UNL A   1      31.628  24.689  22.242  1.00  0.00    -0.384 OA
ATOM     97  H   UNL A   1      31.930  24.545  21.331  1.00  0.00     0.211 HD
ENDBRANCH  91  96
ENDBRANCH  90  91
ENDBRANCH  81  90
ENDBRANCH  78  81
ENDBRANCH  76  77
ENDBRANCH  75  76
ENDBRANCH   1  75
TORSDOF 20
ENDMDL
MODEL 2
REMARK VINA RESULT:     -10.7      1.250      2.261
REMARK SMILES O=C(NCCCCNC(=O)[C@@H](Cc1ccc(F)cc1)C[C@H](O)C(F)(F)F)c1ccc(-c2c3nc(c(-c4c(F)cc(S(=O)(=O)[O-])cc4F)c4ccc([nH]4)c(-c4c(F)cc(S(=O)(=O)[O-])cc4F)c4nc(c(-c5c(F)cc(S(=O)(=O)[O-])cc5F)c5ccc2[nH]5)C=C4)C=C3)cc1
REMARK SMILES IDX 5 1 4 2 3 3 1 4 2 5 27 7 28 8 92 9 29 10 91 11 30 12 31 13
REMARK SMILES IDX 32 14 85 15 33 16 90 17 84 18 86 19 34 20 89 21 83 22 82 23
REMARK SMILES IDX 35 25 69 26 48 27 68 28 49 29 52 30 67 31 87 32 50 33 51 34
REMARK SMILES IDX 66 36 88 37 53 38 36 39 37 40 46 41 38 42 39 43 45 44 47 45
REMARK SMILES IDX 40 46 41 47 42 48 43 49 44 50 70 51 71 52 80 53 72 54 73 55
REMARK SMILES IDX 79 56 81 57 74 58 75 59 76 60 77 61 78 62 54 63 55 64 64 65
REMARK SMILES IDX 56 66 57 67 63 68 65 69 58 70 59 71 60 72 61 73 62 74 6 75
REMARK SMILES IDX 7 76 8 77 9 78 10 80 11 81 12 82 13 83 14 84 19 85 15 86
REMARK SMILES IDX 18 87 16 88 17 89 20 90 21 91 23 92 24 93 25 94 26 95 22 96
REMARK H PARENT 3 6 86 24 52 35 8 79 22 97
REMARK Flexibility Score: inf
ROOT
ATOM      1  C   UNL A   1      33.443  28.112  25.591  1.00  0.00     0.023 C 
ENDROOT
BRANCH   1   2
ATOM      2  C   UNL A   1      33.867  28.316  27.038  1.00  0.00     0.116 C 
BRANCH   2   3
ATOM      3  N   UNL A   1      33.659  29.667  27.544  1.00  0.00    -0.352 N 
ATOM      4  O   UNL A   1      34.298  31.592  28.562  1.00  0.00    -0.269 OA
ATOM      5  C   UNL A   1      34.596  30.485  28.136  1.00  0.00     0.251 C 
ATOM      6  H   UNL A   1      32.750  30.034  27.454  1.00  0.00     0.163 HD
BRANCH   5   7
ATOM      7  C   UNL A   1      35.967  29.959  28.286  1.00  0.00     0.039 A 
ATOM      8  C   UNL A   1      36.382  29.455  29.520  1.00  0.00     0.014 A 
ATOM      9  C   UNL A   1      36.865  30.089  27.225  1.00  0.00     0.014 A 
ATOM     10  C   UNL A   1      37.731  29.224  29.742  1.00  0.00     0.010 A 
ATOM     11  C   UNL A   1      38.208  29.767  27.424  1.00  0.00     0.010 A 
ATOM     12  C   UNL A   1      38.655  29.361  28.691  1.00  0.00    -0.014 A 
BRANCH  12  13
ATOM     13  C   UNL A   1      40.067  28.976  28.921  1.00  0.00     0.031 A 
ATOM     14  C   UNL A   1      40.589  27.627  28.517  1.00  0.00     0.074 A 
ATOM     15  C   UNL A   1      40.877  29.886  29.496  1.00  0.00     0.049 A 
ATOM     16  N   UNL A   1      41.784  27.129  28.696  1.00  0.00    -0.248 NA
ATOM     17  C   UNL A   1      39.658  26.715  27.831  1.00  0.00     0.031 C 
ATOM     18  C   UNL A   1      40.460  31.225  29.930  1.00  0.00     0.029 A 
ATOM     19  N   UNL A   1      42.209  29.839  29.809  1.00  0.00    -0.354 N 
ATOM     20  C   UNL A   1      41.747  25.843  28.172  1.00  0.00     0.074 A 
ATOM     21  C   UNL A   1      40.408  25.631  27.667  1.00  0.00     0.031 C 
ATOM     22  C   UNL A   1      41.519  31.879  30.422  1.00  0.00     0.029 A 
ATOM     23  C   UNL A   1      42.670  30.985  30.411  1.00  0.00     0.049 A 
ATOM     24  H   UNL A   1      42.781  29.060  29.622  1.00  0.00     0.167 HD
ATOM     25  C   UNL A   1      42.748  24.933  28.121  1.00  0.00     0.037 A 
ATOM     26  C   UNL A   1      43.873  31.275  30.938  1.00  0.00     0.037 A 
ATOM     27  C   UNL A   1      44.085  25.179  28.597  1.00  0.00     0.049 A 
ATOM     28  C   UNL A   1      44.949  30.235  30.894  1.00  0.00     0.074 A 
ATOM     29  C   UNL A   1      45.189  24.346  28.523  1.00  0.00     0.029 A 
ATOM     30  N   UNL A   1      44.499  26.336  29.240  1.00  0.00    -0.354 N 
ATOM     31  N   UNL A   1      44.905  29.035  30.367  1.00  0.00    -0.248 NA
ATOM     32  C   UNL A   1      46.227  30.570  31.534  1.00  0.00     0.031 C 
ATOM     33  C   UNL A   1      46.258  24.982  29.160  1.00  0.00     0.029 A 
ATOM     34  C   UNL A   1      45.832  26.225  29.599  1.00  0.00     0.049 A 
ATOM     35  H   UNL A   1      43.930  27.121  29.414  1.00  0.00     0.167 HD
ATOM     36  C   UNL A   1      46.143  28.465  30.623  1.00  0.00     0.074 A 
ATOM     37  C   UNL A   1      46.926  29.461  31.325  1.00  0.00     0.031 C 
ATOM     38  C   UNL A   1      46.586  27.224  30.313  1.00  0.00     0.037 A 
BRANCH  25  39
ATOM     39  C   UNL A   1      42.467  23.577  27.536  1.00  0.00     0.058 A 
ATOM     40  C   UNL A   1      42.225  22.481  28.381  1.00  0.00     0.135 A 
ATOM     41  C   UNL A   1      42.583  23.333  26.160  1.00  0.00     0.135 A 
ATOM     42  F   UNL A   1      42.097  22.663  29.704  1.00  0.00    -0.206 F 
ATOM     43  C   UNL A   1      42.142  21.184  27.884  1.00  0.00     0.059 A 
ATOM     44  C   UNL A   1      42.488  22.044  25.639  1.00  0.00     0.059 A 
ATOM     45  F   UNL A   1      42.797  24.349  25.310  1.00  0.00    -0.206 F 
ATOM     46  C   UNL A   1      42.291  20.973  26.512  1.00  0.00     0.060 A 
BRANCH  46  47
ATOM     47  S   UNL A   1      42.214  19.281  25.886  1.00  0.00     0.124 S 
ATOM     48  O   UNL A   1      40.791  19.130  25.602  1.00  0.00    -0.237 OA
ATOM     49  O   UNL A   1      43.093  19.345  24.722  1.00  0.00    -0.237 OA
ATOM     50  O   UNL A   1      42.721  18.486  27.000  1.00  0.00    -0.744 OA
ENDBRANCH  46  47
ENDBRANCH  25  39
BRANCH  26  51
ATOM     51  C   UNL A   1      44.079  32.590  31.595  1.00  0.00     0.058 A 
ATOM     52  C   UNL A   1      43.802  32.760  32.962  1.00  0.00     0.135 A 
ATOM     53  C   UNL A   1      44.486  33.712  30.862  1.00  0.00     0.135 A 
ATOM     54  F   UNL A   1      43.395  31.716  33.701  1.00  0.00    -0.206 F 
ATOM     55  C   UNL A   1      43.885  34.005  33.571  1.00  0.00     0.059 A 
ATOM     56  C   UNL A   1      44.602  34.965  31.456  1.00  0.00     0.059 A 
ATOM     57  F   UNL A   1      44.768  33.593  29.556  1.00  0.00    -0.206 F 
ATOM     58  C   UNL A   1      44.279  35.104  32.807  1.00  0.00     0.060 A 
BRANCH  58  59
ATOM     59  S   UNL A   1      44.371  36.718  33.609  1.00  0.00     0.124 S 
ATOM     60  O   UNL A   1      45.343  37.406  32.763  1.00  0.00    -0.237 OA
ATOM     61  O   UNL A   1      42.995  37.193  33.512  1.00  0.00    -0.237 OA
ATOM     62  O   UNL A   1      44.826  36.396  34.957  1.00  0.00    -0.744 OA
ENDBRANCH  58  59
ENDBRANCH  26  51
BRANCH  38  63
ATOM     63  C   UNL A   1      47.971  26.857  30.752  1.00  0.00     0.058 A 
ATOM     64  C   UNL A   1      48.206  26.361  32.043  1.00  0.00     0.135 A 
ATOM     65  C   UNL A   1      49.075  27.087  29.918  1.00  0.00     0.135 A 
ATOM     66  F   UNL A   1      47.180  26.126  32.876  1.00  0.00    -0.206 F 
ATOM     67  C   UNL A   1      49.497  26.129  32.503  1.00  0.00     0.059 A 
ATOM     68  C   UNL A   1      50.374  26.844  30.351  1.00  0.00     0.059 A 
ATOM     69  F   UNL A   1      48.893  27.545  28.669  1.00  0.00    -0.206 F 
ATOM     70  C   UNL A   1      50.575  26.384  31.652  1.00  0.00     0.060 A 
BRANCH  70  71
ATOM     71  S   UNL A   1      52.245  26.096  32.272  1.00  0.00     0.124 S 
ATOM     72  O   UNL A   1      53.006  25.971  31.033  1.00  0.00    -0.237 OA
ATOM     73  O   UNL A   1      52.496  27.304  33.052  1.00  0.00    -0.237 OA
ATOM     74  O   UNL A   1      52.109  24.871  33.053  1.00  0.00    -0.744 OA
ENDBRANCH  70  71
ENDBRANCH  38  63
ENDBRANCH  12  13
ENDBRANCH   5   7
ENDBRANCH   2   3
ENDBRANCH   1   2
BRANCH   1  75
ATOM     75  C   UNL A   1      31.950  27.886  25.412  1.00  0.00     0.023 C 
BRANCH  75  76
ATOM     76  C   UNL A   1      31.569  26.579  24.725  1.00  0.00     0.116 C 
BRANCH  76  77
ATOM     77  N   UNL A   1      32.474  26.291  23.634  1.00  0.00    -0.356 N 
ATOM     78  C   UNL A   1      33.295  25.243  23.402  1.00  0.00     0.223 C 
ATOM     79  H   UNL A   1      32.497  26.984  22.936  1.00  0.00     0.163 HD
ATOM     80  O   UNL A   1      34.045  25.335  22.424  1.00  0.00    -0.275 OA
BRANCH  78  81
ATOM     81  C   UNL A   1      33.289  23.949  24.218  1.00  0.00     0.085 C 
BRANCH  81  82
ATOM     82  C   UNL A   1      34.365  22.913  23.805  1.00  0.00     0.049 C 
BRANCH  82  83
ATOM     83  C   UNL A   1      35.675  22.709  24.537  1.00  0.00    -0.047 A 
ATOM     84  C   UNL A   1      36.319  21.467  24.635  1.00  0.00     0.007 A 
ATOM     85  C   UNL A   1      36.343  23.839  25.054  1.00  0.00     0.007 A 
ATOM     86  C   UNL A   1      37.536  21.340  25.316  1.00  0.00     0.039 A 
ATOM     87  C   UNL A   1      37.570  23.717  25.715  1.00  0.00     0.039 A 
ATOM     88  C   UNL A   1      38.148  22.465  25.853  1.00  0.00     0.123 A 
ATOM     89  F   UNL A   1      39.310  22.340  26.505  1.00  0.00    -0.207 F 
ENDBRANCH  82  83
ENDBRANCH  81  82
BRANCH  81  90
ATOM     90  C   UNL A   1      33.029  24.149  25.715  1.00  0.00     0.055 C 
BRANCH  90  91
ATOM     91  C   UNL A   1      32.430  22.938  26.453  1.00  0.00     0.220 C 
BRANCH  91  92
ATOM     92  C   UNL A   1      33.389  22.283  27.461  1.00  0.00     0.414 C 
ATOM     93  F   UNL A   1      34.497  23.052  27.603  1.00  0.00    -0.168 F 
ATOM     94  F   UNL A   1      32.839  22.141  28.681  1.00  0.00    -0.168 F 
ATOM     95  F   UNL A   1      33.795  21.063  27.046  1.00  0.00    -0.168 F 
ENDBRANCH  91  92
BRANCH  91  96
ATOM     96  O   UNL A   1      31.227  23.416  27.099  1.00  0.00    -0.384 OA
ATOM     97  H   UNL A   1      30.820  22.692  27.600  1.00  0.00     0.211 HD
ENDBRANCH  91  96
ENDBRANCH  90  91
ENDBRANCH  81  90
ENDBRANCH  78  81
ENDBRANCH  76  77
ENDBRANCH  75  76
ENDBRANCH   1  75
TORSDOF 20
ENDMDL
MODEL 3
REMARK VINA RESULT:     -10.6      3.879      9.100
REMARK SMILES O=C(NCCCCNC(=O)[C@@H](Cc1ccc(F)cc1)C[C@H](O)C(F)(F)F)c1ccc(-c2c3nc(c(-c4c(F)cc(S(=O)(=O)[O-])cc4F)c4ccc([nH]4)c(-c4c(F)cc(S(=O)(=O)[O-])cc4F)c4nc(c(-c5c(F)cc(S(=O)(=O)[O-])cc5F)c5ccc2[nH]5)C=C4)C=C3)cc1
REMARK SMILES IDX 5 1 4 2 3 3 1 4 2 5 27 7 28 8 92 9 29 10 91 11 30 12 31 13
REMARK SMILES IDX 32 14 85 15 33 16 90 17 84 18 86 19 34 20 89 21 83 22 82 23
REMARK SMILES IDX 35 25 69 26 48 27 68 28 49 29 52 30 67 31 87 32 50 33 51 34
REMARK SMILES IDX 66 36 88 37 53 38 36 39 37 40 46 41 38 42 39 43 45 44 47 45
REMARK SMILES IDX 40 46 41 47 42 48 43 49 44 50 70 51 71 52 80 53 72 54 73 55
REMARK SMILES IDX 79 56 81 57 74 58 75 59 76 60 77 61 78 62 54 63 55 64 64 65
REMARK SMILES IDX 56 66 57 67 63 68 65 69 58 70 59 71 60 72 61 73 62 74 6 75
REMARK SMILES IDX 7 76 8 77 9 78 10 80 11 81 12 82 13 83 14 84 19 85 15 86
REMARK SMILES IDX 18 87 16 88 17 89 20 90 21 91 23 92 24 93 25 94 26 95 22 96
REMARK H PARENT 3 6 86 24 52 35 8 79 22 97
REMARK Flexibility Score: inf
ROOT
ATOM      1  C   UNL A   1      38.068  20.204  25.265  1.00  0.00     0.023 C 
ENDROOT
BRANCH   1   2
ATOM      2  C   UNL A   1      39.439  20.476  25.868  1.00  0.00     0.116 C 
BRANCH   2   3
ATOM      3  N   UNL A   1      40.321  19.316  25.911  1.00  0.00    -0.352 N 
ATOM      4  O   UNL A   1      42.325  18.277  26.137  1.00  0.00    -0.269 OA
ATOM      5  C   UNL A   1      41.674  19.312  26.167  1.00  0.00     0.251 C 
ATOM      6  H   UNL A   1      39.904  18.441  25.736  1.00  0.00     0.163 HD
BRANCH   5   7
ATOM      7  C   UNL A   1      42.326  20.610  26.430  1.00  0.00     0.039 A 
ATOM      8  C   UNL A   1      42.460  21.061  27.745  1.00  0.00     0.014 A 
ATOM      9  C   UNL A   1      42.687  21.420  25.352  1.00  0.00     0.014 A 
ATOM     10  C   UNL A   1      42.810  22.382  27.978  1.00  0.00     0.010 A 
ATOM     11  C   UNL A   1      43.129  22.722  25.594  1.00  0.00     0.010 A 
ATOM     12  C   UNL A   1      43.165  23.221  26.906  1.00  0.00    -0.014 A 
BRANCH  12  13
ATOM     13  C   UNL A   1      43.665  24.585  27.195  1.00  0.00     0.031 A 
ATOM     14  C   UNL A   1      42.758  25.657  27.728  1.00  0.00     0.074 A 
ATOM     15  C   UNL A   1      44.971  24.831  26.975  1.00  0.00     0.049 A 
ATOM     16  N   UNL A   1      43.038  26.907  27.984  1.00  0.00    -0.248 NA
ATOM     17  C   UNL A   1      41.360  25.288  28.008  1.00  0.00     0.031 C 
ATOM     18  C   UNL A   1      45.932  23.853  26.452  1.00  0.00     0.029 A 
ATOM     19  N   UNL A   1      45.721  25.960  27.166  1.00  0.00    -0.354 N 
ATOM     20  C   UNL A   1      41.856  27.484  28.428  1.00  0.00     0.074 A 
ATOM     21  C   UNL A   1      40.847  26.447  28.406  1.00  0.00     0.031 C 
ATOM     22  C   UNL A   1      47.146  24.415  26.394  1.00  0.00     0.029 A 
ATOM     23  C   UNL A   1      47.037  25.810  26.801  1.00  0.00     0.049 A 
ATOM     24  H   UNL A   1      45.354  26.798  27.530  1.00  0.00     0.167 HD
ATOM     25  C   UNL A   1      41.644  28.763  28.816  1.00  0.00     0.037 A 
ATOM     26  C   UNL A   1      48.042  26.705  26.754  1.00  0.00     0.037 A 
ATOM     27  C   UNL A   1      42.672  29.771  28.864  1.00  0.00     0.049 A 
ATOM     28  C   UNL A   1      47.766  28.119  27.159  1.00  0.00     0.074 A 
ATOM     29  C   UNL A   1      42.573  31.077  29.313  1.00  0.00     0.029 A 
ATOM     30  N   UNL A   1      43.982  29.590  28.444  1.00  0.00    -0.354 N 
ATOM     31  N   UNL A   1      46.648  28.638  27.606  1.00  0.00    -0.248 NA
ATOM     32  C   UNL A   1      48.873  29.076  27.036  1.00  0.00     0.031 C 
ATOM     33  C   UNL A   1      43.811  31.699  29.123  1.00  0.00     0.029 A 
ATOM     34  C   UNL A   1      44.691  30.771  28.590  1.00  0.00     0.049 A 
ATOM     35  H   UNL A   1      44.352  28.748  28.093  1.00  0.00     0.167 HD
ATOM     36  C   UNL A   1      46.911  29.986  27.802  1.00  0.00     0.074 A 
ATOM     37  C   UNL A   1      48.301  30.197  27.456  1.00  0.00     0.031 C 
ATOM     38  C   UNL A   1      46.071  30.961  28.222  1.00  0.00     0.037 A 
BRANCH  25  39
ATOM     39  C   UNL A   1      40.258  29.178  29.226  1.00  0.00     0.058 A 
ATOM     40  C   UNL A   1      39.318  29.556  28.253  1.00  0.00     0.135 A 
ATOM     41  C   UNL A   1      39.910  29.342  30.574  1.00  0.00     0.135 A 
ATOM     42  F   UNL A   1      39.600  29.411  26.949  1.00  0.00    -0.206 F 
ATOM     43  C   UNL A   1      38.093  30.116  28.604  1.00  0.00     0.059 A 
ATOM     44  C   UNL A   1      38.684  29.886  30.949  1.00  0.00     0.059 A 
ATOM     45  F   UNL A   1      40.767  28.979  31.542  1.00  0.00    -0.206 F 
ATOM     46  C   UNL A   1      37.791  30.291  29.955  1.00  0.00     0.060 A 
BRANCH  46  47
ATOM     47  S   UNL A   1      36.212  31.050  30.394  1.00  0.00     0.124 S 
ATOM     48  O   UNL A   1      35.424  30.824  29.187  1.00  0.00    -0.237 OA
ATOM     49  O   UNL A   1      35.816  30.275  31.567  1.00  0.00    -0.237 OA
ATOM     50  O   UNL A   1      36.568  32.440  30.663  1.00  0.00    -0.744 OA
ENDBRANCH  46  47
ENDBRANCH  25  39
BRANCH  26  51
ATOM     51  C   UNL A   1      49.369  26.277  26.247  1.00  0.00     0.058 A 
ATOM     52  C   UNL A   1      50.264  25.581  27.077  1.00  0.00     0.135 A 
ATOM     53  C   UNL A   1      49.796  26.613  24.956  1.00  0.00     0.135 A 
ATOM     54  F   UNL A   1      49.904  25.250  28.327  1.00  0.00    -0.206 F 
ATOM     55  C   UNL A   1      51.550  25.266  26.657  1.00  0.00     0.059 A 
ATOM     56  C   UNL A   1      51.071  26.286  24.503  1.00  0.00     0.059 A 
ATOM     57  F   UNL A   1      48.971  27.271  24.127  1.00  0.00    -0.206 F 
ATOM     58  C   UNL A   1      51.947  25.631  25.370  1.00  0.00     0.060 A 
BRANCH  58  59
ATOM     59  S   UNL A   1      53.624  25.226  24.843  1.00  0.00     0.124 S 
ATOM     60  O   UNL A   1      53.594  23.766  24.876  1.00  0.00    -0.237 OA
ATOM     61  O   UNL A   1      53.688  25.830  23.516  1.00  0.00    -0.237 OA
ATOM     62  O   UNL A   1      54.457  25.862  25.858  1.00  0.00    -0.744 OA
ENDBRANCH  58  59
ENDBRANCH  26  51
BRANCH  38  63
ATOM     63  C   UNL A   1      46.620  32.353  28.307  1.00  0.00     0.058 A 
ATOM     64  C   UNL A   1      46.509  33.235  27.221  1.00  0.00     0.135 A 
ATOM     65  C   UNL A   1      47.336  32.777  29.436  1.00  0.00     0.135 A 
ATOM     66  F   UNL A   1      45.833  32.872  26.121  1.00  0.00    -0.206 F 
ATOM     67  C   UNL A   1      47.116  34.485  27.243  1.00  0.00     0.059 A 
ATOM     68  C   UNL A   1      47.935  34.030  29.486  1.00  0.00     0.059 A 
ATOM     69  F   UNL A   1      47.452  31.971  30.503  1.00  0.00    -0.206 F 
ATOM     70  C   UNL A   1      47.836  34.869  28.376  1.00  0.00     0.060 A 
BRANCH  70  71
ATOM     71  S   UNL A   1      48.633  36.488  28.379  1.00  0.00     0.124 S 
ATOM     72  O   UNL A   1      49.511  36.391  27.218  1.00  0.00    -0.237 OA
ATOM     73  O   UNL A   1      47.495  37.392  28.241  1.00  0.00    -0.237 OA
ATOM     74  O   UNL A   1      49.305  36.531  29.674  1.00  0.00    -0.744 OA
ENDBRANCH  70  71
ENDBRANCH  38  63
ENDBRANCH  12  13
ENDBRANCH   5   7
ENDBRANCH   2   3
ENDBRANCH   1   2
BRANCH   1  75
ATOM     75  C   UNL A   1      37.429  21.423  24.617  1.00  0.00     0.023 C 
BRANCH  75  76
ATOM     76  C   UNL A   1      36.854  22.447  25.589  1.00  0.00     0.116 C 
BRANCH  76  77
ATOM     77  N   UNL A   1      35.755  21.881  26.341  1.00  0.00    -0.356 N 
ATOM     78  C   UNL A   1      34.514  21.497  25.967  1.00  0.00     0.223 C 
ATOM     79  H   UNL A   1      35.947  21.752  27.298  1.00  0.00     0.163 HD
ATOM     80  O   UNL A   1      33.747  21.151  26.873  1.00  0.00    -0.275 OA
BRANCH  78  81
ATOM     81  C   UNL A   1      34.047  21.398  24.514  1.00  0.00     0.085 C 
BRANCH  81  82
ATOM     82  C   UNL A   1      33.095  20.212  24.216  1.00  0.00     0.049 C 
BRANCH  82  83
ATOM     83  C   UNL A   1      33.414  18.764  24.528  1.00  0.00    -0.047 A 
ATOM     84  C   UNL A   1      34.672  18.186  24.302  1.00  0.00     0.007 A 
ATOM     85  C   UNL A   1      32.439  17.982  25.181  1.00  0.00     0.007 A 
ATOM     86  C   UNL A   1      34.914  16.844  24.621  1.00  0.00     0.039 A 
ATOM     87  C   UNL A   1      32.686  16.648  25.520  1.00  0.00     0.039 A 
ATOM     88  C   UNL A   1      33.919  16.087  25.223  1.00  0.00     0.123 A 
ATOM     89  F   UNL A   1      34.152  14.804  25.524  1.00  0.00    -0.207 F 
ENDBRANCH  82  83
ENDBRANCH  81  82
BRANCH  81  90
ATOM     90  C   UNL A   1      33.733  22.746  23.858  1.00  0.00     0.055 C 
BRANCH  90  91
ATOM     91  C   UNL A   1      32.314  22.888  23.276  1.00  0.00     0.220 C 
BRANCH  91  92
ATOM     92  C   UNL A   1      31.305  23.536  24.239  1.00  0.00     0.414 C 
ATOM     93  F   UNL A   1      30.300  24.107  23.530  1.00  0.00    -0.168 F 
ATOM     94  F   UNL A   1      30.749  22.646  25.081  1.00  0.00    -0.168 F 
ATOM     95  F   UNL A   1      31.877  24.508  24.984  1.00  0.00    -0.168 F 
ENDBRANCH  91  92
BRANCH  91  96
ATOM     96  O   UNL A   1      32.454  23.656  22.058  1.00  0.00    -0.384 OA
ATOM     97  H   UNL A   1      31.822  24.392  22.067  1.00  0.00     0.211 HD
ENDBRANCH  91  96
ENDBRANCH  90  91
ENDBRANCH  81  90
ENDBRANCH  78  81
ENDBRANCH  76  77
ENDBRANCH  75  76
ENDBRANCH   1  75
TORSDOF 20
ENDMDL
