MODEL 1
REMARK VINA RESULT:     -13.4      0.000      0.000
REMARK SMILES O=C(NCCCCNC(=O)[C@H](c1c[nH]c2ccc(Cl)cc12)[NH+]1CCN(c2ncc(Br)cn2)CC1)c1ccc(-c2c3nc(c(-c4c(F)cc(S(=O)(=O)[O-])cc4F)c4ccc([nH]4)c(-c4c(F)cc(S(=O)(=O)[O-])cc4F)c4nc(c(-c5c(F)cc(S(=O)(=O)[O-])cc5F)c5ccc2[nH]5)C=C4)C=C3)cc1
REMARK SMILES IDX 5 1 4 2 3 3 1 4 2 5 35 7 36 8 100 9 37 10 99 11 38 12 39 13
REMARK SMILES IDX 40 14 93 15 41 16 98 17 92 18 94 19 42 20 97 21 91 22 90 23
REMARK SMILES IDX 43 25 77 26 56 27 76 28 57 29 60 30 75 31 95 32 58 33 59 34
REMARK SMILES IDX 74 36 96 37 61 38 44 39 45 40 54 41 46 42 47 43 53 44 55 45
REMARK SMILES IDX 48 46 49 47 50 48 51 49 52 50 78 51 79 52 88 53 80 54 81 55
REMARK SMILES IDX 87 56 89 57 82 58 83 59 84 60 85 61 86 62 62 63 63 64 72 65
REMARK SMILES IDX 64 66 65 67 71 68 73 69 66 70 67 71 68 72 69 73 70 74 6 75
REMARK SMILES IDX 7 76 8 77 9 78 10 80 11 81 22 82 23 83 34 84 24 86 33 87
REMARK SMILES IDX 25 88 26 89 27 90 32 91 28 92 31 93 29 94 30 95 12 96 13 97
REMARK SMILES IDX 21 98 14 99 15 100 20 101 16 103 18 104 17 105 19 106
REMARK H PARENT 3 6 94 24 60 35 8 79 22 85 14 102
REMARK Flexibility Score: inf
ROOT
ATOM      1  C   UNL A   1      34.036  30.395  27.129  1.00  0.00     0.023 C 
ENDROOT
BRANCH   1   2
ATOM      2  C   UNL A   1      35.320  29.865  27.716  1.00  0.00     0.116 C 
BRANCH   2   3
ATOM      3  N   UNL A   1      35.357  29.981  29.174  1.00  0.00    -0.352 N 
ATOM      4  O   UNL A   1      36.166  29.716  31.277  1.00  0.00    -0.269 OA
ATOM      5  C   UNL A   1      36.377  29.702  30.081  1.00  0.00     0.251 C 
ATOM      6  H   UNL A   1      34.524  30.312  29.581  1.00  0.00     0.163 HD
BRANCH   5   7
ATOM      7  C   UNL A   1      37.704  29.343  29.546  1.00  0.00     0.039 A 
ATOM      8  C   UNL A   1      38.599  28.720  30.396  1.00  0.00     0.014 A 
ATOM      9  C   UNL A   1      38.104  29.701  28.258  1.00  0.00     0.014 A 
ATOM     10  C   UNL A   1      39.945  28.814  30.135  1.00  0.00     0.010 A 
ATOM     11  C   UNL A   1      39.437  29.498  27.878  1.00  0.00     0.010 A 
ATOM     12  C   UNL A   1      40.377  29.081  28.832  1.00  0.00    -0.014 A 
BRANCH  12  13
ATOM     13  C   UNL A   1      41.787  28.745  28.513  1.00  0.00     0.031 A 
ATOM     14  C   UNL A   1      42.879  29.768  28.589  1.00  0.00     0.074 A 
ATOM     15  C   UNL A   1      42.060  27.461  28.189  1.00  0.00     0.049 A 
ATOM     16  N   UNL A   1      44.136  29.640  28.251  1.00  0.00    -0.248 NA
ATOM     17  C   UNL A   1      42.523  31.109  29.078  1.00  0.00     0.031 C 
ATOM     18  C   UNL A   1      41.059  26.387  28.080  1.00  0.00     0.029 A 
ATOM     19  N   UNL A   1      43.239  26.818  27.929  1.00  0.00    -0.354 N 
ATOM     20  C   UNL A   1      44.707  30.894  28.424  1.00  0.00     0.074 A 
ATOM     21  C   UNL A   1      43.660  31.770  28.906  1.00  0.00     0.031 C 
ATOM     22  C   UNL A   1      41.669  25.216  27.891  1.00  0.00     0.029 A 
ATOM     23  C   UNL A   1      43.081  25.474  27.677  1.00  0.00     0.049 A 
ATOM     24  H   UNL A   1      44.114  27.271  27.924  1.00  0.00     0.167 HD
ATOM     25  C   UNL A   1      45.986  31.267  28.179  1.00  0.00     0.037 A 
ATOM     26  C   UNL A   1      43.951  24.551  27.234  1.00  0.00     0.037 A 
ATOM     27  C   UNL A   1      47.005  30.353  27.722  1.00  0.00     0.049 A 
ATOM     28  C   UNL A   1      45.348  24.993  26.960  1.00  0.00     0.074 A 
ATOM     29  C   UNL A   1      48.341  30.609  27.469  1.00  0.00     0.029 A 
ATOM     30  N   UNL A   1      46.799  29.005  27.448  1.00  0.00    -0.354 N 
ATOM     31  N   UNL A   1      45.868  26.188  27.108  1.00  0.00    -0.248 NA
ATOM     32  C   UNL A   1      46.271  23.981  26.442  1.00  0.00     0.031 C 
ATOM     33  C   UNL A   1      48.928  29.430  26.993  1.00  0.00     0.029 A 
ATOM     34  C   UNL A   1      47.976  28.422  27.004  1.00  0.00     0.049 A 
ATOM     35  H   UNL A   1      45.941  28.533  27.552  1.00  0.00     0.167 HD
ATOM     36  C   UNL A   1      47.186  26.077  26.699  1.00  0.00     0.074 A 
ATOM     37  C   UNL A   1      47.387  24.688  26.323  1.00  0.00     0.031 C 
ATOM     38  C   UNL A   1      48.140  27.037  26.634  1.00  0.00     0.037 A 
BRANCH  25  39
ATOM     39  C   UNL A   1      46.339  32.722  28.343  1.00  0.00     0.058 A 
ATOM     40  C   UNL A   1      46.826  33.249  29.549  1.00  0.00     0.135 A 
ATOM     41  C   UNL A   1      46.192  33.608  27.260  1.00  0.00     0.135 A 
ATOM     42  F   UNL A   1      46.974  32.455  30.622  1.00  0.00    -0.206 F 
ATOM     43  C   UNL A   1      47.120  34.604  29.690  1.00  0.00     0.059 A 
ATOM     44  C   UNL A   1      46.506  34.961  27.370  1.00  0.00     0.059 A 
ATOM     45  F   UNL A   1      45.730  33.164  26.082  1.00  0.00    -0.206 F 
ATOM     46  C   UNL A   1      46.950  35.453  28.594  1.00  0.00     0.060 A 
BRANCH  46  47
ATOM     47  S   UNL A   1      47.307  37.212  28.799  1.00  0.00     0.124 S 
ATOM     48  O   UNL A   1      48.703  37.176  29.225  1.00  0.00    -0.237 OA
ATOM     49  O   UNL A   1      47.068  37.737  27.458  1.00  0.00    -0.237 OA
ATOM     50  O   UNL A   1      46.352  37.637  29.816  1.00  0.00    -0.744 OA
ENDBRANCH  46  47
ENDBRANCH  25  39
BRANCH  26  51
ATOM     51  C   UNL A   1      43.468  23.173  26.958  1.00  0.00     0.058 A 
ATOM     52  C   UNL A   1      43.355  22.692  25.648  1.00  0.00     0.135 A 
ATOM     53  C   UNL A   1      43.217  22.273  28.010  1.00  0.00     0.135 A 
ATOM     54  F   UNL A   1      43.588  23.510  24.611  1.00  0.00    -0.206 F 
ATOM     55  C   UNL A   1      43.016  21.368  25.389  1.00  0.00     0.059 A 
ATOM     56  C   UNL A   1      42.912  20.938  27.776  1.00  0.00     0.059 A 
ATOM     57  F   UNL A   1      43.343  22.675  29.285  1.00  0.00    -0.206 F 
ATOM     58  C   UNL A   1      42.809  20.495  26.460  1.00  0.00     0.060 A 
BRANCH  58  59
ATOM     59  S   UNL A   1      42.456  18.759  26.111  1.00  0.00     0.124 S 
ATOM     60  O   UNL A   1      43.444  18.463  25.082  1.00  0.00    -0.237 OA
ATOM     61  O   UNL A   1      42.678  18.134  27.412  1.00  0.00    -0.237 OA
ATOM     62  O   UNL A   1      41.066  18.783  25.666  1.00  0.00    -0.744 OA
ENDBRANCH  58  59
ENDBRANCH  26  51
BRANCH  38  63
ATOM     63  C   UNL A   1      49.495  26.599  26.164  1.00  0.00     0.058 A 
ATOM     64  C   UNL A   1      49.904  26.773  24.833  1.00  0.00     0.135 A 
ATOM     65  C   UNL A   1      50.404  26.031  27.069  1.00  0.00     0.135 A 
ATOM     66  F   UNL A   1      49.059  27.294  23.928  1.00  0.00    -0.206 F 
ATOM     67  C   UNL A   1      51.168  26.382  24.410  1.00  0.00     0.059 A 
ATOM     68  C   UNL A   1      51.684  25.660  26.674  1.00  0.00     0.059 A 
ATOM     69  F   UNL A   1      50.056  25.847  28.352  1.00  0.00    -0.206 F 
ATOM     70  C   UNL A   1      52.052  25.832  25.340  1.00  0.00     0.060 A 
BRANCH  70  71
ATOM     71  S   UNL A   1      53.707  25.372  24.789  1.00  0.00     0.124 S 
ATOM     72  O   UNL A   1      53.752  25.975  23.461  1.00  0.00    -0.237 OA
ATOM     73  O   UNL A   1      54.556  25.995  25.799  1.00  0.00    -0.237 OA
ATOM     74  O   UNL A   1      53.679  23.912  24.815  1.00  0.00    -0.744 OA
ENDBRANCH  70  71
ENDBRANCH  38  63
ENDBRANCH  12  13
ENDBRANCH   5   7
ENDBRANCH   2   3
ENDBRANCH   1   2
BRANCH   1  75
ATOM     75  C   UNL A   1      33.213  29.241  26.615  1.00  0.00     0.023 C 
BRANCH  75  76
ATOM     76  C   UNL A   1      32.116  28.637  27.546  1.00  0.00     0.116 C 
BRANCH  76  77
ATOM     77  N   UNL A   1      31.232  27.535  27.018  1.00  0.00    -0.351 N 
ATOM     78  C   UNL A   1      31.079  26.586  26.035  1.00  0.00     0.283 C 
ATOM     79  H   UNL A   1      30.452  27.470  27.616  1.00  0.00     0.163 HD
ATOM     80  O   UNL A   1      30.224  25.742  26.392  1.00  0.00    -0.268 OA
BRANCH  78  81
ATOM     81  C   UNL A   1      31.685  26.374  24.486  1.00  0.00     0.307 C 
BRANCH  81  82
ATOM     82  N   UNL A   1      31.345  25.134  23.659  1.00  0.00    -0.318 N 
ATOM     83  C   UNL A   1      32.026  24.952  22.306  1.00  0.00     0.285 C 
ATOM     84  C   UNL A   1      31.930  24.042  24.385  1.00  0.00     0.285 C 
ATOM     85  H   UNL A   1      30.338  25.198  23.508  1.00  0.00     0.349 HD
ATOM     86  C   UNL A   1      33.174  23.756  22.115  1.00  0.00     0.181 C 
ATOM     87  C   UNL A   1      33.474  24.313  24.440  1.00  0.00     0.181 C 
ATOM     88  N   UNL A   1      34.029  23.633  23.307  1.00  0.00    -0.330 N 
BRANCH  88  89
ATOM     89  C   UNL A   1      34.907  22.644  23.686  1.00  0.00     0.225 A 
ATOM     90  N   UNL A   1      36.211  22.864  23.383  1.00  0.00    -0.220 NA
ATOM     91  N   UNL A   1      34.528  21.586  24.404  1.00  0.00    -0.220 NA
ATOM     92  C   UNL A   1      37.170  22.071  23.887  1.00  0.00     0.132 A 
ATOM     93  C   UNL A   1      35.529  20.781  24.868  1.00  0.00     0.132 A 
ATOM     94  C   UNL A   1      36.876  20.994  24.662  1.00  0.00     0.054 A 
ATOM     95  Br  UNL A   1      38.223  19.913  25.389  1.00  0.00    -0.047 Br
ENDBRANCH  88  89
ENDBRANCH  81  82
BRANCH  81  96
ATOM     96  C   UNL A   1      31.539  27.667  23.712  1.00  0.00     0.044 A 
ATOM     97  C   UNL A   1      32.541  28.389  23.086  1.00  0.00     0.094 A 
ATOM     98  C   UNL A   1      30.296  28.263  23.291  1.00  0.00     0.011 A 
ATOM     99  N   UNL A   1      31.965  29.342  22.290  1.00  0.00    -0.361 N 
ATOM    100  C   UNL A   1      30.596  29.299  22.406  1.00  0.00     0.046 A 
ATOM    101  C   UNL A   1      28.937  27.976  23.537  1.00  0.00     0.031 A 
ATOM    102  H   UNL A   1      32.461  29.971  21.716  1.00  0.00     0.166 HD
ATOM    103  C   UNL A   1      29.611  30.069  21.773  1.00  0.00     0.028 A 
ATOM    104  C   UNL A   1      27.945  28.756  22.939  1.00  0.00     0.041 A 
ATOM    105  C   UNL A   1      28.274  29.788  22.069  1.00  0.00     0.022 A 
ATOM    106  Cl  UNL A   1      26.289  28.426  23.288  1.00  0.00    -0.084 Cl
ENDBRANCH  81  96
ENDBRANCH  78  81
ENDBRANCH  76  77
ENDBRANCH  75  76
ENDBRANCH   1  75
TORSDOF 17
ENDMDL
MODEL 2
REMARK VINA RESULT:     -13.0      2.287      4.559
REMARK SMILES O=C(NCCCCNC(=O)[C@H](c1c[nH]c2ccc(Cl)cc12)[NH+]1CCN(c2ncc(Br)cn2)CC1)c1ccc(-c2c3nc(c(-c4c(F)cc(S(=O)(=O)[O-])cc4F)c4ccc([nH]4)c(-c4c(F)cc(S(=O)(=O)[O-])cc4F)c4nc(c(-c5c(F)cc(S(=O)(=O)[O-])cc5F)c5ccc2[nH]5)C=C4)C=C3)cc1
REMARK SMILES IDX 5 1 4 2 3 3 1 4 2 5 35 7 36 8 100 9 37 10 99 11 38 12 39 13
REMARK SMILES IDX 40 14 93 15 41 16 98 17 92 18 94 19 42 20 97 21 91 22 90 23
REMARK SMILES IDX 43 25 77 26 56 27 76 28 57 29 60 30 75 31 95 32 58 33 59 34
REMARK SMILES IDX 74 36 96 37 61 38 44 39 45 40 54 41 46 42 47 43 53 44 55 45
REMARK SMILES IDX 48 46 49 47 50 48 51 49 52 50 78 51 79 52 88 53 80 54 81 55
REMARK SMILES IDX 87 56 89 57 82 58 83 59 84 60 85 61 86 62 62 63 63 64 72 65
REMARK SMILES IDX 64 66 65 67 71 68 73 69 66 70 67 71 68 72 69 73 70 74 6 75
REMARK SMILES IDX 7 76 8 77 9 78 10 80 11 81 22 82 23 83 34 84 24 86 33 87
REMARK SMILES IDX 25 88 26 89 27 90 32 91 28 92 31 93 29 94 30 95 12 96 13 97
REMARK SMILES IDX 21 98 14 99 15 100 20 101 16 103 18 104 17 105 19 106
REMARK H PARENT 3 6 94 24 60 35 8 79 22 85 14 102
REMARK Flexibility Score: inf
ROOT
ATOM      1  C   UNL A   1      34.293  28.557  26.868  1.00  0.00     0.023 C 
ENDROOT
BRANCH   1   2
ATOM      2  C   UNL A   1      35.174  29.702  27.298  1.00  0.00     0.116 C 
BRANCH   2   3
ATOM      3  N   UNL A   1      35.156  29.907  28.746  1.00  0.00    -0.352 N 
ATOM      4  O   UNL A   1      35.891  29.784  30.889  1.00  0.00    -0.269 OA
ATOM      5  C   UNL A   1      36.146  29.701  29.704  1.00  0.00     0.251 C 
ATOM      6  H   UNL A   1      34.304  30.247  29.102  1.00  0.00     0.163 HD
BRANCH   5   7
ATOM      7  C   UNL A   1      37.497  29.334  29.239  1.00  0.00     0.039 A 
ATOM      8  C   UNL A   1      38.343  28.706  30.136  1.00  0.00     0.014 A 
ATOM      9  C   UNL A   1      37.967  29.690  27.975  1.00  0.00     0.014 A 
ATOM     10  C   UNL A   1      39.701  28.792  29.946  1.00  0.00     0.010 A 
ATOM     11  C   UNL A   1      39.317  29.479  27.666  1.00  0.00     0.010 A 
ATOM     12  C   UNL A   1      40.203  29.056  28.668  1.00  0.00    -0.014 A 
BRANCH  12  13
ATOM     13  C   UNL A   1      41.626  28.712  28.424  1.00  0.00     0.031 A 
ATOM     14  C   UNL A   1      42.719  29.729  28.557  1.00  0.00     0.074 A 
ATOM     15  C   UNL A   1      41.907  27.427  28.114  1.00  0.00     0.049 A 
ATOM     16  N   UNL A   1      43.991  29.593  28.286  1.00  0.00    -0.248 NA
ATOM     17  C   UNL A   1      42.345  31.071  29.027  1.00  0.00     0.031 C 
ATOM     18  C   UNL A   1      40.907  26.359  27.952  1.00  0.00     0.029 A 
ATOM     19  N   UNL A   1      43.095  26.776  27.916  1.00  0.00    -0.354 N 
ATOM     20  C   UNL A   1      44.559  30.843  28.489  1.00  0.00     0.074 A 
ATOM     21  C   UNL A   1      43.494  31.726  28.916  1.00  0.00     0.031 C 
ATOM     22  C   UNL A   1      41.520  25.184  27.795  1.00  0.00     0.029 A 
ATOM     23  C   UNL A   1      42.943  25.433  27.655  1.00  0.00     0.049 A 
ATOM     24  H   UNL A   1      43.971  27.224  27.957  1.00  0.00     0.167 HD
ATOM     25  C   UNL A   1      45.852  31.209  28.313  1.00  0.00     0.037 A 
ATOM     26  C   UNL A   1      43.828  24.505  27.259  1.00  0.00     0.037 A 
ATOM     27  C   UNL A   1      46.888  30.288  27.910  1.00  0.00     0.049 A 
ATOM     28  C   UNL A   1      45.241  24.938  27.059  1.00  0.00     0.074 A 
ATOM     29  C   UNL A   1      48.237  30.536  27.728  1.00  0.00     0.029 A 
ATOM     30  N   UNL A   1      46.688  28.942  27.625  1.00  0.00    -0.354 N 
ATOM     31  N   UNL A   1      45.759  26.130  27.234  1.00  0.00    -0.248 NA
ATOM     32  C   UNL A   1      46.184  23.921  26.590  1.00  0.00     0.031 C 
ATOM     33  C   UNL A   1      48.841  29.354  27.283  1.00  0.00     0.029 A 
ATOM     34  C   UNL A   1      47.883  28.352  27.244  1.00  0.00     0.049 A 
ATOM     35  H   UNL A   1      45.823  28.475  27.683  1.00  0.00     0.167 HD
ATOM     36  C   UNL A   1      47.097  26.011  26.896  1.00  0.00     0.074 A 
ATOM     37  C   UNL A   1      47.308  24.622  26.531  1.00  0.00     0.031 C 
ATOM     38  C   UNL A   1      48.059  26.966  26.882  1.00  0.00     0.037 A 
BRANCH  25  39
ATOM     39  C   UNL A   1      46.204  32.662  28.496  1.00  0.00     0.058 A 
ATOM     40  C   UNL A   1      46.147  33.589  27.443  1.00  0.00     0.135 A 
ATOM     41  C   UNL A   1      46.598  33.138  29.759  1.00  0.00     0.135 A 
ATOM     42  F   UNL A   1      45.792  33.191  26.211  1.00  0.00    -0.206 F 
ATOM     43  C   UNL A   1      46.504  34.923  27.625  1.00  0.00     0.059 A 
ATOM     44  C   UNL A   1      46.932  34.473  29.971  1.00  0.00     0.059 A 
ATOM     45  F   UNL A   1      46.671  32.299  30.804  1.00  0.00    -0.206 F 
ATOM     46  C   UNL A   1      46.901  35.354  28.893  1.00  0.00     0.060 A 
BRANCH  46  47
ATOM     47  S   UNL A   1      47.388  37.080  29.108  1.00  0.00     0.124 S 
ATOM     48  O   UNL A   1      47.392  37.554  27.726  1.00  0.00    -0.237 OA
ATOM     49  O   UNL A   1      46.319  37.603  29.953  1.00  0.00    -0.237 OA
ATOM     50  O   UNL A   1      48.698  36.988  29.743  1.00  0.00    -0.744 OA
ENDBRANCH  46  47
ENDBRANCH  25  39
BRANCH  26  51
ATOM     51  C   UNL A   1      43.353  23.130  26.957  1.00  0.00     0.058 A 
ATOM     52  C   UNL A   1      43.330  22.641  25.646  1.00  0.00     0.135 A 
ATOM     53  C   UNL A   1      43.017  22.239  27.994  1.00  0.00     0.135 A 
ATOM     54  F   UNL A   1      43.645  23.449  24.623  1.00  0.00    -0.206 F 
ATOM     55  C   UNL A   1      42.997  21.319  25.371  1.00  0.00     0.059 A 
ATOM     56  C   UNL A   1      42.716  20.906  27.747  1.00  0.00     0.059 A 
ATOM     57  F   UNL A   1      43.055  22.649  29.272  1.00  0.00    -0.206 F 
ATOM     58  C   UNL A   1      42.704  20.456  26.429  1.00  0.00     0.060 A 
BRANCH  58  59
ATOM     59  S   UNL A   1      42.359  18.721  26.067  1.00  0.00     0.124 S 
ATOM     60  O   UNL A   1      42.666  18.090  27.344  1.00  0.00    -0.237 OA
ATOM     61  O   UNL A   1      40.948  18.760  25.694  1.00  0.00    -0.237 OA
ATOM     62  O   UNL A   1      43.278  18.418  24.974  1.00  0.00    -0.744 OA
ENDBRANCH  58  59
ENDBRANCH  26  51
BRANCH  38  63
ATOM     63  C   UNL A   1      49.433  26.520  26.484  1.00  0.00     0.058 A 
ATOM     64  C   UNL A   1      50.317  25.943  27.409  1.00  0.00     0.135 A 
ATOM     65  C   UNL A   1      49.855  26.641  25.151  1.00  0.00     0.135 A 
ATOM     66  F   UNL A   1      49.963  25.826  28.700  1.00  0.00    -0.206 F 
ATOM     67  C   UNL A   1      51.582  25.515  27.028  1.00  0.00     0.059 A 
ATOM     68  C   UNL A   1      51.105  26.192  24.742  1.00  0.00     0.059 A 
ATOM     69  F   UNL A   1      49.043  27.186  24.232  1.00  0.00    -0.206 F 
ATOM     70  C   UNL A   1      51.964  25.638  25.691  1.00  0.00     0.060 A 
BRANCH  70  71
ATOM     71  S   UNL A   1      53.591  25.035  25.200  1.00  0.00     0.124 S 
ATOM     72  O   UNL A   1      53.803  25.751  23.947  1.00  0.00    -0.237 OA
ATOM     73  O   UNL A   1      54.429  25.453  26.320  1.00  0.00    -0.237 OA
ATOM     74  O   UNL A   1      53.396  23.593  25.076  1.00  0.00    -0.744 OA
ENDBRANCH  70  71
ENDBRANCH  38  63
ENDBRANCH  12  13
ENDBRANCH   5   7
ENDBRANCH   2   3
ENDBRANCH   1   2
BRANCH   1  75
ATOM     75  C   UNL A   1      32.993  28.619  27.628  1.00  0.00     0.023 C 
BRANCH  75  76
ATOM     76  C   UNL A   1      31.736  27.927  27.012  1.00  0.00     0.116 C 
BRANCH  76  77
ATOM     77  N   UNL A   1      31.579  26.434  27.152  1.00  0.00    -0.351 N 
ATOM     78  C   UNL A   1      31.797  25.217  26.551  1.00  0.00     0.283 C 
ATOM     79  H   UNL A   1      31.146  26.263  28.019  1.00  0.00     0.163 HD
ATOM     80  O   UNL A   1      31.710  24.303  27.404  1.00  0.00    -0.268 OA
BRANCH  78  81
ATOM     81  C   UNL A   1      32.045  24.698  24.976  1.00  0.00     0.307 C 
BRANCH  81  82
ATOM     82  N   UNL A   1      32.808  25.552  23.964  1.00  0.00    -0.318 N 
ATOM     83  C   UNL A   1      32.480  25.393  22.482  1.00  0.00     0.285 C 
ATOM     84  C   UNL A   1      32.334  26.889  24.187  1.00  0.00     0.285 C 
ATOM     85  H   UNL A   1      33.787  25.300  24.107  1.00  0.00     0.349 HD
ATOM     86  C   UNL A   1      31.682  26.619  21.679  1.00  0.00     0.181 C 
ATOM     87  C   UNL A   1      30.791  26.872  23.903  1.00  0.00     0.181 C 
ATOM     88  N   UNL A   1      30.644  27.232  22.524  1.00  0.00    -0.330 N 
BRANCH  88  89
ATOM     89  C   UNL A   1      29.941  28.405  22.375  1.00  0.00     0.225 A 
ATOM     90  N   UNL A   1      30.607  29.420  21.770  1.00  0.00    -0.220 NA
ATOM     91  N   UNL A   1      28.652  28.514  22.699  1.00  0.00    -0.220 NA
ATOM     92  C   UNL A   1      29.954  30.530  21.388  1.00  0.00     0.132 A 
ATOM     93  C   UNL A   1      28.031  29.673  22.328  1.00  0.00     0.132 A 
ATOM     94  C   UNL A   1      28.631  30.707  21.642  1.00  0.00     0.054 A 
ATOM     95  Br  UNL A   1      27.722  32.245  21.075  1.00  0.00    -0.047 Br
ENDBRANCH  88  89
ENDBRANCH  81  82
BRANCH  81  96
ATOM     96  C   UNL A   1      32.490  23.251  24.993  1.00  0.00     0.044 A 
ATOM     97  C   UNL A   1      31.753  22.140  24.614  1.00  0.00     0.094 A 
ATOM     98  C   UNL A   1      33.839  22.785  25.191  1.00  0.00     0.011 A 
ATOM     99  N   UNL A   1      32.592  21.062  24.533  1.00  0.00    -0.361 N 
ATOM    100  C   UNL A   1      33.869  21.422  24.893  1.00  0.00     0.046 A 
ATOM    101  C   UNL A   1      35.054  23.412  25.537  1.00  0.00     0.031 A 
ATOM    102  H   UNL A   1      32.320  20.157  24.257  1.00  0.00     0.166 HD
ATOM    103  C   UNL A   1      35.042  20.657  24.945  1.00  0.00     0.028 A 
ATOM    104  C   UNL A   1      36.224  22.657  25.625  1.00  0.00     0.041 A 
ATOM    105  C   UNL A   1      36.222  21.299  25.333  1.00  0.00     0.022 A 
ATOM    106  Cl  UNL A   1      37.691  23.428  26.099  1.00  0.00    -0.084 Cl
ENDBRANCH  81  96
ENDBRANCH  78  81
ENDBRANCH  76  77
ENDBRANCH  75  76
ENDBRANCH   1  75
TORSDOF 17
ENDMDL
MODEL 3
REMARK VINA RESULT:     -12.9      6.850     12.120
REMARK SMILES O=C(NCCCCNC(=O)[C@H](c1c[nH]c2ccc(Cl)cc12)[NH+]1CCN(c2ncc(Br)cn2)CC1)c1ccc(-c2c3nc(c(-c4c(F)cc(S(=O)(=O)[O-])cc4F)c4ccc([nH]4)c(-c4c(F)cc(S(=O)(=O)[O-])cc4F)c4nc(c(-c5c(F)cc(S(=O)(=O)[O-])cc5F)c5ccc2[nH]5)C=C4)C=C3)cc1
REMARK SMILES IDX 5 1 4 2 3 3 1 4 2 5 35 7 36 8 100 9 37 10 99 11 38 12 39 13
REMARK SMILES IDX 40 14 93 15 41 16 98 17 92 18 94 19 42 20 97 21 91 22 90 23
REMARK SMILES IDX 43 25 77 26 56 27 76 28 57 29 60 30 75 31 95 32 58 33 59 34
REMARK SMILES IDX 74 36 96 37 61 38 44 39 45 40 54 41 46 42 47 43 53 44 55 45
REMARK SMILES IDX 48 46 49 47 50 48 51 49 52 50 78 51 79 52 88 53 80 54 81 55
REMARK SMILES IDX 87 56 89 57 82 58 83 59 84 60 85 61 86 62 62 63 63 64 72 65
REMARK SMILES IDX 64 66 65 67 71 68 73 69 66 70 67 71 68 72 69 73 70 74 6 75
REMARK SMILES IDX 7 76 8 77 9 78 10 80 11 81 22 82 23 83 34 84 24 86 33 87
REMARK SMILES IDX 25 88 26 89 27 90 32 91 28 92 31 93 29 94 30 95 12 96 13 97
REMARK SMILES IDX 21 98 14 99 15 100 20 101 16 103 18 104 17 105 19 106
REMARK H PARENT 3 6 94 24 60 35 8 79 22 85 14 102
REMARK Flexibility Score: inf
ROOT
ATOM      1  C   UNL A   1      39.422  22.806  26.612  1.00  0.00     0.023 C 
ENDROOT
BRANCH   1   2
ATOM      2  C   UNL A   1      40.748  23.321  27.112  1.00  0.00     0.116 C 
BRANCH   2   3
ATOM      3  N   UNL A   1      41.469  24.086  26.095  1.00  0.00    -0.352 N 
ATOM      4  O   UNL A   1      42.236  25.923  25.006  1.00  0.00    -0.269 OA
ATOM      5  C   UNL A   1      41.754  25.447  26.014  1.00  0.00     0.251 C 
ATOM      6  H   UNL A   1      41.810  23.549  25.343  1.00  0.00     0.163 HD
BRANCH   5   7
ATOM      7  C   UNL A   1      41.409  26.298  27.169  1.00  0.00     0.039 A 
ATOM      8  C   UNL A   1      42.043  27.522  27.285  1.00  0.00     0.014 A 
ATOM      9  C   UNL A   1      40.551  25.862  28.180  1.00  0.00     0.014 A 
ATOM     10  C   UNL A   1      42.147  28.106  28.524  1.00  0.00     0.010 A 
ATOM     11  C   UNL A   1      40.413  26.639  29.337  1.00  0.00     0.010 A 
ATOM     12  C   UNL A   1      41.241  27.756  29.529  1.00  0.00    -0.014 A 
BRANCH  12  13
ATOM     13  C   UNL A   1      41.110  28.696  30.670  1.00  0.00     0.031 A 
ATOM     14  C   UNL A   1      42.049  28.658  31.837  1.00  0.00     0.074 A 
ATOM     15  C   UNL A   1      40.130  29.625  30.597  1.00  0.00     0.049 A 
ATOM     16  N   UNL A   1      41.999  29.355  32.942  1.00  0.00    -0.248 NA
ATOM     17  C   UNL A   1      43.169  27.707  31.778  1.00  0.00     0.031 C 
ATOM     18  C   UNL A   1      39.155  29.739  29.500  1.00  0.00     0.029 A 
ATOM     19  N   UNL A   1      39.800  30.668  31.420  1.00  0.00    -0.354 N 
ATOM     20  C   UNL A   1      43.037  28.887  33.736  1.00  0.00     0.074 A 
ATOM     21  C   UNL A   1      43.708  27.848  32.982  1.00  0.00     0.031 C 
ATOM     22  C   UNL A   1      38.422  30.842  29.659  1.00  0.00     0.029 A 
ATOM     23  C   UNL A   1      38.740  31.412  30.955  1.00  0.00     0.049 A 
ATOM     24  H   UNL A   1      40.275  30.866  32.259  1.00  0.00     0.167 HD
ATOM     25  C   UNL A   1      43.374  29.285  34.987  1.00  0.00     0.037 A 
ATOM     26  C   UNL A   1      38.029  32.393  31.534  1.00  0.00     0.037 A 
ATOM     27  C   UNL A   1      42.692  30.343  35.693  1.00  0.00     0.049 A 
ATOM     28  C   UNL A   1      38.413  32.802  32.916  1.00  0.00     0.074 A 
ATOM     29  C   UNL A   1      42.961  30.853  36.950  1.00  0.00     0.029 A 
ATOM     30  N   UNL A   1      41.601  31.052  35.200  1.00  0.00    -0.354 N 
ATOM     31  N   UNL A   1      39.384  32.333  33.663  1.00  0.00    -0.248 NA
ATOM     32  C   UNL A   1      37.603  33.846  33.545  1.00  0.00     0.031 C 
ATOM     33  C   UNL A   1      42.003  31.832  37.238  1.00  0.00     0.029 A 
ATOM     34  C   UNL A   1      41.171  31.978  36.138  1.00  0.00     0.049 A 
ATOM     35  H   UNL A   1      41.193  30.916  34.315  1.00  0.00     0.167 HD
ATOM     36  C   UNL A   1      39.305  33.026  34.859  1.00  0.00     0.074 A 
ATOM     37  C   UNL A   1      38.205  33.964  34.721  1.00  0.00     0.031 C 
ATOM     38  C   UNL A   1      40.068  32.894  35.971  1.00  0.00     0.037 A 
BRANCH  25  39
ATOM     39  C   UNL A   1      44.481  28.542  35.688  1.00  0.00     0.058 A 
ATOM     40  C   UNL A   1      44.234  27.477  36.568  1.00  0.00     0.135 A 
ATOM     41  C   UNL A   1      45.822  28.901  35.463  1.00  0.00     0.135 A 
ATOM     42  F   UNL A   1      42.974  27.098  36.834  1.00  0.00    -0.206 F 
ATOM     43  C   UNL A   1      45.270  26.820  37.229  1.00  0.00     0.059 A 
ATOM     44  C   UNL A   1      46.875  28.240  36.091  1.00  0.00     0.059 A 
ATOM     45  F   UNL A   1      46.121  29.911  34.632  1.00  0.00    -0.206 F 
ATOM     46  C   UNL A   1      46.588  27.215  36.988  1.00  0.00     0.060 A 
BRANCH  46  47
ATOM     47  S   UNL A   1      47.919  26.374  37.873  1.00  0.00     0.124 S 
ATOM     48  O   UNL A   1      48.592  25.671  36.784  1.00  0.00    -0.237 OA
ATOM     49  O   UNL A   1      48.659  27.489  38.458  1.00  0.00    -0.237 OA
ATOM     50  O   UNL A   1      47.212  25.525  38.825  1.00  0.00    -0.744 OA
ENDBRANCH  46  47
ENDBRANCH  25  39
BRANCH  26  51
ATOM     51  C   UNL A   1      36.857  32.960  30.818  1.00  0.00     0.058 A 
ATOM     52  C   UNL A   1      35.550  32.584  31.154  1.00  0.00     0.135 A 
ATOM     53  C   UNL A   1      37.020  33.975  29.857  1.00  0.00     0.135 A 
ATOM     54  F   UNL A   1      35.342  31.624  32.067  1.00  0.00    -0.206 F 
ATOM     55  C   UNL A   1      34.447  33.196  30.569  1.00  0.00     0.059 A 
ATOM     56  C   UNL A   1      35.933  34.625  29.286  1.00  0.00     0.059 A 
ATOM     57  F   UNL A   1      38.251  34.394  29.524  1.00  0.00    -0.206 F 
ATOM     58  C   UNL A   1      34.649  34.225  29.645  1.00  0.00     0.060 A 
BRANCH  58  59
ATOM     59  S   UNL A   1      33.209  35.071  28.958  1.00  0.00     0.124 S 
ATOM     60  O   UNL A   1      32.696  34.068  28.033  1.00  0.00    -0.237 OA
ATOM     61  O   UNL A   1      32.402  35.318  30.149  1.00  0.00    -0.237 OA
ATOM     62  O   UNL A   1      33.784  36.264  28.343  1.00  0.00    -0.744 OA
ENDBRANCH  58  59
ENDBRANCH  26  51
BRANCH  38  63
ATOM     63  C   UNL A   1      39.749  33.813  37.111  1.00  0.00     0.058 A 
ATOM     64  C   UNL A   1      38.841  33.448  38.118  1.00  0.00     0.135 A 
ATOM     65  C   UNL A   1      40.387  35.058  37.213  1.00  0.00     0.135 A 
ATOM     66  F   UNL A   1      38.191  32.275  38.051  1.00  0.00    -0.206 F 
ATOM     67  C   UNL A   1      38.564  34.298  39.182  1.00  0.00     0.059 A 
ATOM     68  C   UNL A   1      40.147  35.910  38.284  1.00  0.00     0.059 A 
ATOM     69  F   UNL A   1      41.263  35.448  36.273  1.00  0.00    -0.206 F 
ATOM     70  C   UNL A   1      39.228  35.524  39.258  1.00  0.00     0.060 A 
BRANCH  70  71
ATOM     71  S   UNL A   1      38.895  36.597  40.669  1.00  0.00     0.124 S 
ATOM     72  O   UNL A   1      38.003  35.764  41.468  1.00  0.00    -0.237 OA
ATOM     73  O   UNL A   1      40.230  36.809  41.220  1.00  0.00    -0.237 OA
ATOM     74  O   UNL A   1      38.280  37.774  40.062  1.00  0.00    -0.744 OA
ENDBRANCH  70  71
ENDBRANCH  38  63
ENDBRANCH  12  13
ENDBRANCH   5   7
ENDBRANCH   2   3
ENDBRANCH   1   2
BRANCH   1  75
ATOM     75  C   UNL A   1      38.559  23.972  26.204  1.00  0.00     0.023 C 
BRANCH  75  76
ATOM     76  C   UNL A   1      37.021  23.747  26.065  1.00  0.00     0.116 C 
BRANCH  76  77
ATOM     77  N   UNL A   1      36.427  23.567  24.691  1.00  0.00    -0.351 N 
ATOM     78  C   UNL A   1      35.260  23.506  23.967  1.00  0.00     0.283 C 
ATOM     79  H   UNL A   1      37.174  23.443  24.061  1.00  0.00     0.163 HD
ATOM     80  O   UNL A   1      35.511  23.662  22.748  1.00  0.00    -0.268 OA
BRANCH  78  81
ATOM     81  C   UNL A   1      33.656  23.181  24.326  1.00  0.00     0.307 C 
BRANCH  81  82
ATOM     82  N   UNL A   1      32.565  23.265  23.259  1.00  0.00    -0.318 N 
ATOM     83  C   UNL A   1      31.106  23.228  23.703  1.00  0.00     0.285 C 
ATOM     84  C   UNL A   1      32.645  24.610  22.764  1.00  0.00     0.285 C 
ATOM     85  H   UNL A   1      32.739  22.461  22.655  1.00  0.00     0.349 HD
ATOM     86  C   UNL A   1      30.175  24.608  23.591  1.00  0.00     0.181 C 
ATOM     87  C   UNL A   1      32.356  25.556  23.981  1.00  0.00     0.181 C 
ATOM     88  N   UNL A   1      30.946  25.810  23.951  1.00  0.00    -0.330 N 
BRANCH  88  89
ATOM     89  C   UNL A   1      30.672  27.144  23.759  1.00  0.00     0.225 A 
ATOM     90  N   UNL A   1      29.552  27.421  23.045  1.00  0.00    -0.220 NA
ATOM     91  N   UNL A   1      31.390  28.112  24.329  1.00  0.00    -0.220 NA
ATOM     92  C   UNL A   1      29.080  28.676  22.978  1.00  0.00     0.132 A 
ATOM     93  C   UNL A   1      30.899  29.381  24.207  1.00  0.00     0.132 A 
ATOM     94  C   UNL A   1      29.728  29.718  23.563  1.00  0.00     0.054 A 
ATOM     95  Br  UNL A   1      29.043  31.461  23.492  1.00  0.00    -0.047 Br
ENDBRANCH  88  89
ENDBRANCH  81  82
BRANCH  81  96
ATOM     96  C   UNL A   1      33.577  21.921  25.162  1.00  0.00     0.044 A 
ATOM     97  C   UNL A   1      33.648  21.822  26.542  1.00  0.00     0.094 A 
ATOM     98  C   UNL A   1      33.187  20.617  24.689  1.00  0.00     0.011 A 
ATOM     99  N   UNL A   1      33.281  20.556  26.912  1.00  0.00    -0.361 N 
ATOM    100  C   UNL A   1      33.008  19.794  25.801  1.00  0.00     0.046 A 
ATOM    101  C   UNL A   1      32.910  20.077  23.416  1.00  0.00     0.031 A 
ATOM    102  H   UNL A   1      33.221  20.237  27.841  1.00  0.00     0.166 HD
ATOM    103  C   UNL A   1      32.587  18.461  25.702  1.00  0.00     0.028 A 
ATOM    104  C   UNL A   1      32.521  18.741  23.298  1.00  0.00     0.041 A 
ATOM    105  C   UNL A   1      32.361  17.943  24.424  1.00  0.00     0.022 A 
ATOM    106  Cl  UNL A   1      32.235  18.081  21.732  1.00  0.00    -0.084 Cl
ENDBRANCH  81  96
ENDBRANCH  78  81
ENDBRANCH  76  77
ENDBRANCH  75  76
ENDBRANCH   1  75
TORSDOF 17
ENDMDL
