MODEL 1
REMARK VINA RESULT:     -12.4      0.000      0.000
REMARK SMILES CCc1nc2sc(C(=O)NCC(=O)NCCCCNC(=O)c3ccc(-c4c5nc(c(-c6c(F)cc(S(=O)(=O)[O-])cc6F)c6ccc([nH]6)c(-c6c(F)cc(S(=O)(=O)[O-])cc6F)c6nc(c(-c7c(F)cc(S(=O)(=O)[O-])cc7F)c7ccc4[nH]7)C=C6)C=C5)cc3)c(N)c2c(C(F)(F)F)c1C
REMARK SMILES IDX 16 1 15 2 14 3 12 4 13 5 11 7 10 8 8 9 9 10 7 12 3 13 4 14
REMARK SMILES IDX 96 15 5 16 91 17 97 18 6 19 90 20 88 21 2 22 1 23 92 24
REMARK SMILES IDX 93 25 94 26 95 27 89 28 17 31 18 32 19 33 20 34 21 36 22 37
REMARK SMILES IDX 23 38 87 39 24 40 86 41 25 42 26 43 27 44 80 45 28 46 85 47
REMARK SMILES IDX 79 48 81 49 29 50 84 51 78 52 77 53 30 55 64 56 43 57 63 58
REMARK SMILES IDX 44 59 47 60 62 61 82 62 45 63 46 64 61 66 83 67 48 68 31 69
REMARK SMILES IDX 32 70 41 71 33 72 34 73 40 74 42 75 35 76 36 77 37 78 38 79
REMARK SMILES IDX 39 80 65 81 66 82 75 83 67 84 68 85 74 86 76 87 69 88 70 89
REMARK SMILES IDX 71 90 72 91 73 92 49 93 50 94 59 95 51 96 52 97 58 98 60 99
REMARK SMILES IDX 53 100 54 101 55 102 56 103 57 104
REMARK H PARENT 14 6 10 11 89 29 89 30 19 35 81 54 47 65
REMARK Flexibility Score: inf
ROOT
ATOM      1  C   UNL A   1      36.675  20.974  24.606  1.00  0.00     0.023 C 
ENDROOT
BRANCH   1   2
ATOM      2  C   UNL A   1      35.328  20.375  25.006  1.00  0.00     0.116 C 
BRANCH   2   3
ATOM      3  N   UNL A   1      34.701  21.054  26.122  1.00  0.00    -0.355 N 
ATOM      4  C   UNL A   1      33.587  21.831  26.210  1.00  0.00     0.239 C 
ATOM      5  O   UNL A   1      33.289  22.229  27.343  1.00  0.00    -0.273 OA
ATOM      6  H   UNL A   1      35.169  20.929  26.978  1.00  0.00     0.163 HD
BRANCH   4   7
ATOM      7  C   UNL A   1      32.639  22.146  25.035  1.00  0.00     0.216 C 
BRANCH   7   8
ATOM      8  N   UNL A   1      33.130  22.671  23.779  1.00  0.00    -0.342 N 
ATOM      9  C   UNL A   1      33.480  23.924  23.342  1.00  0.00     0.264 C 
ATOM     10  O   UNL A   1      34.060  23.890  22.248  1.00  0.00    -0.268 OA
ATOM     11  H   UNL A   1      33.234  21.979  23.087  1.00  0.00     0.164 HD
BRANCH   9  12
ATOM     12  C   UNL A   1      33.149  25.184  24.021  1.00  0.00     0.118 A 
ATOM     13  C   UNL A   1      33.282  29.080  26.700  1.00  0.00     0.045 A 
ATOM     14  N   UNL A   1      33.863  27.864  26.631  1.00  0.00    -0.242 NA
ATOM     15  C   UNL A   1      32.252  29.507  25.845  1.00  0.00    -0.017 A 
ATOM     16  C   UNL A   1      33.421  27.061  25.649  1.00  0.00     0.127 A 
ATOM     17  C   UNL A   1      31.771  28.608  24.852  1.00  0.00     0.073 A 
ATOM     18  C   UNL A   1      31.639  30.881  25.973  1.00  0.00     0.047 C 
ATOM     19  S   UNL A   1      34.114  25.533  25.423  1.00  0.00    -0.108 S 
ATOM     20  C   UNL A   1      32.417  27.339  24.743  1.00  0.00     0.048 A 
ATOM     21  C   UNL A   1      32.275  26.240  23.809  1.00  0.00     0.066 A 
BRANCH  13  22
ATOM     22  C   UNL A   1      33.824  29.955  27.810  1.00  0.00     0.053 C 
ATOM     23  C   UNL A   1      35.138  30.621  27.424  1.00  0.00     0.011 C 
ENDBRANCH  13  22
BRANCH  17  24
ATOM     24  C   UNL A   1      30.650  28.971  23.900  1.00  0.00     0.417 C 
ATOM     25  F   UNL A   1      31.088  29.077  22.614  1.00  0.00    -0.166 F 
ATOM     26  F   UNL A   1      29.672  28.014  23.877  1.00  0.00    -0.166 F 
ATOM     27  F   UNL A   1      29.991  30.126  24.169  1.00  0.00    -0.166 F 
ENDBRANCH  17  24
BRANCH  21  28
ATOM     28  N   UNL A   1      31.401  26.336  22.786  1.00  0.00    -0.397 N 
ATOM     29  H   UNL A   1      30.966  25.527  22.431  1.00  0.00     0.156 HD
ATOM     30  H   UNL A   1      31.197  27.216  22.392  1.00  0.00     0.156 HD
ENDBRANCH  21  28
ENDBRANCH   9  12
ENDBRANCH   7   8
ENDBRANCH   4   7
ENDBRANCH   2   3
ENDBRANCH   1   2
BRANCH   1  31
ATOM     31  C   UNL A   1      36.715  22.506  24.549  1.00  0.00     0.023 C 
BRANCH  31  32
ATOM     32  C   UNL A   1      37.596  23.146  25.613  1.00  0.00     0.116 C 
BRANCH  32  33
ATOM     33  N   UNL A   1      38.417  22.184  26.354  1.00  0.00    -0.352 N 
ATOM     34  C   UNL A   1      39.643  22.423  26.967  1.00  0.00     0.251 C 
ATOM     35  H   UNL A   1      38.063  21.269  26.428  1.00  0.00     0.163 HD
ATOM     36  O   UNL A   1      40.417  21.521  27.225  1.00  0.00    -0.269 OA
BRANCH  34  37
ATOM     37  C   UNL A   1      39.954  23.820  27.324  1.00  0.00     0.039 A 
ATOM     38  C   UNL A   1      39.001  24.842  27.326  1.00  0.00     0.014 A 
ATOM     39  C   UNL A   1      41.260  24.055  27.737  1.00  0.00     0.014 A 
ATOM     40  C   UNL A   1      39.375  26.094  27.814  1.00  0.00     0.010 A 
ATOM     41  C   UNL A   1      41.543  25.189  28.435  1.00  0.00     0.010 A 
ATOM     42  C   UNL A   1      40.651  26.249  28.374  1.00  0.00    -0.014 A 
BRANCH  42  43
ATOM     43  C   UNL A   1      41.112  27.495  28.962  1.00  0.00     0.031 A 
ATOM     44  C   UNL A   1      42.286  28.107  28.290  1.00  0.00     0.074 A 
ATOM     45  C   UNL A   1      40.363  28.150  29.879  1.00  0.00     0.049 A 
ATOM     46  N   UNL A   1      43.482  28.222  28.759  1.00  0.00    -0.248 NA
ATOM     47  C   UNL A   1      42.166  28.491  26.874  1.00  0.00     0.031 C 
ATOM     48  C   UNL A   1      39.036  27.805  30.415  1.00  0.00     0.029 A 
ATOM     49  N   UNL A   1      40.607  29.348  30.467  1.00  0.00    -0.354 N 
ATOM     50  C   UNL A   1      44.215  28.900  27.789  1.00  0.00     0.074 A 
ATOM     51  C   UNL A   1      43.418  28.858  26.590  1.00  0.00     0.031 C 
ATOM     52  C   UNL A   1      38.508  28.871  31.056  1.00  0.00     0.029 A 
ATOM     53  C   UNL A   1      39.519  29.906  31.134  1.00  0.00     0.049 A 
ATOM     54  H   UNL A   1      41.486  29.790  30.424  1.00  0.00     0.167 HD
ATOM     55  C   UNL A   1      45.316  29.632  28.120  1.00  0.00     0.037 A 
ATOM     56  C   UNL A   1      39.469  31.141  31.696  1.00  0.00     0.037 A 
ATOM     57  C   UNL A   1      45.745  29.328  29.466  1.00  0.00     0.049 A 
ATOM     58  C   UNL A   1      40.885  31.551  31.925  1.00  0.00     0.074 A 
ATOM     59  C   UNL A   1      46.181  28.179  30.097  1.00  0.00     0.029 A 
ATOM     60  N   UNL A   1      45.348  30.180  30.472  1.00  0.00    -0.354 N 
ATOM     61  N   UNL A   1      41.677  30.934  32.766  1.00  0.00    -0.248 NA
ATOM     62  C   UNL A   1      41.560  32.263  30.848  1.00  0.00     0.031 C 
ATOM     63  C   UNL A   1      45.553  28.205  31.376  1.00  0.00     0.029 A 
ATOM     64  C   UNL A   1      44.848  29.405  31.491  1.00  0.00     0.049 A 
ATOM     65  H   UNL A   1      45.409  31.163  30.463  1.00  0.00     0.167 HD
ATOM     66  C   UNL A   1      42.897  30.830  32.108  1.00  0.00     0.074 A 
ATOM     67  C   UNL A   1      42.779  31.721  30.952  1.00  0.00     0.031 C 
ATOM     68  C   UNL A   1      43.776  29.816  32.377  1.00  0.00     0.037 A 
BRANCH  55  69
ATOM     69  C   UNL A   1      45.809  30.851  27.381  1.00  0.00     0.058 A 
ATOM     70  C   UNL A   1      47.173  30.943  27.034  1.00  0.00     0.135 A 
ATOM     71  C   UNL A   1      45.066  32.044  27.242  1.00  0.00     0.135 A 
ATOM     72  F   UNL A   1      47.975  29.870  27.120  1.00  0.00    -0.206 F 
ATOM     73  C   UNL A   1      47.772  32.148  26.662  1.00  0.00     0.059 A 
ATOM     74  C   UNL A   1      45.632  33.243  26.821  1.00  0.00     0.059 A 
ATOM     75  F   UNL A   1      43.781  32.134  27.601  1.00  0.00    -0.206 F 
ATOM     76  C   UNL A   1      46.994  33.297  26.578  1.00  0.00     0.060 A 
BRANCH  76  77
ATOM     77  S   UNL A   1      47.786  34.875  26.226  1.00  0.00     0.124 S 
ATOM     78  O   UNL A   1      46.634  35.724  25.946  1.00  0.00    -0.237 OA
ATOM     79  O   UNL A   1      48.491  35.143  27.475  1.00  0.00    -0.237 OA
ATOM     80  O   UNL A   1      48.640  34.575  25.081  1.00  0.00    -0.744 OA
ENDBRANCH  76  77
ENDBRANCH  55  69
BRANCH  56  81
ATOM     81  C   UNL A   1      38.311  32.076  31.728  1.00  0.00     0.058 A 
ATOM     82  C   UNL A   1      37.583  32.410  30.572  1.00  0.00     0.135 A 
ATOM     83  C   UNL A   1      37.736  32.476  32.953  1.00  0.00     0.135 A 
ATOM     84  F   UNL A   1      38.037  32.045  29.363  1.00  0.00    -0.206 F 
ATOM     85  C   UNL A   1      36.350  33.078  30.628  1.00  0.00     0.059 A 
ATOM     86  C   UNL A   1      36.513  33.143  33.035  1.00  0.00     0.059 A 
ATOM     87  F   UNL A   1      38.310  32.154  34.122  1.00  0.00    -0.206 F 
ATOM     88  C   UNL A   1      35.814  33.426  31.869  1.00  0.00     0.060 A 
BRANCH  88  89
ATOM     89  S   UNL A   1      34.165  34.169  31.960  1.00  0.00     0.124 S 
ATOM     90  O   UNL A   1      33.705  34.060  30.580  1.00  0.00    -0.237 OA
ATOM     91  O   UNL A   1      33.493  33.308  32.927  1.00  0.00    -0.237 OA
ATOM     92  O   UNL A   1      34.430  35.530  32.421  1.00  0.00    -0.744 OA
ENDBRANCH  88  89
ENDBRANCH  56  81
BRANCH  68  93
ATOM     93  C   UNL A   1      43.496  28.904  33.551  1.00  0.00     0.058 A 
ATOM     94  C   UNL A   1      43.713  29.257  34.896  1.00  0.00     0.135 A 
ATOM     95  C   UNL A   1      42.799  27.710  33.318  1.00  0.00     0.135 A 
ATOM     96  F   UNL A   1      44.274  30.428  35.220  1.00  0.00    -0.206 F 
ATOM     97  C   UNL A   1      43.292  28.449  35.956  1.00  0.00     0.059 A 
ATOM     98  C   UNL A   1      42.343  26.902  34.359  1.00  0.00     0.059 A 
ATOM     99  F   UNL A   1      42.495  27.345  32.062  1.00  0.00    -0.206 F 
ATOM    100  C   UNL A   1      42.603  27.271  35.676  1.00  0.00     0.060 A 
BRANCH 100 101
ATOM    101  S   UNL A   1      42.001  26.259  37.046  1.00  0.00     0.124 S 
ATOM    102  O   UNL A   1      43.086  26.379  38.014  1.00  0.00    -0.237 OA
ATOM    103  O   UNL A   1      40.754  26.925  37.408  1.00  0.00    -0.237 OA
ATOM    104  O   UNL A   1      41.842  24.935  36.449  1.00  0.00    -0.744 OA
ENDBRANCH 100 101
ENDBRANCH  68  93
ENDBRANCH  42  43
ENDBRANCH  34  37
ENDBRANCH  32  33
ENDBRANCH  31  32
ENDBRANCH   1  31
TORSDOF 19
ENDMDL
MODEL 2
REMARK VINA RESULT:     -12.3      1.506      2.564
REMARK SMILES CCc1nc2sc(C(=O)NCC(=O)NCCCCNC(=O)c3ccc(-c4c5nc(c(-c6c(F)cc(S(=O)(=O)[O-])cc6F)c6ccc([nH]6)c(-c6c(F)cc(S(=O)(=O)[O-])cc6F)c6nc(c(-c7c(F)cc(S(=O)(=O)[O-])cc7F)c7ccc4[nH]7)C=C6)C=C5)cc3)c(N)c2c(C(F)(F)F)c1C
REMARK SMILES IDX 16 1 15 2 14 3 12 4 13 5 11 7 10 8 8 9 9 10 7 12 3 13 4 14
REMARK SMILES IDX 96 15 5 16 91 17 97 18 6 19 90 20 88 21 2 22 1 23 92 24
REMARK SMILES IDX 93 25 94 26 95 27 89 28 17 31 18 32 19 33 20 34 21 36 22 37
REMARK SMILES IDX 23 38 87 39 24 40 86 41 25 42 26 43 27 44 80 45 28 46 85 47
REMARK SMILES IDX 79 48 81 49 29 50 84 51 78 52 77 53 30 55 64 56 43 57 63 58
REMARK SMILES IDX 44 59 47 60 62 61 82 62 45 63 46 64 61 66 83 67 48 68 31 69
REMARK SMILES IDX 32 70 41 71 33 72 34 73 40 74 42 75 35 76 36 77 37 78 38 79
REMARK SMILES IDX 39 80 65 81 66 82 75 83 67 84 68 85 74 86 76 87 69 88 70 89
REMARK SMILES IDX 71 90 72 91 73 92 49 93 50 94 59 95 51 96 52 97 58 98 60 99
REMARK SMILES IDX 53 100 54 101 55 102 56 103 57 104
REMARK H PARENT 14 6 10 11 89 29 89 30 19 35 81 54 47 65
REMARK Flexibility Score: inf
ROOT
ATOM      1  C   UNL A   1      38.841  23.266  26.512  1.00  0.00     0.023 C 
ENDROOT
BRANCH   1   2
ATOM      2  C   UNL A   1      37.470  23.719  26.015  1.00  0.00     0.116 C 
BRANCH   2   3
ATOM      3  N   UNL A   1      37.277  23.527  24.592  1.00  0.00    -0.355 N 
ATOM      4  C   UNL A   1      36.387  22.782  23.882  1.00  0.00     0.239 C 
ATOM      5  O   UNL A   1      36.459  22.875  22.650  1.00  0.00    -0.273 OA
ATOM      6  H   UNL A   1      37.910  24.033  24.032  1.00  0.00     0.163 HD
BRANCH   4   7
ATOM      7  C   UNL A   1      35.256  21.936  24.502  1.00  0.00     0.216 C 
BRANCH   7   8
ATOM      8  N   UNL A   1      34.026  21.667  23.790  1.00  0.00    -0.342 N 
ATOM      9  C   UNL A   1      32.956  22.439  23.410  1.00  0.00     0.264 C 
ATOM     10  O   UNL A   1      32.210  21.845  22.620  1.00  0.00    -0.268 OA
ATOM     11  H   UNL A   1      33.936  20.725  23.519  1.00  0.00     0.164 HD
BRANCH   9  12
ATOM     12  C   UNL A   1      32.654  23.783  23.923  1.00  0.00     0.118 A 
ATOM     13  C   UNL A   1      32.799  27.916  26.217  1.00  0.00     0.045 A 
ATOM     14  N   UNL A   1      33.282  26.662  26.335  1.00  0.00    -0.242 NA
ATOM     15  C   UNL A   1      31.911  28.324  25.207  1.00  0.00    -0.017 A 
ATOM     16  C   UNL A   1      32.891  25.795  25.387  1.00  0.00     0.127 A 
ATOM     17  C   UNL A   1      31.474  27.362  24.253  1.00  0.00     0.073 A 
ATOM     18  C   UNL A   1      31.402  29.743  25.130  1.00  0.00     0.047 C 
ATOM     19  S   UNL A   1      33.478  24.206  25.392  1.00  0.00    -0.108 S 
ATOM     20  C   UNL A   1      32.022  26.046  24.344  1.00  0.00     0.048 A 
ATOM     21  C   UNL A   1      31.899  24.870  23.507  1.00  0.00     0.066 A 
BRANCH  13  22
ATOM     22  C   UNL A   1      33.280  28.862  27.297  1.00  0.00     0.053 C 
ATOM     23  C   UNL A   1      34.789  29.060  27.253  1.00  0.00     0.011 C 
ENDBRANCH  13  22
BRANCH  17  24
ATOM     24  C   UNL A   1      30.502  27.702  23.142  1.00  0.00     0.417 C 
ATOM     25  F   UNL A   1      29.365  26.955  23.214  1.00  0.00    -0.166 F 
ATOM     26  F   UNL A   1      30.090  29.005  23.206  1.00  0.00    -0.166 F 
ATOM     27  F   UNL A   1      30.970  27.554  21.877  1.00  0.00    -0.166 F 
ENDBRANCH  17  24
BRANCH  21  28
ATOM     28  N   UNL A   1      31.157  24.920  22.381  1.00  0.00    -0.397 N 
ATOM     29  H   UNL A   1      31.576  24.745  21.507  1.00  0.00     0.156 HD
ATOM     30  H   UNL A   1      30.197  25.132  22.432  1.00  0.00     0.156 HD
ENDBRANCH  21  28
ENDBRANCH   9  12
ENDBRANCH   7   8
ENDBRANCH   4   7
ENDBRANCH   2   3
ENDBRANCH   1   2
BRANCH   1  31
ATOM     31  C   UNL A   1      39.240  21.840  26.110  1.00  0.00     0.023 C 
BRANCH  31  32
ATOM     32  C   UNL A   1      40.478  21.316  26.822  1.00  0.00     0.116 C 
BRANCH  32  33
ATOM     33  N   UNL A   1      41.702  21.407  26.021  1.00  0.00    -0.352 N 
ATOM     34  C   UNL A   1      42.439  22.553  25.740  1.00  0.00     0.251 C 
ATOM     35  H   UNL A   1      42.042  20.565  25.640  1.00  0.00     0.163 HD
ATOM     36  O   UNL A   1      43.197  22.611  24.790  1.00  0.00    -0.269 OA
BRANCH  34  37
ATOM     37  C   UNL A   1      42.286  23.692  26.664  1.00  0.00     0.039 A 
ATOM     38  C   UNL A   1      42.754  23.680  27.981  1.00  0.00     0.014 A 
ATOM     39  C   UNL A   1      41.703  24.831  26.121  1.00  0.00     0.014 A 
ATOM     40  C   UNL A   1      42.680  24.861  28.720  1.00  0.00     0.010 A 
ATOM     41  C   UNL A   1      41.862  26.026  26.752  1.00  0.00     0.010 A 
ATOM     42  C   UNL A   1      42.238  26.031  28.085  1.00  0.00    -0.014 A 
BRANCH  42  43
ATOM     43  C   UNL A   1      42.182  27.320  28.753  1.00  0.00     0.031 A 
ATOM     44  C   UNL A   1      43.343  28.209  28.494  1.00  0.00     0.074 A 
ATOM     45  C   UNL A   1      41.044  27.749  29.344  1.00  0.00     0.049 A 
ATOM     46  N   UNL A   1      44.257  28.566  29.332  1.00  0.00    -0.248 NA
ATOM     47  C   UNL A   1      43.620  28.621  27.107  1.00  0.00     0.031 C 
ATOM     48  C   UNL A   1      39.728  27.093  29.415  1.00  0.00     0.029 A 
ATOM     49  N   UNL A   1      40.801  28.943  29.940  1.00  0.00    -0.354 N 
ATOM     50  C   UNL A   1      45.099  29.433  28.642  1.00  0.00     0.074 A 
ATOM     51  C   UNL A   1      44.778  29.270  27.248  1.00  0.00     0.031 C 
ATOM     52  C   UNL A   1      38.791  27.984  29.807  1.00  0.00     0.029 A 
ATOM     53  C   UNL A   1      39.457  29.213  30.186  1.00  0.00     0.049 A 
ATOM     54  H   UNL A   1      41.521  29.571  30.180  1.00  0.00     0.167 HD
ATOM     55  C   UNL A   1      45.831  30.376  29.299  1.00  0.00     0.037 A 
ATOM     56  C   UNL A   1      38.946  30.379  30.658  1.00  0.00     0.037 A 
ATOM     57  C   UNL A   1      45.843  30.115  30.720  1.00  0.00     0.049 A 
ATOM     58  C   UNL A   1      40.074  31.083  31.335  1.00  0.00     0.074 A 
ATOM     59  C   UNL A   1      46.291  29.064  31.497  1.00  0.00     0.029 A 
ATOM     60  N   UNL A   1      44.952  30.810  31.507  1.00  0.00    -0.354 N 
ATOM     61  N   UNL A   1      40.657  30.621  32.412  1.00  0.00    -0.248 NA
ATOM     62  C   UNL A   1      40.890  31.977  30.524  1.00  0.00     0.031 C 
ATOM     63  C   UNL A   1      45.283  28.890  32.491  1.00  0.00     0.029 A 
ATOM     64  C   UNL A   1      44.329  29.897  32.324  1.00  0.00     0.049 A 
ATOM     65  H   UNL A   1      44.790  31.780  31.487  1.00  0.00     0.167 HD
ATOM     66  C   UNL A   1      42.017  30.822  32.205  1.00  0.00     0.074 A 
ATOM     67  C   UNL A   1      42.093  31.716  31.048  1.00  0.00     0.031 C 
ATOM     68  C   UNL A   1      42.960  30.018  32.786  1.00  0.00     0.037 A 
BRANCH  55  69
ATOM     69  C   UNL A   1      46.255  31.708  28.729  1.00  0.00     0.058 A 
ATOM     70  C   UNL A   1      45.267  32.615  28.292  1.00  0.00     0.135 A 
ATOM     71  C   UNL A   1      47.578  32.017  28.344  1.00  0.00     0.135 A 
ATOM     72  F   UNL A   1      43.976  32.426  28.605  1.00  0.00    -0.206 F 
ATOM     73  C   UNL A   1      45.561  33.698  27.461  1.00  0.00     0.059 A 
ATOM     74  C   UNL A   1      47.899  33.121  27.561  1.00  0.00     0.059 A 
ATOM     75  F   UNL A   1      48.611  31.214  28.620  1.00  0.00    -0.206 F 
ATOM     76  C   UNL A   1      46.881  33.930  27.086  1.00  0.00     0.060 A 
BRANCH  76  77
ATOM     77  S   UNL A   1      47.246  35.245  25.912  1.00  0.00     0.124 S 
ATOM     78  O   UNL A   1      47.760  36.287  26.793  1.00  0.00    -0.237 OA
ATOM     79  O   UNL A   1      48.223  34.605  25.038  1.00  0.00    -0.237 OA
ATOM     80  O   UNL A   1      45.949  35.520  25.301  1.00  0.00    -0.744 OA
ENDBRANCH  76  77
ENDBRANCH  55  69
BRANCH  56  81
ATOM     81  C   UNL A   1      37.665  31.031  30.270  1.00  0.00     0.058 A 
ATOM     82  C   UNL A   1      36.800  31.612  31.214  1.00  0.00     0.135 A 
ATOM     83  C   UNL A   1      37.378  31.316  28.918  1.00  0.00     0.135 A 
ATOM     84  F   UNL A   1      37.012  31.422  32.525  1.00  0.00    -0.206 F 
ATOM     85  C   UNL A   1      35.733  32.443  30.843  1.00  0.00     0.059 A 
ATOM     86  C   UNL A   1      36.321  32.137  28.523  1.00  0.00     0.059 A 
ATOM     87  F   UNL A   1      38.174  30.867  27.935  1.00  0.00    -0.206 F 
ATOM     88  C   UNL A   1      35.510  32.713  29.492  1.00  0.00     0.060 A 
BRANCH  88  89
ATOM     89  S   UNL A   1      34.219  33.888  29.009  1.00  0.00     0.124 S 
ATOM     90  O   UNL A   1      33.600  34.203  30.292  1.00  0.00    -0.237 OA
ATOM     91  O   UNL A   1      34.993  34.960  28.393  1.00  0.00    -0.237 OA
ATOM     92  O   UNL A   1      33.385  33.117  28.090  1.00  0.00    -0.744 OA
ENDBRANCH  88  89
ENDBRANCH  56  81
BRANCH  68  93
ATOM     93  C   UNL A   1      42.517  29.013  33.827  1.00  0.00     0.058 A 
ATOM     94  C   UNL A   1      42.270  27.654  33.560  1.00  0.00     0.135 A 
ATOM     95  C   UNL A   1      42.537  29.397  35.176  1.00  0.00     0.135 A 
ATOM     96  F   UNL A   1      42.336  27.173  32.314  1.00  0.00    -0.206 F 
ATOM     97  C   UNL A   1      42.019  26.729  34.577  1.00  0.00     0.059 A 
ATOM     98  C   UNL A   1      42.319  28.488  36.209  1.00  0.00     0.059 A 
ATOM     99  F   UNL A   1      42.836  30.664  35.508  1.00  0.00    -0.206 F 
ATOM    100  C   UNL A   1      42.048  27.156  35.903  1.00  0.00     0.060 A 
BRANCH 100 101
ATOM    101  S   UNL A   1      41.789  25.948  37.221  1.00  0.00     0.124 S 
ATOM    102  O   UNL A   1      42.819  26.322  38.184  1.00  0.00    -0.237 OA
ATOM    103  O   UNL A   1      40.414  26.215  37.630  1.00  0.00    -0.237 OA
ATOM    104  O   UNL A   1      41.995  24.665  36.554  1.00  0.00    -0.744 OA
ENDBRANCH 100 101
ENDBRANCH  68  93
ENDBRANCH  42  43
ENDBRANCH  34  37
ENDBRANCH  32  33
ENDBRANCH  31  32
ENDBRANCH   1  31
TORSDOF 19
ENDMDL
MODEL 3
REMARK VINA RESULT:     -12.2      1.221      2.122
REMARK SMILES CCc1nc2sc(C(=O)NCC(=O)NCCCCNC(=O)c3ccc(-c4c5nc(c(-c6c(F)cc(S(=O)(=O)[O-])cc6F)c6ccc([nH]6)c(-c6c(F)cc(S(=O)(=O)[O-])cc6F)c6nc(c(-c7c(F)cc(S(=O)(=O)[O-])cc7F)c7ccc4[nH]7)C=C6)C=C5)cc3)c(N)c2c(C(F)(F)F)c1C
REMARK SMILES IDX 16 1 15 2 14 3 12 4 13 5 11 7 10 8 8 9 9 10 7 12 3 13 4 14
REMARK SMILES IDX 96 15 5 16 91 17 97 18 6 19 90 20 88 21 2 22 1 23 92 24
REMARK SMILES IDX 93 25 94 26 95 27 89 28 17 31 18 32 19 33 20 34 21 36 22 37
REMARK SMILES IDX 23 38 87 39 24 40 86 41 25 42 26 43 27 44 80 45 28 46 85 47
REMARK SMILES IDX 79 48 81 49 29 50 84 51 78 52 77 53 30 55 64 56 43 57 63 58
REMARK SMILES IDX 44 59 47 60 62 61 82 62 45 63 46 64 61 66 83 67 48 68 31 69
REMARK SMILES IDX 32 70 41 71 33 72 34 73 40 74 42 75 35 76 36 77 37 78 38 79
REMARK SMILES IDX 39 80 65 81 66 82 75 83 67 84 68 85 74 86 76 87 69 88 70 89
REMARK SMILES IDX 71 90 72 91 73 92 49 93 50 94 59 95 51 96 52 97 58 98 60 99
REMARK SMILES IDX 53 100 54 101 55 102 56 103 57 104
REMARK H PARENT 14 6 10 11 89 29 89 30 19 35 81 54 47 65
REMARK Flexibility Score: inf
ROOT
ATOM      1  C   UNL A   1      36.926  21.205  24.684  1.00  0.00     0.023 C 
ENDROOT
BRANCH   1   2
ATOM      2  C   UNL A   1      35.577  20.588  25.047  1.00  0.00     0.116 C 
BRANCH   2   3
ATOM      3  N   UNL A   1      34.974  21.168  26.230  1.00  0.00    -0.355 N 
ATOM      4  C   UNL A   1      33.918  22.011  26.398  1.00  0.00     0.239 C 
ATOM      5  O   UNL A   1      33.622  22.287  27.567  1.00  0.00    -0.273 OA
ATOM      6  H   UNL A   1      35.410  20.903  27.072  1.00  0.00     0.163 HD
BRANCH   4   7
ATOM      7  C   UNL A   1      33.027  22.542  25.257  1.00  0.00     0.216 C 
BRANCH   7   8
ATOM      8  N   UNL A   1      33.502  22.626  23.893  1.00  0.00    -0.342 N 
ATOM      9  C   UNL A   1      33.673  23.659  23.006  1.00  0.00     0.264 C 
ATOM     10  O   UNL A   1      34.316  23.312  22.006  1.00  0.00    -0.268 OA
ATOM     11  H   UNL A   1      33.758  21.752  23.520  1.00  0.00     0.164 HD
BRANCH   9  12
ATOM     12  C   UNL A   1      33.104  25.006  23.151  1.00  0.00     0.118 A 
ATOM     13  C   UNL A   1      30.344  28.836  22.863  1.00  0.00     0.045 A 
ATOM     14  N   UNL A   1      30.601  27.704  22.174  1.00  0.00    -0.242 NA
ATOM     15  C   UNL A   1      31.036  29.223  24.023  1.00  0.00    -0.017 A 
ATOM     16  C   UNL A   1      31.561  26.916  22.685  1.00  0.00     0.127 A 
ATOM     17  C   UNL A   1      32.085  28.390  24.502  1.00  0.00     0.073 A 
ATOM     18  C   UNL A   1      30.703  30.504  24.749  1.00  0.00     0.047 C 
ATOM     19  S   UNL A   1      31.934  25.440  21.943  1.00  0.00    -0.108 S 
ATOM     20  C   UNL A   1      32.328  27.167  23.805  1.00  0.00     0.048 A 
ATOM     21  C   UNL A   1      33.215  26.050  24.059  1.00  0.00     0.066 A 
BRANCH  13  22
ATOM     22  C   UNL A   1      29.243  29.682  22.260  1.00  0.00     0.053 C 
ATOM     23  C   UNL A   1      27.864  29.259  22.745  1.00  0.00     0.011 C 
ENDBRANCH  13  22
BRANCH  17  24
ATOM     24  C   UNL A   1      32.901  28.735  25.730  1.00  0.00     0.417 C 
ATOM     25  F   UNL A   1      32.716  27.834  26.736  1.00  0.00    -0.166 F 
ATOM     26  F   UNL A   1      34.245  28.723  25.470  1.00  0.00    -0.166 F 
ATOM     27  F   UNL A   1      32.671  29.957  26.273  1.00  0.00    -0.166 F 
ENDBRANCH  17  24
BRANCH  21  28
ATOM     28  N   UNL A   1      34.000  26.050  25.156  1.00  0.00    -0.397 N 
ATOM     29  H   UNL A   1      34.739  25.405  25.234  1.00  0.00     0.156 HD
ATOM     30  H   UNL A   1      33.834  26.696  25.881  1.00  0.00     0.156 HD
ENDBRANCH  21  28
ENDBRANCH   9  12
ENDBRANCH   7   8
ENDBRANCH   4   7
ENDBRANCH   2   3
ENDBRANCH   1   2
BRANCH   1  31
ATOM     31  C   UNL A   1      37.012  22.727  24.856  1.00  0.00     0.023 C 
BRANCH  31  32
ATOM     32  C   UNL A   1      37.769  23.171  26.099  1.00  0.00     0.116 C 
BRANCH  32  33
ATOM     33  N   UNL A   1      38.879  22.285  26.461  1.00  0.00    -0.352 N 
ATOM     34  C   UNL A   1      40.195  22.651  26.724  1.00  0.00     0.251 C 
ATOM     35  H   UNL A   1      38.672  21.325  26.527  1.00  0.00     0.163 HD
ATOM     36  O   UNL A   1      41.110  21.854  26.646  1.00  0.00    -0.269 OA
BRANCH  34  37
ATOM     37  C   UNL A   1      40.434  24.047  27.136  1.00  0.00     0.039 A 
ATOM     38  C   UNL A   1      39.638  25.118  26.718  1.00  0.00     0.014 A 
ATOM     39  C   UNL A   1      41.472  24.236  28.041  1.00  0.00     0.014 A 
ATOM     40  C   UNL A   1      39.870  26.374  27.280  1.00  0.00     0.010 A 
ATOM     41  C   UNL A   1      41.527  25.390  28.760  1.00  0.00     0.010 A 
ATOM     42  C   UNL A   1      40.816  26.491  28.309  1.00  0.00    -0.014 A 
BRANCH  42  43
ATOM     43  C   UNL A   1      41.085  27.742  28.997  1.00  0.00     0.031 A 
ATOM     44  C   UNL A   1      42.192  28.546  28.421  1.00  0.00     0.074 A 
ATOM     45  C   UNL A   1      40.223  28.227  29.920  1.00  0.00     0.049 A 
ATOM     46  N   UNL A   1      43.345  28.782  28.950  1.00  0.00    -0.248 NA
ATOM     47  C   UNL A   1      42.075  29.011  27.028  1.00  0.00     0.031 C 
ATOM     48  C   UNL A   1      38.934  27.677  30.371  1.00  0.00     0.029 A 
ATOM     49  N   UNL A   1      40.284  29.403  30.594  1.00  0.00    -0.354 N 
ATOM     50  C   UNL A   1      44.016  29.616  28.060  1.00  0.00     0.074 A 
ATOM     51  C   UNL A   1      43.277  29.555  26.827  1.00  0.00     0.031 C 
ATOM     52  C   UNL A   1      38.247  28.618  31.055  1.00  0.00     0.029 A 
ATOM     53  C   UNL A   1      39.109  29.766  31.246  1.00  0.00     0.049 A 
ATOM     54  H   UNL A   1      41.099  29.957  30.621  1.00  0.00     0.167 HD
ATOM     55  C   UNL A   1      44.998  30.458  28.489  1.00  0.00     0.037 A 
ATOM     56  C   UNL A   1      38.875  30.942  31.885  1.00  0.00     0.037 A 
ATOM     57  C   UNL A   1      45.414  30.119  29.830  1.00  0.00     0.049 A 
ATOM     58  C   UNL A   1      40.215  31.514  32.204  1.00  0.00     0.074 A 
ATOM     59  C   UNL A   1      45.974  28.994  30.404  1.00  0.00     0.029 A 
ATOM     60  N   UNL A   1      44.870  30.839  30.870  1.00  0.00    -0.354 N 
ATOM     61  N   UNL A   1      41.050  30.948  33.038  1.00  0.00    -0.248 NA
ATOM     62  C   UNL A   1      40.829  32.382  31.207  1.00  0.00     0.031 C 
ATOM     63  C   UNL A   1      45.301  28.848  31.652  1.00  0.00     0.029 A 
ATOM     64  C   UNL A   1      44.441  29.936  31.813  1.00  0.00     0.049 A 
ATOM     65  H   UNL A   1      44.801  31.819  30.928  1.00  0.00     0.167 HD
ATOM     66  C   UNL A   1      42.297  31.049  32.432  1.00  0.00     0.074 A 
ATOM     67  C   UNL A   1      42.104  31.997  31.332  1.00  0.00     0.031 C 
ATOM     68  C   UNL A   1      43.292  30.141  32.674  1.00  0.00     0.037 A 
BRANCH  55  69
ATOM     69  C   UNL A   1      45.352  31.781  27.854  1.00  0.00     0.058 A 
ATOM     70  C   UNL A   1      46.646  31.966  27.324  1.00  0.00     0.135 A 
ATOM     71  C   UNL A   1      44.577  32.953  27.987  1.00  0.00     0.135 A 
ATOM     72  F   UNL A   1      47.470  30.921  27.146  1.00  0.00    -0.206 F 
ATOM     73  C   UNL A   1      47.161  33.231  27.031  1.00  0.00     0.059 A 
ATOM     74  C   UNL A   1      45.051  34.217  27.651  1.00  0.00     0.059 A 
ATOM     75  F   UNL A   1      43.359  32.948  28.542  1.00  0.00    -0.206 F 
ATOM     76  C   UNL A   1      46.359  34.352  27.217  1.00  0.00     0.060 A 
BRANCH  76  77
ATOM     77  S   UNL A   1      47.062  35.990  26.965  1.00  0.00     0.124 S 
ATOM     78  O   UNL A   1      46.015  36.844  27.514  1.00  0.00    -0.237 OA
ATOM     79  O   UNL A   1      48.296  35.911  27.740  1.00  0.00    -0.237 OA
ATOM     80  O   UNL A   1      47.239  36.061  25.518  1.00  0.00    -0.744 OA
ENDBRANCH  76  77
ENDBRANCH  55  69
BRANCH  56  81
ATOM     81  C   UNL A   1      37.603  31.715  31.924  1.00  0.00     0.058 A 
ATOM     82  C   UNL A   1      36.947  32.022  33.130  1.00  0.00     0.135 A 
ATOM     83  C   UNL A   1      37.130  32.389  30.778  1.00  0.00     0.135 A 
ATOM     84  F   UNL A   1      37.348  31.452  34.276  1.00  0.00    -0.206 F 
ATOM     85  C   UNL A   1      35.902  32.956  33.199  1.00  0.00     0.059 A 
ATOM     86  C   UNL A   1      36.091  33.319  30.821  1.00  0.00     0.059 A 
ATOM     87  F   UNL A   1      37.723  32.223  29.586  1.00  0.00    -0.206 F 
ATOM     88  C   UNL A   1      35.491  33.612  32.038  1.00  0.00     0.060 A 
BRANCH  88  89
ATOM     89  S   UNL A   1      34.235  34.913  32.138  1.00  0.00     0.124 S 
ATOM     90  O   UNL A   1      34.931  35.952  32.889  1.00  0.00    -0.237 OA
ATOM     91  O   UNL A   1      33.981  35.204  30.731  1.00  0.00    -0.237 OA
ATOM     92  O   UNL A   1      33.132  34.268  32.847  1.00  0.00    -0.744 OA
ENDBRANCH  88  89
ENDBRANCH  56  81
BRANCH  68  93
ATOM     93  C   UNL A   1      43.092  29.120  33.772  1.00  0.00     0.058 A 
ATOM     94  C   UNL A   1      43.323  29.371  35.138  1.00  0.00     0.135 A 
ATOM     95  C   UNL A   1      42.456  27.911  33.453  1.00  0.00     0.135 A 
ATOM     96  F   UNL A   1      43.826  30.541  35.548  1.00  0.00    -0.206 F 
ATOM     97  C   UNL A   1      42.973  28.455  36.133  1.00  0.00     0.059 A 
ATOM     98  C   UNL A   1      42.071  26.995  34.430  1.00  0.00     0.059 A 
ATOM     99  F   UNL A   1      42.142  27.636  32.177  1.00  0.00    -0.206 F 
ATOM    100  C   UNL A   1      42.344  27.267  35.769  1.00  0.00     0.060 A 
BRANCH 100 101
ATOM    101  S   UNL A   1      41.833  26.112  37.060  1.00  0.00     0.124 S 
ATOM    102  O   UNL A   1      42.941  26.200  38.005  1.00  0.00    -0.237 OA
ATOM    103  O   UNL A   1      40.569  26.683  37.514  1.00  0.00    -0.237 OA
ATOM    104  O   UNL A   1      41.715  24.839  36.353  1.00  0.00    -0.744 OA
ENDBRANCH 100 101
ENDBRANCH  68  93
ENDBRANCH  42  43
ENDBRANCH  34  37
ENDBRANCH  32  33
ENDBRANCH  31  32
ENDBRANCH   1  31
TORSDOF 19
ENDMDL
