MODEL 1
REMARK VINA RESULT:     -12.7      0.000      0.000
REMARK SMILES Cc1ccc(C#N)cc1S(=O)(=O)Nc1cccc(C(=O)NCCCCNC(=O)c2ccc(-c3c4nc(c(-c5c(F)cc(S(=O)(=O)[O-])cc5F)c5ccc([nH]5)c(-c5c(F)cc(S(=O)(=O)[O-])cc5F)c5nc(c(-c6c(F)cc(S(=O)(=O)[O-])cc6F)c6ccc3[nH]6)C=C5)C=C4)cc2)c1
REMARK SMILES IDX 23 1 22 2 21 3 19 4 20 5 18 7 14 8 15 9 95 10 16 11 17 12
REMARK SMILES IDX 13 13 10 15 11 16 12 17 9 18 1 19 2 20 3 21 4 22 8 23 5 24
REMARK SMILES IDX 6 25 7 26 24 27 25 28 26 29 27 30 28 32 29 33 30 34 94 35
REMARK SMILES IDX 31 36 93 37 32 38 33 39 34 40 87 41 35 42 92 43 86 44 88 45
REMARK SMILES IDX 36 46 91 47 85 48 84 49 37 51 71 52 50 53 70 54 51 55 54 56
REMARK SMILES IDX 69 57 89 58 52 59 53 60 68 62 90 63 55 64 38 65 39 66 48 67
REMARK SMILES IDX 40 68 41 69 47 70 49 71 42 72 43 73 44 74 45 75 46 76 72 77
REMARK SMILES IDX 73 78 82 79 74 80 75 81 81 82 83 83 76 84 77 85 78 86 79 87
REMARK SMILES IDX 80 88 56 89 57 90 66 91 58 92 59 93 65 94 67 95 60 96 61 97
REMARK SMILES IDX 62 98 63 99 64 100
REMARK H PARENT 21 6 13 14 26 31 88 50 54 61
REMARK Flexibility Score: inf
ROOT
ATOM      1  C   UNL A   1      37.443  22.288  25.924  1.00  0.00     0.023 C 
ENDROOT
BRANCH   1   2
ATOM      2  C   UNL A   1      35.938  22.060  25.924  1.00  0.00     0.116 C 
BRANCH   2   3
ATOM      3  N   UNL A   1      35.492  20.727  25.564  1.00  0.00    -0.352 N 
ATOM      4  C   UNL A   1      34.372  20.281  24.891  1.00  0.00     0.251 C 
ATOM      5  O   UNL A   1      34.298  19.074  24.653  1.00  0.00    -0.269 OA
ATOM      6  H   UNL A   1      36.099  20.008  25.852  1.00  0.00     0.163 HD
BRANCH   4   7
ATOM      7  C   UNL A   1      33.202  21.150  24.532  1.00  0.00     0.041 A 
ATOM      8  C   UNL A   1      32.159  22.863  23.171  1.00  0.00     0.050 A 
ATOM      9  C   UNL A   1      31.275  23.177  24.194  1.00  0.00     0.027 A 
ATOM     10  C   UNL A   1      33.019  21.767  23.292  1.00  0.00     0.040 A 
ATOM     11  C   UNL A   1      31.316  22.452  25.380  1.00  0.00     0.003 A 
ATOM     12  C   UNL A   1      32.301  21.474  25.564  1.00  0.00     0.014 A 
BRANCH   8  13
ATOM     13  N   UNL A   1      32.230  23.719  22.028  1.00  0.00    -0.280 N 
ATOM     14  H   UNL A   1      31.792  23.440  21.192  1.00  0.00     0.180 HD
BRANCH  13  15
ATOM     15  S   UNL A   1      33.058  25.219  22.080  1.00  0.00     0.262 S 
ATOM     16  O   UNL A   1      33.051  25.653  20.693  1.00  0.00    -0.201 OA
ATOM     17  O   UNL A   1      34.321  24.977  22.743  1.00  0.00    -0.201 OA
BRANCH  15  18
ATOM     18  C   UNL A   1      32.200  26.491  23.013  1.00  0.00     0.092 A 
ATOM     19  C   UNL A   1      33.588  26.320  25.185  1.00  0.00     0.046 C 
ATOM     20  C   UNL A   1      32.422  26.792  24.367  1.00  0.00    -0.030 A 
ATOM     21  C   UNL A   1      31.606  27.757  24.995  1.00  0.00     0.006 A 
ATOM     22  C   UNL A   1      30.746  28.565  24.258  1.00  0.00     0.020 A 
ATOM     23  C   UNL A   1      31.373  27.360  22.265  1.00  0.00     0.042 A 
ATOM     24  C   UNL A   1      30.691  28.421  22.875  1.00  0.00     0.053 A 
BRANCH  24  25
ATOM     25  C   UNL A   1      29.999  29.399  22.089  1.00  0.00     0.099 C 
ATOM     26  N   UNL A   1      29.423  30.162  21.424  1.00  0.00    -0.192 NA
ENDBRANCH  24  25
ENDBRANCH  15  18
ENDBRANCH  13  15
ENDBRANCH   8  13
ENDBRANCH   4   7
ENDBRANCH   2   3
ENDBRANCH   1   2
BRANCH   1  27
ATOM     27  C   UNL A   1      37.932  23.699  26.204  1.00  0.00     0.023 C 
BRANCH  27  28
ATOM     28  C   UNL A   1      39.369  23.818  26.687  1.00  0.00     0.116 C 
BRANCH  28  29
ATOM     29  N   UNL A   1      40.239  24.583  25.797  1.00  0.00    -0.352 N 
ATOM     30  C   UNL A   1      40.993  25.709  26.059  1.00  0.00     0.251 C 
ATOM     31  H   UNL A   1      40.296  24.246  24.874  1.00  0.00     0.163 HD
ATOM     32  O   UNL A   1      41.607  26.266  25.153  1.00  0.00    -0.269 OA
BRANCH  30  33
ATOM     33  C   UNL A   1      41.015  26.266  27.430  1.00  0.00     0.039 A 
ATOM     34  C   UNL A   1      39.941  26.041  28.287  1.00  0.00     0.014 A 
ATOM     35  C   UNL A   1      42.063  27.101  27.822  1.00  0.00     0.014 A 
ATOM     36  C   UNL A   1      39.781  26.855  29.400  1.00  0.00     0.010 A 
ATOM     37  C   UNL A   1      41.963  27.818  29.021  1.00  0.00     0.010 A 
ATOM     38  C   UNL A   1      40.784  27.763  29.781  1.00  0.00    -0.014 A 
BRANCH  38  39
ATOM     39  C   UNL A   1      40.545  28.656  30.952  1.00  0.00     0.031 A 
ATOM     40  C   UNL A   1      41.451  28.611  32.162  1.00  0.00     0.074 A 
ATOM     41  C   UNL A   1      39.567  29.583  30.881  1.00  0.00     0.049 A 
ATOM     42  N   UNL A   1      41.417  29.355  33.241  1.00  0.00    -0.248 NA
ATOM     43  C   UNL A   1      42.530  27.610  32.170  1.00  0.00     0.031 C 
ATOM     44  C   UNL A   1      38.640  29.744  29.756  1.00  0.00     0.029 A 
ATOM     45  N   UNL A   1      39.211  30.591  31.742  1.00  0.00    -0.354 N 
ATOM     46  C   UNL A   1      42.463  28.914  34.047  1.00  0.00     0.074 A 
ATOM     47  C   UNL A   1      43.078  27.799  33.362  1.00  0.00     0.031 C 
ATOM     48  C   UNL A   1      37.883  30.832  29.958  1.00  0.00     0.029 A 
ATOM     49  C   UNL A   1      38.203  31.397  31.262  1.00  0.00     0.049 A 
ATOM     50  H   UNL A   1      39.637  30.725  32.620  1.00  0.00     0.167 HD
ATOM     51  C   UNL A   1      42.892  29.411  35.232  1.00  0.00     0.037 A 
ATOM     52  C   UNL A   1      37.592  32.464  31.812  1.00  0.00     0.037 A 
ATOM     53  C   UNL A   1      42.291  30.536  35.901  1.00  0.00     0.049 A 
ATOM     54  C   UNL A   1      38.024  32.927  33.177  1.00  0.00     0.074 A 
ATOM     55  C   UNL A   1      42.652  31.108  37.108  1.00  0.00     0.029 A 
ATOM     56  N   UNL A   1      41.213  31.265  35.420  1.00  0.00    -0.354 N 
ATOM     57  N   UNL A   1      39.022  32.498  33.914  1.00  0.00    -0.248 NA
ATOM     58  C   UNL A   1      37.242  34.008  33.793  1.00  0.00     0.031 C 
ATOM     59  C   UNL A   1      41.763  32.149  37.382  1.00  0.00     0.029 A 
ATOM     60  C   UNL A   1      40.883  32.265  36.319  1.00  0.00     0.049 A 
ATOM     61  H   UNL A   1      40.753  31.097  34.566  1.00  0.00     0.167 HD
ATOM     62  C   UNL A   1      39.000  33.276  35.066  1.00  0.00     0.074 A 
ATOM     63  C   UNL A   1      37.907  34.214  34.921  1.00  0.00     0.031 C 
ATOM     64  C   UNL A   1      39.809  33.210  36.151  1.00  0.00     0.037 A 
BRANCH  51  65
ATOM     65  C   UNL A   1      44.089  28.771  35.886  1.00  0.00     0.058 A 
ATOM     66  C   UNL A   1      45.382  29.279  35.691  1.00  0.00     0.135 A 
ATOM     67  C   UNL A   1      43.932  27.713  36.797  1.00  0.00     0.135 A 
ATOM     68  F   UNL A   1      45.593  30.280  34.822  1.00  0.00    -0.206 F 
ATOM     69  C   UNL A   1      46.479  28.758  36.370  1.00  0.00     0.059 A 
ATOM     70  C   UNL A   1      45.011  27.194  37.509  1.00  0.00     0.059 A 
ATOM     71  F   UNL A   1      42.717  27.190  37.024  1.00  0.00    -0.206 F 
ATOM     72  C   UNL A   1      46.282  27.722  37.285  1.00  0.00     0.060 A 
BRANCH  72  73
ATOM     73  S   UNL A   1      47.715  27.089  38.181  1.00  0.00     0.124 S 
ATOM     74  O   UNL A   1      47.937  28.147  39.162  1.00  0.00    -0.237 OA
ATOM     75  O   UNL A   1      47.212  25.828  38.715  1.00  0.00    -0.237 OA
ATOM     76  O   UNL A   1      48.740  26.969  37.148  1.00  0.00    -0.744 OA
ENDBRANCH  72  73
ENDBRANCH  51  65
BRANCH  52  77
ATOM     77  C   UNL A   1      36.504  33.171  31.081  1.00  0.00     0.058 A 
ATOM     78  C   UNL A   1      36.795  34.005  29.992  1.00  0.00     0.135 A 
ATOM     79  C   UNL A   1      35.158  33.042  31.461  1.00  0.00     0.135 A 
ATOM     80  F   UNL A   1      38.066  34.166  29.591  1.00  0.00    -0.206 F 
ATOM     81  C   UNL A   1      35.799  34.711  29.327  1.00  0.00     0.059 A 
ATOM     82  C   UNL A   1      34.139  33.708  30.788  1.00  0.00     0.059 A 
ATOM     83  F   UNL A   1      34.820  32.245  32.487  1.00  0.00    -0.206 F 
ATOM     84  C   UNL A   1      34.472  34.555  29.733  1.00  0.00     0.060 A 
BRANCH  84  85
ATOM     85  S   UNL A   1      33.189  35.473  28.856  1.00  0.00     0.124 S 
ATOM     86  O   UNL A   1      33.984  36.406  28.067  1.00  0.00    -0.237 OA
ATOM     87  O   UNL A   1      32.517  34.415  28.109  1.00  0.00    -0.237 OA
ATOM     88  O   UNL A   1      32.404  36.068  29.933  1.00  0.00    -0.744 OA
ENDBRANCH  84  85
ENDBRANCH  52  77
BRANCH  64  89
ATOM     89  C   UNL A   1      39.570  34.186  37.270  1.00  0.00     0.058 A 
ATOM     90  C   UNL A   1      38.888  33.808  38.435  1.00  0.00     0.135 A 
ATOM     91  C   UNL A   1      40.130  35.475  37.224  1.00  0.00     0.135 A 
ATOM     92  F   UNL A   1      38.325  32.592  38.525  1.00  0.00    -0.206 F 
ATOM     93  C   UNL A   1      38.771  34.670  39.519  1.00  0.00     0.059 A 
ATOM     94  C   UNL A   1      40.052  36.342  38.309  1.00  0.00     0.059 A 
ATOM     95  F   UNL A   1      40.799  35.882  36.134  1.00  0.00    -0.206 F 
ATOM     96  C   UNL A   1      39.372  35.930  39.453  1.00  0.00     0.060 A 
BRANCH  96  97
ATOM     97  S   UNL A   1      39.282  36.999  40.904  1.00  0.00     0.124 S 
ATOM     98  O   UNL A   1      40.694  37.247  41.177  1.00  0.00    -0.237 OA
ATOM     99  O   UNL A   1      38.525  38.140  40.397  1.00  0.00    -0.237 OA
ATOM    100  O   UNL A   1      38.587  36.180  41.892  1.00  0.00    -0.744 OA
ENDBRANCH  96  97
ENDBRANCH  64  89
ENDBRANCH  38  39
ENDBRANCH  30  33
ENDBRANCH  28  29
ENDBRANCH  27  28
ENDBRANCH   1  27
TORSDOF 18
ENDMDL
MODEL 2
REMARK VINA RESULT:     -12.6      6.104      8.437
REMARK SMILES Cc1ccc(C#N)cc1S(=O)(=O)Nc1cccc(C(=O)NCCCCNC(=O)c2ccc(-c3c4nc(c(-c5c(F)cc(S(=O)(=O)[O-])cc5F)c5ccc([nH]5)c(-c5c(F)cc(S(=O)(=O)[O-])cc5F)c5nc(c(-c6c(F)cc(S(=O)(=O)[O-])cc6F)c6ccc3[nH]6)C=C5)C=C4)cc2)c1
REMARK SMILES IDX 23 1 22 2 21 3 19 4 20 5 18 7 14 8 15 9 95 10 16 11 17 12
REMARK SMILES IDX 13 13 10 15 11 16 12 17 9 18 1 19 2 20 3 21 4 22 8 23 5 24
REMARK SMILES IDX 6 25 7 26 24 27 25 28 26 29 27 30 28 32 29 33 30 34 94 35
REMARK SMILES IDX 31 36 93 37 32 38 33 39 34 40 87 41 35 42 92 43 86 44 88 45
REMARK SMILES IDX 36 46 91 47 85 48 84 49 37 51 71 52 50 53 70 54 51 55 54 56
REMARK SMILES IDX 69 57 89 58 52 59 53 60 68 62 90 63 55 64 38 65 39 66 48 67
REMARK SMILES IDX 40 68 41 69 47 70 49 71 42 72 43 73 44 74 45 75 46 76 72 77
REMARK SMILES IDX 73 78 82 79 74 80 75 81 81 82 83 83 76 84 77 85 78 86 79 87
REMARK SMILES IDX 80 88 56 89 57 90 66 91 58 92 59 93 65 94 67 95 60 96 61 97
REMARK SMILES IDX 62 98 63 99 64 100
REMARK H PARENT 21 6 13 14 26 31 88 50 54 61
REMARK Flexibility Score: inf
ROOT
ATOM      1  C   UNL A   1      36.910  20.755  24.839  1.00  0.00     0.023 C 
ENDROOT
BRANCH   1   2
ATOM      2  C   UNL A   1      35.494  21.050  25.314  1.00  0.00     0.116 C 
BRANCH   2   3
ATOM      3  N   UNL A   1      34.566  19.934  25.291  1.00  0.00    -0.352 N 
ATOM      4  C   UNL A   1      33.241  19.847  24.914  1.00  0.00     0.251 C 
ATOM      5  O   UNL A   1      32.722  18.729  24.924  1.00  0.00    -0.269 OA
ATOM      6  H   UNL A   1      34.952  19.084  25.602  1.00  0.00     0.163 HD
BRANCH   4   7
ATOM      7  C   UNL A   1      32.373  21.031  24.602  1.00  0.00     0.041 A 
ATOM      8  C   UNL A   1      31.862  23.017  23.309  1.00  0.00     0.050 A 
ATOM      9  C   UNL A   1      31.119  23.542  24.358  1.00  0.00     0.027 A 
ATOM     10  C   UNL A   1      32.365  21.713  23.383  1.00  0.00     0.040 A 
ATOM     11  C   UNL A   1      30.959  22.799  25.523  1.00  0.00     0.003 A 
ATOM     12  C   UNL A   1      31.617  21.571  25.660  1.00  0.00     0.014 A 
BRANCH   8  13
ATOM     13  N   UNL A   1      32.168  23.850  22.189  1.00  0.00    -0.280 N 
ATOM     14  H   UNL A   1      31.817  23.610  21.302  1.00  0.00     0.180 HD
BRANCH  13  15
ATOM     15  S   UNL A   1      33.130  25.259  22.355  1.00  0.00     0.262 S 
ATOM     16  O   UNL A   1      33.326  25.694  20.983  1.00  0.00    -0.201 OA
ATOM     17  O   UNL A   1      34.278  24.890  23.154  1.00  0.00    -0.201 OA
BRANCH  15  18
ATOM     18  C   UNL A   1      32.302  26.610  23.202  1.00  0.00     0.092 A 
ATOM     19  C   UNL A   1      33.764  26.629  25.331  1.00  0.00     0.046 C 
ATOM     20  C   UNL A   1      32.570  27.028  24.516  1.00  0.00    -0.030 A 
ATOM     21  C   UNL A   1      31.775  28.046  25.084  1.00  0.00     0.006 A 
ATOM     22  C   UNL A   1      30.887  28.787  24.309  1.00  0.00     0.020 A 
ATOM     23  C   UNL A   1      31.448  27.410  22.409  1.00  0.00     0.042 A 
ATOM     24  C   UNL A   1      30.786  28.521  22.946  1.00  0.00     0.053 A 
BRANCH  24  25
ATOM     25  C   UNL A   1      30.065  29.427  22.102  1.00  0.00     0.099 C 
ATOM     26  N   UNL A   1      29.444  30.137  21.420  1.00  0.00    -0.192 NA
ENDBRANCH  24  25
ENDBRANCH  15  18
ENDBRANCH  13  15
ENDBRANCH   8  13
ENDBRANCH   4   7
ENDBRANCH   2   3
ENDBRANCH   1   2
BRANCH   1  27
ATOM     27  C   UNL A   1      37.953  21.839  25.051  1.00  0.00     0.023 C 
BRANCH  27  28
ATOM     28  C   UNL A   1      38.969  21.574  26.151  1.00  0.00     0.116 C 
BRANCH  28  29
ATOM     29  N   UNL A   1      39.662  20.294  26.033  1.00  0.00    -0.352 N 
ATOM     30  C   UNL A   1      41.012  20.014  26.108  1.00  0.00     0.251 C 
ATOM     31  H   UNL A   1      39.081  19.515  25.875  1.00  0.00     0.163 HD
ATOM     32  O   UNL A   1      41.419  18.874  25.902  1.00  0.00    -0.269 OA
BRANCH  30  33
ATOM     33  C   UNL A   1      41.965  21.109  26.392  1.00  0.00     0.039 A 
ATOM     34  C   UNL A   1      42.301  21.415  27.708  1.00  0.00     0.014 A 
ATOM     35  C   UNL A   1      42.443  21.901  25.344  1.00  0.00     0.014 A 
ATOM     36  C   UNL A   1      42.871  22.648  27.993  1.00  0.00     0.010 A 
ATOM     37  C   UNL A   1      43.145  23.078  25.633  1.00  0.00     0.010 A 
ATOM     38  C   UNL A   1      43.294  23.504  26.962  1.00  0.00    -0.014 A 
BRANCH  38  39
ATOM     39  C   UNL A   1      43.851  24.843  27.315  1.00  0.00     0.031 A 
ATOM     40  C   UNL A   1      45.293  25.187  27.021  1.00  0.00     0.074 A 
ATOM     41  C   UNL A   1      43.023  25.787  27.810  1.00  0.00     0.049 A 
ATOM     42  N   UNL A   1      45.923  26.321  27.213  1.00  0.00    -0.248 NA
ATOM     43  C   UNL A   1      46.142  24.133  26.441  1.00  0.00     0.031 C 
ATOM     44  C   UNL A   1      41.603  25.586  28.115  1.00  0.00     0.029 A 
ATOM     45  N   UNL A   1      43.235  27.111  28.104  1.00  0.00    -0.354 N 
ATOM     46  C   UNL A   1      47.229  26.116  26.779  1.00  0.00     0.074 A 
ATOM     47  C   UNL A   1      47.322  24.733  26.367  1.00  0.00     0.031 C 
ATOM     48  C   UNL A   1      41.056  26.757  28.471  1.00  0.00     0.029 A 
ATOM     49  C   UNL A   1      42.098  27.775  28.508  1.00  0.00     0.049 A 
ATOM     50  H   UNL A   1      44.116  27.545  28.032  1.00  0.00     0.167 HD
ATOM     51  C   UNL A   1      48.248  27.005  26.699  1.00  0.00     0.037 A 
ATOM     52  C   UNL A   1      41.913  29.056  28.880  1.00  0.00     0.037 A 
ATOM     53  C   UNL A   1      48.146  28.388  27.089  1.00  0.00     0.049 A 
ATOM     54  C   UNL A   1      43.091  29.992  28.879  1.00  0.00     0.074 A 
ATOM     55  C   UNL A   1      49.127  29.363  27.051  1.00  0.00     0.029 A 
ATOM     56  N   UNL A   1      46.999  28.994  27.579  1.00  0.00    -0.354 N 
ATOM     57  N   UNL A   1      44.313  29.776  28.455  1.00  0.00    -0.248 NA
ATOM     58  C   UNL A   1      42.870  31.341  29.419  1.00  0.00     0.031 C 
ATOM     59  C   UNL A   1      48.590  30.544  27.564  1.00  0.00     0.029 A 
ATOM     60  C   UNL A   1      47.257  30.323  27.868  1.00  0.00     0.049 A 
ATOM     61  H   UNL A   1      46.131  28.546  27.701  1.00  0.00     0.167 HD
ATOM     62  C   UNL A   1      44.997  30.970  28.653  1.00  0.00     0.074 A 
ATOM     63  C   UNL A   1      44.050  31.910  29.214  1.00  0.00     0.031 C 
ATOM     64  C   UNL A   1      46.298  31.257  28.402  1.00  0.00     0.037 A 
BRANCH  51  65
ATOM     65  C   UNL A   1      49.567  26.534  26.144  1.00  0.00     0.058 A 
ATOM     66  C   UNL A   1      49.945  26.822  24.824  1.00  0.00     0.135 A 
ATOM     67  C   UNL A   1      50.505  25.887  26.967  1.00  0.00     0.135 A 
ATOM     68  F   UNL A   1      49.084  27.426  23.989  1.00  0.00    -0.206 F 
ATOM     69  C   UNL A   1      51.202  26.479  24.335  1.00  0.00     0.059 A 
ATOM     70  C   UNL A   1      51.779  25.560  26.507  1.00  0.00     0.059 A 
ATOM     71  F   UNL A   1      50.198  25.589  28.239  1.00  0.00    -0.206 F 
ATOM     72  C   UNL A   1      52.116  25.858  25.188  1.00  0.00     0.060 A 
BRANCH  72  73
ATOM     73  S   UNL A   1      53.753  25.458  24.540  1.00  0.00     0.124 S 
ATOM     74  O   UNL A   1      54.611  26.279  25.388  1.00  0.00    -0.237 OA
ATOM     75  O   UNL A   1      53.830  24.019  24.768  1.00  0.00    -0.237 OA
ATOM     76  O   UNL A   1      53.679  25.869  23.142  1.00  0.00    -0.744 OA
ENDBRANCH  72  73
ENDBRANCH  51  65
BRANCH  52  77
ATOM     77  C   UNL A   1      40.563  29.535  29.289  1.00  0.00     0.058 A 
ATOM     78  C   UNL A   1      40.258  29.756  30.639  1.00  0.00     0.135 A 
ATOM     79  C   UNL A   1      39.548  29.767  28.346  1.00  0.00     0.135 A 
ATOM     80  F   UNL A   1      41.192  29.546  31.581  1.00  0.00    -0.206 F 
ATOM     81  C   UNL A   1      38.990  30.158  31.045  1.00  0.00     0.059 A 
ATOM     82  C   UNL A   1      38.283  30.205  28.722  1.00  0.00     0.059 A 
ATOM     83  F   UNL A   1      39.789  29.586  27.037  1.00  0.00    -0.206 F 
ATOM     84  C   UNL A   1      38.009  30.380  30.078  1.00  0.00     0.060 A 
BRANCH  84  85
ATOM     85  S   UNL A   1      36.369  30.906  30.619  1.00  0.00     0.124 S 
ATOM     86  O   UNL A   1      36.654  32.223  31.177  1.00  0.00    -0.237 OA
ATOM     87  O   UNL A   1      35.618  30.891  29.367  1.00  0.00    -0.237 OA
ATOM     88  O   UNL A   1      35.987  29.881  31.584  1.00  0.00    -0.744 OA
ENDBRANCH  84  85
ENDBRANCH  52  77
BRANCH  64  89
ATOM     89  C   UNL A   1      46.786  32.646  28.707  1.00  0.00     0.058 A 
ATOM     90  C   UNL A   1      47.384  32.956  29.936  1.00  0.00     0.135 A 
ATOM     91  C   UNL A   1      46.761  33.644  27.716  1.00  0.00     0.135 A 
ATOM     92  F   UNL A   1      47.425  32.042  30.919  1.00  0.00    -0.206 F 
ATOM     93  C   UNL A   1      47.945  34.206  30.175  1.00  0.00     0.059 A 
ATOM     94  C   UNL A   1      47.344  34.890  27.923  1.00  0.00     0.059 A 
ATOM     95  F   UNL A   1      46.206  33.394  26.520  1.00  0.00    -0.206 F 
ATOM     96  C   UNL A   1      47.935  35.161  29.156  1.00  0.00     0.060 A 
BRANCH  96  97
ATOM     97  S   UNL A   1      48.744  36.746  29.457  1.00  0.00     0.124 S 
ATOM     98  O   UNL A   1      50.139  36.425  29.170  1.00  0.00    -0.237 OA
ATOM     99  O   UNL A   1      48.081  37.617  28.491  1.00  0.00    -0.237 OA
ATOM    100  O   UNL A   1      48.441  37.024  30.858  1.00  0.00    -0.744 OA
ENDBRANCH  96  97
ENDBRANCH  64  89
ENDBRANCH  38  39
ENDBRANCH  30  33
ENDBRANCH  28  29
ENDBRANCH  27  28
ENDBRANCH   1  27
TORSDOF 18
ENDMDL
MODEL 3
REMARK VINA RESULT:     -12.5      6.212     10.855
REMARK SMILES Cc1ccc(C#N)cc1S(=O)(=O)Nc1cccc(C(=O)NCCCCNC(=O)c2ccc(-c3c4nc(c(-c5c(F)cc(S(=O)(=O)[O-])cc5F)c5ccc([nH]5)c(-c5c(F)cc(S(=O)(=O)[O-])cc5F)c5nc(c(-c6c(F)cc(S(=O)(=O)[O-])cc6F)c6ccc3[nH]6)C=C5)C=C4)cc2)c1
REMARK SMILES IDX 23 1 22 2 21 3 19 4 20 5 18 7 14 8 15 9 95 10 16 11 17 12
REMARK SMILES IDX 13 13 10 15 11 16 12 17 9 18 1 19 2 20 3 21 4 22 8 23 5 24
REMARK SMILES IDX 6 25 7 26 24 27 25 28 26 29 27 30 28 32 29 33 30 34 94 35
REMARK SMILES IDX 31 36 93 37 32 38 33 39 34 40 87 41 35 42 92 43 86 44 88 45
REMARK SMILES IDX 36 46 91 47 85 48 84 49 37 51 71 52 50 53 70 54 51 55 54 56
REMARK SMILES IDX 69 57 89 58 52 59 53 60 68 62 90 63 55 64 38 65 39 66 48 67
REMARK SMILES IDX 40 68 41 69 47 70 49 71 42 72 43 73 44 74 45 75 46 76 72 77
REMARK SMILES IDX 73 78 82 79 74 80 75 81 81 82 83 83 76 84 77 85 78 86 79 87
REMARK SMILES IDX 80 88 56 89 57 90 66 91 58 92 59 93 65 94 67 95 60 96 61 97
REMARK SMILES IDX 62 98 63 99 64 100
REMARK H PARENT 21 6 13 14 26 31 88 50 54 61
REMARK Flexibility Score: inf
ROOT
ATOM      1  C   UNL A   1      37.148  22.189  25.435  1.00  0.00     0.023 C 
ENDROOT
BRANCH   1   2
ATOM      2  C   UNL A   1      35.657  22.031  25.702  1.00  0.00     0.116 C 
BRANCH   2   3
ATOM      3  N   UNL A   1      35.076  20.749  25.350  1.00  0.00    -0.352 N 
ATOM      4  C   UNL A   1      33.890  20.415  24.728  1.00  0.00     0.251 C 
ATOM      5  O   UNL A   1      33.695  19.223  24.482  1.00  0.00    -0.269 OA
ATOM      6  H   UNL A   1      35.629  19.974  25.600  1.00  0.00     0.163 HD
BRANCH   4   7
ATOM      7  C   UNL A   1      32.787  21.391  24.436  1.00  0.00     0.041 A 
ATOM      8  C   UNL A   1      31.847  23.225  23.160  1.00  0.00     0.050 A 
ATOM      9  C   UNL A   1      31.031  23.584  24.224  1.00  0.00     0.027 A 
ATOM     10  C   UNL A   1      32.613  22.056  23.220  1.00  0.00     0.040 A 
ATOM     11  C   UNL A   1      31.051  22.824  25.389  1.00  0.00     0.003 A 
ATOM     12  C   UNL A   1      31.954  21.761  25.510  1.00  0.00     0.014 A 
BRANCH   8  13
ATOM     13  N   UNL A   1      31.951  24.104  22.037  1.00  0.00    -0.280 N 
ATOM     14  H   UNL A   1      31.407  23.927  21.238  1.00  0.00     0.180 HD
BRANCH  13  15
ATOM     15  S   UNL A   1      33.000  25.460  22.052  1.00  0.00     0.262 S 
ATOM     16  O   UNL A   1      33.195  25.748  20.642  1.00  0.00    -0.201 OA
ATOM     17  O   UNL A   1      34.140  25.097  22.867  1.00  0.00    -0.201 OA
BRANCH  15  18
ATOM     18  C   UNL A   1      32.274  26.934  22.776  1.00  0.00     0.092 A 
ATOM     19  C   UNL A   1      34.371  28.439  22.673  1.00  0.00     0.046 C 
ATOM     20  C   UNL A   1      32.977  28.103  23.112  1.00  0.00    -0.030 A 
ATOM     21  C   UNL A   1      32.289  29.151  23.761  1.00  0.00     0.006 A 
ATOM     22  C   UNL A   1      30.902  29.142  23.876  1.00  0.00     0.020 A 
ATOM     23  C   UNL A   1      30.862  26.965  22.838  1.00  0.00     0.042 A 
ATOM     24  C   UNL A   1      30.179  28.081  23.337  1.00  0.00     0.053 A 
BRANCH  24  25
ATOM     25  C   UNL A   1      28.753  28.178  23.235  1.00  0.00     0.099 C 
ATOM     26  N   UNL A   1      27.599  28.268  23.110  1.00  0.00    -0.192 NA
ENDBRANCH  24  25
ENDBRANCH  15  18
ENDBRANCH  13  15
ENDBRANCH   8  13
ENDBRANCH   4   7
ENDBRANCH   2   3
ENDBRANCH   1   2
BRANCH   1  27
ATOM     27  C   UNL A   1      37.991  20.926  25.434  1.00  0.00     0.023 C 
BRANCH  27  28
ATOM     28  C   UNL A   1      39.406  21.073  25.969  1.00  0.00     0.116 C 
BRANCH  28  29
ATOM     29  N   UNL A   1      40.172  19.830  25.991  1.00  0.00    -0.352 N 
ATOM     30  C   UNL A   1      41.533  19.637  26.120  1.00  0.00     0.251 C 
ATOM     31  H   UNL A   1      39.639  19.007  25.899  1.00  0.00     0.163 HD
ATOM     32  O   UNL A   1      42.008  18.509  26.035  1.00  0.00    -0.269 OA
BRANCH  30  33
ATOM     33  C   UNL A   1      42.416  20.809  26.313  1.00  0.00     0.039 A 
ATOM     34  C   UNL A   1      42.608  21.331  27.590  1.00  0.00     0.014 A 
ATOM     35  C   UNL A   1      42.970  21.450  25.203  1.00  0.00     0.014 A 
ATOM     36  C   UNL A   1      43.106  22.620  27.726  1.00  0.00     0.010 A 
ATOM     37  C   UNL A   1      43.600  22.690  25.364  1.00  0.00     0.010 A 
ATOM     38  C   UNL A   1      43.602  23.325  26.616  1.00  0.00    -0.014 A 
BRANCH  38  39
ATOM     39  C   UNL A   1      44.075  24.727  26.802  1.00  0.00     0.031 A 
ATOM     40  C   UNL A   1      43.144  25.800  27.320  1.00  0.00     0.074 A 
ATOM     41  C   UNL A   1      45.379  25.011  26.599  1.00  0.00     0.049 A 
ATOM     42  N   UNL A   1      43.408  27.055  27.592  1.00  0.00    -0.248 NA
ATOM     43  C   UNL A   1      41.742  25.425  27.567  1.00  0.00     0.031 C 
ATOM     44  C   UNL A   1      46.384  24.056  26.123  1.00  0.00     0.029 A 
ATOM     45  N   UNL A   1      46.096  26.163  26.806  1.00  0.00    -0.354 N 
ATOM     46  C   UNL A   1      42.213  27.613  28.037  1.00  0.00     0.074 A 
ATOM     47  C   UNL A   1      41.207  26.578  27.947  1.00  0.00     0.031 C 
ATOM     48  C   UNL A   1      47.594  24.634  26.152  1.00  0.00     0.029 A 
ATOM     49  C   UNL A   1      47.444  26.025  26.563  1.00  0.00     0.049 A 
ATOM     50  H   UNL A   1      45.685  27.008  27.100  1.00  0.00     0.167 HD
ATOM     51  C   UNL A   1      41.981  28.861  28.510  1.00  0.00     0.037 A 
ATOM     52  C   UNL A   1      48.450  26.916  26.648  1.00  0.00     0.037 A 
ATOM     53  C   UNL A   1      42.990  29.883  28.620  1.00  0.00     0.049 A 
ATOM     54  C   UNL A   1      48.140  28.325  27.076  1.00  0.00     0.074 A 
ATOM     55  C   UNL A   1      42.848  31.180  29.080  1.00  0.00     0.029 A 
ATOM     56  N   UNL A   1      44.324  29.725  28.276  1.00  0.00    -0.354 N 
ATOM     57  N   UNL A   1      47.004  28.824  27.502  1.00  0.00    -0.248 NA
ATOM     58  C   UNL A   1      49.242  29.295  27.025  1.00  0.00     0.031 C 
ATOM     59  C   UNL A   1      44.083  31.822  28.968  1.00  0.00     0.029 A 
ATOM     60  C   UNL A   1      45.009  30.909  28.493  1.00  0.00     0.049 A 
ATOM     61  H   UNL A   1      44.724  28.894  27.932  1.00  0.00     0.167 HD
ATOM     62  C   UNL A   1      47.264  30.158  27.792  1.00  0.00     0.074 A 
ATOM     63  C   UNL A   1      48.667  30.384  27.516  1.00  0.00     0.031 C 
ATOM     64  C   UNL A   1      46.413  31.113  28.239  1.00  0.00     0.037 A 
BRANCH  51  65
ATOM     65  C   UNL A   1      40.590  29.203  28.976  1.00  0.00     0.058 A 
ATOM     66  C   UNL A   1      40.291  29.327  30.342  1.00  0.00     0.135 A 
ATOM     67  C   UNL A   1      39.577  29.516  28.054  1.00  0.00     0.135 A 
ATOM     68  F   UNL A   1      41.215  29.028  31.267  1.00  0.00    -0.206 F 
ATOM     69  C   UNL A   1      39.036  29.741  30.777  1.00  0.00     0.059 A 
ATOM     70  C   UNL A   1      38.323  29.960  28.466  1.00  0.00     0.059 A 
ATOM     71  F   UNL A   1      39.809  29.418  26.735  1.00  0.00    -0.206 F 
ATOM     72  C   UNL A   1      38.061  30.066  29.831  1.00  0.00     0.060 A 
BRANCH  72  73
ATOM     73  S   UNL A   1      36.455  30.637  30.422  1.00  0.00     0.124 S 
ATOM     74  O   UNL A   1      36.113  29.598  31.389  1.00  0.00    -0.237 OA
ATOM     75  O   UNL A   1      36.780  31.942  30.987  1.00  0.00    -0.237 OA
ATOM     76  O   UNL A   1      35.634  30.662  29.216  1.00  0.00    -0.744 OA
ENDBRANCH  72  73
ENDBRANCH  51  65
BRANCH  52  77
ATOM     77  C   UNL A   1      49.846  26.514  26.318  1.00  0.00     0.058 A 
ATOM     78  C   UNL A   1      50.676  25.938  27.290  1.00  0.00     0.135 A 
ATOM     79  C   UNL A   1      50.384  26.710  25.035  1.00  0.00     0.135 A 
ATOM     80  F   UNL A   1      50.212  25.733  28.533  1.00  0.00    -0.206 F 
ATOM     81  C   UNL A   1      51.996  25.599  27.014  1.00  0.00     0.059 A 
ATOM     82  C   UNL A   1      51.690  26.345  24.724  1.00  0.00     0.059 A 
ATOM     83  F   UNL A   1      49.630  27.244  24.061  1.00  0.00    -0.206 F 
ATOM     84  C   UNL A   1      52.494  25.807  25.727  1.00  0.00     0.060 A 
BRANCH  84  85
ATOM     85  S   UNL A   1      54.208  25.358  25.383  1.00  0.00     0.124 S 
ATOM     86  O   UNL A   1      54.909  26.020  26.476  1.00  0.00    -0.237 OA
ATOM     87  O   UNL A   1      54.157  23.901  25.445  1.00  0.00    -0.237 OA
ATOM     88  O   UNL A   1      54.442  25.915  24.054  1.00  0.00    -0.744 OA
ENDBRANCH  84  85
ENDBRANCH  52  77
BRANCH  64  89
ATOM     89  C   UNL A   1      46.962  32.492  28.482  1.00  0.00     0.058 A 
ATOM     90  C   UNL A   1      46.922  33.479  27.487  1.00  0.00     0.135 A 
ATOM     91  C   UNL A   1      47.424  32.861  29.757  1.00  0.00     0.135 A 
ATOM     92  F   UNL A   1      46.499  33.177  26.249  1.00  0.00    -0.206 F 
ATOM     93  C   UNL A   1      47.318  34.786  27.747  1.00  0.00     0.059 A 
ATOM     94  C   UNL A   1      47.795  34.170  30.048  1.00  0.00     0.059 A 
ATOM     95  F   UNL A   1      47.475  31.954  30.746  1.00  0.00    -0.206 F 
ATOM     96  C   UNL A   1      47.737  35.126  29.036  1.00  0.00     0.060 A 
BRANCH  96  97
ATOM     97  S   UNL A   1      48.163  36.847  29.373  1.00  0.00     0.124 S 
ATOM     98  O   UNL A   1      48.254  37.399  28.025  1.00  0.00    -0.237 OA
ATOM     99  O   UNL A   1      47.022  37.296  30.166  1.00  0.00    -0.237 OA
ATOM    100  O   UNL A   1      49.427  36.751  30.097  1.00  0.00    -0.744 OA
ENDBRANCH  96  97
ENDBRANCH  64  89
ENDBRANCH  38  39
ENDBRANCH  30  33
ENDBRANCH  28  29
ENDBRANCH  27  28
ENDBRANCH   1  27
TORSDOF 18
ENDMDL
