MODEL 1
REMARK VINA RESULT:     -12.6      0.000      0.000
REMARK SMILES COc1ccc(S(=O)(=O)N2CCC[C@H](C(=O)N3CCC[C@H](C(=O)NCCCCNC(=O)c4ccc(-c5c6nc(c(-c7c(F)cc(S(=O)(=O)[O-])cc7F)c7ccc([nH]7)c(-c7c(F)cc(S(=O)(=O)[O-])cc7F)c7nc(c(-c8c(F)cc(S(=O)(=O)[O-])cc8F)c8ccc5[nH]8)C=C7)C=C6)cc4)C3)C2)cc1
REMARK SMILES IDX 25 1 24 2 22 3 23 4 21 6 17 7 18 8 98 9 19 10 20 11 15 12
REMARK SMILES IDX 16 13 14 14 10 15 11 16 99 17 12 18 13 19 7 20 8 21 9 22
REMARK SMILES IDX 6 23 3 24 4 25 101 26 5 27 100 28 2 29 1 30 26 31 27 32
REMARK SMILES IDX 28 33 29 34 30 35 31 37 32 38 33 39 97 40 34 41 96 42 35 43
REMARK SMILES IDX 36 44 37 45 90 46 38 47 95 48 89 49 91 50 39 51 94 52 88 53
REMARK SMILES IDX 87 54 40 56 74 57 53 58 73 59 54 60 57 61 72 62 92 63 55 64
REMARK SMILES IDX 56 65 71 67 93 68 58 69 41 70 42 71 51 72 43 73 44 74 50 75
REMARK SMILES IDX 52 76 45 77 46 78 47 79 48 80 49 81 75 82 76 83 85 84 77 85
REMARK SMILES IDX 78 86 84 87 86 88 79 89 80 90 81 91 82 92 83 93 59 94 60 95
REMARK SMILES IDX 69 96 61 97 62 98 68 99 70 100 63 101 64 102 65 103 66 104
REMARK SMILES IDX 67 105
REMARK H PARENT 24 5 29 36 91 55 57 66
REMARK Flexibility Score: inf
ROOT
ATOM      1  C   UNL A   1      37.374  22.683  25.726  1.00  0.00     0.116 C 
ENDROOT
BRANCH   1   2
ATOM      2  N   UNL A   1      36.138  22.673  26.471  1.00  0.00    -0.356 N 
ATOM      3  C   UNL A   1      35.035  21.901  26.306  1.00  0.00     0.224 C 
ATOM      4  O   UNL A   1      34.186  21.940  27.203  1.00  0.00    -0.275 OA
ATOM      5  H   UNL A   1      36.088  23.323  27.209  1.00  0.00     0.163 HD
BRANCH   3   6
ATOM      6  C   UNL A   1      34.794  20.997  25.089  1.00  0.00     0.098 C 
ATOM      7  N   UNL A   1      33.114  21.786  23.389  1.00  0.00    -0.342 N 
ATOM      8  C   UNL A   1      32.370  20.533  23.466  1.00  0.00     0.119 C 
ATOM      9  C   UNL A   1      34.514  21.743  23.782  1.00  0.00     0.133 C 
ATOM     10  C   UNL A   1      32.483  19.850  24.823  1.00  0.00     0.022 C 
ATOM     11  C   UNL A   1      33.917  19.766  25.339  1.00  0.00     0.017 C 
BRANCH   7  12
ATOM     12  C   UNL A   1      32.417  22.954  23.150  1.00  0.00     0.227 C 
ATOM     13  O   UNL A   1      31.214  22.921  22.868  1.00  0.00    -0.275 OA
BRANCH  12  14
ATOM     14  C   UNL A   1      33.168  24.273  22.969  1.00  0.00     0.094 C 
ATOM     15  N   UNL A   1      31.858  25.538  24.633  1.00  0.00    -0.197 NA
ATOM     16  C   UNL A   1      31.135  26.318  23.614  1.00  0.00     0.102 C 
ATOM     17  C   UNL A   1      33.184  24.971  24.324  1.00  0.00     0.116 C 
ATOM     18  C   UNL A   1      31.635  26.193  22.179  1.00  0.00     0.018 C 
ATOM     19  C   UNL A   1      32.821  25.281  21.890  1.00  0.00     0.016 C 
BRANCH  15  20
ATOM     20  S   UNL A   1      31.494  25.868  26.259  1.00  0.00     0.243 S 
ATOM     21  O   UNL A   1      32.084  24.848  27.086  1.00  0.00    -0.207 OA
ATOM     22  O   UNL A   1      30.071  26.163  26.320  1.00  0.00    -0.207 OA
BRANCH  20  23
ATOM     23  C   UNL A   1      32.324  27.395  26.653  1.00  0.00     0.082 A 
ATOM     24  C   UNL A   1      33.484  29.893  27.124  1.00  0.00     0.118 A 
ATOM     25  C   UNL A   1      32.115  29.707  27.325  1.00  0.00     0.048 A 
ATOM     26  C   UNL A   1      34.280  28.813  26.745  1.00  0.00     0.048 A 
ATOM     27  C   UNL A   1      31.529  28.463  27.082  1.00  0.00     0.025 A 
ATOM     28  C   UNL A   1      33.700  27.567  26.504  1.00  0.00     0.025 A 
BRANCH  24  29
ATOM     29  O   UNL A   1      33.955  31.159  27.341  1.00  0.00    -0.497 OA
ATOM     30  C   UNL A   1      35.335  31.226  27.690  1.00  0.00     0.278 C 
ENDBRANCH  24  29
ENDBRANCH  20  23
ENDBRANCH  15  20
ENDBRANCH  12  14
ENDBRANCH   7  12
ENDBRANCH   3   6
ENDBRANCH   1   2
BRANCH   1  31
ATOM     31  C   UNL A   1      38.509  23.426  26.418  1.00  0.00     0.023 C 
BRANCH  31  32
ATOM     32  C   UNL A   1      39.655  22.533  26.876  1.00  0.00     0.023 C 
BRANCH  32  33
ATOM     33  C   UNL A   1      41.014  23.218  26.997  1.00  0.00     0.116 C 
BRANCH  33  34
ATOM     34  N   UNL A   1      41.344  24.118  25.899  1.00  0.00    -0.352 N 
ATOM     35  C   UNL A   1      41.558  25.480  25.967  1.00  0.00     0.251 C 
ATOM     36  H   UNL A   1      41.426  23.708  25.007  1.00  0.00     0.163 HD
ATOM     37  O   UNL A   1      41.755  26.151  24.961  1.00  0.00    -0.269 OA
BRANCH  35  38
ATOM     38  C   UNL A   1      41.504  26.124  27.295  1.00  0.00     0.039 A 
ATOM     39  C   UNL A   1      42.628  26.800  27.772  1.00  0.00     0.014 A 
ATOM     40  C   UNL A   1      40.294  26.166  27.994  1.00  0.00     0.014 A 
ATOM     41  C   UNL A   1      42.507  27.610  28.903  1.00  0.00     0.010 A 
ATOM     42  C   UNL A   1      40.157  27.035  29.069  1.00  0.00     0.010 A 
ATOM     43  C   UNL A   1      41.258  27.779  29.526  1.00  0.00    -0.014 A 
BRANCH  43  44
ATOM     44  C   UNL A   1      41.068  28.746  30.637  1.00  0.00     0.031 A 
ATOM     45  C   UNL A   1      41.917  28.646  31.874  1.00  0.00     0.074 A 
ATOM     46  C   UNL A   1      40.072  29.653  30.571  1.00  0.00     0.049 A 
ATOM     47  N   UNL A   1      41.840  29.330  32.986  1.00  0.00    -0.248 NA
ATOM     48  C   UNL A   1      42.966  27.613  31.875  1.00  0.00     0.031 C 
ATOM     49  C   UNL A   1      39.134  29.808  29.457  1.00  0.00     0.029 A 
ATOM     50  N   UNL A   1      39.673  30.612  31.470  1.00  0.00    -0.354 N 
ATOM     51  C   UNL A   1      42.809  28.794  33.826  1.00  0.00     0.074 A 
ATOM     52  C   UNL A   1      43.425  27.696  33.115  1.00  0.00     0.031 C 
ATOM     53  C   UNL A   1      38.290  30.818  29.725  1.00  0.00     0.029 A 
ATOM     54  C   UNL A   1      38.602  31.362  31.042  1.00  0.00     0.049 A 
ATOM     55  H   UNL A   1      40.113  30.750  32.340  1.00  0.00     0.167 HD
ATOM     56  C   UNL A   1      43.168  29.195  35.068  1.00  0.00     0.037 A 
ATOM     57  C   UNL A   1      37.948  32.374  31.644  1.00  0.00     0.037 A 
ATOM     58  C   UNL A   1      42.587  30.319  35.752  1.00  0.00     0.049 A 
ATOM     59  C   UNL A   1      38.394  32.831  33.006  1.00  0.00     0.074 A 
ATOM     60  C   UNL A   1      42.938  30.856  36.978  1.00  0.00     0.029 A 
ATOM     61  N   UNL A   1      41.536  31.083  35.265  1.00  0.00    -0.354 N 
ATOM     62  N   UNL A   1      39.359  32.357  33.758  1.00  0.00    -0.248 NA
ATOM     63  C   UNL A   1      37.669  33.962  33.600  1.00  0.00     0.031 C 
ATOM     64  C   UNL A   1      42.081  31.930  37.245  1.00  0.00     0.029 A 
ATOM     65  C   UNL A   1      41.219  32.081  36.171  1.00  0.00     0.049 A 
ATOM     66  H   UNL A   1      41.083  30.937  34.403  1.00  0.00     0.167 HD
ATOM     67  C   UNL A   1      39.373  33.148  34.901  1.00  0.00     0.074 A 
ATOM     68  C   UNL A   1      38.326  34.137  34.738  1.00  0.00     0.031 C 
ATOM     69  C   UNL A   1      40.181  33.064  35.986  1.00  0.00     0.037 A 
BRANCH  56  70
ATOM     70  C   UNL A   1      44.252  28.416  35.759  1.00  0.00     0.058 A 
ATOM     71  C   UNL A   1      45.609  28.728  35.579  1.00  0.00     0.135 A 
ATOM     72  C   UNL A   1      43.932  27.354  36.619  1.00  0.00     0.135 A 
ATOM     73  F   UNL A   1      45.971  29.723  34.753  1.00  0.00    -0.206 F 
ATOM     74  C   UNL A   1      46.613  27.992  36.199  1.00  0.00     0.059 A 
ATOM     75  C   UNL A   1      44.919  26.621  37.272  1.00  0.00     0.059 A 
ATOM     76  F   UNL A   1      42.650  27.013  36.826  1.00  0.00    -0.206 F 
ATOM     77  C   UNL A   1      46.258  26.936  37.040  1.00  0.00     0.060 A 
BRANCH  77  78
ATOM     78  S   UNL A   1      47.570  25.983  37.832  1.00  0.00     0.124 S 
ATOM     79  O   UNL A   1      46.802  24.944  38.512  1.00  0.00    -0.237 OA
ATOM     80  O   UNL A   1      48.368  25.539  36.694  1.00  0.00    -0.237 OA
ATOM     81  O   UNL A   1      48.217  26.957  38.705  1.00  0.00    -0.744 OA
ENDBRANCH  77  78
ENDBRANCH  56  70
BRANCH  57  82
ATOM     82  C   UNL A   1      36.824  33.054  30.946  1.00  0.00     0.058 A 
ATOM     83  C   UNL A   1      35.494  32.793  31.310  1.00  0.00     0.135 A 
ATOM     84  C   UNL A   1      37.051  33.979  29.916  1.00  0.00     0.135 A 
ATOM     85  F   UNL A   1      35.227  31.911  32.285  1.00  0.00    -0.206 F 
ATOM     86  C   UNL A   1      34.428  33.411  30.667  1.00  0.00     0.059 A 
ATOM     87  C   UNL A   1      36.002  34.627  29.272  1.00  0.00     0.059 A 
ATOM     88  F   UNL A   1      38.306  34.275  29.543  1.00  0.00    -0.206 F 
ATOM     89  C   UNL A   1      34.692  34.328  29.648  1.00  0.00     0.060 A 
BRANCH  89  90
ATOM     90  S   UNL A   1      33.302  35.162  28.851  1.00  0.00     0.124 S 
ATOM     91  O   UNL A   1      32.739  34.087  28.042  1.00  0.00    -0.237 OA
ATOM     92  O   UNL A   1      32.501  35.590  29.993  1.00  0.00    -0.237 OA
ATOM     93  O   UNL A   1      33.944  36.244  28.108  1.00  0.00    -0.744 OA
ENDBRANCH  89  90
ENDBRANCH  57  82
BRANCH  69  94
ATOM     94  C   UNL A   1      39.990  34.086  37.069  1.00  0.00     0.058 A 
ATOM     95  C   UNL A   1      40.680  35.308  37.055  1.00  0.00     0.135 A 
ATOM     96  C   UNL A   1      39.065  33.863  38.101  1.00  0.00     0.135 A 
ATOM     97  F   UNL A   1      41.580  35.565  36.093  1.00  0.00    -0.206 F 
ATOM     98  C   UNL A   1      40.470  36.270  38.039  1.00  0.00     0.059 A 
ATOM     99  C   UNL A   1      38.824  34.819  39.082  1.00  0.00     0.059 A 
ATOM    100  F   UNL A   1      38.375  32.713  38.153  1.00  0.00    -0.206 F 
ATOM    101  C   UNL A   1      39.538  36.016  39.047  1.00  0.00     0.060 A 
BRANCH 101 102
ATOM    102  S   UNL A   1      39.242  37.287  40.295  1.00  0.00     0.124 S 
ATOM    103  O   UNL A   1      38.401  38.228  39.562  1.00  0.00    -0.237 OA
ATOM    104  O   UNL A   1      38.578  36.537  41.357  1.00  0.00    -0.237 OA
ATOM    105  O   UNL A   1      40.584  37.763  40.618  1.00  0.00    -0.744 OA
ENDBRANCH 101 102
ENDBRANCH  69  94
ENDBRANCH  43  44
ENDBRANCH  35  38
ENDBRANCH  33  34
ENDBRANCH  32  33
ENDBRANCH  31  32
ENDBRANCH   1  31
TORSDOF 19
ENDMDL
MODEL 2
REMARK VINA RESULT:     -12.3      6.197     11.762
REMARK SMILES COc1ccc(S(=O)(=O)N2CCC[C@H](C(=O)N3CCC[C@H](C(=O)NCCCCNC(=O)c4ccc(-c5c6nc(c(-c7c(F)cc(S(=O)(=O)[O-])cc7F)c7ccc([nH]7)c(-c7c(F)cc(S(=O)(=O)[O-])cc7F)c7nc(c(-c8c(F)cc(S(=O)(=O)[O-])cc8F)c8ccc5[nH]8)C=C7)C=C6)cc4)C3)C2)cc1
REMARK SMILES IDX 25 1 24 2 22 3 23 4 21 6 17 7 18 8 98 9 19 10 20 11 15 12
REMARK SMILES IDX 16 13 14 14 10 15 11 16 99 17 12 18 13 19 7 20 8 21 9 22
REMARK SMILES IDX 6 23 3 24 4 25 101 26 5 27 100 28 2 29 1 30 26 31 27 32
REMARK SMILES IDX 28 33 29 34 30 35 31 37 32 38 33 39 97 40 34 41 96 42 35 43
REMARK SMILES IDX 36 44 37 45 90 46 38 47 95 48 89 49 91 50 39 51 94 52 88 53
REMARK SMILES IDX 87 54 40 56 74 57 53 58 73 59 54 60 57 61 72 62 92 63 55 64
REMARK SMILES IDX 56 65 71 67 93 68 58 69 41 70 42 71 51 72 43 73 44 74 50 75
REMARK SMILES IDX 52 76 45 77 46 78 47 79 48 80 49 81 75 82 76 83 85 84 77 85
REMARK SMILES IDX 78 86 84 87 86 88 79 89 80 90 81 91 82 92 83 93 59 94 60 95
REMARK SMILES IDX 69 96 61 97 62 98 68 99 70 100 63 101 64 102 65 103 66 104
REMARK SMILES IDX 67 105
REMARK H PARENT 24 5 29 36 91 55 57 66
REMARK Flexibility Score: inf
ROOT
ATOM      1  C   UNL A   1      33.871  29.230  26.740  1.00  0.00     0.116 C 
ENDROOT
BRANCH   1   2
ATOM      2  N   UNL A   1      33.976  28.955  25.327  1.00  0.00    -0.356 N 
ATOM      3  C   UNL A   1      33.007  28.916  24.379  1.00  0.00     0.224 C 
ATOM      4  O   UNL A   1      33.379  28.862  23.202  1.00  0.00    -0.275 OA
ATOM      5  H   UNL A   1      34.887  28.768  25.004  1.00  0.00     0.163 HD
BRANCH   3   6
ATOM      6  C   UNL A   1      31.503  28.938  24.687  1.00  0.00     0.098 C 
ATOM      7  N   UNL A   1      30.283  26.738  24.601  1.00  0.00    -0.342 N 
ATOM      8  C   UNL A   1      29.290  27.267  23.671  1.00  0.00     0.119 C 
ATOM      9  C   UNL A   1      30.984  27.705  25.432  1.00  0.00     0.133 C 
ATOM     10  C   UNL A   1      29.831  28.381  22.785  1.00  0.00     0.022 C 
ATOM     11  C   UNL A   1      30.602  29.448  23.559  1.00  0.00     0.017 C 
BRANCH   7  12
ATOM     12  C   UNL A   1      30.640  25.408  24.499  1.00  0.00     0.227 C 
ATOM     13  O   UNL A   1      30.838  24.732  25.516  1.00  0.00    -0.275 OA
BRANCH  12  14
ATOM     14  C   UNL A   1      31.056  24.825  23.148  1.00  0.00     0.094 C 
ATOM     15  N   UNL A   1      32.881  23.421  24.033  1.00  0.00    -0.197 NA
ATOM     16  C   UNL A   1      33.941  24.288  23.489  1.00  0.00     0.102 C 
ATOM     17  C   UNL A   1      31.548  23.405  23.405  1.00  0.00     0.116 C 
ATOM     18  C   UNL A   1      33.498  25.387  22.529  1.00  0.00     0.018 C 
ATOM     19  C   UNL A   1      32.016  25.526  22.205  1.00  0.00     0.016 C 
BRANCH  15  20
ATOM     20  S   UNL A   1      33.378  22.036  24.882  1.00  0.00     0.243 S 
ATOM     21  O   UNL A   1      33.192  20.882  24.041  1.00  0.00    -0.207 OA
ATOM     22  O   UNL A   1      32.777  22.114  26.204  1.00  0.00    -0.207 OA
BRANCH  20  23
ATOM     23  C   UNL A   1      35.133  22.211  25.134  1.00  0.00     0.082 A 
ATOM     24  C   UNL A   1      37.884  22.275  25.621  1.00  0.00     0.118 A 
ATOM     25  C   UNL A   1      37.334  21.261  24.834  1.00  0.00     0.048 A 
ATOM     26  C   UNL A   1      37.063  23.289  26.113  1.00  0.00     0.048 A 
ATOM     27  C   UNL A   1      35.959  21.219  24.597  1.00  0.00     0.025 A 
ATOM     28  C   UNL A   1      35.689  23.254  25.876  1.00  0.00     0.025 A 
BRANCH  24  29
ATOM     29  O   UNL A   1      39.232  22.201  25.838  1.00  0.00    -0.497 OA
ATOM     30  C   UNL A   1      39.671  22.806  27.052  1.00  0.00     0.278 C 
ENDBRANCH  24  29
ENDBRANCH  20  23
ENDBRANCH  15  20
ENDBRANCH  12  14
ENDBRANCH   7  12
ENDBRANCH   3   6
ENDBRANCH   1   2
BRANCH   1  31
ATOM     31  C   UNL A   1      33.392  30.639  27.065  1.00  0.00     0.023 C 
BRANCH  31  32
ATOM     32  C   UNL A   1      34.470  31.551  27.635  1.00  0.00     0.023 C 
BRANCH  32  33
ATOM     33  C   UNL A   1      35.675  30.843  28.249  1.00  0.00     0.116 C 
BRANCH  33  34
ATOM     34  N   UNL A   1      35.509  30.455  29.644  1.00  0.00    -0.352 N 
ATOM     35  C   UNL A   1      36.490  30.035  30.519  1.00  0.00     0.251 C 
ATOM     36  H   UNL A   1      34.593  30.497  30.004  1.00  0.00     0.163 HD
ATOM     37  O   UNL A   1      36.222  29.659  31.654  1.00  0.00    -0.269 OA
BRANCH  35  38
ATOM     38  C   UNL A   1      37.886  30.014  30.036  1.00  0.00     0.039 A 
ATOM     39  C   UNL A   1      38.927  30.187  30.950  1.00  0.00     0.014 A 
ATOM     40  C   UNL A   1      38.150  29.688  28.703  1.00  0.00     0.014 A 
ATOM     41  C   UNL A   1      40.238  29.926  30.546  1.00  0.00     0.010 A 
ATOM     42  C   UNL A   1      39.445  29.351  28.328  1.00  0.00     0.010 A 
ATOM     43  C   UNL A   1      40.501  29.452  29.250  1.00  0.00    -0.014 A 
BRANCH  43  44
ATOM     44  C   UNL A   1      41.863  29.026  28.839  1.00  0.00     0.031 A 
ATOM     45  C   UNL A   1      42.980  30.032  28.781  1.00  0.00     0.074 A 
ATOM     46  C   UNL A   1      42.074  27.758  28.431  1.00  0.00     0.049 A 
ATOM     47  N   UNL A   1      44.207  29.880  28.358  1.00  0.00    -0.248 NA
ATOM     48  C   UNL A   1      42.660  31.400  29.221  1.00  0.00     0.031 C 
ATOM     49  C   UNL A   1      41.059  26.703  28.374  1.00  0.00     0.029 A 
ATOM     50  N   UNL A   1      43.213  27.141  27.973  1.00  0.00    -0.354 N 
ATOM     51  C   UNL A   1      44.798  31.134  28.454  1.00  0.00     0.074 A 
ATOM     52  C   UNL A   1      43.780  32.046  28.928  1.00  0.00     0.031 C 
ATOM     53  C   UNL A   1      41.625  25.566  27.937  1.00  0.00     0.029 A 
ATOM     54  C   UNL A   1      43.034  25.816  27.650  1.00  0.00     0.049 A 
ATOM     55  H   UNL A   1      44.077  27.605  27.885  1.00  0.00     0.167 HD
ATOM     56  C   UNL A   1      46.078  31.490  28.195  1.00  0.00     0.037 A 
ATOM     57  C   UNL A   1      43.908  24.906  27.178  1.00  0.00     0.037 A 
ATOM     58  C   UNL A   1      47.100  30.570  27.772  1.00  0.00     0.049 A 
ATOM     59  C   UNL A   1      45.336  25.314  26.938  1.00  0.00     0.074 A 
ATOM     60  C   UNL A   1      48.446  30.815  27.562  1.00  0.00     0.029 A 
ATOM     61  N   UNL A   1      46.891  29.225  27.501  1.00  0.00    -0.354 N 
ATOM     62  N   UNL A   1      45.894  26.490  27.102  1.00  0.00    -0.248 NA
ATOM     63  C   UNL A   1      46.255  24.273  26.457  1.00  0.00     0.031 C 
ATOM     64  C   UNL A   1      49.045  29.625  27.139  1.00  0.00     0.029 A 
ATOM     65  C   UNL A   1      48.080  28.631  27.116  1.00  0.00     0.049 A 
ATOM     66  H   UNL A   1      46.024  28.763  27.572  1.00  0.00     0.167 HD
ATOM     67  C   UNL A   1      47.234  26.324  26.768  1.00  0.00     0.074 A 
ATOM     68  C   UNL A   1      47.404  24.932  26.403  1.00  0.00     0.031 C 
ATOM     69  C   UNL A   1      48.232  27.240  26.767  1.00  0.00     0.037 A 
BRANCH  56  70
ATOM     70  C   UNL A   1      46.443  32.936  28.376  1.00  0.00     0.058 A 
ATOM     71  C   UNL A   1      46.931  33.423  29.599  1.00  0.00     0.135 A 
ATOM     72  C   UNL A   1      46.317  33.843  27.312  1.00  0.00     0.135 A 
ATOM     73  F   UNL A   1      47.054  32.601  30.653  1.00  0.00    -0.206 F 
ATOM     74  C   UNL A   1      47.246  34.767  29.774  1.00  0.00     0.059 A 
ATOM     75  C   UNL A   1      46.653  35.187  27.456  1.00  0.00     0.059 A 
ATOM     76  F   UNL A   1      45.856  33.431  26.121  1.00  0.00    -0.206 F 
ATOM     77  C   UNL A   1      47.098  35.642  28.697  1.00  0.00     0.060 A 
BRANCH  77  78
ATOM     78  S   UNL A   1      47.502  37.385  28.938  1.00  0.00     0.124 S 
ATOM     79  O   UNL A   1      48.481  37.604  27.878  1.00  0.00    -0.237 OA
ATOM     80  O   UNL A   1      46.210  38.036  28.752  1.00  0.00    -0.237 OA
ATOM     81  O   UNL A   1      48.030  37.425  30.298  1.00  0.00    -0.744 OA
ENDBRANCH  77  78
ENDBRANCH  56  70
BRANCH  57  82
ATOM     82  C   UNL A   1      43.468  23.506  26.935  1.00  0.00     0.058 A 
ATOM     83  C   UNL A   1      43.257  23.039  25.629  1.00  0.00     0.135 A 
ATOM     84  C   UNL A   1      43.261  22.608  27.993  1.00  0.00     0.135 A 
ATOM     85  F   UNL A   1      43.437  23.863  24.585  1.00  0.00    -0.206 F 
ATOM     86  C   UNL A   1      42.839  21.736  25.380  1.00  0.00     0.059 A 
ATOM     87  C   UNL A   1      42.863  21.294  27.768  1.00  0.00     0.059 A 
ATOM     88  F   UNL A   1      43.465  23.003  29.259  1.00  0.00    -0.206 F 
ATOM     89  C   UNL A   1      42.645  20.870  26.457  1.00  0.00     0.060 A 
BRANCH  89  90
ATOM     90  S   UNL A   1      42.148  19.166  26.120  1.00  0.00     0.124 S 
ATOM     91  O   UNL A   1      43.021  18.821  25.005  1.00  0.00    -0.237 OA
ATOM     92  O   UNL A   1      42.438  18.504  27.389  1.00  0.00    -0.237 OA
ATOM     93  O   UNL A   1      40.729  19.290  25.799  1.00  0.00    -0.744 OA
ENDBRANCH  89  90
ENDBRANCH  57  82
BRANCH  69  94
ATOM     94  C   UNL A   1      49.606  26.764  26.391  1.00  0.00     0.058 A 
ATOM     95  C   UNL A   1      50.397  26.026  27.283  1.00  0.00     0.135 A 
ATOM     96  C   UNL A   1      50.111  27.002  25.103  1.00  0.00     0.135 A 
ATOM     97  F   UNL A   1      49.961  25.779  28.529  1.00  0.00    -0.206 F 
ATOM     98  C   UNL A   1      51.653  25.552  26.917  1.00  0.00     0.059 A 
ATOM     99  C   UNL A   1      51.354  26.519  24.708  1.00  0.00     0.059 A 
ATOM    100  F   UNL A   1      49.388  27.696  24.210  1.00  0.00    -0.206 F 
ATOM    101  C   UNL A   1      52.122  25.802  25.626  1.00  0.00     0.060 A 
BRANCH 101 102
ATOM    102  S   UNL A   1      53.734  25.147  25.145  1.00  0.00     0.124 S 
ATOM    103  O   UNL A   1      54.603  25.729  26.163  1.00  0.00    -0.237 OA
ATOM    104  O   UNL A   1      53.528  23.705  25.238  1.00  0.00    -0.237 OA
ATOM    105  O   UNL A   1      53.918  25.661  23.791  1.00  0.00    -0.744 OA
ENDBRANCH 101 102
ENDBRANCH  69  94
ENDBRANCH  43  44
ENDBRANCH  35  38
ENDBRANCH  33  34
ENDBRANCH  32  33
ENDBRANCH  31  32
ENDBRANCH   1  31
TORSDOF 19
ENDMDL
MODEL 3
REMARK VINA RESULT:     -12.2      1.047      7.943
REMARK SMILES COc1ccc(S(=O)(=O)N2CCC[C@H](C(=O)N3CCC[C@H](C(=O)NCCCCNC(=O)c4ccc(-c5c6nc(c(-c7c(F)cc(S(=O)(=O)[O-])cc7F)c7ccc([nH]7)c(-c7c(F)cc(S(=O)(=O)[O-])cc7F)c7nc(c(-c8c(F)cc(S(=O)(=O)[O-])cc8F)c8ccc5[nH]8)C=C7)C=C6)cc4)C3)C2)cc1
REMARK SMILES IDX 25 1 24 2 22 3 23 4 21 6 17 7 18 8 98 9 19 10 20 11 15 12
REMARK SMILES IDX 16 13 14 14 10 15 11 16 99 17 12 18 13 19 7 20 8 21 9 22
REMARK SMILES IDX 6 23 3 24 4 25 101 26 5 27 100 28 2 29 1 30 26 31 27 32
REMARK SMILES IDX 28 33 29 34 30 35 31 37 32 38 33 39 97 40 34 41 96 42 35 43
REMARK SMILES IDX 36 44 37 45 90 46 38 47 95 48 89 49 91 50 39 51 94 52 88 53
REMARK SMILES IDX 87 54 40 56 74 57 53 58 73 59 54 60 57 61 72 62 92 63 55 64
REMARK SMILES IDX 56 65 71 67 93 68 58 69 41 70 42 71 51 72 43 73 44 74 50 75
REMARK SMILES IDX 52 76 45 77 46 78 47 79 48 80 49 81 75 82 76 83 85 84 77 85
REMARK SMILES IDX 78 86 84 87 86 88 79 89 80 90 81 91 82 92 83 93 59 94 60 95
REMARK SMILES IDX 69 96 61 97 62 98 68 99 70 100 63 101 64 102 65 103 66 104
REMARK SMILES IDX 67 105
REMARK H PARENT 24 5 29 36 91 55 57 66
REMARK Flexibility Score: inf
ROOT
ATOM      1  C   UNL A   1      37.451  23.030  25.714  1.00  0.00     0.116 C 
ENDROOT
BRANCH   1   2
ATOM      2  N   UNL A   1      36.195  22.998  26.423  1.00  0.00    -0.356 N 
ATOM      3  C   UNL A   1      35.088  22.249  26.188  1.00  0.00     0.224 C 
ATOM      4  O   UNL A   1      34.215  22.254  27.063  1.00  0.00    -0.275 OA
ATOM      5  H   UNL A   1      36.131  23.612  27.190  1.00  0.00     0.163 HD
BRANCH   3   6
ATOM      6  C   UNL A   1      34.872  21.409  24.922  1.00  0.00     0.098 C 
ATOM      7  N   UNL A   1      33.111  22.201  23.308  1.00  0.00    -0.342 N 
ATOM      8  C   UNL A   1      32.443  20.904  23.320  1.00  0.00     0.119 C 
ATOM      9  C   UNL A   1      34.520  22.217  23.670  1.00  0.00     0.133 C 
ATOM     10  C   UNL A   1      32.626  20.147  24.628  1.00  0.00     0.022 C 
ATOM     11  C   UNL A   1      34.074  20.116  25.111  1.00  0.00     0.017 C 
BRANCH   7  12
ATOM     12  C   UNL A   1      32.342  23.339  23.157  1.00  0.00     0.227 C 
ATOM     13  O   UNL A   1      32.787  24.321  22.551  1.00  0.00    -0.275 OA
BRANCH  12  14
ATOM     14  C   UNL A   1      31.049  23.504  23.956  1.00  0.00     0.094 C 
ATOM     15  N   UNL A   1      31.367  25.899  24.453  1.00  0.00    -0.197 NA
ATOM     16  C   UNL A   1      31.694  25.661  25.869  1.00  0.00     0.102 C 
ATOM     17  C   UNL A   1      30.549  24.923  23.711  1.00  0.00     0.116 C 
ATOM     18  C   UNL A   1      31.472  24.247  26.392  1.00  0.00     0.018 C 
ATOM     19  C   UNL A   1      30.945  23.184  25.436  1.00  0.00     0.016 C 
BRANCH  15  20
ATOM     20  S   UNL A   1      31.351  27.514  23.926  1.00  0.00     0.243 S 
ATOM     21  O   UNL A   1      29.994  27.997  23.943  1.00  0.00    -0.207 OA
ATOM     22  O   UNL A   1      32.160  27.572  22.718  1.00  0.00    -0.207 OA
BRANCH  20  23
ATOM     23  C   UNL A   1      32.244  28.446  25.154  1.00  0.00     0.082 A 
ATOM     24  C   UNL A   1      33.561  30.098  26.983  1.00  0.00     0.118 A 
ATOM     25  C   UNL A   1      32.174  30.174  26.842  1.00  0.00     0.048 A 
ATOM     26  C   UNL A   1      34.279  29.154  26.251  1.00  0.00     0.048 A 
ATOM     27  C   UNL A   1      31.512  29.358  25.922  1.00  0.00     0.025 A 
ATOM     28  C   UNL A   1      33.622  28.333  25.334  1.00  0.00     0.025 A 
BRANCH  24  29
ATOM     29  O   UNL A   1      34.122  30.973  27.872  1.00  0.00    -0.497 OA
ATOM     30  C   UNL A   1      35.544  30.909  27.950  1.00  0.00     0.278 C 
ENDBRANCH  24  29
ENDBRANCH  20  23
ENDBRANCH  15  20
ENDBRANCH  12  14
ENDBRANCH   7  12
ENDBRANCH   3   6
ENDBRANCH   1   2
BRANCH   1  31
ATOM     31  C   UNL A   1      38.540  23.829  26.418  1.00  0.00     0.023 C 
BRANCH  31  32
ATOM     32  C   UNL A   1      39.654  22.978  27.015  1.00  0.00     0.023 C 
BRANCH  32  33
ATOM     33  C   UNL A   1      41.044  23.611  27.001  1.00  0.00     0.116 C 
BRANCH  33  34
ATOM     34  N   UNL A   1      41.272  24.558  25.917  1.00  0.00    -0.352 N 
ATOM     35  C   UNL A   1      41.480  25.919  26.024  1.00  0.00     0.251 C 
ATOM     36  H   UNL A   1      41.279  24.187  25.006  1.00  0.00     0.163 HD
ATOM     37  O   UNL A   1      41.586  26.633  25.035  1.00  0.00    -0.269 OA
BRANCH  35  38
ATOM     38  C   UNL A   1      41.536  26.506  27.378  1.00  0.00     0.039 A 
ATOM     39  C   UNL A   1      42.441  27.537  27.639  1.00  0.00     0.014 A 
ATOM     40  C   UNL A   1      40.595  26.121  28.337  1.00  0.00     0.014 A 
ATOM     41  C   UNL A   1      42.331  28.256  28.831  1.00  0.00     0.010 A 
ATOM     42  C   UNL A   1      40.437  26.890  29.484  1.00  0.00     0.010 A 
ATOM     43  C   UNL A   1      41.293  27.975  29.736  1.00  0.00    -0.014 A 
BRANCH  43  44
ATOM     44  C   UNL A   1      41.061  28.817  30.938  1.00  0.00     0.031 A 
ATOM     45  C   UNL A   1      39.948  29.829  30.943  1.00  0.00     0.074 A 
ATOM     46  C   UNL A   1      41.907  28.736  31.984  1.00  0.00     0.049 A 
ATOM     47  N   UNL A   1      39.646  30.719  31.852  1.00  0.00    -0.248 NA
ATOM     48  C   UNL A   1      39.085  29.869  29.752  1.00  0.00     0.031 C 
ATOM     49  C   UNL A   1      43.067  27.845  32.075  1.00  0.00     0.029 A 
ATOM     50  N   UNL A   1      41.931  29.425  33.173  1.00  0.00    -0.354 N 
ATOM     51  C   UNL A   1      38.580  31.442  31.332  1.00  0.00     0.074 A 
ATOM     52  C   UNL A   1      38.319  30.919  30.009  1.00  0.00     0.031 C 
ATOM     53  C   UNL A   1      43.669  28.021  33.262  1.00  0.00     0.029 A 
ATOM     54  C   UNL A   1      42.962  29.058  34.006  1.00  0.00     0.049 A 
ATOM     55  H   UNL A   1      41.271  30.116  33.406  1.00  0.00     0.167 HD
ATOM     56  C   UNL A   1      37.866  32.434  31.913  1.00  0.00     0.037 A 
ATOM     57  C   UNL A   1      43.298  29.506  35.231  1.00  0.00     0.037 A 
ATOM     58  C   UNL A   1      38.096  32.917  33.249  1.00  0.00     0.049 A 
ATOM     59  C   UNL A   1      42.464  30.580  35.875  1.00  0.00     0.074 A 
ATOM     60  C   UNL A   1      37.376  33.862  33.959  1.00  0.00     0.029 A 
ATOM     61  N   UNL A   1      39.121  32.487  34.079  1.00  0.00    -0.354 N 
ATOM     62  N   UNL A   1      41.414  31.204  35.396  1.00  0.00    -0.248 NA
ATOM     63  C   UNL A   1      42.853  31.006  37.226  1.00  0.00     0.031 C 
ATOM     64  C   UNL A   1      37.982  34.022  35.210  1.00  0.00     0.029 A 
ATOM     65  C   UNL A   1      39.059  33.154  35.290  1.00  0.00     0.049 A 
ATOM     66  H   UNL A   1      39.793  31.808  33.842  1.00  0.00     0.167 HD
ATOM     67  C   UNL A   1      41.003  32.078  36.396  1.00  0.00     0.074 A 
ATOM     68  C   UNL A   1      41.911  31.896  37.510  1.00  0.00     0.031 C 
ATOM     69  C   UNL A   1      39.965  32.951  36.393  1.00  0.00     0.037 A 
BRANCH  56  70
ATOM     70  C   UNL A   1      36.760  33.053  31.107  1.00  0.00     0.058 A 
ATOM     71  C   UNL A   1      37.028  33.930  30.044  1.00  0.00     0.135 A 
ATOM     72  C   UNL A   1      35.417  32.758  31.390  1.00  0.00     0.135 A 
ATOM     73  F   UNL A   1      38.294  34.260  29.742  1.00  0.00    -0.206 F 
ATOM     74  C   UNL A   1      36.003  34.523  29.313  1.00  0.00     0.059 A 
ATOM     75  C   UNL A   1      34.376  33.317  30.654  1.00  0.00     0.059 A 
ATOM     76  F   UNL A   1      35.104  31.926  32.396  1.00  0.00    -0.206 F 
ATOM     77  C   UNL A   1      34.680  34.214  29.629  1.00  0.00     0.060 A 
BRANCH  77  78
ATOM     78  S   UNL A   1      33.359  34.995  28.679  1.00  0.00     0.124 S 
ATOM     79  O   UNL A   1      32.459  35.433  29.742  1.00  0.00    -0.237 OA
ATOM     80  O   UNL A   1      34.066  36.057  27.970  1.00  0.00    -0.237 OA
ATOM     81  O   UNL A   1      32.858  33.911  27.840  1.00  0.00    -0.744 OA
ENDBRANCH  77  78
ENDBRANCH  56  70
BRANCH  57  82
ATOM     82  C   UNL A   1      44.458  28.915  35.949  1.00  0.00     0.058 A 
ATOM     83  C   UNL A   1      44.284  27.817  36.806  1.00  0.00     0.135 A 
ATOM     84  C   UNL A   1      45.757  29.422  35.790  1.00  0.00     0.135 A 
ATOM     85  F   UNL A   1      43.060  27.301  36.994  1.00  0.00    -0.206 F 
ATOM     86  C   UNL A   1      45.354  27.252  37.493  1.00  0.00     0.059 A 
ATOM     87  C   UNL A   1      46.846  28.861  36.450  1.00  0.00     0.059 A 
ATOM     88  F   UNL A   1      45.976  30.460  34.969  1.00  0.00    -0.206 F 
ATOM     89  C   UNL A   1      46.632  27.782  37.308  1.00  0.00     0.060 A 
BRANCH  89  90
ATOM     90  S   UNL A   1      48.022  27.012  38.167  1.00  0.00     0.124 S 
ATOM     91  O   UNL A   1      48.814  26.508  37.052  1.00  0.00    -0.237 OA
ATOM     92  O   UNL A   1      48.593  28.137  38.901  1.00  0.00    -0.237 OA
ATOM     93  O   UNL A   1      47.379  25.996  38.997  1.00  0.00    -0.744 OA
ENDBRANCH  89  90
ENDBRANCH  57  82
BRANCH  69  94
ATOM     94  C   UNL A   1      39.734  33.752  37.641  1.00  0.00     0.058 A 
ATOM     95  C   UNL A   1      38.903  33.285  38.670  1.00  0.00     0.135 A 
ATOM     96  C   UNL A   1      40.396  34.975  37.832  1.00  0.00     0.135 A 
ATOM     97  F   UNL A   1      38.242  32.125  38.531  1.00  0.00    -0.206 F 
ATOM     98  C   UNL A   1      38.723  34.012  39.843  1.00  0.00     0.059 A 
ATOM     99  C   UNL A   1      40.248  35.708  39.005  1.00  0.00     0.059 A 
ATOM    100  F   UNL A   1      41.209  35.461  36.880  1.00  0.00    -0.206 F 
ATOM    101  C   UNL A   1      39.402  35.222  40.001  1.00  0.00     0.060 A 
BRANCH 101 102
ATOM    102  S   UNL A   1      39.195  36.137  41.543  1.00  0.00     0.124 S 
ATOM    103  O   UNL A   1      40.363  35.701  42.302  1.00  0.00    -0.237 OA
ATOM    104  O   UNL A   1      39.216  37.525  41.091  1.00  0.00    -0.237 OA
ATOM    105  O   UNL A   1      37.907  35.668  42.046  1.00  0.00    -0.744 OA
ENDBRANCH 101 102
ENDBRANCH  69  94
ENDBRANCH  43  44
ENDBRANCH  35  38
ENDBRANCH  33  34
ENDBRANCH  32  33
ENDBRANCH  31  32
ENDBRANCH   1  31
TORSDOF 19
ENDMDL
