MODEL 1
REMARK VINA RESULT:     -10.0      0.000      0.000
REMARK SMILES O=C(NCCCCNC(=O)c1cncc(OCCCc2ccccc2)n1)c1ccc(-c2c3nc(c(-c4c(F)cc(S(=O)(=O)[O-])cc4F)c4ccc([nH]4)c(-c4c(F)cc(S(=O)(=O)[O-])cc4F)c4nc(c(-c5c(F)cc(S(=O)(=O)[O-])cc5F)c5ccc2[nH]5)C=C4)C=C3)cc1
REMARK SMILES IDX 6 1 5 2 4 3 3 4 1 5 2 6 27 8 28 9 92 10 29 11 91 12 30 13
REMARK SMILES IDX 31 14 32 15 85 16 33 17 90 18 84 19 86 20 34 21 89 22 83 23
REMARK SMILES IDX 82 24 35 26 69 27 48 28 68 29 49 30 52 31 67 32 87 33 50 34
REMARK SMILES IDX 51 35 66 37 88 38 53 39 36 40 37 41 46 42 38 43 39 44 45 45
REMARK SMILES IDX 47 46 40 47 41 48 42 49 43 50 44 51 70 52 71 53 80 54 72 55
REMARK SMILES IDX 73 56 79 57 81 58 74 59 75 60 76 61 77 62 78 63 54 64 55 65
REMARK SMILES IDX 64 66 56 67 57 68 63 69 65 70 58 71 59 72 60 73 61 74 62 75
REMARK SMILES IDX 7 76 8 77 9 78 10 80 11 81 12 82 26 83 13 84 15 85 14 86
REMARK SMILES IDX 16 87 17 88 18 89 19 90 20 91 21 92 25 93 22 94 24 95 23 96
REMARK H PARENT 3 7 86 25 52 36 8 79
REMARK Flexibility Score: inf
ROOT
ATOM      1  C   UNL A   1      33.357  34.655  29.189  1.00  0.00     0.023 C 
ENDROOT
BRANCH   1   2
ATOM      2  C   UNL A   1      34.156  33.399  29.532  1.00  0.00     0.023 C 
BRANCH   2   3
ATOM      3  C   UNL A   1      34.713  32.620  28.347  1.00  0.00     0.116 C 
BRANCH   3   4
ATOM      4  N   UNL A   1      34.018  31.365  28.103  1.00  0.00    -0.352 N 
ATOM      5  O   UNL A   1      33.778  29.171  27.670  1.00  0.00    -0.269 OA
ATOM      6  C   UNL A   1      34.520  30.089  27.992  1.00  0.00     0.251 C 
ATOM      7  H   UNL A   1      33.042  31.442  28.003  1.00  0.00     0.163 HD
BRANCH   6   8
ATOM      8  C   UNL A   1      35.960  29.835  28.234  1.00  0.00     0.039 A 
ATOM      9  C   UNL A   1      36.910  30.097  27.246  1.00  0.00     0.014 A 
ATOM     10  C   UNL A   1      36.362  29.330  29.476  1.00  0.00     0.014 A 
ATOM     11  C   UNL A   1      38.232  29.714  27.440  1.00  0.00     0.010 A 
ATOM     12  C   UNL A   1      37.709  29.028  29.700  1.00  0.00     0.010 A 
ATOM     13  C   UNL A   1      38.652  29.188  28.674  1.00  0.00    -0.014 A 
BRANCH  13  14
ATOM     14  C   UNL A   1      40.091  28.884  28.883  1.00  0.00     0.031 A 
ATOM     15  C   UNL A   1      40.674  27.551  28.500  1.00  0.00     0.074 A 
ATOM     16  C   UNL A   1      40.879  29.846  29.406  1.00  0.00     0.049 A 
ATOM     17  N   UNL A   1      41.912  27.135  28.609  1.00  0.00    -0.248 NA
ATOM     18  C   UNL A   1      39.757  26.553  27.930  1.00  0.00     0.031 C 
ATOM     19  C   UNL A   1      40.418  31.170  29.831  1.00  0.00     0.029 A 
ATOM     20  N   UNL A   1      42.226  29.869  29.656  1.00  0.00    -0.354 N 
ATOM     21  C   UNL A   1      41.921  25.826  28.139  1.00  0.00     0.074 A 
ATOM     22  C   UNL A   1      40.560  25.508  27.762  1.00  0.00     0.031 C 
ATOM     23  C   UNL A   1      41.469  31.890  30.252  1.00  0.00     0.029 A 
ATOM     24  C   UNL A   1      42.666  31.060  30.185  1.00  0.00     0.049 A 
ATOM     25  H   UNL A   1      42.822  29.107  29.475  1.00  0.00     0.167 HD
ATOM     26  C   UNL A   1      42.970  24.976  28.029  1.00  0.00     0.037 A 
ATOM     27  C   UNL A   1      43.891  31.438  30.594  1.00  0.00     0.037 A 
ATOM     28  C   UNL A   1      44.325  25.312  28.388  1.00  0.00     0.049 A 
ATOM     29  C   UNL A   1      45.031  30.470  30.470  1.00  0.00     0.074 A 
ATOM     30  C   UNL A   1      45.464  24.533  28.270  1.00  0.00     0.029 A 
ATOM     31  N   UNL A   1      44.727  26.522  28.936  1.00  0.00    -0.354 N 
ATOM     32  N   UNL A   1      45.024  29.250  29.988  1.00  0.00    -0.248 NA
ATOM     33  C   UNL A   1      46.343  30.925  30.947  1.00  0.00     0.031 C 
ATOM     34  C   UNL A   1      46.545  25.254  28.787  1.00  0.00     0.029 A 
ATOM     35  C   UNL A   1      46.091  26.501  29.183  1.00  0.00     0.049 A 
ATOM     36  H   UNL A   1      44.131  27.283  29.121  1.00  0.00     0.167 HD
ATOM     37  C   UNL A   1      46.333  28.797  30.091  1.00  0.00     0.074 A 
ATOM     38  C   UNL A   1      47.108  29.880  30.660  1.00  0.00     0.031 C 
ATOM     39  C   UNL A   1      46.846  27.590  29.748  1.00  0.00     0.037 A 
BRANCH  26  40
ATOM     40  C   UNL A   1      42.708  23.589  27.507  1.00  0.00     0.058 A 
ATOM     41  C   UNL A   1      42.818  23.279  26.143  1.00  0.00     0.135 A 
ATOM     42  C   UNL A   1      42.428  22.537  28.396  1.00  0.00     0.135 A 
ATOM     43  F   UNL A   1      43.072  24.247  25.248  1.00  0.00    -0.206 F 
ATOM     44  C   UNL A   1      42.651  21.978  25.677  1.00  0.00     0.059 A 
ATOM     45  C   UNL A   1      42.278  21.225  27.954  1.00  0.00     0.059 A 
ATOM     46  F   UNL A   1      42.310  22.778  29.711  1.00  0.00    -0.206 F 
ATOM     47  C   UNL A   1      42.386  20.956  26.591  1.00  0.00     0.060 A 
BRANCH  47  48
ATOM     48  S   UNL A   1      42.203  19.270  25.972  1.00  0.00     0.124 S 
ATOM     49  O   UNL A   1      43.065  19.297  24.795  1.00  0.00    -0.237 OA
ATOM     50  O   UNL A   1      42.687  18.471  27.093  1.00  0.00    -0.237 OA
ATOM     51  O   UNL A   1      40.773  19.159  25.699  1.00  0.00    -0.744 OA
ENDBRANCH  47  48
ENDBRANCH  26  40
BRANCH  27  52
ATOM     52  C   UNL A   1      44.091  32.791  31.177  1.00  0.00     0.058 A 
ATOM     53  C   UNL A   1      44.257  33.918  30.358  1.00  0.00     0.135 A 
ATOM     54  C   UNL A   1      44.111  32.984  32.567  1.00  0.00     0.135 A 
ATOM     55  F   UNL A   1      44.248  33.783  29.023  1.00  0.00    -0.206 F 
ATOM     56  C   UNL A   1      44.457  35.184  30.896  1.00  0.00     0.059 A 
ATOM     57  C   UNL A   1      44.281  34.244  33.129  1.00  0.00     0.059 A 
ATOM     58  F   UNL A   1      43.937  31.940  33.393  1.00  0.00    -0.206 F 
ATOM     59  C   UNL A   1      44.468  35.337  32.284  1.00  0.00     0.060 A 
BRANCH  59  60
ATOM     60  S   UNL A   1      44.698  36.987  32.977  1.00  0.00     0.124 S 
ATOM     61  O   UNL A   1      46.112  37.221  32.711  1.00  0.00    -0.237 OA
ATOM     62  O   UNL A   1      43.760  37.785  32.192  1.00  0.00    -0.237 OA
ATOM     63  O   UNL A   1      44.338  36.814  34.381  1.00  0.00    -0.744 OA
ENDBRANCH  59  60
ENDBRANCH  27  52
BRANCH  39  64
ATOM     64  C   UNL A   1      48.321  27.390  29.955  1.00  0.00     0.058 A 
ATOM     65  C   UNL A   1      48.829  26.826  31.136  1.00  0.00     0.135 A 
ATOM     66  C   UNL A   1      49.235  27.737  28.947  1.00  0.00     0.135 A 
ATOM     67  F   UNL A   1      47.997  26.487  32.133  1.00  0.00    -0.206 F 
ATOM     68  C   UNL A   1      50.194  26.637  31.320  1.00  0.00     0.059 A 
ATOM     69  C   UNL A   1      50.602  27.532  29.099  1.00  0.00     0.059 A 
ATOM     70  F   UNL A   1      48.799  28.272  27.794  1.00  0.00    -0.206 F 
ATOM     71  C   UNL A   1      51.073  26.993  30.296  1.00  0.00     0.060 A 
BRANCH  71  72
ATOM     72  S   UNL A   1      52.840  26.716  30.536  1.00  0.00     0.124 S 
ATOM     73  O   UNL A   1      52.837  25.609  31.486  1.00  0.00    -0.237 OA
ATOM     74  O   UNL A   1      53.295  26.395  29.188  1.00  0.00    -0.237 OA
ATOM     75  O   UNL A   1      53.314  27.993  31.062  1.00  0.00    -0.744 OA
ENDBRANCH  71  72
ENDBRANCH  39  64
ENDBRANCH  13  14
ENDBRANCH   6   8
ENDBRANCH   3   4
ENDBRANCH   2   3
ENDBRANCH   1   2
BRANCH   1  76
ATOM     76  C   UNL A   1      34.049  35.985  29.470  1.00  0.00     0.116 C 
BRANCH  76  77
ATOM     77  N   UNL A   1      33.301  36.849  30.362  1.00  0.00    -0.351 N 
ATOM     78  C   UNL A   1      33.191  36.788  31.731  1.00  0.00     0.271 C 
ATOM     79  H   UNL A   1      32.804  37.580  29.928  1.00  0.00     0.163 HD
ATOM     80  O   UNL A   1      32.588  37.671  32.338  1.00  0.00    -0.267 OA
BRANCH  78  81
ATOM     81  C   UNL A   1      33.823  35.682  32.481  1.00  0.00     0.150 A 
ATOM     82  C   UNL A   1      33.149  34.488  32.677  1.00  0.00     0.145 A 
ATOM     83  N   UNL A   1      35.115  35.857  32.851  1.00  0.00    -0.205 NA
ATOM     84  N   UNL A   1      33.733  33.419  33.277  1.00  0.00    -0.257 NA
ATOM     85  C   UNL A   1      35.716  34.787  33.393  1.00  0.00     0.233 A 
ATOM     86  C   UNL A   1      35.040  33.593  33.606  1.00  0.00     0.179 A 
BRANCH  85  87
ATOM     87  O   UNL A   1      37.073  34.827  33.615  1.00  0.00    -0.477 OA
BRANCH  87  88
ATOM     88  C   UNL A   1      37.849  34.407  32.488  1.00  0.00     0.232 C 
BRANCH  88  89
ATOM     89  C   UNL A   1      38.237  32.921  32.508  1.00  0.00     0.046 C 
BRANCH  89  90
ATOM     90  C   UNL A   1      39.397  32.485  33.419  1.00  0.00     0.039 C 
BRANCH  90  91
ATOM     91  C   UNL A   1      39.909  31.058  33.365  1.00  0.00    -0.048 A 
ATOM     92  C   UNL A   1      41.206  30.662  33.711  1.00  0.00     0.004 A 
ATOM     93  C   UNL A   1      39.019  30.064  32.920  1.00  0.00     0.004 A 
ATOM     94  C   UNL A   1      41.619  29.334  33.553  1.00  0.00     0.000 A 
ATOM     95  C   UNL A   1      39.421  28.733  32.787  1.00  0.00     0.000 A 
ATOM     96  C   UNL A   1      40.729  28.370  33.090  1.00  0.00     0.000 A 
ENDBRANCH  90  91
ENDBRANCH  89  90
ENDBRANCH  88  89
ENDBRANCH  87  88
ENDBRANCH  85  87
ENDBRANCH  78  81
ENDBRANCH  76  77
ENDBRANCH   1  76
TORSDOF 19
ENDMDL
MODEL 2
REMARK VINA RESULT:      -9.7      3.168      6.254
REMARK SMILES O=C(NCCCCNC(=O)c1cncc(OCCCc2ccccc2)n1)c1ccc(-c2c3nc(c(-c4c(F)cc(S(=O)(=O)[O-])cc4F)c4ccc([nH]4)c(-c4c(F)cc(S(=O)(=O)[O-])cc4F)c4nc(c(-c5c(F)cc(S(=O)(=O)[O-])cc5F)c5ccc2[nH]5)C=C4)C=C3)cc1
REMARK SMILES IDX 6 1 5 2 4 3 3 4 1 5 2 6 27 8 28 9 92 10 29 11 91 12 30 13
REMARK SMILES IDX 31 14 32 15 85 16 33 17 90 18 84 19 86 20 34 21 89 22 83 23
REMARK SMILES IDX 82 24 35 26 69 27 48 28 68 29 49 30 52 31 67 32 87 33 50 34
REMARK SMILES IDX 51 35 66 37 88 38 53 39 36 40 37 41 46 42 38 43 39 44 45 45
REMARK SMILES IDX 47 46 40 47 41 48 42 49 43 50 44 51 70 52 71 53 80 54 72 55
REMARK SMILES IDX 73 56 79 57 81 58 74 59 75 60 76 61 77 62 78 63 54 64 55 65
REMARK SMILES IDX 64 66 56 67 57 68 63 69 65 70 58 71 59 72 60 73 61 74 62 75
REMARK SMILES IDX 7 76 8 77 9 78 10 80 11 81 12 82 26 83 13 84 15 85 14 86
REMARK SMILES IDX 16 87 17 88 18 89 19 90 20 91 21 92 25 93 22 94 24 95 23 96
REMARK H PARENT 3 7 86 25 52 36 8 79
REMARK Flexibility Score: inf
ROOT
ATOM      1  C   UNL A   1      33.311  29.161  24.834  1.00  0.00     0.023 C 
ENDROOT
BRANCH   1   2
ATOM      2  C   UNL A   1      33.752  27.938  25.637  1.00  0.00     0.023 C 
BRANCH   2   3
ATOM      3  C   UNL A   1      33.836  28.127  27.146  1.00  0.00     0.116 C 
BRANCH   3   4
ATOM      4  N   UNL A   1      33.630  29.503  27.568  1.00  0.00    -0.352 N 
ATOM      5  O   UNL A   1      34.106  31.472  28.547  1.00  0.00    -0.269 OA
ATOM      6  C   UNL A   1      34.507  30.383  28.160  1.00  0.00     0.251 C 
ATOM      7  H   UNL A   1      32.726  29.858  27.406  1.00  0.00     0.163 HD
BRANCH   6   8
ATOM      8  C   UNL A   1      35.924  29.997  28.354  1.00  0.00     0.039 A 
ATOM      9  C   UNL A   1      36.382  29.542  29.592  1.00  0.00     0.014 A 
ATOM     10  C   UNL A   1      36.808  30.091  27.273  1.00  0.00     0.014 A 
ATOM     11  C   UNL A   1      37.741  29.329  29.790  1.00  0.00     0.010 A 
ATOM     12  C   UNL A   1      38.162  29.789  27.453  1.00  0.00     0.010 A 
ATOM     13  C   UNL A   1      38.646  29.435  28.721  1.00  0.00    -0.014 A 
BRANCH  13  14
ATOM     14  C   UNL A   1      40.077  29.101  28.943  1.00  0.00     0.031 A 
ATOM     15  C   UNL A   1      40.633  27.753  28.572  1.00  0.00     0.074 A 
ATOM     16  C   UNL A   1      40.882  30.047  29.466  1.00  0.00     0.049 A 
ATOM     17  N   UNL A   1      41.860  27.309  28.691  1.00  0.00    -0.248 NA
ATOM     18  C   UNL A   1      39.698  26.772  27.999  1.00  0.00     0.031 C 
ATOM     19  C   UNL A   1      40.449  31.384  29.881  1.00  0.00     0.029 A 
ATOM     20  N   UNL A   1      42.228  30.041  29.727  1.00  0.00    -0.354 N 
ATOM     21  C   UNL A   1      41.843  25.998  28.229  1.00  0.00     0.074 A 
ATOM     22  C   UNL A   1      40.478  25.708  27.843  1.00  0.00     0.031 C 
ATOM     23  C   UNL A   1      41.511  32.082  30.307  1.00  0.00     0.029 A 
ATOM     24  C   UNL A   1      42.690  31.224  30.253  1.00  0.00     0.049 A 
ATOM     25  H   UNL A   1      42.808  29.265  29.554  1.00  0.00     0.167 HD
ATOM     26  C   UNL A   1      42.873  25.124  28.131  1.00  0.00     0.037 A 
ATOM     27  C   UNL A   1      43.920  31.578  30.670  1.00  0.00     0.037 A 
ATOM     28  C   UNL A   1      44.233  25.431  28.499  1.00  0.00     0.049 A 
ATOM     29  C   UNL A   1      45.039  30.583  30.560  1.00  0.00     0.074 A 
ATOM     30  C   UNL A   1      45.355  24.626  28.394  1.00  0.00     0.029 A 
ATOM     31  N   UNL A   1      44.657  26.635  29.043  1.00  0.00    -0.354 N 
ATOM     32  N   UNL A   1      45.009  29.362  30.084  1.00  0.00    -0.248 NA
ATOM     33  C   UNL A   1      46.358  31.011  31.045  1.00  0.00     0.031 C 
ATOM     34  C   UNL A   1      46.448  25.325  28.916  1.00  0.00     0.029 A 
ATOM     35  C   UNL A   1      46.019  26.585  29.302  1.00  0.00     0.049 A 
ATOM     36  H   UNL A   1      44.078  27.410  29.220  1.00  0.00     0.167 HD
ATOM     37  C   UNL A   1      46.306  28.879  30.199  1.00  0.00     0.074 A 
ATOM     38  C   UNL A   1      47.101  29.948  30.769  1.00  0.00     0.031 C 
ATOM     39  C   UNL A   1      46.795  27.659  29.866  1.00  0.00     0.037 A 
BRANCH  26  40
ATOM     40  C   UNL A   1      42.584  23.740  27.615  1.00  0.00     0.058 A 
ATOM     41  C   UNL A   1      42.516  23.463  26.241  1.00  0.00     0.135 A 
ATOM     42  C   UNL A   1      42.460  22.661  28.506  1.00  0.00     0.135 A 
ATOM     43  F   UNL A   1      42.615  24.458  25.345  1.00  0.00    -0.206 F 
ATOM     44  C   UNL A   1      42.325  22.168  25.769  1.00  0.00     0.059 A 
ATOM     45  C   UNL A   1      42.291  21.354  28.056  1.00  0.00     0.059 A 
ATOM     46  F   UNL A   1      42.517  22.870  29.831  1.00  0.00    -0.206 F 
ATOM     47  C   UNL A   1      42.219  21.118  26.684  1.00  0.00     0.060 A 
BRANCH  47  48
ATOM     48  S   UNL A   1      42.004  19.440  26.053  1.00  0.00     0.124 S 
ATOM     49  O   UNL A   1      40.565  19.404  25.807  1.00  0.00    -0.237 OA
ATOM     50  O   UNL A   1      42.849  19.443  24.863  1.00  0.00    -0.237 OA
ATOM     51  O   UNL A   1      42.473  18.600  27.150  1.00  0.00    -0.744 OA
ENDBRANCH  47  48
ENDBRANCH  26  40
BRANCH  27  52
ATOM     52  C   UNL A   1      44.147  32.929  31.247  1.00  0.00     0.058 A 
ATOM     53  C   UNL A   1      44.108  33.144  32.632  1.00  0.00     0.135 A 
ATOM     54  C   UNL A   1      44.418  34.031  30.420  1.00  0.00     0.135 A 
ATOM     55  F   UNL A   1      43.851  32.121  33.462  1.00  0.00    -0.206 F 
ATOM     56  C   UNL A   1      44.307  34.407  33.178  1.00  0.00     0.059 A 
ATOM     57  C   UNL A   1      44.649  35.298  30.943  1.00  0.00     0.059 A 
ATOM     58  F   UNL A   1      44.485  33.873  29.089  1.00  0.00    -0.206 F 
ATOM     59  C   UNL A   1      44.577  35.479  32.324  1.00  0.00     0.060 A 
BRANCH  59  60
ATOM     60  S   UNL A   1      44.865  37.111  33.039  1.00  0.00     0.124 S 
ATOM     61  O   UNL A   1      43.994  37.946  32.220  1.00  0.00    -0.237 OA
ATOM     62  O   UNL A   1      44.448  36.919  34.424  1.00  0.00    -0.237 OA
ATOM     63  O   UNL A   1      46.298  37.312  32.847  1.00  0.00    -0.744 OA
ENDBRANCH  59  60
ENDBRANCH  27  52
BRANCH  39  64
ATOM     64  C   UNL A   1      48.263  27.427  30.086  1.00  0.00     0.058 A 
ATOM     65  C   UNL A   1      48.739  26.743  31.215  1.00  0.00     0.135 A 
ATOM     66  C   UNL A   1      49.202  27.867  29.139  1.00  0.00     0.135 A 
ATOM     67  F   UNL A   1      47.882  26.312  32.154  1.00  0.00    -0.206 F 
ATOM     68  C   UNL A   1      50.098  26.525  31.410  1.00  0.00     0.059 A 
ATOM     69  C   UNL A   1      50.564  27.636  29.301  1.00  0.00     0.059 A 
ATOM     70  F   UNL A   1      48.797  28.519  28.037  1.00  0.00    -0.206 F 
ATOM     71  C   UNL A   1      51.004  26.975  30.447  1.00  0.00     0.060 A 
BRANCH  71  72
ATOM     72  S   UNL A   1      52.763  26.661  30.699  1.00  0.00     0.124 S 
ATOM     73  O   UNL A   1      53.172  26.204  29.376  1.00  0.00    -0.237 OA
ATOM     74  O   UNL A   1      53.262  27.973  31.100  1.00  0.00    -0.237 OA
ATOM     75  O   UNL A   1      52.779  25.645  31.748  1.00  0.00    -0.744 OA
ENDBRANCH  71  72
ENDBRANCH  39  64
ENDBRANCH  13  14
ENDBRANCH   6   8
ENDBRANCH   3   4
ENDBRANCH   2   3
ENDBRANCH   1   2
BRANCH   1  76
ATOM     76  C   UNL A   1      33.280  28.990  23.319  1.00  0.00     0.116 C 
BRANCH  76  77
ATOM     77  N   UNL A   1      31.946  29.061  22.756  1.00  0.00    -0.351 N 
ATOM     78  C   UNL A   1      31.139  28.039  22.315  1.00  0.00     0.271 C 
ATOM     79  H   UNL A   1      31.565  29.967  22.679  1.00  0.00     0.163 HD
ATOM     80  O   UNL A   1      29.988  28.277  21.956  1.00  0.00    -0.267 OA
BRANCH  78  81
ATOM     81  C   UNL A   1      31.639  26.648  22.301  1.00  0.00     0.150 A 
ATOM     82  C   UNL A   1      32.520  26.226  21.319  1.00  0.00     0.145 A 
ATOM     83  N   UNL A   1      31.290  25.866  23.350  1.00  0.00    -0.205 NA
ATOM     84  N   UNL A   1      33.074  24.986  21.331  1.00  0.00    -0.257 NA
ATOM     85  C   UNL A   1      31.876  24.659  23.398  1.00  0.00     0.233 A 
ATOM     86  C   UNL A   1      32.747  24.225  22.408  1.00  0.00     0.179 A 
BRANCH  85  87
ATOM     87  O   UNL A   1      31.721  23.888  24.527  1.00  0.00    -0.477 OA
BRANCH  87  88
ATOM     88  C   UNL A   1      32.827  23.970  25.432  1.00  0.00     0.232 C 
BRANCH  88  89
ATOM     89  C   UNL A   1      33.540  22.633  25.680  1.00  0.00     0.046 C 
BRANCH  89  90
ATOM     90  C   UNL A   1      34.700  22.243  24.749  1.00  0.00     0.039 C 
BRANCH  90  91
ATOM     91  C   UNL A   1      36.135  22.438  25.200  1.00  0.00    -0.048 A 
ATOM     92  C   UNL A   1      37.136  21.464  25.125  1.00  0.00     0.004 A 
ATOM     93  C   UNL A   1      36.479  23.688  25.748  1.00  0.00     0.004 A 
ATOM     94  C   UNL A   1      38.414  21.704  25.640  1.00  0.00     0.000 A 
ATOM     95  C   UNL A   1      37.763  23.939  26.239  1.00  0.00     0.000 A 
ATOM     96  C   UNL A   1      38.728  22.939  26.198  1.00  0.00     0.000 A 
ENDBRANCH  90  91
ENDBRANCH  89  90
ENDBRANCH  88  89
ENDBRANCH  87  88
ENDBRANCH  85  87
ENDBRANCH  78  81
ENDBRANCH  76  77
ENDBRANCH   1  76
TORSDOF 19
ENDMDL
MODEL 3
REMARK VINA RESULT:      -9.7      4.760     12.325
REMARK SMILES O=C(NCCCCNC(=O)c1cncc(OCCCc2ccccc2)n1)c1ccc(-c2c3nc(c(-c4c(F)cc(S(=O)(=O)[O-])cc4F)c4ccc([nH]4)c(-c4c(F)cc(S(=O)(=O)[O-])cc4F)c4nc(c(-c5c(F)cc(S(=O)(=O)[O-])cc5F)c5ccc2[nH]5)C=C4)C=C3)cc1
REMARK SMILES IDX 6 1 5 2 4 3 3 4 1 5 2 6 27 8 28 9 92 10 29 11 91 12 30 13
REMARK SMILES IDX 31 14 32 15 85 16 33 17 90 18 84 19 86 20 34 21 89 22 83 23
REMARK SMILES IDX 82 24 35 26 69 27 48 28 68 29 49 30 52 31 67 32 87 33 50 34
REMARK SMILES IDX 51 35 66 37 88 38 53 39 36 40 37 41 46 42 38 43 39 44 45 45
REMARK SMILES IDX 47 46 40 47 41 48 42 49 43 50 44 51 70 52 71 53 80 54 72 55
REMARK SMILES IDX 73 56 79 57 81 58 74 59 75 60 76 61 77 62 78 63 54 64 55 65
REMARK SMILES IDX 64 66 56 67 57 68 63 69 65 70 58 71 59 72 60 73 61 74 62 75
REMARK SMILES IDX 7 76 8 77 9 78 10 80 11 81 12 82 26 83 13 84 15 85 14 86
REMARK SMILES IDX 16 87 17 88 18 89 19 90 20 91 21 92 25 93 22 94 24 95 23 96
REMARK H PARENT 3 7 86 25 52 36 8 79
REMARK Flexibility Score: inf
ROOT
ATOM      1  C   UNL A   1      42.347  20.570  27.257  1.00  0.00     0.023 C 
ENDROOT
BRANCH   1   2
ATOM      2  C   UNL A   1      41.655  21.857  27.705  1.00  0.00     0.023 C 
BRANCH   2   3
ATOM      3  C   UNL A   1      42.533  23.101  27.760  1.00  0.00     0.116 C 
BRANCH   3   4
ATOM      4  N   UNL A   1      42.567  23.838  26.507  1.00  0.00    -0.352 N 
ATOM      5  O   UNL A   1      42.272  25.573  25.105  1.00  0.00    -0.269 OA
ATOM      6  C   UNL A   1      42.297  25.165  26.258  1.00  0.00     0.251 C 
ATOM      7  H   UNL A   1      42.823  23.308  25.717  1.00  0.00     0.163 HD
BRANCH   6   8
ATOM      8  C   UNL A   1      42.009  26.085  27.383  1.00  0.00     0.039 A 
ATOM      9  C   UNL A   1      42.853  27.160  27.665  1.00  0.00     0.014 A 
ATOM     10  C   UNL A   1      40.869  25.866  28.164  1.00  0.00     0.014 A 
ATOM     11  C   UNL A   1      42.646  27.919  28.811  1.00  0.00     0.010 A 
ATOM     12  C   UNL A   1      40.614  26.688  29.267  1.00  0.00     0.010 A 
ATOM     13  C   UNL A   1      41.517  27.702  29.619  1.00  0.00    -0.014 A 
BRANCH  13  14
ATOM     14  C   UNL A   1      41.270  28.598  30.779  1.00  0.00     0.031 A 
ATOM     15  C   UNL A   1      42.120  28.528  32.017  1.00  0.00     0.074 A 
ATOM     16  C   UNL A   1      40.273  29.502  30.689  1.00  0.00     0.049 A 
ATOM     17  N   UNL A   1      42.041  29.246  33.110  1.00  0.00    -0.248 NA
ATOM     18  C   UNL A   1      43.194  27.522  32.042  1.00  0.00     0.031 C 
ATOM     19  C   UNL A   1      39.372  29.648  29.543  1.00  0.00     0.029 A 
ATOM     20  N   UNL A   1      39.857  30.474  31.561  1.00  0.00    -0.354 N 
ATOM     21  C   UNL A   1      43.036  28.771  33.957  1.00  0.00     0.074 A 
ATOM     22  C   UNL A   1      43.697  27.688  33.261  1.00  0.00     0.031 C 
ATOM     23  C   UNL A   1      38.537  30.673  29.765  1.00  0.00     0.029 A 
ATOM     24  C   UNL A   1      38.802  31.218  31.091  1.00  0.00     0.049 A 
ATOM     25  H   UNL A   1      40.275  30.625  32.440  1.00  0.00     0.167 HD
ATOM     26  C   UNL A   1      43.368  29.206  35.196  1.00  0.00     0.037 A 
ATOM     27  C   UNL A   1      38.104  32.214  31.669  1.00  0.00     0.037 A 
ATOM     28  C   UNL A   1      42.717  30.301  35.872  1.00  0.00     0.049 A 
ATOM     29  C   UNL A   1      38.488  32.665  33.048  1.00  0.00     0.074 A 
ATOM     30  C   UNL A   1      43.011  30.844  37.111  1.00  0.00     0.029 A 
ATOM     31  N   UNL A   1      41.640  31.018  35.370  1.00  0.00    -0.354 N 
ATOM     32  N   UNL A   1      39.457  32.228  33.816  1.00  0.00    -0.248 NA
ATOM     33  C   UNL A   1      37.685  33.742  33.642  1.00  0.00     0.031 C 
ATOM     34  C   UNL A   1      42.086  31.859  37.377  1.00  0.00     0.029 A 
ATOM     35  C   UNL A   1      41.244  31.982  36.284  1.00  0.00     0.049 A 
ATOM     36  H   UNL A   1      41.219  30.866  34.493  1.00  0.00     0.167 HD
ATOM     37  C   UNL A   1      39.390  32.986  34.978  1.00  0.00     0.074 A 
ATOM     38  C   UNL A   1      38.299  33.924  34.804  1.00  0.00     0.031 C 
ATOM     39  C   UNL A   1      40.158  32.910  36.092  1.00  0.00     0.037 A 
BRANCH  26  40
ATOM     40  C   UNL A   1      44.481  28.500  35.923  1.00  0.00     0.058 A 
ATOM     41  C   UNL A   1      45.822  28.882  35.770  1.00  0.00     0.135 A 
ATOM     42  C   UNL A   1      44.192  27.484  36.849  1.00  0.00     0.135 A 
ATOM     43  F   UNL A   1      46.157  29.838  34.890  1.00  0.00    -0.206 F 
ATOM     44  C   UNL A   1      46.839  28.276  36.504  1.00  0.00     0.059 A 
ATOM     45  C   UNL A   1      45.190  26.879  37.609  1.00  0.00     0.059 A 
ATOM     46  F   UNL A   1      42.925  27.079  37.034  1.00  0.00    -0.206 F 
ATOM     47  C   UNL A   1      46.512  27.278  37.424  1.00  0.00     0.060 A 
BRANCH  47  48
ATOM     48  S   UNL A   1      47.840  26.526  38.389  1.00  0.00     0.124 S 
ATOM     49  O   UNL A   1      47.110  26.033  39.553  1.00  0.00    -0.237 OA
ATOM     50  O   UNL A   1      48.346  25.503  37.480  1.00  0.00    -0.237 OA
ATOM     51  O   UNL A   1      48.750  27.639  38.645  1.00  0.00    -0.744 OA
ENDBRANCH  47  48
ENDBRANCH  26  40
BRANCH  27  52
ATOM     52  C   UNL A   1      36.961  32.832  30.949  1.00  0.00     0.058 A 
ATOM     53  C   UNL A   1      37.156  33.889  30.047  1.00  0.00     0.135 A 
ATOM     54  C   UNL A   1      35.649  32.370  31.141  1.00  0.00     0.135 A 
ATOM     55  F   UNL A   1      38.392  34.366  29.831  1.00  0.00    -0.206 F 
ATOM     56  C   UNL A   1      36.090  34.481  29.378  1.00  0.00     0.059 A 
ATOM     57  C   UNL A   1      34.571  32.926  30.463  1.00  0.00     0.059 A 
ATOM     58  F   UNL A   1      35.413  31.348  31.979  1.00  0.00    -0.206 F 
ATOM     59  C   UNL A   1      34.800  33.992  29.594  1.00  0.00     0.060 A 
BRANCH  59  60
ATOM     60  S   UNL A   1      33.424  34.743  28.700  1.00  0.00     0.124 S 
ATOM     61  O   UNL A   1      32.560  35.166  29.797  1.00  0.00    -0.237 OA
ATOM     62  O   UNL A   1      34.084  35.813  27.959  1.00  0.00    -0.237 OA
ATOM     63  O   UNL A   1      32.917  33.645  27.882  1.00  0.00    -0.744 OA
ENDBRANCH  59  60
ENDBRANCH  27  52
BRANCH  39  64
ATOM     64  C   UNL A   1      39.863  33.885  37.196  1.00  0.00     0.058 A 
ATOM     65  C   UNL A   1      39.022  33.550  38.269  1.00  0.00     0.135 A 
ATOM     66  C   UNL A   1      40.453  35.159  37.196  1.00  0.00     0.135 A 
ATOM     67  F   UNL A   1      38.425  32.349  38.308  1.00  0.00    -0.206 F 
ATOM     68  C   UNL A   1      38.757  34.454  39.291  1.00  0.00     0.059 A 
ATOM     69  C   UNL A   1      40.224  36.069  38.222  1.00  0.00     0.059 A 
ATOM     70  F   UNL A   1      41.273  35.525  36.197  1.00  0.00    -0.206 F 
ATOM     71  C   UNL A   1      39.363  35.712  39.260  1.00  0.00     0.060 A 
BRANCH  71  72
ATOM     72  S   UNL A   1      39.032  36.866  40.607  1.00  0.00     0.124 S 
ATOM     73  O   UNL A   1      40.384  37.233  41.017  1.00  0.00    -0.237 OA
ATOM     74  O   UNL A   1      38.264  37.914  39.942  1.00  0.00    -0.237 OA
ATOM     75  O   UNL A   1      38.282  36.061  41.566  1.00  0.00    -0.744 OA
ENDBRANCH  71  72
ENDBRANCH  39  64
ENDBRANCH  13  14
ENDBRANCH   6   8
ENDBRANCH   3   4
ENDBRANCH   2   3
ENDBRANCH   1   2
BRANCH   1  76
ATOM     76  C   UNL A   1      42.265  20.252  25.768  1.00  0.00     0.116 C 
BRANCH  76  77
ATOM     77  N   UNL A   1      43.300  19.345  25.312  1.00  0.00    -0.351 N 
ATOM     78  C   UNL A   1      44.582  19.633  24.907  1.00  0.00     0.271 C 
ATOM     79  H   UNL A   1      43.051  18.393  25.288  1.00  0.00     0.163 HD
ATOM     80  O   UNL A   1      45.362  18.721  24.644  1.00  0.00    -0.267 OA
BRANCH  78  81
ATOM     81  C   UNL A   1      45.038  21.037  24.818  1.00  0.00     0.150 A 
ATOM     82  C   UNL A   1      44.640  21.841  23.762  1.00  0.00     0.145 A 
ATOM     83  N   UNL A   1      45.750  21.513  25.867  1.00  0.00    -0.205 NA
ATOM     84  N   UNL A   1      44.960  23.159  23.698  1.00  0.00    -0.257 NA
ATOM     85  C   UNL A   1      46.023  22.827  25.838  1.00  0.00     0.233 A 
ATOM     86  C   UNL A   1      45.640  23.634  24.775  1.00  0.00     0.179 A 
BRANCH  85  87
ATOM     87  O   UNL A   1      46.572  23.417  26.952  1.00  0.00    -0.477 OA
BRANCH  87  88
ATOM     88  C   UNL A   1      45.919  24.633  27.335  1.00  0.00     0.232 C 
BRANCH  88  89
ATOM     89  C   UNL A   1      46.738  25.518  28.285  1.00  0.00     0.046 C 
BRANCH  89  90
ATOM     90  C   UNL A   1      46.015  26.174  29.474  1.00  0.00     0.039 C 
BRANCH  90  91
ATOM     91  C   UNL A   1      45.587  25.332  30.660  1.00  0.00    -0.048 A 
ATOM     92  C   UNL A   1      44.558  24.384  30.637  1.00  0.00     0.004 A 
ATOM     93  C   UNL A   1      46.266  25.531  31.877  1.00  0.00     0.004 A 
ATOM     94  C   UNL A   1      44.176  23.709  31.802  1.00  0.00     0.000 A 
ATOM     95  C   UNL A   1      45.903  24.839  33.035  1.00  0.00     0.000 A 
ATOM     96  C   UNL A   1      44.845  23.937  33.000  1.00  0.00     0.000 A 
ENDBRANCH  90  91
ENDBRANCH  89  90
ENDBRANCH  88  89
ENDBRANCH  87  88
ENDBRANCH  85  87
ENDBRANCH  78  81
ENDBRANCH  76  77
ENDBRANCH   1  76
TORSDOF 19
ENDMDL
