MODEL 1
REMARK VINA RESULT:     -12.4      0.000      0.000
REMARK SMILES O=C(NCCCCNC(=O)c1cn(-c2cc(Cl)ncn2)cn1)c1ccc(-c2c3nc(c(-c4c(F)cc(S(=O)(=O)[O-])cc4F)c4ccc([nH]4)c(-c4c(F)cc(S(=O)(=O)[O-])cc4F)c4nc(c(-c5c(F)cc(S(=O)(=O)[O-])cc5F)c5ccc2[nH]5)C=C4)C=C3)cc1
REMARK SMILES IDX 4 1 3 2 1 3 2 4 23 6 24 7 88 8 25 9 87 10 26 11 27 12 28 13
REMARK SMILES IDX 81 14 29 15 86 16 80 17 82 18 30 19 85 20 79 21 78 22 31 24
REMARK SMILES IDX 65 25 44 26 64 27 45 28 48 29 63 30 83 31 46 32 47 33 62 35
REMARK SMILES IDX 84 36 49 37 32 38 33 39 42 40 34 41 35 42 41 43 43 44 36 45
REMARK SMILES IDX 37 46 38 47 39 48 40 49 66 50 67 51 76 52 68 53 69 54 75 55
REMARK SMILES IDX 77 56 70 57 71 58 72 59 73 60 74 61 50 62 51 63 60 64 52 65
REMARK SMILES IDX 53 66 59 67 61 68 54 69 55 70 56 71 57 72 58 73 5 74 6 75
REMARK SMILES IDX 7 76 8 77 9 78 10 80 11 81 12 82 22 83 13 84 21 85 14 86
REMARK SMILES IDX 15 87 20 88 16 89 19 90 17 91 18 92
REMARK H PARENT 3 5 82 23 48 34 8 79
REMARK Flexibility Score: inf
ROOT
ATOM      1  C   UNL A   1      33.121  29.450  26.211  1.00  0.00     0.116 C 
ENDROOT
BRANCH   1   2
ATOM      2  N   UNL A   1      33.097  30.737  26.875  1.00  0.00    -0.352 N 
ATOM      3  O   UNL A   1      33.667  32.612  27.894  1.00  0.00    -0.269 OA
ATOM      4  C   UNL A   1      34.022  31.477  27.563  1.00  0.00     0.251 C 
ATOM      5  H   UNL A   1      32.219  31.179  26.820  1.00  0.00     0.163 HD
BRANCH   4   6
ATOM      6  C   UNL A   1      35.373  30.998  27.967  1.00  0.00     0.039 A 
ATOM      7  C   UNL A   1      35.777  29.663  28.006  1.00  0.00     0.014 A 
ATOM      8  C   UNL A   1      36.309  31.990  28.317  1.00  0.00     0.014 A 
ATOM      9  C   UNL A   1      37.052  29.318  28.448  1.00  0.00     0.010 A 
ATOM     10  C   UNL A   1      37.596  31.652  28.731  1.00  0.00     0.010 A 
ATOM     11  C   UNL A   1      37.962  30.310  28.813  1.00  0.00    -0.014 A 
BRANCH  11  12
ATOM     12  C   UNL A   1      39.339  29.898  29.091  1.00  0.00     0.031 A 
ATOM     13  C   UNL A   1      39.725  29.899  30.532  1.00  0.00     0.074 A 
ATOM     14  C   UNL A   1      40.169  29.369  28.172  1.00  0.00     0.049 A 
ATOM     15  N   UNL A   1      40.711  30.512  31.108  1.00  0.00    -0.248 NA
ATOM     16  C   UNL A   1      38.849  29.173  31.466  1.00  0.00     0.031 C 
ATOM     17  C   UNL A   1      39.836  29.002  26.795  1.00  0.00     0.029 A 
ATOM     18  N   UNL A   1      41.455  28.924  28.315  1.00  0.00    -0.354 N 
ATOM     19  C   UNL A   1      40.712  30.070  32.431  1.00  0.00     0.074 A 
ATOM     20  C   UNL A   1      39.467  29.376  32.629  1.00  0.00     0.031 C 
ATOM     21  C   UNL A   1      40.807  28.200  26.308  1.00  0.00     0.029 A 
ATOM     22  C   UNL A   1      41.871  28.081  27.292  1.00  0.00     0.049 A 
ATOM     23  H   UNL A   1      42.031  29.178  29.073  1.00  0.00     0.167 HD
ATOM     24  C   UNL A   1      41.834  30.095  33.201  1.00  0.00     0.037 A 
ATOM     25  C   UNL A   1      42.960  27.273  27.286  1.00  0.00     0.037 A 
ATOM     26  C   UNL A   1      42.814  31.022  32.696  1.00  0.00     0.049 A 
ATOM     27  C   UNL A   1      43.914  27.772  28.308  1.00  0.00     0.074 A 
ATOM     28  C   UNL A   1      42.828  32.371  32.396  1.00  0.00     0.029 A 
ATOM     29  N   UNL A   1      43.964  30.511  32.148  1.00  0.00    -0.354 N 
ATOM     30  N   UNL A   1      44.584  28.888  28.216  1.00  0.00    -0.248 NA
ATOM     31  C   UNL A   1      43.898  27.166  29.631  1.00  0.00     0.031 C 
ATOM     32  C   UNL A   1      43.737  32.508  31.307  1.00  0.00     0.029 A 
ATOM     33  C   UNL A   1      44.239  31.239  31.022  1.00  0.00     0.049 A 
ATOM     34  H   UNL A   1      44.494  29.760  32.500  1.00  0.00     0.167 HD
ATOM     35  C   UNL A   1      44.715  29.331  29.521  1.00  0.00     0.074 A 
ATOM     36  C   UNL A   1      44.404  28.172  30.347  1.00  0.00     0.031 C 
ATOM     37  C   UNL A   1      44.778  30.664  29.810  1.00  0.00     0.037 A 
BRANCH  24  38
ATOM     38  C   UNL A   1      42.202  28.996  34.181  1.00  0.00     0.058 A 
ATOM     39  C   UNL A   1      42.308  27.666  33.720  1.00  0.00     0.135 A 
ATOM     40  C   UNL A   1      42.130  29.146  35.586  1.00  0.00     0.135 A 
ATOM     41  F   UNL A   1      42.393  27.404  32.406  1.00  0.00    -0.206 F 
ATOM     42  C   UNL A   1      42.224  26.569  34.578  1.00  0.00     0.059 A 
ATOM     43  C   UNL A   1      42.105  28.068  36.462  1.00  0.00     0.059 A 
ATOM     44  F   UNL A   1      41.974  30.339  36.173  1.00  0.00    -0.206 F 
ATOM     45  C   UNL A   1      42.091  26.784  35.946  1.00  0.00     0.060 A 
BRANCH  45  46
ATOM     46  S   UNL A   1      41.806  25.384  37.043  1.00  0.00     0.124 S 
ATOM     47  O   UNL A   1      43.048  25.367  37.807  1.00  0.00    -0.237 OA
ATOM     48  O   UNL A   1      40.612  25.801  37.771  1.00  0.00    -0.237 OA
ATOM     49  O   UNL A   1      41.614  24.271  36.119  1.00  0.00    -0.744 OA
ENDBRANCH  45  46
ENDBRANCH  24  38
BRANCH  25  50
ATOM     50  C   UNL A   1      43.125  25.948  26.628  1.00  0.00     0.058 A 
ATOM     51  C   UNL A   1      44.018  25.773  25.555  1.00  0.00     0.135 A 
ATOM     52  C   UNL A   1      42.607  24.768  27.199  1.00  0.00     0.135 A 
ATOM     53  F   UNL A   1      44.584  26.836  24.965  1.00  0.00    -0.206 F 
ATOM     54  C   UNL A   1      44.407  24.506  25.107  1.00  0.00     0.059 A 
ATOM     55  C   UNL A   1      42.960  23.496  26.753  1.00  0.00     0.059 A 
ATOM     56  F   UNL A   1      41.807  24.806  28.276  1.00  0.00    -0.206 F 
ATOM     57  C   UNL A   1      43.884  23.372  25.724  1.00  0.00     0.060 A 
BRANCH  57  58
ATOM     58  S   UNL A   1      44.506  21.739  25.268  1.00  0.00     0.124 S 
ATOM     59  O   UNL A   1      43.546  20.856  25.920  1.00  0.00    -0.237 OA
ATOM     60  O   UNL A   1      44.448  21.781  23.811  1.00  0.00    -0.237 OA
ATOM     61  O   UNL A   1      45.854  21.720  25.833  1.00  0.00    -0.744 OA
ENDBRANCH  57  58
ENDBRANCH  25  50
BRANCH  37  62
ATOM     62  C   UNL A   1      45.175  31.614  28.715  1.00  0.00     0.058 A 
ATOM     63  C   UNL A   1      44.329  32.031  27.674  1.00  0.00     0.135 A 
ATOM     64  C   UNL A   1      46.441  32.217  28.797  1.00  0.00     0.135 A 
ATOM     65  F   UNL A   1      43.064  31.593  27.592  1.00  0.00    -0.206 F 
ATOM     66  C   UNL A   1      44.748  32.960  26.721  1.00  0.00     0.059 A 
ATOM     67  C   UNL A   1      46.865  33.172  27.878  1.00  0.00     0.059 A 
ATOM     68  F   UNL A   1      47.270  31.909  29.808  1.00  0.00    -0.206 F 
ATOM     69  C   UNL A   1      46.019  33.525  26.829  1.00  0.00     0.060 A 
BRANCH  69  70
ATOM     70  S   UNL A   1      46.530  34.782  25.638  1.00  0.00     0.124 S 
ATOM     71  O   UNL A   1      45.605  34.550  24.534  1.00  0.00    -0.237 OA
ATOM     72  O   UNL A   1      46.332  36.023  26.380  1.00  0.00    -0.237 OA
ATOM     73  O   UNL A   1      47.926  34.446  25.366  1.00  0.00    -0.744 OA
ENDBRANCH  69  70
ENDBRANCH  37  62
ENDBRANCH  11  12
ENDBRANCH   4   6
ENDBRANCH   1   2
BRANCH   1  74
ATOM     74  C   UNL A   1      32.088  28.442  26.716  1.00  0.00     0.023 C 
BRANCH  74  75
ATOM     75  C   UNL A   1      32.460  26.969  26.527  1.00  0.00     0.023 C 
BRANCH  75  76
ATOM     76  C   UNL A   1      31.484  26.143  25.693  1.00  0.00     0.116 C 
BRANCH  76  77
ATOM     77  N   UNL A   1      30.683  25.235  26.495  1.00  0.00    -0.351 N 
ATOM     78  C   UNL A   1      30.849  23.877  26.690  1.00  0.00     0.271 C 
ATOM     79  H   UNL A   1      29.919  25.642  26.964  1.00  0.00     0.163 HD
ATOM     80  O   UNL A   1      30.065  23.264  27.390  1.00  0.00    -0.267 OA
BRANCH  78  81
ATOM     81  C   UNL A   1      32.008  23.251  26.056  1.00  0.00     0.146 A 
ATOM     82  C   UNL A   1      33.267  23.101  26.611  1.00  0.00     0.128 A 
ATOM     83  N   UNL A   1      32.003  22.785  24.759  1.00  0.00    -0.231 NA
ATOM     84  N   UNL A   1      34.070  22.645  25.592  1.00  0.00    -0.290 N 
ATOM     85  C   UNL A   1      33.249  22.450  24.508  1.00  0.00     0.206 A 
BRANCH  84  86
ATOM     86  C   UNL A   1      35.477  22.474  25.597  1.00  0.00     0.142 A 
ATOM     87  C   UNL A   1      36.297  23.500  26.010  1.00  0.00     0.088 A 
ATOM     88  N   UNL A   1      35.958  21.291  25.150  1.00  0.00    -0.219 NA
ATOM     89  C   UNL A   1      37.640  23.233  25.925  1.00  0.00     0.134 A 
ATOM     90  C   UNL A   1      37.290  21.176  25.067  1.00  0.00     0.226 A 
ATOM     91  Cl  UNL A   1      38.793  24.386  26.465  1.00  0.00    -0.062 Cl
ATOM     92  N   UNL A   1      38.175  22.099  25.447  1.00  0.00    -0.224 NA
ENDBRANCH  84  86
ENDBRANCH  78  81
ENDBRANCH  76  77
ENDBRANCH  75  76
ENDBRANCH  74  75
ENDBRANCH   1  74
TORSDOF 15
ENDMDL
MODEL 2
REMARK VINA RESULT:     -12.3      3.652      6.092
REMARK SMILES O=C(NCCCCNC(=O)c1cn(-c2cc(Cl)ncn2)cn1)c1ccc(-c2c3nc(c(-c4c(F)cc(S(=O)(=O)[O-])cc4F)c4ccc([nH]4)c(-c4c(F)cc(S(=O)(=O)[O-])cc4F)c4nc(c(-c5c(F)cc(S(=O)(=O)[O-])cc5F)c5ccc2[nH]5)C=C4)C=C3)cc1
REMARK SMILES IDX 4 1 3 2 1 3 2 4 23 6 24 7 88 8 25 9 87 10 26 11 27 12 28 13
REMARK SMILES IDX 81 14 29 15 86 16 80 17 82 18 30 19 85 20 79 21 78 22 31 24
REMARK SMILES IDX 65 25 44 26 64 27 45 28 48 29 63 30 83 31 46 32 47 33 62 35
REMARK SMILES IDX 84 36 49 37 32 38 33 39 42 40 34 41 35 42 41 43 43 44 36 45
REMARK SMILES IDX 37 46 38 47 39 48 40 49 66 50 67 51 76 52 68 53 69 54 75 55
REMARK SMILES IDX 77 56 70 57 71 58 72 59 73 60 74 61 50 62 51 63 60 64 52 65
REMARK SMILES IDX 53 66 59 67 61 68 54 69 55 70 56 71 57 72 58 73 5 74 6 75
REMARK SMILES IDX 7 76 8 77 9 78 10 80 11 81 12 82 22 83 13 84 21 85 14 86
REMARK SMILES IDX 15 87 20 88 16 89 19 90 17 91 18 92
REMARK H PARENT 3 5 82 23 48 34 8 79
REMARK Flexibility Score: inf
ROOT
ATOM      1  C   UNL A   1      34.329  33.525  28.877  1.00  0.00     0.116 C 
ENDROOT
BRANCH   1   2
ATOM      2  N   UNL A   1      33.882  32.426  28.047  1.00  0.00    -0.352 N 
ATOM      3  O   UNL A   1      33.650  30.457  27.073  1.00  0.00    -0.269 OA
ATOM      4  C   UNL A   1      34.386  31.190  27.740  1.00  0.00     0.251 C 
ATOM      5  H   UNL A   1      33.021  32.608  27.603  1.00  0.00     0.163 HD
BRANCH   4   6
ATOM      6  C   UNL A   1      35.745  30.704  28.109  1.00  0.00     0.039 A 
ATOM      7  C   UNL A   1      36.186  29.385  28.004  1.00  0.00     0.014 A 
ATOM      8  C   UNL A   1      36.647  31.675  28.585  1.00  0.00     0.014 A 
ATOM      9  C   UNL A   1      37.464  29.027  28.424  1.00  0.00     0.010 A 
ATOM     10  C   UNL A   1      37.937  31.327  28.979  1.00  0.00     0.010 A 
ATOM     11  C   UNL A   1      38.341  29.995  28.914  1.00  0.00    -0.014 A 
BRANCH  11  12
ATOM     12  C   UNL A   1      39.725  29.591  29.167  1.00  0.00     0.031 A 
ATOM     13  C   UNL A   1      40.094  29.443  30.605  1.00  0.00     0.074 A 
ATOM     14  C   UNL A   1      40.581  29.189  28.207  1.00  0.00     0.049 A 
ATOM     15  N   UNL A   1      41.055  30.015  31.260  1.00  0.00    -0.248 NA
ATOM     16  C   UNL A   1      39.227  28.595  31.439  1.00  0.00     0.031 C 
ATOM     17  C   UNL A   1      40.276  28.968  26.794  1.00  0.00     0.029 A 
ATOM     18  N   UNL A   1      41.878  28.765  28.321  1.00  0.00    -0.354 N 
ATOM     19  C   UNL A   1      41.051  29.429  32.526  1.00  0.00     0.074 A 
ATOM     20  C   UNL A   1      39.823  28.685  32.627  1.00  0.00     0.031 C 
ATOM     21  C   UNL A   1      41.275  28.251  26.236  1.00  0.00     0.029 A 
ATOM     22  C   UNL A   1      42.329  28.052  27.218  1.00  0.00     0.049 A 
ATOM     23  H   UNL A   1      42.437  28.949  29.111  1.00  0.00     0.167 HD
ATOM     24  C   UNL A   1      42.163  29.399  33.311  1.00  0.00     0.037 A 
ATOM     25  C   UNL A   1      43.441  27.279  27.139  1.00  0.00     0.037 A 
ATOM     26  C   UNL A   1      43.123  30.402  32.927  1.00  0.00     0.049 A 
ATOM     27  C   UNL A   1      44.367  27.687  28.225  1.00  0.00     0.074 A 
ATOM     28  C   UNL A   1      43.102  31.775  32.778  1.00  0.00     0.029 A 
ATOM     29  N   UNL A   1      44.293  29.985  32.344  1.00  0.00    -0.354 N 
ATOM     30  N   UNL A   1      45.007  28.823  28.266  1.00  0.00    -0.248 NA
ATOM     31  C   UNL A   1      44.352  26.938  29.472  1.00  0.00     0.031 C 
ATOM     32  C   UNL A   1      44.020  32.056  31.725  1.00  0.00     0.029 A 
ATOM     33  C   UNL A   1      44.562  30.840  31.309  1.00  0.00     0.049 A 
ATOM     34  H   UNL A   1      44.839  29.214  32.619  1.00  0.00     0.167 HD
ATOM     35  C   UNL A   1      45.109  29.122  29.615  1.00  0.00     0.074 A 
ATOM     36  C   UNL A   1      44.821  27.871  30.303  1.00  0.00     0.031 C 
ATOM     37  C   UNL A   1      45.132  30.417  30.050  1.00  0.00     0.037 A 
BRANCH  24  38
ATOM     38  C   UNL A   1      42.549  28.208  34.170  1.00  0.00     0.058 A 
ATOM     39  C   UNL A   1      42.774  28.397  35.551  1.00  0.00     0.135 A 
ATOM     40  C   UNL A   1      43.020  26.984  33.641  1.00  0.00     0.135 A 
ATOM     41  F   UNL A   1      42.362  29.519  36.163  1.00  0.00    -0.206 F 
ATOM     42  C   UNL A   1      43.517  27.497  36.317  1.00  0.00     0.059 A 
ATOM     43  C   UNL A   1      43.709  26.047  34.401  1.00  0.00     0.059 A 
ATOM     44  F   UNL A   1      42.929  26.681  32.341  1.00  0.00    -0.206 F 
ATOM     45  C   UNL A   1      44.006  26.339  35.721  1.00  0.00     0.060 A 
BRANCH  45  46
ATOM     46  S   UNL A   1      45.109  25.259  36.649  1.00  0.00     0.124 S 
ATOM     47  O   UNL A   1      44.923  25.764  38.004  1.00  0.00    -0.237 OA
ATOM     48  O   UNL A   1      44.550  23.940  36.374  1.00  0.00    -0.237 OA
ATOM     49  O   UNL A   1      46.413  25.520  36.047  1.00  0.00    -0.744 OA
ENDBRANCH  45  46
ENDBRANCH  24  38
BRANCH  25  50
ATOM     50  C   UNL A   1      43.651  26.040  26.343  1.00  0.00     0.058 A 
ATOM     51  C   UNL A   1      44.775  25.890  25.510  1.00  0.00     0.135 A 
ATOM     52  C   UNL A   1      42.895  24.873  26.574  1.00  0.00     0.135 A 
ATOM     53  F   UNL A   1      45.572  26.939  25.254  1.00  0.00    -0.206 F 
ATOM     54  C   UNL A   1      45.151  24.652  24.978  1.00  0.00     0.059 A 
ATOM     55  C   UNL A   1      43.234  23.634  26.035  1.00  0.00     0.059 A 
ATOM     56  F   UNL A   1      41.847  24.874  27.412  1.00  0.00    -0.206 F 
ATOM     57  C   UNL A   1      44.381  23.525  25.260  1.00  0.00     0.060 A 
BRANCH  57  58
ATOM     58  S   UNL A   1      44.950  21.897  24.719  1.00  0.00     0.124 S 
ATOM     59  O   UNL A   1      44.590  21.905  23.306  1.00  0.00    -0.237 OA
ATOM     60  O   UNL A   1      46.377  21.953  25.016  1.00  0.00    -0.237 OA
ATOM     61  O   UNL A   1      44.180  20.976  25.553  1.00  0.00    -0.744 OA
ENDBRANCH  57  58
ENDBRANCH  25  50
BRANCH  37  62
ATOM     62  C   UNL A   1      45.515  31.493  29.072  1.00  0.00     0.058 A 
ATOM     63  C   UNL A   1      46.830  31.929  28.840  1.00  0.00     0.135 A 
ATOM     64  C   UNL A   1      44.506  32.023  28.252  1.00  0.00     0.135 A 
ATOM     65  F   UNL A   1      47.866  31.388  29.498  1.00  0.00    -0.206 F 
ATOM     66  C   UNL A   1      47.118  32.896  27.875  1.00  0.00     0.059 A 
ATOM     67  C   UNL A   1      44.776  32.961  27.260  1.00  0.00     0.059 A 
ATOM     68  F   UNL A   1      43.238  31.596  28.381  1.00  0.00    -0.206 F 
ATOM     69  C   UNL A   1      46.084  33.408  27.091  1.00  0.00     0.060 A 
BRANCH  69  70
ATOM     70  S   UNL A   1      46.471  34.604  25.795  1.00  0.00     0.124 S 
ATOM     71  O   UNL A   1      45.476  34.284  24.777  1.00  0.00    -0.237 OA
ATOM     72  O   UNL A   1      46.292  35.882  26.477  1.00  0.00    -0.237 OA
ATOM     73  O   UNL A   1      47.852  34.287  25.440  1.00  0.00    -0.744 OA
ENDBRANCH  69  70
ENDBRANCH  37  62
ENDBRANCH  11  12
ENDBRANCH   4   6
ENDBRANCH   1   2
BRANCH   1  74
ATOM     74  C   UNL A   1      34.742  34.784  28.116  1.00  0.00     0.023 C 
BRANCH  74  75
ATOM     75  C   UNL A   1      34.062  36.079  28.569  1.00  0.00     0.023 C 
BRANCH  75  76
ATOM     76  C   UNL A   1      32.890  35.907  29.532  1.00  0.00     0.116 C 
BRANCH  76  77
ATOM     77  N   UNL A   1      32.784  36.991  30.493  1.00  0.00    -0.351 N 
ATOM     78  C   UNL A   1      33.139  37.002  31.828  1.00  0.00     0.271 C 
ATOM     79  H   UNL A   1      32.408  37.832  30.146  1.00  0.00     0.163 HD
ATOM     80  O   UNL A   1      32.964  38.005  32.495  1.00  0.00    -0.267 OA
BRANCH  78  81
ATOM     81  C   UNL A   1      33.754  35.787  32.362  1.00  0.00     0.146 A 
ATOM     82  C   UNL A   1      35.100  35.594  32.620  1.00  0.00     0.128 A 
ATOM     83  N   UNL A   1      33.052  34.629  32.611  1.00  0.00    -0.231 NA
ATOM     84  N   UNL A   1      35.232  34.257  32.918  1.00  0.00    -0.290 N 
ATOM     85  C   UNL A   1      33.962  33.733  32.921  1.00  0.00     0.206 A 
BRANCH  84  86
ATOM     86  C   UNL A   1      36.427  33.518  33.111  1.00  0.00     0.142 A 
ATOM     87  C   UNL A   1      37.490  33.688  32.253  1.00  0.00     0.088 A 
ATOM     88  N   UNL A   1      36.448  32.633  34.134  1.00  0.00    -0.219 NA
ATOM     89  C   UNL A   1      38.571  32.883  32.512  1.00  0.00     0.134 A 
ATOM     90  C   UNL A   1      37.544  31.872  34.247  1.00  0.00     0.226 A 
ATOM     91  Cl  UNL A   1      40.003  33.020  31.573  1.00  0.00    -0.062 Cl
ATOM     92  N   UNL A   1      38.633  31.957  33.481  1.00  0.00    -0.224 NA
ENDBRANCH  84  86
ENDBRANCH  78  81
ENDBRANCH  76  77
ENDBRANCH  75  76
ENDBRANCH  74  75
ENDBRANCH   1  74
TORSDOF 15
ENDMDL
MODEL 3
REMARK VINA RESULT:     -12.3      2.615      4.212
REMARK SMILES O=C(NCCCCNC(=O)c1cn(-c2cc(Cl)ncn2)cn1)c1ccc(-c2c3nc(c(-c4c(F)cc(S(=O)(=O)[O-])cc4F)c4ccc([nH]4)c(-c4c(F)cc(S(=O)(=O)[O-])cc4F)c4nc(c(-c5c(F)cc(S(=O)(=O)[O-])cc5F)c5ccc2[nH]5)C=C4)C=C3)cc1
REMARK SMILES IDX 4 1 3 2 1 3 2 4 23 6 24 7 88 8 25 9 87 10 26 11 27 12 28 13
REMARK SMILES IDX 81 14 29 15 86 16 80 17 82 18 30 19 85 20 79 21 78 22 31 24
REMARK SMILES IDX 65 25 44 26 64 27 45 28 48 29 63 30 83 31 46 32 47 33 62 35
REMARK SMILES IDX 84 36 49 37 32 38 33 39 42 40 34 41 35 42 41 43 43 44 36 45
REMARK SMILES IDX 37 46 38 47 39 48 40 49 66 50 67 51 76 52 68 53 69 54 75 55
REMARK SMILES IDX 77 56 70 57 71 58 72 59 73 60 74 61 50 62 51 63 60 64 52 65
REMARK SMILES IDX 53 66 59 67 61 68 54 69 55 70 56 71 57 72 58 73 5 74 6 75
REMARK SMILES IDX 7 76 8 77 9 78 10 80 11 81 12 82 22 83 13 84 21 85 14 86
REMARK SMILES IDX 15 87 20 88 16 89 19 90 17 91 18 92
REMARK H PARENT 3 5 82 23 48 34 8 79
REMARK Flexibility Score: inf
ROOT
ATOM      1  C   UNL A   1      33.111  29.659  26.586  1.00  0.00     0.116 C 
ENDROOT
BRANCH   1   2
ATOM      2  N   UNL A   1      33.155  30.993  27.149  1.00  0.00    -0.352 N 
ATOM      3  O   UNL A   1      33.824  32.919  27.998  1.00  0.00    -0.269 OA
ATOM      4  C   UNL A   1      34.129  31.750  27.744  1.00  0.00     0.251 C 
ATOM      5  H   UNL A   1      32.290  31.460  27.090  1.00  0.00     0.163 HD
BRANCH   4   6
ATOM      6  C   UNL A   1      35.478  31.255  28.135  1.00  0.00     0.039 A 
ATOM      7  C   UNL A   1      35.889  29.923  28.102  1.00  0.00     0.014 A 
ATOM      8  C   UNL A   1      36.403  32.230  28.555  1.00  0.00     0.014 A 
ATOM      9  C   UNL A   1      37.161  29.559  28.538  1.00  0.00     0.010 A 
ATOM     10  C   UNL A   1      37.687  31.876  28.964  1.00  0.00     0.010 A 
ATOM     11  C   UNL A   1      38.060  30.533  28.972  1.00  0.00    -0.014 A 
BRANCH  11  12
ATOM     12  C   UNL A   1      39.436  30.113  29.243  1.00  0.00     0.031 A 
ATOM     13  C   UNL A   1      39.812  30.053  30.686  1.00  0.00     0.074 A 
ATOM     14  C   UNL A   1      40.275  29.625  28.308  1.00  0.00     0.049 A 
ATOM     15  N   UNL A   1      40.792  30.643  31.294  1.00  0.00    -0.248 NA
ATOM     16  C   UNL A   1      38.931  29.285  31.581  1.00  0.00     0.031 C 
ATOM     17  C   UNL A   1      39.953  29.317  26.914  1.00  0.00     0.029 A 
ATOM     18  N   UNL A   1      41.561  29.178  28.442  1.00  0.00    -0.354 N 
ATOM     19  C   UNL A   1      40.784  30.145  32.597  1.00  0.00     0.074 A 
ATOM     20  C   UNL A   1      39.539  29.441  32.756  1.00  0.00     0.031 C 
ATOM     21  C   UNL A   1      40.930  28.539  26.400  1.00  0.00     0.029 A 
ATOM     22  C   UNL A   1      41.987  28.381  27.387  1.00  0.00     0.049 A 
ATOM     23  H   UNL A   1      42.131  29.400  29.215  1.00  0.00     0.167 HD
ATOM     24  C   UNL A   1      41.901  30.140  33.376  1.00  0.00     0.037 A 
ATOM     25  C   UNL A   1      43.078  27.576  27.354  1.00  0.00     0.037 A 
ATOM     26  C   UNL A   1      42.882  31.090  32.919  1.00  0.00     0.049 A 
ATOM     27  C   UNL A   1      44.023  28.034  28.403  1.00  0.00     0.074 A 
ATOM     28  C   UNL A   1      42.894  32.450  32.677  1.00  0.00     0.029 A 
ATOM     29  N   UNL A   1      44.037  30.606  32.358  1.00  0.00    -0.354 N 
ATOM     30  N   UNL A   1      44.691  29.154  28.364  1.00  0.00    -0.248 NA
ATOM     31  C   UNL A   1      43.999  27.372  29.699  1.00  0.00     0.031 C 
ATOM     32  C   UNL A   1      43.811  32.637  31.602  1.00  0.00     0.029 A 
ATOM     33  C   UNL A   1      44.319  31.382  31.266  1.00  0.00     0.049 A 
ATOM     34  H   UNL A   1      44.566  29.841  32.682  1.00  0.00     0.167 HD
ATOM     35  C   UNL A   1      44.810  29.541  29.689  1.00  0.00     0.074 A 
ATOM     36  C   UNL A   1      44.497  28.347  30.462  1.00  0.00     0.031 C 
ATOM     37  C   UNL A   1      44.868  30.860  30.035  1.00  0.00     0.037 A 
BRANCH  24  38
ATOM     38  C   UNL A   1      42.264  29.001  34.311  1.00  0.00     0.058 A 
ATOM     39  C   UNL A   1      42.365  27.690  33.797  1.00  0.00     0.135 A 
ATOM     40  C   UNL A   1      42.193  29.095  35.720  1.00  0.00     0.135 A 
ATOM     41  F   UNL A   1      42.448  27.480  32.473  1.00  0.00    -0.206 F 
ATOM     42  C   UNL A   1      42.276  26.559  34.610  1.00  0.00     0.059 A 
ATOM     43  C   UNL A   1      42.164  27.982  36.552  1.00  0.00     0.059 A 
ATOM     44  F   UNL A   1      42.042  30.263  36.356  1.00  0.00    -0.206 F 
ATOM     45  C   UNL A   1      42.144  26.720  35.986  1.00  0.00     0.060 A 
BRANCH  45  46
ATOM     46  S   UNL A   1      41.854  25.278  37.026  1.00  0.00     0.124 S 
ATOM     47  O   UNL A   1      40.734  25.738  37.838  1.00  0.00    -0.237 OA
ATOM     48  O   UNL A   1      41.550  24.245  36.042  1.00  0.00    -0.237 OA
ATOM     49  O   UNL A   1      43.123  25.115  37.728  1.00  0.00    -0.744 OA
ENDBRANCH  45  46
ENDBRANCH  24  38
BRANCH  25  50
ATOM     50  C   UNL A   1      43.251  26.281  26.642  1.00  0.00     0.058 A 
ATOM     51  C   UNL A   1      44.124  26.164  25.544  1.00  0.00     0.135 A 
ATOM     52  C   UNL A   1      42.766  25.071  27.177  1.00  0.00     0.135 A 
ATOM     53  F   UNL A   1      44.659  27.260  24.985  1.00  0.00    -0.206 F 
ATOM     54  C   UNL A   1      44.525  24.923  25.039  1.00  0.00     0.059 A 
ATOM     55  C   UNL A   1      43.131  23.824  26.674  1.00  0.00     0.059 A 
ATOM     56  F   UNL A   1      41.990  25.052  28.270  1.00  0.00    -0.206 F 
ATOM     57  C   UNL A   1      44.035  23.756  25.622  1.00  0.00     0.060 A 
BRANCH  57  58
ATOM     58  S   UNL A   1      44.675  22.153  25.089  1.00  0.00     0.124 S 
ATOM     59  O   UNL A   1      43.774  21.227  25.765  1.00  0.00    -0.237 OA
ATOM     60  O   UNL A   1      44.540  22.232  23.638  1.00  0.00    -0.237 OA
ATOM     61  O   UNL A   1      46.050  22.156  25.583  1.00  0.00    -0.744 OA
ENDBRANCH  57  58
ENDBRANCH  25  50
BRANCH  37  62
ATOM     62  C   UNL A   1      45.270  31.858  28.984  1.00  0.00     0.058 A 
ATOM     63  C   UNL A   1      46.595  32.225  28.697  1.00  0.00     0.135 A 
ATOM     64  C   UNL A   1      44.263  32.378  28.155  1.00  0.00     0.135 A 
ATOM     65  F   UNL A   1      47.624  31.683  29.365  1.00  0.00    -0.206 F 
ATOM     66  C   UNL A   1      46.898  33.118  27.668  1.00  0.00     0.059 A 
ATOM     67  C   UNL A   1      44.546  33.242  27.101  1.00  0.00     0.059 A 
ATOM     68  F   UNL A   1      42.983  32.012  28.338  1.00  0.00    -0.206 F 
ATOM     69  C   UNL A   1      45.867  33.624  26.876  1.00  0.00     0.060 A 
BRANCH  69  70
ATOM     70  S   UNL A   1      46.270  34.721  25.500  1.00  0.00     0.124 S 
ATOM     71  O   UNL A   1      45.313  34.299  24.483  1.00  0.00    -0.237 OA
ATOM     72  O   UNL A   1      46.044  36.045  26.072  1.00  0.00    -0.237 OA
ATOM     73  O   UNL A   1      47.667  34.408  25.213  1.00  0.00    -0.744 OA
ENDBRANCH  69  70
ENDBRANCH  37  62
ENDBRANCH  11  12
ENDBRANCH   4   6
ENDBRANCH   1   2
BRANCH   1  74
ATOM     74  C   UNL A   1      32.036  28.744  27.173  1.00  0.00     0.023 C 
BRANCH  74  75
ATOM     75  C   UNL A   1      32.127  27.273  26.759  1.00  0.00     0.023 C 
BRANCH  75  76
ATOM     76  C   UNL A   1      30.888  26.700  26.078  1.00  0.00     0.116 C 
BRANCH  76  77
ATOM     77  N   UNL A   1      31.209  25.785  24.997  1.00  0.00    -0.351 N 
ATOM     78  C   UNL A   1      30.703  25.754  23.711  1.00  0.00     0.271 C 
ATOM     79  H   UNL A   1      31.877  25.095  25.207  1.00  0.00     0.163 HD
ATOM     80  O   UNL A   1      31.078  24.898  22.932  1.00  0.00    -0.267 OA
BRANCH  78  81
ATOM     81  C   UNL A   1      29.750  26.802  23.346  1.00  0.00     0.146 A 
ATOM     82  C   UNL A   1      30.029  27.949  22.624  1.00  0.00     0.128 A 
ATOM     83  N   UNL A   1      28.434  26.805  23.752  1.00  0.00    -0.231 NA
ATOM     84  N   UNL A   1      28.891  28.718  22.696  1.00  0.00    -0.290 N 
ATOM     85  C   UNL A   1      27.957  27.967  23.367  1.00  0.00     0.206 A 
BRANCH  84  86
ATOM     86  C   UNL A   1      28.707  30.052  22.251  1.00  0.00     0.142 A 
ATOM     87  C   UNL A   1      29.058  31.107  23.063  1.00  0.00     0.088 A 
ATOM     88  N   UNL A   1      28.147  30.224  21.031  1.00  0.00    -0.219 NA
ATOM     89  C   UNL A   1      28.788  32.348  22.542  1.00  0.00     0.134 A 
ATOM     90  C   UNL A   1      27.888  31.486  20.661  1.00  0.00     0.226 A 
ATOM     91  Cl  UNL A   1      29.226  33.767  23.403  1.00  0.00    -0.062 Cl
ATOM     92  N   UNL A   1      28.193  32.579  21.362  1.00  0.00    -0.224 NA
ENDBRANCH  84  86
ENDBRANCH  78  81
ENDBRANCH  76  77
ENDBRANCH  75  76
ENDBRANCH  74  75
ENDBRANCH   1  74
TORSDOF 15
ENDMDL
