MODEL 1
REMARK VINA RESULT:     -11.7      0.000      0.000
REMARK SMILES O=C(Cc1ccc(F)cc1F)Nc1sccc1C(=O)NCCCCNC(=O)c1ccc(-c2c3nc(c(-c4c(F)cc(S(=O)(=O)[O-])cc4F)c4ccc([nH]4)c(-c4c(F)cc(S(=O)(=O)[O-])cc4F)c4nc(c(-c5c(F)cc(S(=O)(=O)[O-])cc5F)c5ccc2[nH]5)C=C4)C=C3)cc1
REMARK SMILES IDX 22 1 21 2 20 3 18 4 19 5 17 7 13 8 14 9 15 10 16 11 12 12
REMARK SMILES IDX 1 13 2 14 3 16 4 17 5 18 10 19 6 20 9 21 11 22 7 23 8 24
REMARK SMILES IDX 23 25 24 26 25 27 26 28 27 30 28 31 29 32 93 33 30 34 92 35
REMARK SMILES IDX 31 36 32 37 33 38 86 39 34 40 91 41 85 42 87 43 35 44 90 45
REMARK SMILES IDX 84 46 83 47 36 49 70 50 49 51 69 52 50 53 53 54 68 55 88 56
REMARK SMILES IDX 51 57 52 58 67 60 89 61 54 62 37 63 38 64 47 65 39 66 40 67
REMARK SMILES IDX 46 68 48 69 41 70 42 71 43 72 44 73 45 74 71 75 72 76 81 77
REMARK SMILES IDX 73 78 74 79 80 80 82 81 75 82 76 83 77 84 78 85 79 86 55 87
REMARK SMILES IDX 56 88 65 89 57 90 58 91 64 92 66 93 59 94 60 95 61 96 62 97
REMARK SMILES IDX 63 98
REMARK H PARENT 20 6 12 15 25 29 87 48 53 59
REMARK Flexibility Score: inf
ROOT
ATOM      1  C   UNL A   1      31.662  27.391  26.139  1.00  0.00     0.023 C 
ENDROOT
BRANCH   1   2
ATOM      2  C   UNL A   1      32.126  25.968  26.422  1.00  0.00     0.116 C 
BRANCH   2   3
ATOM      3  N   UNL A   1      31.092  24.993  26.649  1.00  0.00    -0.352 N 
ATOM      4  C   UNL A   1      31.206  23.638  26.883  1.00  0.00     0.254 C 
ATOM      5  O   UNL A   1      30.162  23.014  27.083  1.00  0.00    -0.269 OA
ATOM      6  H   UNL A   1      30.172  25.342  26.636  1.00  0.00     0.163 HD
BRANCH   4   7
ATOM      7  C   UNL A   1      32.479  22.927  26.707  1.00  0.00     0.074 A 
ATOM      8  C   UNL A   1      33.282  22.759  25.589  1.00  0.00     0.108 A 
ATOM      9  S   UNL A   1      34.544  21.632  25.835  1.00  0.00    -0.126 S 
ATOM     10  C   UNL A   1      34.222  21.539  27.505  1.00  0.00     0.068 A 
ATOM     11  C   UNL A   1      33.102  22.265  27.837  1.00  0.00     0.028 A 
BRANCH   8  12
ATOM     12  N   UNL A   1      33.309  23.254  24.302  1.00  0.00    -0.317 N 
ATOM     13  O   UNL A   1      34.991  24.800  24.608  1.00  0.00    -0.274 OA
ATOM     14  C   UNL A   1      34.089  24.322  23.920  1.00  0.00     0.229 C 
ATOM     15  H   UNL A   1      32.744  22.821  23.622  1.00  0.00     0.170 HD
BRANCH  14  16
ATOM     16  C   UNL A   1      33.618  25.037  22.665  1.00  0.00     0.139 C 
BRANCH  16  17
ATOM     17  C   UNL A   1      32.631  26.172  22.696  1.00  0.00    -0.003 A 
ATOM     18  C   UNL A   1      33.174  27.473  22.621  1.00  0.00     0.010 A 
ATOM     19  C   UNL A   1      31.246  26.046  22.792  1.00  0.00     0.129 A 
ATOM     20  C   UNL A   1      32.351  28.598  22.651  1.00  0.00     0.040 A 
ATOM     21  C   UNL A   1      30.417  27.164  22.828  1.00  0.00     0.078 A 
ATOM     22  F   UNL A   1      30.679  24.837  22.890  1.00  0.00    -0.207 F 
ATOM     23  C   UNL A   1      30.978  28.431  22.755  1.00  0.00     0.126 A 
ATOM     24  F   UNL A   1      30.184  29.510  22.794  1.00  0.00    -0.207 F 
ENDBRANCH  16  17
ENDBRANCH  14  16
ENDBRANCH   8  12
ENDBRANCH   4   7
ENDBRANCH   2   3
ENDBRANCH   1   2
BRANCH   1  25
ATOM     25  C   UNL A   1      31.977  28.438  27.210  1.00  0.00     0.023 C 
BRANCH  25  26
ATOM     26  C   UNL A   1      33.371  29.065  27.206  1.00  0.00     0.116 C 
BRANCH  26  27
ATOM     27  N   UNL A   1      33.461  30.362  27.864  1.00  0.00    -0.352 N 
ATOM     28  C   UNL A   1      34.546  30.989  28.439  1.00  0.00     0.251 C 
ATOM     29  H   UNL A   1      32.617  30.867  27.905  1.00  0.00     0.163 HD
ATOM     30  O   UNL A   1      34.416  32.120  28.894  1.00  0.00    -0.269 OA
BRANCH  28  31
ATOM     31  C   UNL A   1      35.839  30.275  28.574  1.00  0.00     0.039 A 
ATOM     32  C   UNL A   1      36.691  30.229  27.466  1.00  0.00     0.014 A 
ATOM     33  C   UNL A   1      36.245  29.718  29.788  1.00  0.00     0.014 A 
ATOM     34  C   UNL A   1      37.993  29.741  27.609  1.00  0.00     0.010 A 
ATOM     35  C   UNL A   1      37.566  29.296  29.947  1.00  0.00     0.010 A 
ATOM     36  C   UNL A   1      38.463  29.334  28.869  1.00  0.00    -0.014 A 
BRANCH  36  37
ATOM     37  C   UNL A   1      39.900  29.013  29.089  1.00  0.00     0.031 A 
ATOM     38  C   UNL A   1      40.847  30.054  29.618  1.00  0.00     0.074 A 
ATOM     39  C   UNL A   1      40.371  27.799  28.731  1.00  0.00     0.049 A 
ATOM     40  N   UNL A   1      42.143  29.983  29.782  1.00  0.00    -0.248 NA
ATOM     41  C   UNL A   1      40.265  31.353  29.987  1.00  0.00     0.031 C 
ATOM     42  C   UNL A   1      39.569  26.716  28.155  1.00  0.00     0.029 A 
ATOM     43  N   UNL A   1      41.638  27.273  28.787  1.00  0.00    -0.354 N 
ATOM     44  C   UNL A   1      42.535  31.228  30.257  1.00  0.00     0.074 A 
ATOM     45  C   UNL A   1      41.344  32.049  30.317  1.00  0.00     0.031 C 
ATOM     46  C   UNL A   1      40.356  25.650  27.937  1.00  0.00     0.029 A 
ATOM     47  C   UNL A   1      41.725  25.982  28.320  1.00  0.00     0.049 A 
ATOM     48  H   UNL A   1      42.413  27.774  29.129  1.00  0.00     0.167 HD
ATOM     49  C   UNL A   1      43.769  31.644  30.628  1.00  0.00     0.037 A 
ATOM     50  C   UNL A   1      42.784  25.157  28.207  1.00  0.00     0.037 A 
ATOM     51  C   UNL A   1      44.949  30.818  30.596  1.00  0.00     0.049 A 
ATOM     52  C   UNL A   1      44.141  25.634  28.643  1.00  0.00     0.074 A 
ATOM     53  C   UNL A   1      46.235  31.139  30.995  1.00  0.00     0.029 A 
ATOM     54  N   UNL A   1      44.985  29.506  30.148  1.00  0.00    -0.354 N 
ATOM     55  N   UNL A   1      44.483  26.803  29.128  1.00  0.00    -0.248 NA
ATOM     56  C   UNL A   1      45.255  24.684  28.520  1.00  0.00     0.031 C 
ATOM     57  C   UNL A   1      47.055  30.029  30.764  1.00  0.00     0.029 A 
ATOM     58  C   UNL A   1      46.274  29.006  30.254  1.00  0.00     0.049 A 
ATOM     59  H   UNL A   1      44.212  29.005  29.804  1.00  0.00     0.167 HD
ATOM     60  C   UNL A   1      45.846  26.722  29.387  1.00  0.00     0.074 A 
ATOM     61  C   UNL A   1      46.265  25.388  29.015  1.00  0.00     0.031 C 
ATOM     62  C   UNL A   1      46.675  27.671  29.889  1.00  0.00     0.037 A 
BRANCH  49  63
ATOM     63  C   UNL A   1      43.907  33.058  31.117  1.00  0.00     0.058 A 
ATOM     64  C   UNL A   1      44.215  34.099  30.226  1.00  0.00     0.135 A 
ATOM     65  C   UNL A   1      43.766  33.379  32.476  1.00  0.00     0.135 A 
ATOM     66  F   UNL A   1      44.360  33.847  28.916  1.00  0.00    -0.206 F 
ATOM     67  C   UNL A   1      44.377  35.410  30.664  1.00  0.00     0.059 A 
ATOM     68  C   UNL A   1      43.901  34.685  32.933  1.00  0.00     0.059 A 
ATOM     69  F   UNL A   1      43.456  32.423  33.367  1.00  0.00    -0.206 F 
ATOM     70  C   UNL A   1      44.205  35.695  32.018  1.00  0.00     0.060 A 
BRANCH  70  71
ATOM     71  S   UNL A   1      44.375  37.385  32.629  1.00  0.00     0.124 S 
ATOM     72  O   UNL A   1      43.386  37.406  33.703  1.00  0.00    -0.237 OA
ATOM     73  O   UNL A   1      45.771  37.425  33.054  1.00  0.00    -0.237 OA
ATOM     74  O   UNL A   1      44.053  38.202  31.465  1.00  0.00    -0.744 OA
ENDBRANCH  70  71
ENDBRANCH  49  63
BRANCH  50  75
ATOM     75  C   UNL A   1      42.596  23.777  27.685  1.00  0.00     0.058 A 
ATOM     76  C   UNL A   1      42.462  22.679  28.548  1.00  0.00     0.135 A 
ATOM     77  C   UNL A   1      42.574  23.531  26.304  1.00  0.00     0.135 A 
ATOM     78  F   UNL A   1      42.493  22.862  29.877  1.00  0.00    -0.206 F 
ATOM     79  C   UNL A   1      42.324  21.381  28.063  1.00  0.00     0.059 A 
ATOM     80  C   UNL A   1      42.417  22.246  25.795  1.00  0.00     0.059 A 
ATOM     81  F   UNL A   1      42.691  24.550  25.440  1.00  0.00    -0.206 F 
ATOM     82  C   UNL A   1      42.297  21.176  26.684  1.00  0.00     0.060 A 
BRANCH  82  83
ATOM     83  S   UNL A   1      42.157  19.505  26.011  1.00  0.00     0.124 S 
ATOM     84  O   UNL A   1      40.739  19.441  25.678  1.00  0.00    -0.237 OA
ATOM     85  O   UNL A   1      43.078  19.553  24.880  1.00  0.00    -0.237 OA
ATOM     86  O   UNL A   1      42.586  18.660  27.122  1.00  0.00    -0.744 OA
ENDBRANCH  82  83
ENDBRANCH  50  75
BRANCH  62  87
ATOM     87  C   UNL A   1      48.114  27.297  30.094  1.00  0.00     0.058 A 
ATOM     88  C   UNL A   1      48.541  26.762  31.321  1.00  0.00     0.135 A 
ATOM     89  C   UNL A   1      49.081  27.535  29.107  1.00  0.00     0.135 A 
ATOM     90  F   UNL A   1      47.653  26.523  32.299  1.00  0.00    -0.206 F 
ATOM     91  C   UNL A   1      49.881  26.484  31.567  1.00  0.00     0.059 A 
ATOM     92  C   UNL A   1      50.424  27.245  29.325  1.00  0.00     0.059 A 
ATOM     93  F   UNL A   1      48.722  28.037  27.916  1.00  0.00    -0.206 F 
ATOM     94  C   UNL A   1      50.816  26.724  30.560  1.00  0.00     0.060 A 
BRANCH  94  95
ATOM     95  S   UNL A   1      52.569  26.401  30.847  1.00  0.00     0.124 S 
ATOM     96  O   UNL A   1      53.062  26.225  29.485  1.00  0.00    -0.237 OA
ATOM     97  O   UNL A   1      53.003  27.618  31.527  1.00  0.00    -0.237 OA
ATOM     98  O   UNL A   1      52.562  25.197  31.674  1.00  0.00    -0.744 OA
ENDBRANCH  94  95
ENDBRANCH  62  87
ENDBRANCH  36  37
ENDBRANCH  28  31
ENDBRANCH  26  27
ENDBRANCH  25  26
ENDBRANCH   1  25
TORSDOF 17
ENDMDL
MODEL 2
REMARK VINA RESULT:     -11.7      2.013      3.341
REMARK SMILES O=C(Cc1ccc(F)cc1F)Nc1sccc1C(=O)NCCCCNC(=O)c1ccc(-c2c3nc(c(-c4c(F)cc(S(=O)(=O)[O-])cc4F)c4ccc([nH]4)c(-c4c(F)cc(S(=O)(=O)[O-])cc4F)c4nc(c(-c5c(F)cc(S(=O)(=O)[O-])cc5F)c5ccc2[nH]5)C=C4)C=C3)cc1
REMARK SMILES IDX 22 1 21 2 20 3 18 4 19 5 17 7 13 8 14 9 15 10 16 11 12 12
REMARK SMILES IDX 1 13 2 14 3 16 4 17 5 18 10 19 6 20 9 21 11 22 7 23 8 24
REMARK SMILES IDX 23 25 24 26 25 27 26 28 27 30 28 31 29 32 93 33 30 34 92 35
REMARK SMILES IDX 31 36 32 37 33 38 86 39 34 40 91 41 85 42 87 43 35 44 90 45
REMARK SMILES IDX 84 46 83 47 36 49 70 50 49 51 69 52 50 53 53 54 68 55 88 56
REMARK SMILES IDX 51 57 52 58 67 60 89 61 54 62 37 63 38 64 47 65 39 66 40 67
REMARK SMILES IDX 46 68 48 69 41 70 42 71 43 72 44 73 45 74 71 75 72 76 81 77
REMARK SMILES IDX 73 78 74 79 80 80 82 81 75 82 76 83 77 84 78 85 79 86 55 87
REMARK SMILES IDX 56 88 65 89 57 90 58 91 64 92 66 93 59 94 60 95 61 96 62 97
REMARK SMILES IDX 63 98
REMARK H PARENT 20 6 12 15 25 29 87 48 53 59
REMARK Flexibility Score: inf
ROOT
ATOM      1  C   UNL A   1      32.645  28.905  24.659  1.00  0.00     0.023 C 
ENDROOT
BRANCH   1   2
ATOM      2  C   UNL A   1      33.920  28.170  24.269  1.00  0.00     0.116 C 
BRANCH   2   3
ATOM      3  N   UNL A   1      33.982  27.672  22.919  1.00  0.00    -0.352 N 
ATOM      4  C   UNL A   1      33.157  26.768  22.283  1.00  0.00     0.254 C 
ATOM      5  O   UNL A   1      33.400  26.524  21.100  1.00  0.00    -0.269 OA
ATOM      6  H   UNL A   1      34.719  28.028  22.372  1.00  0.00     0.163 HD
BRANCH   4   7
ATOM      7  C   UNL A   1      32.161  25.979  23.020  1.00  0.00     0.074 A 
ATOM      8  C   UNL A   1      32.283  24.797  23.735  1.00  0.00     0.108 A 
ATOM      9  S   UNL A   1      30.776  24.140  24.204  1.00  0.00    -0.126 S 
ATOM     10  C   UNL A   1      29.939  25.537  23.706  1.00  0.00     0.068 A 
ATOM     11  C   UNL A   1      30.785  26.430  23.090  1.00  0.00     0.028 A 
BRANCH   8  12
ATOM     12  N   UNL A   1      33.322  23.988  24.149  1.00  0.00    -0.317 N 
ATOM     13  O   UNL A   1      34.053  23.343  22.060  1.00  0.00    -0.274 OA
ATOM     14  C   UNL A   1      34.073  23.224  23.285  1.00  0.00     0.229 C 
ATOM     15  H   UNL A   1      33.536  23.957  25.109  1.00  0.00     0.170 HD
BRANCH  14  16
ATOM     16  C   UNL A   1      34.784  22.047  23.932  1.00  0.00     0.139 C 
BRANCH  16  17
ATOM     17  C   UNL A   1      36.073  22.192  24.694  1.00  0.00    -0.003 A 
ATOM     18  C   UNL A   1      36.433  23.506  25.067  1.00  0.00     0.010 A 
ATOM     19  C   UNL A   1      36.929  21.152  25.055  1.00  0.00     0.129 A 
ATOM     20  C   UNL A   1      37.612  23.757  25.767  1.00  0.00     0.040 A 
ATOM     21  C   UNL A   1      38.111  21.394  25.750  1.00  0.00     0.078 A 
ATOM     22  F   UNL A   1      36.649  19.890  24.707  1.00  0.00    -0.207 F 
ATOM     23  C   UNL A   1      38.440  22.696  26.102  1.00  0.00     0.126 A 
ATOM     24  F   UNL A   1      39.579  22.933  26.767  1.00  0.00    -0.207 F 
ENDBRANCH  16  17
ENDBRANCH  14  16
ENDBRANCH   8  12
ENDBRANCH   4   7
ENDBRANCH   2   3
ENDBRANCH   1   2
BRANCH   1  25
ATOM     25  C   UNL A   1      32.298  28.927  26.149  1.00  0.00     0.023 C 
BRANCH  25  26
ATOM     26  C   UNL A   1      33.449  29.035  27.149  1.00  0.00     0.116 C 
BRANCH  26  27
ATOM     27  N   UNL A   1      33.523  30.302  27.864  1.00  0.00    -0.352 N 
ATOM     28  C   UNL A   1      34.599  30.915  28.471  1.00  0.00     0.251 C 
ATOM     29  H   UNL A   1      32.673  30.797  27.922  1.00  0.00     0.163 HD
ATOM     30  O   UNL A   1      34.455  32.023  28.975  1.00  0.00    -0.269 OA
BRANCH  28  31
ATOM     31  C   UNL A   1      35.898  30.208  28.581  1.00  0.00     0.039 A 
ATOM     32  C   UNL A   1      36.743  30.194  27.467  1.00  0.00     0.014 A 
ATOM     33  C   UNL A   1      36.317  29.626  29.780  1.00  0.00     0.014 A 
ATOM     34  C   UNL A   1      38.050  29.713  27.591  1.00  0.00     0.010 A 
ATOM     35  C   UNL A   1      37.642  29.212  29.921  1.00  0.00     0.010 A 
ATOM     36  C   UNL A   1      38.532  29.281  28.838  1.00  0.00    -0.014 A 
BRANCH  36  37
ATOM     37  C   UNL A   1      39.972  28.966  29.041  1.00  0.00     0.031 A 
ATOM     38  C   UNL A   1      40.921  30.013  29.557  1.00  0.00     0.074 A 
ATOM     39  C   UNL A   1      40.444  27.754  28.680  1.00  0.00     0.049 A 
ATOM     40  N   UNL A   1      42.219  29.947  29.707  1.00  0.00    -0.248 NA
ATOM     41  C   UNL A   1      40.338  31.309  29.932  1.00  0.00     0.031 C 
ATOM     42  C   UNL A   1      39.640  26.666  28.115  1.00  0.00     0.029 A 
ATOM     43  N   UNL A   1      41.714  27.234  28.721  1.00  0.00    -0.354 N 
ATOM     44  C   UNL A   1      42.611  31.194  30.175  1.00  0.00     0.074 A 
ATOM     45  C   UNL A   1      41.418  32.011  30.248  1.00  0.00     0.031 C 
ATOM     46  C   UNL A   1      40.429  25.604  27.889  1.00  0.00     0.029 A 
ATOM     47  C   UNL A   1      41.801  25.942  28.255  1.00  0.00     0.049 A 
ATOM     48  H   UNL A   1      42.491  27.738  29.054  1.00  0.00     0.167 HD
ATOM     49  C   UNL A   1      43.848  31.616  30.531  1.00  0.00     0.037 A 
ATOM     50  C   UNL A   1      42.862  25.122  28.131  1.00  0.00     0.037 A 
ATOM     51  C   UNL A   1      45.031  30.796  30.486  1.00  0.00     0.049 A 
ATOM     52  C   UNL A   1      44.222  25.605  28.550  1.00  0.00     0.074 A 
ATOM     53  C   UNL A   1      46.320  31.123  30.869  1.00  0.00     0.029 A 
ATOM     54  N   UNL A   1      45.068  29.483  30.039  1.00  0.00    -0.354 N 
ATOM     55  N   UNL A   1      44.565  26.777  29.029  1.00  0.00    -0.248 NA
ATOM     56  C   UNL A   1      45.339  24.660  28.415  1.00  0.00     0.031 C 
ATOM     57  C   UNL A   1      47.142  30.016  30.630  1.00  0.00     0.029 A 
ATOM     58  C   UNL A   1      46.359  28.989  30.131  1.00  0.00     0.049 A 
ATOM     59  H   UNL A   1      44.292  28.978  29.706  1.00  0.00     0.167 HD
ATOM     60  C   UNL A   1      45.932  26.702  29.272  1.00  0.00     0.074 A 
ATOM     61  C   UNL A   1      46.352  25.369  28.897  1.00  0.00     0.031 C 
ATOM     62  C   UNL A   1      46.762  27.655  29.763  1.00  0.00     0.037 A 
BRANCH  49  63
ATOM     63  C   UNL A   1      43.985  33.032  31.016  1.00  0.00     0.058 A 
ATOM     64  C   UNL A   1      43.917  33.331  32.386  1.00  0.00     0.135 A 
ATOM     65  C   UNL A   1      44.152  34.099  30.120  1.00  0.00     0.135 A 
ATOM     66  F   UNL A   1      43.758  32.347  33.286  1.00  0.00    -0.206 F 
ATOM     67  C   UNL A   1      44.010  34.639  32.854  1.00  0.00     0.059 A 
ATOM     68  C   UNL A   1      44.271  35.411  30.565  1.00  0.00     0.059 A 
ATOM     69  F   UNL A   1      44.240  33.866  28.800  1.00  0.00    -0.206 F 
ATOM     70  C   UNL A   1      44.200  35.671  31.935  1.00  0.00     0.060 A 
BRANCH  70  71
ATOM     71  S   UNL A   1      44.358  37.380  32.495  1.00  0.00     0.124 S 
ATOM     72  O   UNL A   1      44.143  38.113  31.251  1.00  0.00    -0.237 OA
ATOM     73  O   UNL A   1      43.289  37.484  33.485  1.00  0.00    -0.237 OA
ATOM     74  O   UNL A   1      45.713  37.439  33.031  1.00  0.00    -0.744 OA
ENDBRANCH  70  71
ENDBRANCH  49  63
BRANCH  50  75
ATOM     75  C   UNL A   1      42.674  23.740  27.613  1.00  0.00     0.058 A 
ATOM     76  C   UNL A   1      42.438  22.660  28.476  1.00  0.00     0.135 A 
ATOM     77  C   UNL A   1      42.754  23.474  26.237  1.00  0.00     0.135 A 
ATOM     78  F   UNL A   1      42.369  22.862  29.801  1.00  0.00    -0.206 F 
ATOM     79  C   UNL A   1      42.300  21.360  27.998  1.00  0.00     0.059 A 
ATOM     80  C   UNL A   1      42.599  22.187  25.734  1.00  0.00     0.059 A 
ATOM     81  F   UNL A   1      42.970  24.477  25.373  1.00  0.00    -0.206 F 
ATOM     82  C   UNL A   1      42.376  21.134  26.624  1.00  0.00     0.060 A 
BRANCH  82  83
ATOM     83  S   UNL A   1      42.238  19.459  25.963  1.00  0.00     0.124 S 
ATOM     84  O   UNL A   1      42.761  18.663  27.068  1.00  0.00    -0.237 OA
ATOM     85  O   UNL A   1      40.805  19.345  25.715  1.00  0.00    -0.237 OA
ATOM     86  O   UNL A   1      43.072  19.502  24.765  1.00  0.00    -0.744 OA
ENDBRANCH  82  83
ENDBRANCH  50  75
BRANCH  62  87
ATOM     87  C   UNL A   1      48.205  27.288  29.952  1.00  0.00     0.058 A 
ATOM     88  C   UNL A   1      48.643  26.728  31.164  1.00  0.00     0.135 A 
ATOM     89  C   UNL A   1      49.165  27.555  28.965  1.00  0.00     0.135 A 
ATOM     90  F   UNL A   1      47.763  26.461  32.141  1.00  0.00    -0.206 F 
ATOM     91  C   UNL A   1      49.987  26.455  31.396  1.00  0.00     0.059 A 
ATOM     92  C   UNL A   1      50.511  27.271  29.169  1.00  0.00     0.059 A 
ATOM     93  F   UNL A   1      48.795  28.081  27.788  1.00  0.00    -0.206 F 
ATOM     94  C   UNL A   1      50.914  26.725  30.390  1.00  0.00     0.060 A 
BRANCH  94  95
ATOM     95  S   UNL A   1      52.671  26.409  30.659  1.00  0.00     0.124 S 
ATOM     96  O   UNL A   1      53.102  27.656  31.283  1.00  0.00    -0.237 OA
ATOM     97  O   UNL A   1      52.647  25.238  31.530  1.00  0.00    -0.237 OA
ATOM     98  O   UNL A   1      53.183  26.171  29.312  1.00  0.00    -0.744 OA
ENDBRANCH  94  95
ENDBRANCH  62  87
ENDBRANCH  36  37
ENDBRANCH  28  31
ENDBRANCH  26  27
ENDBRANCH  25  26
ENDBRANCH   1  25
TORSDOF 17
ENDMDL
MODEL 3
REMARK VINA RESULT:     -11.6      2.828      3.895
REMARK SMILES O=C(Cc1ccc(F)cc1F)Nc1sccc1C(=O)NCCCCNC(=O)c1ccc(-c2c3nc(c(-c4c(F)cc(S(=O)(=O)[O-])cc4F)c4ccc([nH]4)c(-c4c(F)cc(S(=O)(=O)[O-])cc4F)c4nc(c(-c5c(F)cc(S(=O)(=O)[O-])cc5F)c5ccc2[nH]5)C=C4)C=C3)cc1
REMARK SMILES IDX 22 1 21 2 20 3 18 4 19 5 17 7 13 8 14 9 15 10 16 11 12 12
REMARK SMILES IDX 1 13 2 14 3 16 4 17 5 18 10 19 6 20 9 21 11 22 7 23 8 24
REMARK SMILES IDX 23 25 24 26 25 27 26 28 27 30 28 31 29 32 93 33 30 34 92 35
REMARK SMILES IDX 31 36 32 37 33 38 86 39 34 40 91 41 85 42 87 43 35 44 90 45
REMARK SMILES IDX 84 46 83 47 36 49 70 50 49 51 69 52 50 53 53 54 68 55 88 56
REMARK SMILES IDX 51 57 52 58 67 60 89 61 54 62 37 63 38 64 47 65 39 66 40 67
REMARK SMILES IDX 46 68 48 69 41 70 42 71 43 72 44 73 45 74 71 75 72 76 81 77
REMARK SMILES IDX 73 78 74 79 80 80 82 81 75 82 76 83 77 84 78 85 79 86 55 87
REMARK SMILES IDX 56 88 65 89 57 90 58 91 64 92 66 93 59 94 60 95 61 96 62 97
REMARK SMILES IDX 63 98
REMARK H PARENT 20 6 12 15 25 29 87 48 53 59
REMARK Flexibility Score: inf
ROOT
ATOM      1  C   UNL A   1      34.515  29.409  27.624  1.00  0.00     0.023 C 
ENDROOT
BRANCH   1   2
ATOM      2  C   UNL A   1      33.388  28.929  26.720  1.00  0.00     0.116 C 
BRANCH   2   3
ATOM      3  N   UNL A   1      33.697  28.816  25.319  1.00  0.00    -0.352 N 
ATOM      4  C   UNL A   1      33.572  27.727  24.481  1.00  0.00     0.254 C 
ATOM      5  O   UNL A   1      33.876  27.892  23.298  1.00  0.00    -0.269 OA
ATOM      6  H   UNL A   1      34.048  29.634  24.897  1.00  0.00     0.163 HD
BRANCH   4   7
ATOM      7  C   UNL A   1      33.286  26.383  24.998  1.00  0.00     0.074 A 
ATOM      8  C   UNL A   1      32.087  25.773  25.338  1.00  0.00     0.108 A 
ATOM      9  S   UNL A   1      32.300  24.275  26.134  1.00  0.00    -0.126 S 
ATOM     10  C   UNL A   1      33.973  24.268  25.811  1.00  0.00     0.068 A 
ATOM     11  C   UNL A   1      34.368  25.442  25.212  1.00  0.00     0.028 A 
BRANCH   8  12
ATOM     12  N   UNL A   1      30.747  26.081  25.222  1.00  0.00    -0.317 N 
ATOM     13  O   UNL A   1      30.331  24.894  23.290  1.00  0.00    -0.274 OA
ATOM     14  C   UNL A   1      29.979  25.710  24.142  1.00  0.00     0.229 C 
ATOM     15  H   UNL A   1      30.320  26.591  25.948  1.00  0.00     0.170 HD
BRANCH  14  16
ATOM     16  C   UNL A   1      28.729  26.548  23.934  1.00  0.00     0.139 C 
BRANCH  16  17
ATOM     17  C   UNL A   1      28.751  27.887  23.247  1.00  0.00    -0.003 A 
ATOM     18  C   UNL A   1      29.993  28.296  22.716  1.00  0.00     0.010 A 
ATOM     19  C   UNL A   1      27.661  28.745  23.096  1.00  0.00     0.129 A 
ATOM     20  C   UNL A   1      30.130  29.522  22.067  1.00  0.00     0.040 A 
ATOM     21  C   UNL A   1      27.790  29.974  22.455  1.00  0.00     0.078 A 
ATOM     22  F   UNL A   1      26.465  28.419  23.602  1.00  0.00    -0.207 F 
ATOM     23  C   UNL A   1      29.024  30.351  21.944  1.00  0.00     0.126 A 
ATOM     24  F   UNL A   1      29.152  31.534  21.330  1.00  0.00    -0.207 F 
ENDBRANCH  16  17
ENDBRANCH  14  16
ENDBRANCH   8  12
ENDBRANCH   4   7
ENDBRANCH   2   3
ENDBRANCH   1   2
BRANCH   1  25
ATOM     25  C   UNL A   1      34.792  30.915  27.631  1.00  0.00     0.023 C 
BRANCH  25  26
ATOM     26  C   UNL A   1      35.674  31.472  28.747  1.00  0.00     0.116 C 
BRANCH  26  27
ATOM     27  N   UNL A   1      35.612  30.736  30.003  1.00  0.00    -0.352 N 
ATOM     28  C   UNL A   1      36.624  30.167  30.747  1.00  0.00     0.251 C 
ATOM     29  H   UNL A   1      34.707  30.628  30.377  1.00  0.00     0.163 HD
ATOM     30  O   UNL A   1      36.357  29.635  31.819  1.00  0.00    -0.269 OA
BRANCH  28  31
ATOM     31  C   UNL A   1      38.010  30.133  30.222  1.00  0.00     0.039 A 
ATOM     32  C   UNL A   1      39.068  30.201  31.134  1.00  0.00     0.014 A 
ATOM     33  C   UNL A   1      38.274  29.964  28.861  1.00  0.00     0.014 A 
ATOM     34  C   UNL A   1      40.377  29.974  30.700  1.00  0.00     0.010 A 
ATOM     35  C   UNL A   1      39.572  29.668  28.440  1.00  0.00     0.010 A 
ATOM     36  C   UNL A   1      40.632  29.638  29.360  1.00  0.00    -0.014 A 
BRANCH  36  37
ATOM     37  C   UNL A   1      41.980  29.187  28.920  1.00  0.00     0.031 A 
ATOM     38  C   UNL A   1      43.127  30.158  28.842  1.00  0.00     0.074 A 
ATOM     39  C   UNL A   1      42.153  27.912  28.511  1.00  0.00     0.049 A 
ATOM     40  N   UNL A   1      44.341  29.966  28.393  1.00  0.00    -0.248 NA
ATOM     41  C   UNL A   1      42.866  31.529  29.305  1.00  0.00     0.031 C 
ATOM     42  C   UNL A   1      41.111  26.882  28.485  1.00  0.00     0.029 A 
ATOM     43  N   UNL A   1      43.263  27.265  28.026  1.00  0.00    -0.354 N 
ATOM     44  C   UNL A   1      44.985  31.192  28.504  1.00  0.00     0.074 A 
ATOM     45  C   UNL A   1      44.014  32.131  29.024  1.00  0.00     0.031 C 
ATOM     46  C   UNL A   1      41.636  25.731  28.036  1.00  0.00     0.029 A 
ATOM     47  C   UNL A   1      43.042  25.946  27.706  1.00  0.00     0.049 A 
ATOM     48  H   UNL A   1      44.137  27.705  27.918  1.00  0.00     0.167 HD
ATOM     49  C   UNL A   1      46.271  31.502  28.216  1.00  0.00     0.037 A 
ATOM     50  C   UNL A   1      43.871  25.012  27.199  1.00  0.00     0.037 A 
ATOM     51  C   UNL A   1      47.245  30.562  27.725  1.00  0.00     0.049 A 
ATOM     52  C   UNL A   1      45.300  25.376  26.906  1.00  0.00     0.074 A 
ATOM     53  C   UNL A   1      48.583  30.775  27.448  1.00  0.00     0.029 A 
ATOM     54  N   UNL A   1      46.986  29.228  27.447  1.00  0.00    -0.354 N 
ATOM     55  N   UNL A   1      45.900  26.532  27.056  1.00  0.00    -0.248 NA
ATOM     56  C   UNL A   1      46.165  24.312  26.378  1.00  0.00     0.031 C 
ATOM     57  C   UNL A   1      49.130  29.576  26.977  1.00  0.00     0.029 A 
ATOM     58  C   UNL A   1      48.140  28.607  26.994  1.00  0.00     0.049 A 
ATOM     59  H   UNL A   1      46.113  28.787  27.553  1.00  0.00     0.167 HD
ATOM     60  C   UNL A   1      47.218  26.330  26.661  1.00  0.00     0.074 A 
ATOM     61  C   UNL A   1      47.330  24.939  26.274  1.00  0.00     0.031 C 
ATOM     62  C   UNL A   1      48.240  27.218  26.622  1.00  0.00     0.037 A 
BRANCH  49  63
ATOM     63  C   UNL A   1      46.708  32.923  28.439  1.00  0.00     0.058 A 
ATOM     64  C   UNL A   1      47.304  33.309  29.651  1.00  0.00     0.135 A 
ATOM     65  C   UNL A   1      46.505  33.912  27.465  1.00  0.00     0.135 A 
ATOM     66  F   UNL A   1      47.521  32.402  30.616  1.00  0.00    -0.206 F 
ATOM     67  C   UNL A   1      47.687  34.626  29.889  1.00  0.00     0.059 A 
ATOM     68  C   UNL A   1      46.900  35.229  27.671  1.00  0.00     0.059 A 
ATOM     69  F   UNL A   1      45.953  33.593  26.283  1.00  0.00    -0.206 F 
ATOM     70  C   UNL A   1      47.492  35.576  28.887  1.00  0.00     0.060 A 
BRANCH  70  71
ATOM     71  S   UNL A   1      48.000  37.290  29.137  1.00  0.00     0.124 S 
ATOM     72  O   UNL A   1      46.813  38.012  28.690  1.00  0.00    -0.237 OA
ATOM     73  O   UNL A   1      48.264  37.331  30.573  1.00  0.00    -0.237 OA
ATOM     74  O   UNL A   1      49.175  37.425  28.283  1.00  0.00    -0.744 OA
ENDBRANCH  70  71
ENDBRANCH  49  63
BRANCH  50  75
ATOM     75  C   UNL A   1      43.377  23.629  26.966  1.00  0.00     0.058 A 
ATOM     76  C   UNL A   1      43.197  22.727  28.025  1.00  0.00     0.135 A 
ATOM     77  C   UNL A   1      43.099  23.178  25.667  1.00  0.00     0.135 A 
ATOM     78  F   UNL A   1      43.466  23.108  29.284  1.00  0.00    -0.206 F 
ATOM     79  C   UNL A   1      42.771  21.420  27.808  1.00  0.00     0.059 A 
ATOM     80  C   UNL A   1      42.652  21.883  25.426  1.00  0.00     0.059 A 
ATOM     81  F   UNL A   1      43.247  24.007  24.624  1.00  0.00    -0.206 F 
ATOM     82  C   UNL A   1      42.496  21.009  26.504  1.00  0.00     0.060 A 
BRANCH  82  83
ATOM     83  S   UNL A   1      41.975  19.311  26.172  1.00  0.00     0.124 S 
ATOM     84  O   UNL A   1      42.347  18.641  27.412  1.00  0.00    -0.237 OA
ATOM     85  O   UNL A   1      40.544  19.471  25.936  1.00  0.00    -0.237 OA
ATOM     86  O   UNL A   1      42.759  18.945  24.995  1.00  0.00    -0.744 OA
ENDBRANCH  82  83
ENDBRANCH  50  75
BRANCH  62  87
ATOM     87  C   UNL A   1      49.581  26.714  26.174  1.00  0.00     0.058 A 
ATOM     88  C   UNL A   1      50.455  26.108  27.092  1.00  0.00     0.135 A 
ATOM     89  C   UNL A   1      50.031  26.896  24.859  1.00  0.00     0.135 A 
ATOM     90  F   UNL A   1      50.073  25.918  28.364  1.00  0.00    -0.206 F 
ATOM     91  C   UNL A   1      51.735  25.706  26.723  1.00  0.00     0.059 A 
ATOM     92  C   UNL A   1      51.299  26.484  24.463  1.00  0.00     0.059 A 
ATOM     93  F   UNL A   1      49.230  27.463  23.943  1.00  0.00    -0.206 F 
ATOM     94  C   UNL A   1      52.146  25.894  25.404  1.00  0.00     0.060 A 
BRANCH  94  95
ATOM     95  S   UNL A   1      53.808  25.411  24.889  1.00  0.00     0.124 S 
ATOM     96  O   UNL A   1      54.623  25.967  25.964  1.00  0.00    -0.237 OA
ATOM     97  O   UNL A   1      53.712  23.955  24.853  1.00  0.00    -0.237 OA
ATOM     98  O   UNL A   1      53.961  26.055  23.587  1.00  0.00    -0.744 OA
ENDBRANCH  94  95
ENDBRANCH  62  87
ENDBRANCH  36  37
ENDBRANCH  28  31
ENDBRANCH  26  27
ENDBRANCH  25  26
ENDBRANCH   1  25
TORSDOF 17
ENDMDL
