MODEL 1
REMARK VINA RESULT:     -12.2      0.000      0.000
REMARK SMILES O=C(NCCCCNC(=O)[C@H](c1ccccc1)N1C(=O)/C(=C\c2ccc(Br)cc2)SC1=S)c1ccc(-c2c3nc(c(-c4c(F)cc(S(=O)(=O)[O-])cc4F)c4ccc([nH]4)c(-c4c(F)cc(S(=O)(=O)[O-])cc4F)c4nc(c(-c5c(F)cc(S(=O)(=O)[O-])cc5F)c5ccc2[nH]5)C=C4)C=C3)cc1
REMARK SMILES IDX 5 1 4 2 3 3 1 4 2 5 33 7 34 8 98 9 35 10 97 11 36 12 37 13
REMARK SMILES IDX 38 14 91 15 39 16 96 17 90 18 92 19 40 20 95 21 89 22 88 23
REMARK SMILES IDX 41 25 75 26 54 27 74 28 55 29 58 30 73 31 93 32 56 33 57 34
REMARK SMILES IDX 72 36 94 37 59 38 42 39 43 40 52 41 44 42 45 43 51 44 53 45
REMARK SMILES IDX 46 46 47 47 48 48 49 49 50 50 76 51 77 52 86 53 78 54 79 55
REMARK SMILES IDX 85 56 87 57 80 58 81 59 82 60 83 61 84 62 60 63 61 64 70 65
REMARK SMILES IDX 62 66 63 67 69 68 71 69 64 70 65 71 66 72 67 73 68 74 6 75
REMARK SMILES IDX 7 76 8 77 9 78 10 80 11 81 18 82 19 83 31 84 20 85 21 86
REMARK SMILES IDX 30 87 32 88 22 89 23 90 24 91 29 92 25 93 28 94 26 95 27 96
REMARK SMILES IDX 12 97 13 98 17 99 14 100 16 101 15 102
REMARK H PARENT 3 6 92 24 58 35 8 79
REMARK Flexibility Score: inf
ROOT
ATOM      1  C   UNL A   1      39.607  22.507  26.747  1.00  0.00     0.023 C 
ENDROOT
BRANCH   1   2
ATOM      2  C   UNL A   1      40.862  23.195  27.274  1.00  0.00     0.116 C 
BRANCH   2   3
ATOM      3  N   UNL A   1      41.670  23.785  26.218  1.00  0.00    -0.352 N 
ATOM      4  O   UNL A   1      42.647  25.422  25.024  1.00  0.00    -0.269 OA
ATOM      5  C   UNL A   1      42.086  25.086  26.062  1.00  0.00     0.251 C 
ATOM      6  H   UNL A   1      41.961  23.162  25.513  1.00  0.00     0.163 HD
BRANCH   5   7
ATOM      7  C   UNL A   1      41.826  26.077  27.129  1.00  0.00     0.039 A 
ATOM      8  C   UNL A   1      42.651  27.195  27.286  1.00  0.00     0.014 A 
ATOM      9  C   UNL A   1      40.740  25.878  27.984  1.00  0.00     0.014 A 
ATOM     10  C   UNL A   1      42.469  28.041  28.378  1.00  0.00     0.010 A 
ATOM     11  C   UNL A   1      40.519  26.767  29.038  1.00  0.00     0.010 A 
ATOM     12  C   UNL A   1      41.400  27.837  29.263  1.00  0.00    -0.014 A 
BRANCH  12  13
ATOM     13  C   UNL A   1      41.182  28.763  30.402  1.00  0.00     0.031 A 
ATOM     14  C   UNL A   1      42.019  28.659  31.645  1.00  0.00     0.074 A 
ATOM     15  C   UNL A   1      40.201  29.682  30.322  1.00  0.00     0.049 A 
ATOM     16  N   UNL A   1      41.911  29.319  32.770  1.00  0.00    -0.248 NA
ATOM     17  C   UNL A   1      43.117  27.680  31.626  1.00  0.00     0.031 C 
ATOM     18  C   UNL A   1      39.324  29.876  29.166  1.00  0.00     0.029 A 
ATOM     19  N   UNL A   1      39.766  30.612  31.231  1.00  0.00    -0.354 N 
ATOM     20  C   UNL A   1      42.906  28.820  33.603  1.00  0.00     0.074 A 
ATOM     21  C   UNL A   1      43.597  27.787  32.857  1.00  0.00     0.031 C 
ATOM     22  C   UNL A   1      38.460  30.867  29.432  1.00  0.00     0.029 A 
ATOM     23  C   UNL A   1      38.683  31.336  30.796  1.00  0.00     0.049 A 
ATOM     24  H   UNL A   1      40.191  30.749  32.109  1.00  0.00     0.167 HD
ATOM     25  C   UNL A   1      43.214  29.189  34.870  1.00  0.00     0.037 A 
ATOM     26  C   UNL A   1      37.927  32.251  31.432  1.00  0.00     0.037 A 
ATOM     27  C   UNL A   1      42.523  30.223  35.598  1.00  0.00     0.049 A 
ATOM     28  C   UNL A   1      38.267  32.629  32.844  1.00  0.00     0.074 A 
ATOM     29  C   UNL A   1      42.779  30.695  36.874  1.00  0.00     0.029 A 
ATOM     30  N   UNL A   1      41.435  30.940  35.119  1.00  0.00    -0.354 N 
ATOM     31  N   UNL A   1      39.226  32.165  33.609  1.00  0.00    -0.248 NA
ATOM     32  C   UNL A   1      37.427  33.652  33.481  1.00  0.00     0.031 C 
ATOM     33  C   UNL A   1      41.819  31.665  37.183  1.00  0.00     0.029 A 
ATOM     34  C   UNL A   1      40.996  31.836  36.079  1.00  0.00     0.049 A 
ATOM     35  H   UNL A   1      41.036  30.828  34.226  1.00  0.00     0.167 HD
ATOM     36  C   UNL A   1      39.122  32.858  34.810  1.00  0.00     0.074 A 
ATOM     37  C   UNL A   1      38.006  33.771  34.670  1.00  0.00     0.031 C 
ATOM     38  C   UNL A   1      39.889  32.748  35.922  1.00  0.00     0.037 A 
BRANCH  25  39
ATOM     39  C   UNL A   1      44.324  28.443  35.560  1.00  0.00     0.058 A 
ATOM     40  C   UNL A   1      44.079  27.300  36.338  1.00  0.00     0.135 A 
ATOM     41  C   UNL A   1      45.655  28.878  35.439  1.00  0.00     0.135 A 
ATOM     42  F   UNL A   1      42.826  26.847  36.499  1.00  0.00    -0.206 F 
ATOM     43  C   UNL A   1      45.107  26.642  37.009  1.00  0.00     0.059 A 
ATOM     44  C   UNL A   1      46.701  28.219  36.078  1.00  0.00     0.059 A 
ATOM     45  F   UNL A   1      45.947  29.961  34.703  1.00  0.00    -0.206 F 
ATOM     46  C   UNL A   1      46.413  27.117  36.882  1.00  0.00     0.060 A 
BRANCH  46  47
ATOM     47  S   UNL A   1      47.730  26.284  37.793  1.00  0.00     0.124 S 
ATOM     48  O   UNL A   1      48.916  26.763  37.088  1.00  0.00    -0.237 OA
ATOM     49  O   UNL A   1      47.549  26.795  39.147  1.00  0.00    -0.237 OA
ATOM     50  O   UNL A   1      47.425  24.868  37.615  1.00  0.00    -0.744 OA
ENDBRANCH  46  47
ENDBRANCH  25  39
BRANCH  26  51
ATOM     51  C   UNL A   1      36.773  32.854  30.717  1.00  0.00     0.058 A 
ATOM     52  C   UNL A   1      35.464  32.424  30.968  1.00  0.00     0.135 A 
ATOM     53  C   UNL A   1      36.953  33.935  29.838  1.00  0.00     0.135 A 
ATOM     54  F   UNL A   1      35.244  31.392  31.798  1.00  0.00    -0.206 F 
ATOM     55  C   UNL A   1      34.369  33.048  30.380  1.00  0.00     0.059 A 
ATOM     56  C   UNL A   1      35.874  34.590  29.256  1.00  0.00     0.059 A 
ATOM     57  F   UNL A   1      38.188  34.394  29.582  1.00  0.00    -0.206 F 
ATOM     58  C   UNL A   1      34.585  34.139  29.534  1.00  0.00     0.060 A 
BRANCH  58  59
ATOM     59  S   UNL A   1      33.153  35.008  28.859  1.00  0.00     0.124 S 
ATOM     60  O   UNL A   1      32.376  35.274  30.064  1.00  0.00    -0.237 OA
ATOM     61  O   UNL A   1      33.769  36.170  28.227  1.00  0.00    -0.237 OA
ATOM     62  O   UNL A   1      32.575  34.036  27.935  1.00  0.00    -0.744 OA
ENDBRANCH  58  59
ENDBRANCH  26  51
BRANCH  38  63
ATOM     63  C   UNL A   1      39.584  33.667  37.071  1.00  0.00     0.058 A 
ATOM     64  C   UNL A   1      38.736  33.281  38.120  1.00  0.00     0.135 A 
ATOM     65  C   UNL A   1      40.221  34.915  37.164  1.00  0.00     0.135 A 
ATOM     66  F   UNL A   1      38.096  32.102  38.074  1.00  0.00    -0.206 F 
ATOM     67  C   UNL A   1      38.530  34.103  39.223  1.00  0.00     0.059 A 
ATOM     68  C   UNL A   1      40.046  35.743  38.268  1.00  0.00     0.059 A 
ATOM     69  F   UNL A   1      41.046  35.327  36.188  1.00  0.00    -0.206 F 
ATOM     70  C   UNL A   1      39.195  35.329  39.292  1.00  0.00     0.060 A 
BRANCH  70  71
ATOM     71  S   UNL A   1      38.976  36.355  40.761  1.00  0.00     0.124 S 
ATOM     72  O   UNL A   1      37.951  35.614  41.487  1.00  0.00    -0.237 OA
ATOM     73  O   UNL A   1      40.309  36.342  41.356  1.00  0.00    -0.237 OA
ATOM     74  O   UNL A   1      38.553  37.642  40.217  1.00  0.00    -0.744 OA
ENDBRANCH  70  71
ENDBRANCH  38  63
ENDBRANCH  12  13
ENDBRANCH   5   7
ENDBRANCH   2   3
ENDBRANCH   1   2
BRANCH   1  75
ATOM     75  C   UNL A   1      38.501  23.446  26.267  1.00  0.00     0.023 C 
BRANCH  75  76
ATOM     76  C   UNL A   1      37.191  22.765  25.881  1.00  0.00     0.116 C 
BRANCH  76  77
ATOM     77  N   UNL A   1      36.809  23.002  24.501  1.00  0.00    -0.354 N 
ATOM     78  C   UNL A   1      35.585  22.874  23.889  1.00  0.00     0.247 C 
ATOM     79  H   UNL A   1      37.539  23.302  23.913  1.00  0.00     0.163 HD
ATOM     80  O   UNL A   1      35.553  23.033  22.667  1.00  0.00    -0.272 OA
BRANCH  78  81
ATOM     81  C   UNL A   1      34.355  22.447  24.725  1.00  0.00     0.211 C 
BRANCH  81  82
ATOM     82  N   UNL A   1      33.113  23.188  24.411  1.00  0.00    -0.276 N 
ATOM     83  C   UNL A   1      32.825  24.306  25.179  1.00  0.00     0.267 C 
ATOM     84  C   UNL A   1      32.160  22.843  23.474  1.00  0.00     0.149 C 
ATOM     85  O   UNL A   1      33.466  24.695  26.144  1.00  0.00    -0.268 OA
ATOM     86  C   UNL A   1      31.616  24.995  24.652  1.00  0.00     0.081 C 
ATOM     87  S   UNL A   1      30.774  23.931  23.601  1.00  0.00    -0.054 SA
ATOM     88  S   UNL A   1      32.198  21.678  22.284  1.00  0.00    -0.052 S 
ATOM     89  C   UNL A   1      31.265  26.275  24.834  1.00  0.00     0.029 C 
BRANCH  89  90
ATOM     90  C   UNL A   1      32.088  27.267  25.529  1.00  0.00    -0.024 A 
ATOM     91  C   UNL A   1      31.783  27.647  26.839  1.00  0.00     0.009 A 
ATOM     92  C   UNL A   1      33.183  27.848  24.874  1.00  0.00     0.009 A 
ATOM     93  C   UNL A   1      32.580  28.588  27.496  1.00  0.00     0.016 A 
ATOM     94  C   UNL A   1      33.981  28.786  25.531  1.00  0.00     0.016 A 
ATOM     95  C   UNL A   1      33.677  29.149  26.841  1.00  0.00     0.018 A 
ATOM     96  Br  UNL A   1      34.757  30.414  27.738  1.00  0.00    -0.051 Br
ENDBRANCH  89  90
ENDBRANCH  81  82
BRANCH  81  97
ATOM     97  C   UNL A   1      34.114  20.951  24.911  1.00  0.00    -0.016 A 
ATOM     98  C   UNL A   1      35.006  19.966  24.469  1.00  0.00     0.006 A 
ATOM     99  C   UNL A   1      32.916  20.528  25.523  1.00  0.00     0.006 A 
ATOM    100  C   UNL A   1      34.700  18.609  24.600  1.00  0.00     0.000 A 
ATOM    101  C   UNL A   1      32.623  19.172  25.677  1.00  0.00     0.000 A 
ATOM    102  C   UNL A   1      33.510  18.212  25.204  1.00  0.00     0.000 A 
ENDBRANCH  81  97
ENDBRANCH  78  81
ENDBRANCH  76  77
ENDBRANCH  75  76
ENDBRANCH   1  75
TORSDOF 17
ENDMDL
MODEL 2
REMARK VINA RESULT:     -12.1      6.118     11.909
REMARK SMILES O=C(NCCCCNC(=O)[C@H](c1ccccc1)N1C(=O)/C(=C\c2ccc(Br)cc2)SC1=S)c1ccc(-c2c3nc(c(-c4c(F)cc(S(=O)(=O)[O-])cc4F)c4ccc([nH]4)c(-c4c(F)cc(S(=O)(=O)[O-])cc4F)c4nc(c(-c5c(F)cc(S(=O)(=O)[O-])cc5F)c5ccc2[nH]5)C=C4)C=C3)cc1
REMARK SMILES IDX 5 1 4 2 3 3 1 4 2 5 33 7 34 8 98 9 35 10 97 11 36 12 37 13
REMARK SMILES IDX 38 14 91 15 39 16 96 17 90 18 92 19 40 20 95 21 89 22 88 23
REMARK SMILES IDX 41 25 75 26 54 27 74 28 55 29 58 30 73 31 93 32 56 33 57 34
REMARK SMILES IDX 72 36 94 37 59 38 42 39 43 40 52 41 44 42 45 43 51 44 53 45
REMARK SMILES IDX 46 46 47 47 48 48 49 49 50 50 76 51 77 52 86 53 78 54 79 55
REMARK SMILES IDX 85 56 87 57 80 58 81 59 82 60 83 61 84 62 60 63 61 64 70 65
REMARK SMILES IDX 62 66 63 67 69 68 71 69 64 70 65 71 66 72 67 73 68 74 6 75
REMARK SMILES IDX 7 76 8 77 9 78 10 80 11 81 18 82 19 83 31 84 20 85 21 86
REMARK SMILES IDX 30 87 32 88 22 89 23 90 24 91 29 92 25 93 28 94 26 95 27 96
REMARK SMILES IDX 12 97 13 98 17 99 14 100 16 101 15 102
REMARK H PARENT 3 6 92 24 58 35 8 79
REMARK Flexibility Score: inf
ROOT
ATOM      1  C   UNL A   1      34.908  31.438  27.821  1.00  0.00     0.023 C 
ENDROOT
BRANCH   1   2
ATOM      2  C   UNL A   1      35.472  30.393  28.778  1.00  0.00     0.116 C 
BRANCH   2   3
ATOM      3  N   UNL A   1      35.591  30.880  30.142  1.00  0.00    -0.352 N 
ATOM      4  O   UNL A   1      36.522  31.159  32.171  1.00  0.00    -0.269 OA
ATOM      5  C   UNL A   1      36.661  30.815  31.002  1.00  0.00     0.251 C 
ATOM      6  H   UNL A   1      34.787  31.321  30.503  1.00  0.00     0.163 HD
BRANCH   5   7
ATOM      7  C   UNL A   1      37.963  30.301  30.522  1.00  0.00     0.039 A 
ATOM      8  C   UNL A   1      38.833  29.629  31.386  1.00  0.00     0.014 A 
ATOM      9  C   UNL A   1      38.314  30.498  29.185  1.00  0.00     0.014 A 
ATOM     10  C   UNL A   1      40.106  29.274  30.949  1.00  0.00     0.010 A 
ATOM     11  C   UNL A   1      39.566  30.079  28.730  1.00  0.00     0.010 A 
ATOM     12  C   UNL A   1      40.484  29.493  29.616  1.00  0.00    -0.014 A 
BRANCH  12  13
ATOM     13  C   UNL A   1      41.827  29.077  29.139  1.00  0.00     0.031 A 
ATOM     14  C   UNL A   1      42.950  30.070  29.045  1.00  0.00     0.074 A 
ATOM     15  C   UNL A   1      42.021  27.799  28.761  1.00  0.00     0.049 A 
ATOM     16  N   UNL A   1      44.157  29.908  28.567  1.00  0.00    -0.248 NA
ATOM     17  C   UNL A   1      42.679  31.427  29.547  1.00  0.00     0.031 C 
ATOM     18  C   UNL A   1      41.006  26.744  28.808  1.00  0.00     0.029 A 
ATOM     19  N   UNL A   1      43.129  27.172  28.250  1.00  0.00    -0.354 N 
ATOM     20  C   UNL A   1      44.783  31.145  28.683  1.00  0.00     0.074 A 
ATOM     21  C   UNL A   1      43.812  32.052  29.262  1.00  0.00     0.031 C 
ATOM     22  C   UNL A   1      41.538  25.602  28.350  1.00  0.00     0.029 A 
ATOM     23  C   UNL A   1      42.911  25.856  27.923  1.00  0.00     0.049 A 
ATOM     24  H   UNL A   1      43.997  27.623  28.130  1.00  0.00     0.167 HD
ATOM     25  C   UNL A   1      46.048  31.488  28.340  1.00  0.00     0.037 A 
ATOM     26  C   UNL A   1      43.711  24.959  27.315  1.00  0.00     0.037 A 
ATOM     27  C   UNL A   1      47.006  30.574  27.772  1.00  0.00     0.049 A 
ATOM     28  C   UNL A   1      45.100  25.365  26.919  1.00  0.00     0.074 A 
ATOM     29  C   UNL A   1      48.323  30.816  27.420  1.00  0.00     0.029 A 
ATOM     30  N   UNL A   1      46.748  29.245  27.464  1.00  0.00    -0.354 N 
ATOM     31  N   UNL A   1      45.685  26.531  27.058  1.00  0.00    -0.248 NA
ATOM     32  C   UNL A   1      45.938  24.340  26.285  1.00  0.00     0.031 C 
ATOM     33  C   UNL A   1      48.847  29.645  26.859  1.00  0.00     0.029 A 
ATOM     34  C   UNL A   1      47.874  28.659  26.909  1.00  0.00     0.049 A 
ATOM     35  H   UNL A   1      45.891  28.786  27.620  1.00  0.00     0.167 HD
ATOM     36  C   UNL A   1      46.969  26.374  26.552  1.00  0.00     0.074 A 
ATOM     37  C   UNL A   1      47.076  25.000  26.104  1.00  0.00     0.031 C 
ATOM     38  C   UNL A   1      47.969  27.286  26.476  1.00  0.00     0.037 A 
BRANCH  25  39
ATOM     39  C   UNL A   1      46.454  32.924  28.537  1.00  0.00     0.058 A 
ATOM     40  C   UNL A   1      46.296  33.886  27.527  1.00  0.00     0.135 A 
ATOM     41  C   UNL A   1      47.009  33.344  29.758  1.00  0.00     0.135 A 
ATOM     42  F   UNL A   1      45.782  33.538  26.335  1.00  0.00    -0.206 F 
ATOM     43  C   UNL A   1      46.715  35.202  27.702  1.00  0.00     0.059 A 
ATOM     44  C   UNL A   1      47.410  34.661  29.965  1.00  0.00     0.059 A 
ATOM     45  F   UNL A   1      47.178  32.469  30.760  1.00  0.00    -0.206 F 
ATOM     46  C   UNL A   1      47.282  35.577  28.921  1.00  0.00     0.060 A 
BRANCH  46  47
ATOM     47  S   UNL A   1      47.864  37.274  29.121  1.00  0.00     0.124 S 
ATOM     48  O   UNL A   1      48.504  37.207  30.432  1.00  0.00    -0.237 OA
ATOM     49  O   UNL A   1      48.765  37.433  27.985  1.00  0.00    -0.237 OA
ATOM     50  O   UNL A   1      46.638  38.064  29.060  1.00  0.00    -0.744 OA
ENDBRANCH  46  47
ENDBRANCH  25  39
BRANCH  26  51
ATOM     51  C   UNL A   1      43.189  23.594  27.050  1.00  0.00     0.058 A 
ATOM     52  C   UNL A   1      42.825  23.200  25.756  1.00  0.00     0.135 A 
ATOM     53  C   UNL A   1      43.133  22.631  28.071  1.00  0.00     0.135 A 
ATOM     54  F   UNL A   1      42.859  24.087  24.750  1.00  0.00    -0.206 F 
ATOM     55  C   UNL A   1      42.431  21.895  25.479  1.00  0.00     0.059 A 
ATOM     56  C   UNL A   1      42.765  21.315  27.814  1.00  0.00     0.059 A 
ATOM     57  F   UNL A   1      43.491  22.958  29.323  1.00  0.00    -0.206 F 
ATOM     58  C   UNL A   1      42.415  20.957  26.513  1.00  0.00     0.060 A 
BRANCH  58  59
ATOM     59  S   UNL A   1      42.004  19.243  26.122  1.00  0.00     0.124 S 
ATOM     60  O   UNL A   1      42.443  18.553  27.328  1.00  0.00    -0.237 OA
ATOM     61  O   UNL A   1      40.560  19.313  25.917  1.00  0.00    -0.237 OA
ATOM     62  O   UNL A   1      42.786  18.975  24.919  1.00  0.00    -0.744 OA
ENDBRANCH  58  59
ENDBRANCH  26  51
BRANCH  38  63
ATOM     63  C   UNL A   1      49.290  26.826  25.926  1.00  0.00     0.058 A 
ATOM     64  C   UNL A   1      49.676  27.103  24.605  1.00  0.00     0.135 A 
ATOM     65  C   UNL A   1      50.215  26.179  26.761  1.00  0.00     0.135 A 
ATOM     66  F   UNL A   1      48.824  27.710  23.764  1.00  0.00    -0.206 F 
ATOM     67  C   UNL A   1      50.935  26.752  24.131  1.00  0.00     0.059 A 
ATOM     68  C   UNL A   1      51.487  25.839  26.314  1.00  0.00     0.059 A 
ATOM     69  F   UNL A   1      49.895  25.899  28.034  1.00  0.00    -0.206 F 
ATOM     70  C   UNL A   1      51.838  26.127  24.996  1.00  0.00     0.060 A 
BRANCH  70  71
ATOM     71  S   UNL A   1      53.494  25.741  24.390  1.00  0.00     0.124 S 
ATOM     72  O   UNL A   1      54.295  26.769  25.047  1.00  0.00    -0.237 OA
ATOM     73  O   UNL A   1      53.695  24.377  24.872  1.00  0.00    -0.237 OA
ATOM     74  O   UNL A   1      53.366  25.874  22.942  1.00  0.00    -0.744 OA
ENDBRANCH  70  71
ENDBRANCH  38  63
ENDBRANCH  12  13
ENDBRANCH   5   7
ENDBRANCH   2   3
ENDBRANCH   1   2
BRANCH   1  75
ATOM     75  C   UNL A   1      33.592  31.060  27.144  1.00  0.00     0.023 C 
BRANCH  75  76
ATOM     76  C   UNL A   1      33.586  29.705  26.442  1.00  0.00     0.116 C 
BRANCH  76  77
ATOM     77  N   UNL A   1      32.596  28.790  26.979  1.00  0.00    -0.354 N 
ATOM     78  C   UNL A   1      31.760  27.912  26.330  1.00  0.00     0.247 C 
ATOM     79  H   UNL A   1      32.511  28.797  27.960  1.00  0.00     0.163 HD
ATOM     80  O   UNL A   1      30.925  27.323  27.019  1.00  0.00    -0.272 OA
BRANCH  78  81
ATOM     81  C   UNL A   1      31.834  27.786  24.789  1.00  0.00     0.211 C 
BRANCH  81  82
ATOM     82  N   UNL A   1      31.681  26.406  24.279  1.00  0.00    -0.276 N 
ATOM     83  C   UNL A   1      32.839  25.681  24.039  1.00  0.00     0.267 C 
ATOM     84  C   UNL A   1      30.500  25.777  23.941  1.00  0.00     0.149 C 
ATOM     85  O   UNL A   1      33.980  26.105  24.141  1.00  0.00    -0.268 OA
ATOM     86  C   UNL A   1      32.501  24.285  23.651  1.00  0.00     0.081 C 
ATOM     87  S   UNL A   1      30.846  24.210  23.205  1.00  0.00    -0.054 SA
ATOM     88  S   UNL A   1      28.922  26.244  24.203  1.00  0.00    -0.052 S 
ATOM     89  C   UNL A   1      33.287  23.204  23.740  1.00  0.00     0.029 C 
BRANCH  89  90
ATOM     90  C   UNL A   1      34.622  23.200  24.340  1.00  0.00    -0.024 A 
ATOM     91  C   UNL A   1      35.761  23.139  23.533  1.00  0.00     0.009 A 
ATOM     92  C   UNL A   1      34.762  23.246  25.735  1.00  0.00     0.009 A 
ATOM     93  C   UNL A   1      37.032  23.144  24.116  1.00  0.00     0.016 A 
ATOM     94  C   UNL A   1      36.030  23.255  26.317  1.00  0.00     0.016 A 
ATOM     95  C   UNL A   1      37.159  23.206  25.503  1.00  0.00     0.018 A 
ATOM     96  Br  UNL A   1      38.880  23.223  26.286  1.00  0.00    -0.051 Br
ENDBRANCH  89  90
ENDBRANCH  81  82
BRANCH  81  97
ATOM     97  C   UNL A   1      31.059  28.808  23.960  1.00  0.00    -0.016 A 
ATOM     98  C   UNL A   1      30.287  29.831  24.523  1.00  0.00     0.006 A 
ATOM     99  C   UNL A   1      31.084  28.699  22.555  1.00  0.00     0.006 A 
ATOM    100  C   UNL A   1      29.539  30.694  23.718  1.00  0.00     0.000 A 
ATOM    101  C   UNL A   1      30.357  29.577  21.749  1.00  0.00     0.000 A 
ATOM    102  C   UNL A   1      29.573  30.567  22.332  1.00  0.00     0.000 A 
ENDBRANCH  81  97
ENDBRANCH  78  81
ENDBRANCH  76  77
ENDBRANCH  75  76
ENDBRANCH   1  75
TORSDOF 17
ENDMDL
MODEL 3
REMARK VINA RESULT:     -12.1      0.450      8.030
REMARK SMILES O=C(NCCCCNC(=O)[C@H](c1ccccc1)N1C(=O)/C(=C\c2ccc(Br)cc2)SC1=S)c1ccc(-c2c3nc(c(-c4c(F)cc(S(=O)(=O)[O-])cc4F)c4ccc([nH]4)c(-c4c(F)cc(S(=O)(=O)[O-])cc4F)c4nc(c(-c5c(F)cc(S(=O)(=O)[O-])cc5F)c5ccc2[nH]5)C=C4)C=C3)cc1
REMARK SMILES IDX 5 1 4 2 3 3 1 4 2 5 33 7 34 8 98 9 35 10 97 11 36 12 37 13
REMARK SMILES IDX 38 14 91 15 39 16 96 17 90 18 92 19 40 20 95 21 89 22 88 23
REMARK SMILES IDX 41 25 75 26 54 27 74 28 55 29 58 30 73 31 93 32 56 33 57 34
REMARK SMILES IDX 72 36 94 37 59 38 42 39 43 40 52 41 44 42 45 43 51 44 53 45
REMARK SMILES IDX 46 46 47 47 48 48 49 49 50 50 76 51 77 52 86 53 78 54 79 55
REMARK SMILES IDX 85 56 87 57 80 58 81 59 82 60 83 61 84 62 60 63 61 64 70 65
REMARK SMILES IDX 62 66 63 67 69 68 71 69 64 70 65 71 66 72 67 73 68 74 6 75
REMARK SMILES IDX 7 76 8 77 9 78 10 80 11 81 18 82 19 83 31 84 20 85 21 86
REMARK SMILES IDX 30 87 32 88 22 89 23 90 24 91 29 92 25 93 28 94 26 95 27 96
REMARK SMILES IDX 12 97 13 98 17 99 14 100 16 101 15 102
REMARK H PARENT 3 6 92 24 58 35 8 79
REMARK Flexibility Score: inf
ROOT
ATOM      1  C   UNL A   1      39.359  22.765  26.649  1.00  0.00     0.023 C 
ENDROOT
BRANCH   1   2
ATOM      2  C   UNL A   1      40.734  23.309  27.023  1.00  0.00     0.116 C 
BRANCH   2   3
ATOM      3  N   UNL A   1      41.301  24.166  25.994  1.00  0.00    -0.352 N 
ATOM      4  O   UNL A   1      41.918  26.091  25.007  1.00  0.00    -0.269 OA
ATOM      5  C   UNL A   1      41.567  25.514  26.031  1.00  0.00     0.251 C 
ATOM      6  H   UNL A   1      41.529  23.715  25.149  1.00  0.00     0.163 HD
BRANCH   5   7
ATOM      7  C   UNL A   1      41.396  26.266  27.293  1.00  0.00     0.039 A 
ATOM      8  C   UNL A   1      40.349  25.966  28.172  1.00  0.00     0.014 A 
ATOM      9  C   UNL A   1      42.298  27.287  27.597  1.00  0.00     0.014 A 
ATOM     10  C   UNL A   1      40.128  26.773  29.285  1.00  0.00     0.010 A 
ATOM     11  C   UNL A   1      42.114  28.052  28.752  1.00  0.00     0.010 A 
ATOM     12  C   UNL A   1      41.009  27.822  29.587  1.00  0.00    -0.014 A 
BRANCH  12  13
ATOM     13  C   UNL A   1      40.796  28.655  30.797  1.00  0.00     0.031 A 
ATOM     14  C   UNL A   1      39.715  29.697  30.830  1.00  0.00     0.074 A 
ATOM     15  C   UNL A   1      41.607  28.488  31.860  1.00  0.00     0.049 A 
ATOM     16  N   UNL A   1      39.443  30.575  31.761  1.00  0.00    -0.248 NA
ATOM     17  C   UNL A   1      38.826  29.767  29.659  1.00  0.00     0.031 C 
ATOM     18  C   UNL A   1      42.691  27.508  31.944  1.00  0.00     0.029 A 
ATOM     19  N   UNL A   1      41.656  29.144  33.063  1.00  0.00    -0.354 N 
ATOM     20  C   UNL A   1      38.372  31.321  31.281  1.00  0.00     0.074 A 
ATOM     21  C   UNL A   1      38.055  30.801  29.966  1.00  0.00     0.031 C 
ATOM     22  C   UNL A   1      43.296  27.622  33.135  1.00  0.00     0.029 A 
ATOM     23  C   UNL A   1      42.681  28.721  33.874  1.00  0.00     0.049 A 
ATOM     24  H   UNL A   1      41.018  29.848  33.320  1.00  0.00     0.167 HD
ATOM     25  C   UNL A   1      37.715  32.343  31.883  1.00  0.00     0.037 A 
ATOM     26  C   UNL A   1      43.105  29.185  35.065  1.00  0.00     0.037 A 
ATOM     27  C   UNL A   1      38.036  32.846  33.195  1.00  0.00     0.049 A 
ATOM     28  C   UNL A   1      42.382  30.334  35.704  1.00  0.00     0.074 A 
ATOM     29  C   UNL A   1      37.410  33.855  33.906  1.00  0.00     0.029 A 
ATOM     30  N   UNL A   1      39.077  32.384  33.989  1.00  0.00    -0.354 N 
ATOM     31  N   UNL A   1      41.355  31.012  35.249  1.00  0.00    -0.248 NA
ATOM     32  C   UNL A   1      42.869  30.782  37.015  1.00  0.00     0.031 C 
ATOM     33  C   UNL A   1      38.100  34.033  35.111  1.00  0.00     0.029 A 
ATOM     34  C   UNL A   1      39.124  33.100  35.174  1.00  0.00     0.049 A 
ATOM     35  H   UNL A   1      39.690  31.654  33.745  1.00  0.00     0.167 HD
ATOM     36  C   UNL A   1      41.057  31.951  36.229  1.00  0.00     0.074 A 
ATOM     37  C   UNL A   1      42.011  31.754  37.301  1.00  0.00     0.031 C 
ATOM     38  C   UNL A   1      40.074  32.886  36.238  1.00  0.00     0.037 A 
BRANCH  25  39
ATOM     39  C   UNL A   1      36.608  33.007  31.110  1.00  0.00     0.058 A 
ATOM     40  C   UNL A   1      36.867  33.864  30.028  1.00  0.00     0.135 A 
ATOM     41  C   UNL A   1      35.265  32.779  31.455  1.00  0.00     0.135 A 
ATOM     42  F   UNL A   1      38.132  34.127  29.662  1.00  0.00    -0.206 F 
ATOM     43  C   UNL A   1      35.838  34.508  29.347  1.00  0.00     0.059 A 
ATOM     44  C   UNL A   1      34.219  33.391  30.770  1.00  0.00     0.059 A 
ATOM     45  F   UNL A   1      34.959  31.965  32.476  1.00  0.00    -0.206 F 
ATOM     46  C   UNL A   1      34.518  34.274  29.733  1.00  0.00     0.060 A 
BRANCH  46  47
ATOM     47  S   UNL A   1      33.195  35.150  28.872  1.00  0.00     0.124 S 
ATOM     48  O   UNL A   1      32.292  35.466  29.976  1.00  0.00    -0.237 OA
ATOM     49  O   UNL A   1      33.899  36.286  28.287  1.00  0.00    -0.237 OA
ATOM     50  O   UNL A   1      32.698  34.165  27.918  1.00  0.00    -0.744 OA
ENDBRANCH  46  47
ENDBRANCH  25  39
BRANCH  26  51
ATOM     51  C   UNL A   1      44.283  28.548  35.707  1.00  0.00     0.058 A 
ATOM     52  C   UNL A   1      44.127  27.492  36.614  1.00  0.00     0.135 A 
ATOM     53  C   UNL A   1      45.590  28.924  35.354  1.00  0.00     0.135 A 
ATOM     54  F   UNL A   1      42.898  27.100  36.983  1.00  0.00    -0.206 F 
ATOM     55  C   UNL A   1      45.225  26.822  37.144  1.00  0.00     0.059 A 
ATOM     56  C   UNL A   1      46.702  28.255  35.852  1.00  0.00     0.059 A 
ATOM     57  F   UNL A   1      45.788  29.919  34.474  1.00  0.00    -0.206 F 
ATOM     58  C   UNL A   1      46.509  27.204  36.747  1.00  0.00     0.060 A 
BRANCH  58  59
ATOM     59  S   UNL A   1      47.921  26.260  37.360  1.00  0.00     0.124 S 
ATOM     60  O   UNL A   1      48.865  26.396  36.258  1.00  0.00    -0.237 OA
ATOM     61  O   UNL A   1      48.262  26.978  38.585  1.00  0.00    -0.237 OA
ATOM     62  O   UNL A   1      47.370  24.923  37.561  1.00  0.00    -0.744 OA
ENDBRANCH  58  59
ENDBRANCH  26  51
BRANCH  38  63
ATOM     63  C   UNL A   1      39.944  33.746  37.463  1.00  0.00     0.058 A 
ATOM     64  C   UNL A   1      40.661  34.943  37.604  1.00  0.00     0.135 A 
ATOM     65  C   UNL A   1      39.020  33.410  38.467  1.00  0.00     0.135 A 
ATOM     66  F   UNL A   1      41.563  35.305  36.678  1.00  0.00    -0.206 F 
ATOM     67  C   UNL A   1      40.468  35.778  38.700  1.00  0.00     0.059 A 
ATOM     68  C   UNL A   1      38.796  34.240  39.559  1.00  0.00     0.059 A 
ATOM     69  F   UNL A   1      38.306  32.277  38.374  1.00  0.00    -0.206 F 
ATOM     70  C   UNL A   1      39.527  35.421  39.669  1.00  0.00     0.060 A 
BRANCH  70  71
ATOM     71  S   UNL A   1      39.233  36.548  41.049  1.00  0.00     0.124 S 
ATOM     72  O   UNL A   1      40.559  36.629  41.650  1.00  0.00    -0.237 OA
ATOM     73  O   UNL A   1      38.767  37.756  40.374  1.00  0.00    -0.237 OA
ATOM     74  O   UNL A   1      38.224  35.854  41.844  1.00  0.00    -0.744 OA
ENDBRANCH  70  71
ENDBRANCH  38  63
ENDBRANCH  12  13
ENDBRANCH   5   7
ENDBRANCH   2   3
ENDBRANCH   1   2
BRANCH   1  75
ATOM     75  C   UNL A   1      38.271  23.819  26.451  1.00  0.00     0.023 C 
BRANCH  75  76
ATOM     76  C   UNL A   1      36.897  23.274  26.071  1.00  0.00     0.116 C 
BRANCH  76  77
ATOM     77  N   UNL A   1      36.611  23.387  24.652  1.00  0.00    -0.354 N 
ATOM     78  C   UNL A   1      35.453  23.122  23.961  1.00  0.00     0.247 C 
ATOM     79  H   UNL A   1      37.363  23.702  24.100  1.00  0.00     0.163 HD
ATOM     80  O   UNL A   1      35.507  23.193  22.732  1.00  0.00    -0.272 OA
BRANCH  78  81
ATOM     81  C   UNL A   1      34.194  22.658  24.731  1.00  0.00     0.211 C 
BRANCH  81  82
ATOM     82  N   UNL A   1      32.951  23.370  24.360  1.00  0.00    -0.276 N 
ATOM     83  C   UNL A   1      32.612  24.492  25.101  1.00  0.00     0.267 C 
ATOM     84  C   UNL A   1      32.041  22.994  23.393  1.00  0.00     0.149 C 
ATOM     85  O   UNL A   1      33.208  24.906  26.084  1.00  0.00    -0.268 OA
ATOM     86  C   UNL A   1      31.411  25.150  24.519  1.00  0.00     0.081 C 
ATOM     87  S   UNL A   1      30.631  24.055  23.452  1.00  0.00    -0.054 SA
ATOM     88  S   UNL A   1      32.147  21.814  22.221  1.00  0.00    -0.052 S 
ATOM     89  C   UNL A   1      31.028  26.424  24.670  1.00  0.00     0.029 C 
BRANCH  89  90
ATOM     90  C   UNL A   1      31.804  27.441  25.383  1.00  0.00    -0.024 A 
ATOM     91  C   UNL A   1      31.491  27.776  26.703  1.00  0.00     0.009 A 
ATOM     92  C   UNL A   1      32.864  28.093  24.734  1.00  0.00     0.009 A 
ATOM     93  C   UNL A   1      32.243  28.742  27.376  1.00  0.00     0.016 A 
ATOM     94  C   UNL A   1      33.618  29.055  25.407  1.00  0.00     0.016 A 
ATOM     95  C   UNL A   1      33.305  29.373  26.727  1.00  0.00     0.018 A 
ATOM     96  Br  UNL A   1      34.326  30.671  27.646  1.00  0.00    -0.051 Br
ENDBRANCH  89  90
ENDBRANCH  81  82
BRANCH  81  97
ATOM     97  C   UNL A   1      33.982  21.154  24.897  1.00  0.00    -0.016 A 
ATOM     98  C   UNL A   1      34.929  20.197  24.514  1.00  0.00     0.006 A 
ATOM     99  C   UNL A   1      32.757  20.696  25.422  1.00  0.00     0.006 A 
ATOM    100  C   UNL A   1      34.653  18.831  24.620  1.00  0.00     0.000 A 
ATOM    101  C   UNL A   1      32.491  19.332  25.552  1.00  0.00     0.000 A 
ATOM    102  C   UNL A   1      33.436  18.398  25.138  1.00  0.00     0.000 A 
ENDBRANCH  81  97
ENDBRANCH  78  81
ENDBRANCH  76  77
ENDBRANCH  75  76
ENDBRANCH   1  75
TORSDOF 17
ENDMDL
