MODEL 1
REMARK VINA RESULT:     -12.4      0.000      0.000
REMARK SMILES [NH3+]Cc1c(-c2ccccc2)c(C(=O)NCCCCNC(=O)c2ccc(-c3c4nc(c(-c5c(F)cc(S(=O)(=O)[O-])cc5F)c5ccc([nH]5)c(-c5c(F)cc(S(=O)(=O)[O-])cc5F)c5nc(c(-c6c(F)cc(S(=O)(=O)[O-])cc6F)c6ccc3[nH]6)C=C5)C=C4)cc2)c2ccccn12
REMARK SMILES IDX 17 1 16 2 15 3 14 4 12 5 13 6 11 8 3 9 4 10 93 11 88 12
REMARK SMILES IDX 92 13 89 14 91 15 90 16 2 17 1 18 5 22 6 23 10 24 7 25 9 26
REMARK SMILES IDX 8 27 18 28 19 29 20 30 21 32 22 33 23 34 87 35 24 36 86 37
REMARK SMILES IDX 25 38 26 39 27 40 80 41 28 42 85 43 79 44 81 45 29 46 84 47
REMARK SMILES IDX 78 48 77 49 30 51 64 52 43 53 63 54 44 55 47 56 62 57 82 58
REMARK SMILES IDX 45 59 46 60 61 62 83 63 48 64 31 65 32 66 41 67 33 68 34 69
REMARK SMILES IDX 40 70 42 71 35 72 36 73 37 74 38 75 39 76 65 77 66 78 75 79
REMARK SMILES IDX 67 80 68 81 74 82 76 83 69 84 70 85 71 86 72 87 73 88 49 89
REMARK SMILES IDX 50 90 59 91 51 92 52 93 58 94 60 95 53 96 54 97 55 98 56 99
REMARK SMILES IDX 57 100
REMARK H PARENT 14 7 1 19 1 20 1 21 19 31 81 50 47 61
REMARK Flexibility Score: inf
ROOT
ATOM      1  C   UNL A   1      39.399  22.833  26.509  1.00  0.00     0.023 C 
ENDROOT
BRANCH   1   2
ATOM      2  C   UNL A   1      38.303  23.876  26.721  1.00  0.00     0.023 C 
BRANCH   2   3
ATOM      3  C   UNL A   1      37.003  23.691  25.945  1.00  0.00     0.116 C 
BRANCH   3   4
ATOM      4  N   UNL A   1      37.149  23.416  24.530  1.00  0.00    -0.352 N 
ATOM      5  C   UNL A   1      36.210  23.052  23.583  1.00  0.00     0.254 C 
ATOM      6  O   UNL A   1      36.608  22.956  22.423  1.00  0.00    -0.269 OA
ATOM      7  H   UNL A   1      38.067  23.502  24.187  1.00  0.00     0.163 HD
BRANCH   5   8
ATOM      8  C   UNL A   1      34.833  22.709  23.959  1.00  0.00     0.073 A 
ATOM      9  C   UNL A   1      32.549  22.907  24.279  1.00  0.00     0.086 A 
ATOM     10  C   UNL A   1      33.726  23.622  24.031  1.00  0.00     0.022 A 
ATOM     11  N   UNL A   1      32.924  21.572  24.394  1.00  0.00    -0.314 N 
ATOM     12  C   UNL A   1      34.323  21.512  24.440  1.00  0.00     0.059 A 
ATOM     13  C   UNL A   1      32.152  20.403  24.461  1.00  0.00     0.092 A 
ATOM     14  C   UNL A   1      34.905  20.281  24.878  1.00  0.00     0.027 A 
ATOM     15  C   UNL A   1      32.729  19.217  24.707  1.00  0.00     0.018 A 
ATOM     16  C   UNL A   1      34.149  19.176  24.981  1.00  0.00     0.004 A 
BRANCH   9  17
ATOM     17  C   UNL A   1      31.167  23.496  24.368  1.00  0.00     0.315 C 
BRANCH  17  18
ATOM     18  N   UNL A   1      30.438  23.682  23.126  1.00  0.00    -0.353 N 
ATOM     19  H   UNL A   1      30.053  22.787  22.820  1.00  0.00     0.344 HD
ATOM     20  H   UNL A   1      31.071  24.041  22.411  1.00  0.00     0.344 HD
ATOM     21  H   UNL A   1      29.679  24.347  23.273  1.00  0.00     0.344 HD
ENDBRANCH  17  18
ENDBRANCH   9  17
BRANCH  10  22
ATOM     22  C   UNL A   1      33.730  25.073  23.881  1.00  0.00    -0.016 A 
ATOM     23  C   UNL A   1      33.878  25.912  24.987  1.00  0.00     0.009 A 
ATOM     24  C   UNL A   1      33.589  25.633  22.603  1.00  0.00     0.009 A 
ATOM     25  C   UNL A   1      33.900  27.299  24.813  1.00  0.00     0.001 A 
ATOM     26  C   UNL A   1      33.619  27.017  22.430  1.00  0.00     0.001 A 
ATOM     27  C   UNL A   1      33.775  27.850  23.535  1.00  0.00     0.000 A 
ENDBRANCH  10  22
ENDBRANCH   5   8
ENDBRANCH   3   4
ENDBRANCH   2   3
ENDBRANCH   1   2
BRANCH   1  28
ATOM     28  C   UNL A   1      40.831  23.258  26.814  1.00  0.00     0.116 C 
BRANCH  28  29
ATOM     29  N   UNL A   1      41.423  24.128  25.808  1.00  0.00    -0.352 N 
ATOM     30  C   UNL A   1      41.842  25.437  25.891  1.00  0.00     0.251 C 
ATOM     31  H   UNL A   1      41.543  23.712  24.923  1.00  0.00     0.163 HD
ATOM     32  O   UNL A   1      42.265  25.999  24.884  1.00  0.00    -0.269 OA
BRANCH  30  33
ATOM     33  C   UNL A   1      41.745  26.184  27.167  1.00  0.00     0.039 A 
ATOM     34  C   UNL A   1      42.638  27.235  27.400  1.00  0.00     0.014 A 
ATOM     35  C   UNL A   1      40.779  25.871  28.125  1.00  0.00     0.014 A 
ATOM     36  C   UNL A   1      42.495  28.030  28.542  1.00  0.00     0.010 A 
ATOM     37  C   UNL A   1      40.582  26.718  29.215  1.00  0.00     0.010 A 
ATOM     38  C   UNL A   1      41.433  27.811  29.434  1.00  0.00    -0.014 A 
BRANCH  38  39
ATOM     39  C   UNL A   1      41.190  28.719  30.588  1.00  0.00     0.031 A 
ATOM     40  C   UNL A   1      42.016  28.596  31.841  1.00  0.00     0.074 A 
ATOM     41  C   UNL A   1      40.178  29.611  30.537  1.00  0.00     0.049 A 
ATOM     42  N   UNL A   1      41.911  29.250  32.969  1.00  0.00    -0.248 NA
ATOM     43  C   UNL A   1      43.083  27.582  31.836  1.00  0.00     0.031 C 
ATOM     44  C   UNL A   1      39.261  29.788  29.409  1.00  0.00     0.029 A 
ATOM     45  N   UNL A   1      39.742  30.529  31.460  1.00  0.00    -0.354 N 
ATOM     46  C   UNL A   1      42.879  28.716  33.811  1.00  0.00     0.074 A 
ATOM     47  C   UNL A   1      43.526  27.646  33.083  1.00  0.00     0.031 C 
ATOM     48  C   UNL A   1      38.391  30.770  29.695  1.00  0.00     0.029 A 
ATOM     49  C   UNL A   1      38.664  31.272  31.038  1.00  0.00     0.049 A 
ATOM     50  H   UNL A   1      40.163  30.645  32.343  1.00  0.00     0.167 HD
ATOM     51  C   UNL A   1      43.220  29.099  35.065  1.00  0.00     0.037 A 
ATOM     52  C   UNL A   1      37.971  32.245  31.661  1.00  0.00     0.037 A 
ATOM     53  C   UNL A   1      42.599  30.187  35.774  1.00  0.00     0.049 A 
ATOM     54  C   UNL A   1      38.381  32.668  33.047  1.00  0.00     0.074 A 
ATOM     55  C   UNL A   1      42.920  30.698  37.020  1.00  0.00     0.029 A 
ATOM     56  N   UNL A   1      41.532  30.936  35.299  1.00  0.00    -0.354 N 
ATOM     57  N   UNL A   1      39.348  32.199  33.798  1.00  0.00    -0.248 NA
ATOM     58  C   UNL A   1      37.613  33.757  33.664  1.00  0.00     0.031 C 
ATOM     59  C   UNL A   1      42.023  31.731  37.315  1.00  0.00     0.029 A 
ATOM     60  C   UNL A   1      41.171  31.893  36.233  1.00  0.00     0.049 A 
ATOM     61  H   UNL A   1      41.096  30.807  34.426  1.00  0.00     0.167 HD
ATOM     62  C   UNL A   1      39.319  32.949  34.968  1.00  0.00     0.074 A 
ATOM     63  C   UNL A   1      38.248  33.914  34.817  1.00  0.00     0.031 C 
ATOM     64  C   UNL A   1      40.106  32.850  36.068  1.00  0.00     0.037 A 
BRANCH  51  65
ATOM     65  C   UNL A   1      44.326  28.340  35.747  1.00  0.00     0.058 A 
ATOM     66  C   UNL A   1      44.059  27.235  36.570  1.00  0.00     0.135 A 
ATOM     67  C   UNL A   1      45.669  28.703  35.555  1.00  0.00     0.135 A 
ATOM     68  F   UNL A   1      42.793  26.852  36.800  1.00  0.00    -0.206 F 
ATOM     69  C   UNL A   1      45.081  26.539  37.208  1.00  0.00     0.059 A 
ATOM     70  C   UNL A   1      46.709  28.003  36.160  1.00  0.00     0.059 A 
ATOM     71  F   UNL A   1      45.982  29.752  34.776  1.00  0.00    -0.206 F 
ATOM     72  C   UNL A   1      46.403  26.933  36.999  1.00  0.00     0.060 A 
BRANCH  72  73
ATOM     73  S   UNL A   1      47.717  26.019  37.834  1.00  0.00     0.124 S 
ATOM     74  O   UNL A   1      48.659  25.803  36.740  1.00  0.00    -0.237 OA
ATOM     75  O   UNL A   1      48.147  26.958  38.863  1.00  0.00    -0.237 OA
ATOM     76  O   UNL A   1      47.040  24.822  38.324  1.00  0.00    -0.744 OA
ENDBRANCH  72  73
ENDBRANCH  51  65
BRANCH  52  77
ATOM     77  C   UNL A   1      36.835  32.911  30.969  1.00  0.00     0.058 A 
ATOM     78  C   UNL A   1      35.508  32.609  31.309  1.00  0.00     0.135 A 
ATOM     79  C   UNL A   1      37.051  33.866  29.964  1.00  0.00     0.135 A 
ATOM     80  F   UNL A   1      35.251  31.698  32.259  1.00  0.00    -0.206 F 
ATOM     81  C   UNL A   1      34.434  33.217  30.668  1.00  0.00     0.059 A 
ATOM     82  C   UNL A   1      35.993  34.505  29.323  1.00  0.00     0.059 A 
ATOM     83  F   UNL A   1      38.301  34.202  29.612  1.00  0.00    -0.206 F 
ATOM     84  C   UNL A   1      34.686  34.167  29.676  1.00  0.00     0.060 A 
BRANCH  84  85
ATOM     85  S   UNL A   1      33.286  34.987  28.885  1.00  0.00     0.124 S 
ATOM     86  O   UNL A   1      33.927  36.153  28.289  1.00  0.00    -0.237 OA
ATOM     87  O   UNL A   1      32.819  33.967  27.950  1.00  0.00    -0.237 OA
ATOM     88  O   UNL A   1      32.385  35.262  30.000  1.00  0.00    -0.744 OA
ENDBRANCH  84  85
ENDBRANCH  52  77
BRANCH  64  89
ATOM     89  C   UNL A   1      39.859  33.824  37.186  1.00  0.00     0.058 A 
ATOM     90  C   UNL A   1      40.499  35.072  37.228  1.00  0.00     0.135 A 
ATOM     91  C   UNL A   1      38.938  33.524  38.201  1.00  0.00     0.135 A 
ATOM     92  F   UNL A   1      41.394  35.405  36.284  1.00  0.00    -0.206 F 
ATOM     93  C   UNL A   1      40.251  35.980  38.252  1.00  0.00     0.059 A 
ATOM     94  C   UNL A   1      38.654  34.428  39.220  1.00  0.00     0.059 A 
ATOM     95  F   UNL A   1      38.291  32.347  38.201  1.00  0.00    -0.206 F 
ATOM     96  C   UNL A   1      39.326  35.649  39.243  1.00  0.00     0.060 A 
BRANCH  96  97
ATOM     97  S   UNL A   1      38.990  36.848  40.551  1.00  0.00     0.124 S 
ATOM     98  O   UNL A   1      40.338  37.196  40.985  1.00  0.00    -0.237 OA
ATOM     99  O   UNL A   1      38.263  37.893  39.838  1.00  0.00    -0.237 OA
ATOM    100  O   UNL A   1      38.197  36.087  41.513  1.00  0.00    -0.744 OA
ENDBRANCH  96  97
ENDBRANCH  64  89
ENDBRANCH  38  39
ENDBRANCH  30  33
ENDBRANCH  28  29
ENDBRANCH   1  28
TORSDOF 17
ENDMDL
MODEL 2
REMARK VINA RESULT:     -12.4      6.658     12.026
REMARK SMILES [NH3+]Cc1c(-c2ccccc2)c(C(=O)NCCCCNC(=O)c2ccc(-c3c4nc(c(-c5c(F)cc(S(=O)(=O)[O-])cc5F)c5ccc([nH]5)c(-c5c(F)cc(S(=O)(=O)[O-])cc5F)c5nc(c(-c6c(F)cc(S(=O)(=O)[O-])cc6F)c6ccc3[nH]6)C=C5)C=C4)cc2)c2ccccn12
REMARK SMILES IDX 17 1 16 2 15 3 14 4 12 5 13 6 11 8 3 9 4 10 93 11 88 12
REMARK SMILES IDX 92 13 89 14 91 15 90 16 2 17 1 18 5 22 6 23 10 24 7 25 9 26
REMARK SMILES IDX 8 27 18 28 19 29 20 30 21 32 22 33 23 34 87 35 24 36 86 37
REMARK SMILES IDX 25 38 26 39 27 40 80 41 28 42 85 43 79 44 81 45 29 46 84 47
REMARK SMILES IDX 78 48 77 49 30 51 64 52 43 53 63 54 44 55 47 56 62 57 82 58
REMARK SMILES IDX 45 59 46 60 61 62 83 63 48 64 31 65 32 66 41 67 33 68 34 69
REMARK SMILES IDX 40 70 42 71 35 72 36 73 37 74 38 75 39 76 65 77 66 78 75 79
REMARK SMILES IDX 67 80 68 81 74 82 76 83 69 84 70 85 71 86 72 87 73 88 49 89
REMARK SMILES IDX 50 90 59 91 51 92 52 93 58 94 60 95 53 96 54 97 55 98 56 99
REMARK SMILES IDX 57 100
REMARK H PARENT 14 7 1 19 1 20 1 21 19 31 81 50 47 61
REMARK Flexibility Score: inf
ROOT
ATOM      1  C   UNL A   1      34.550  29.173  27.433  1.00  0.00     0.023 C 
ENDROOT
BRANCH   1   2
ATOM      2  C   UNL A   1      33.060  29.330  27.130  1.00  0.00     0.023 C 
BRANCH   2   3
ATOM      3  C   UNL A   1      32.682  30.042  25.835  1.00  0.00     0.116 C 
BRANCH   3   4
ATOM      4  N   UNL A   1      33.508  29.736  24.685  1.00  0.00    -0.352 N 
ATOM      5  C   UNL A   1      33.267  28.920  23.595  1.00  0.00     0.254 C 
ATOM      6  O   UNL A   1      34.128  28.907  22.717  1.00  0.00    -0.269 OA
ATOM      7  H   UNL A   1      34.385  30.182  24.678  1.00  0.00     0.163 HD
BRANCH   5   8
ATOM      8  C   UNL A   1      32.088  28.048  23.535  1.00  0.00     0.073 A 
ATOM      9  C   UNL A   1      30.735  26.191  23.818  1.00  0.00     0.086 A 
ATOM     10  C   UNL A   1      32.059  26.646  23.848  1.00  0.00     0.022 A 
ATOM     11  N   UNL A   1      29.958  27.286  23.456  1.00  0.00    -0.314 N 
ATOM     12  C   UNL A   1      30.815  28.320  23.057  1.00  0.00     0.059 A 
ATOM     13  C   UNL A   1      28.566  27.460  23.444  1.00  0.00     0.092 A 
ATOM     14  C   UNL A   1      30.226  29.412  22.345  1.00  0.00     0.027 A 
ATOM     15  C   UNL A   1      28.022  28.572  22.924  1.00  0.00     0.018 A 
ATOM     16  C   UNL A   1      28.890  29.548  22.303  1.00  0.00     0.004 A 
BRANCH   9  17
ATOM     17  C   UNL A   1      30.281  24.793  24.145  1.00  0.00     0.315 C 
BRANCH  17  18
ATOM     18  N   UNL A   1      30.282  23.820  23.068  1.00  0.00    -0.353 N 
ATOM     19  H   UNL A   1      29.525  24.032  22.418  1.00  0.00     0.344 HD
ATOM     20  H   UNL A   1      30.145  22.886  23.454  1.00  0.00     0.344 HD
ATOM     21  H   UNL A   1      31.174  23.858  22.576  1.00  0.00     0.344 HD
ENDBRANCH  17  18
ENDBRANCH   9  17
BRANCH  10  22
ATOM     22  C   UNL A   1      33.173  25.759  24.164  1.00  0.00    -0.016 A 
ATOM     23  C   UNL A   1      33.692  25.686  25.458  1.00  0.00     0.009 A 
ATOM     24  C   UNL A   1      33.725  24.962  23.152  1.00  0.00     0.009 A 
ATOM     25  C   UNL A   1      34.747  24.811  25.738  1.00  0.00     0.001 A 
ATOM     26  C   UNL A   1      34.772  24.083  23.435  1.00  0.00     0.001 A 
ATOM     27  C   UNL A   1      35.282  24.008  24.728  1.00  0.00     0.000 A 
ENDBRANCH  10  22
ENDBRANCH   5   8
ENDBRANCH   3   4
ENDBRANCH   2   3
ENDBRANCH   1   2
BRANCH   1  28
ATOM     28  C   UNL A   1      35.325  30.439  27.780  1.00  0.00     0.116 C 
BRANCH  28  29
ATOM     29  N   UNL A   1      35.374  30.740  29.203  1.00  0.00    -0.352 N 
ATOM     30  C   UNL A   1      36.373  30.531  30.128  1.00  0.00     0.251 C 
ATOM     31  H   UNL A   1      34.559  31.159  29.563  1.00  0.00     0.163 HD
ATOM     32  O   UNL A   1      36.171  30.815  31.306  1.00  0.00    -0.269 OA
BRANCH  30  33
ATOM     33  C   UNL A   1      37.665  29.928  29.725  1.00  0.00     0.039 A 
ATOM     34  C   UNL A   1      38.040  29.979  28.379  1.00  0.00     0.014 A 
ATOM     35  C   UNL A   1      38.513  29.328  30.658  1.00  0.00     0.014 A 
ATOM     36  C   UNL A   1      39.304  29.522  27.990  1.00  0.00     0.010 A 
ATOM     37  C   UNL A   1      39.803  28.956  30.285  1.00  0.00     0.010 A 
ATOM     38  C   UNL A   1      40.217  29.053  28.949  1.00  0.00    -0.014 A 
BRANCH  38  39
ATOM     39  C   UNL A   1      41.608  28.677  28.574  1.00  0.00     0.031 A 
ATOM     40  C   UNL A   1      42.692  29.721  28.525  1.00  0.00     0.074 A 
ATOM     41  C   UNL A   1      41.882  27.407  28.207  1.00  0.00     0.049 A 
ATOM     42  N   UNL A   1      43.942  29.598  28.160  1.00  0.00    -0.248 NA
ATOM     43  C   UNL A   1      42.315  31.090  28.910  1.00  0.00     0.031 C 
ATOM     44  C   UNL A   1      40.909  26.314  28.147  1.00  0.00     0.029 A 
ATOM     45  N   UNL A   1      43.057  26.823  27.804  1.00  0.00    -0.354 N 
ATOM     46  C   UNL A   1      44.493  30.871  28.251  1.00  0.00     0.074 A 
ATOM     47  C   UNL A   1      43.426  31.762  28.652  1.00  0.00     0.031 C 
ATOM     48  C   UNL A   1      41.531  25.189  27.759  1.00  0.00     0.029 A 
ATOM     49  C   UNL A   1      42.938  25.484  27.509  1.00  0.00     0.049 A 
ATOM     50  H   UNL A   1      43.906  27.315  27.733  1.00  0.00     0.167 HD
ATOM     51  C   UNL A   1      45.774  31.260  28.046  1.00  0.00     0.037 A 
ATOM     52  C   UNL A   1      43.856  24.595  27.084  1.00  0.00     0.037 A 
ATOM     53  C   UNL A   1      46.841  30.365  27.681  1.00  0.00     0.049 A 
ATOM     54  C   UNL A   1      45.279  25.045  26.884  1.00  0.00     0.074 A 
ATOM     55  C   UNL A   1      48.186  30.649  27.520  1.00  0.00     0.029 A 
ATOM     56  N   UNL A   1      46.686  29.011  27.424  1.00  0.00    -0.354 N 
ATOM     57  N   UNL A   1      45.794  26.239  27.046  1.00  0.00    -0.248 NA
ATOM     58  C   UNL A   1      46.245  24.026  26.453  1.00  0.00     0.031 C 
ATOM     59  C   UNL A   1      48.839  29.475  27.129  1.00  0.00     0.029 A 
ATOM     60  C   UNL A   1      47.907  28.449  27.089  1.00  0.00     0.049 A 
ATOM     61  H   UNL A   1      45.834  28.521  27.473  1.00  0.00     0.167 HD
ATOM     62  C   UNL A   1      47.149  26.111  26.758  1.00  0.00     0.074 A 
ATOM     63  C   UNL A   1      47.374  24.719  26.427  1.00  0.00     0.031 C 
ATOM     64  C   UNL A   1      48.118  27.060  26.766  1.00  0.00     0.037 A 
BRANCH  51  65
ATOM     65  C   UNL A   1      46.095  32.718  28.227  1.00  0.00     0.058 A 
ATOM     66  C   UNL A   1      46.605  33.213  29.438  1.00  0.00     0.135 A 
ATOM     67  C   UNL A   1      45.917  33.628  27.172  1.00  0.00     0.135 A 
ATOM     68  F   UNL A   1      46.782  32.390  30.484  1.00  0.00    -0.206 F 
ATOM     69  C   UNL A   1      46.894  34.563  29.609  1.00  0.00     0.059 A 
ATOM     70  C   UNL A   1      46.226  34.979  27.312  1.00  0.00     0.059 A 
ATOM     71  F   UNL A   1      45.433  33.210  25.992  1.00  0.00    -0.206 F 
ATOM     72  C   UNL A   1      46.698  35.439  28.540  1.00  0.00     0.060 A 
BRANCH  72  73
ATOM     73  S   UNL A   1      47.077  37.188  28.779  1.00  0.00     0.124 S 
ATOM     74  O   UNL A   1      47.992  37.132  29.915  1.00  0.00    -0.237 OA
ATOM     75  O   UNL A   1      47.676  37.556  27.501  1.00  0.00    -0.237 OA
ATOM     76  O   UNL A   1      45.774  37.785  29.052  1.00  0.00    -0.744 OA
ENDBRANCH  72  73
ENDBRANCH  51  65
BRANCH  52  77
ATOM     77  C   UNL A   1      43.467  23.178  26.847  1.00  0.00     0.058 A 
ATOM     78  C   UNL A   1      43.211  22.313  27.921  1.00  0.00     0.135 A 
ATOM     79  C   UNL A   1      43.335  22.664  25.548  1.00  0.00     0.135 A 
ATOM     80  F   UNL A   1      43.331  22.756  29.181  1.00  0.00    -0.206 F 
ATOM     81  C   UNL A   1      42.853  20.984  27.718  1.00  0.00     0.059 A 
ATOM     82  C   UNL A   1      42.956  21.344  25.319  1.00  0.00     0.059 A 
ATOM     83  F   UNL A   1      43.554  23.454  24.485  1.00  0.00    -0.206 F 
ATOM     84  C   UNL A   1      42.726  20.508  26.412  1.00  0.00     0.060 A 
BRANCH  84  85
ATOM     85  S   UNL A   1      42.212  18.796  26.159  1.00  0.00     0.124 S 
ATOM     86  O   UNL A   1      42.410  18.230  27.488  1.00  0.00    -0.237 OA
ATOM     87  O   UNL A   1      40.825  18.950  25.731  1.00  0.00    -0.237 OA
ATOM     88  O   UNL A   1      43.128  18.320  25.127  1.00  0.00    -0.744 OA
ENDBRANCH  84  85
ENDBRANCH  52  77
BRANCH  64  89
ATOM     89  C   UNL A   1      49.517  26.622  26.434  1.00  0.00     0.058 A 
ATOM     90  C   UNL A   1      50.338  25.999  27.385  1.00  0.00     0.135 A 
ATOM     91  C   UNL A   1      50.025  26.787  25.135  1.00  0.00     0.135 A 
ATOM     92  F   UNL A   1      49.902  25.823  28.643  1.00  0.00    -0.206 F 
ATOM     93  C   UNL A   1      51.624  25.575  27.067  1.00  0.00     0.059 A 
ATOM     94  C   UNL A   1      51.298  26.346  24.788  1.00  0.00     0.059 A 
ATOM     95  F   UNL A   1      49.275  27.368  24.185  1.00  0.00    -0.206 F 
ATOM     96  C   UNL A   1      52.095  25.752  25.765  1.00  0.00     0.060 A 
BRANCH  96  97
ATOM     97  S   UNL A   1      53.755  25.170  25.356  1.00  0.00     0.124 S 
ATOM     98  O   UNL A   1      53.924  25.691  24.004  1.00  0.00    -0.237 OA
ATOM     99  O   UNL A   1      54.571  25.803  26.387  1.00  0.00    -0.237 OA
ATOM    100  O   UNL A   1      53.639  23.718  25.461  1.00  0.00    -0.744 OA
ENDBRANCH  96  97
ENDBRANCH  64  89
ENDBRANCH  38  39
ENDBRANCH  30  33
ENDBRANCH  28  29
ENDBRANCH   1  28
TORSDOF 17
ENDMDL
MODEL 3
REMARK VINA RESULT:     -12.3      1.167      2.062
REMARK SMILES [NH3+]Cc1c(-c2ccccc2)c(C(=O)NCCCCNC(=O)c2ccc(-c3c4nc(c(-c5c(F)cc(S(=O)(=O)[O-])cc5F)c5ccc([nH]5)c(-c5c(F)cc(S(=O)(=O)[O-])cc5F)c5nc(c(-c6c(F)cc(S(=O)(=O)[O-])cc6F)c6ccc3[nH]6)C=C5)C=C4)cc2)c2ccccn12
REMARK SMILES IDX 17 1 16 2 15 3 14 4 12 5 13 6 11 8 3 9 4 10 93 11 88 12
REMARK SMILES IDX 92 13 89 14 91 15 90 16 2 17 1 18 5 22 6 23 10 24 7 25 9 26
REMARK SMILES IDX 8 27 18 28 19 29 20 30 21 32 22 33 23 34 87 35 24 36 86 37
REMARK SMILES IDX 25 38 26 39 27 40 80 41 28 42 85 43 79 44 81 45 29 46 84 47
REMARK SMILES IDX 78 48 77 49 30 51 64 52 43 53 63 54 44 55 47 56 62 57 82 58
REMARK SMILES IDX 45 59 46 60 61 62 83 63 48 64 31 65 32 66 41 67 33 68 34 69
REMARK SMILES IDX 40 70 42 71 35 72 36 73 37 74 38 75 39 76 65 77 66 78 75 79
REMARK SMILES IDX 67 80 68 81 74 82 76 83 69 84 70 85 71 86 72 87 73 88 49 89
REMARK SMILES IDX 50 90 59 91 51 92 52 93 58 94 60 95 53 96 54 97 55 98 56 99
REMARK SMILES IDX 57 100
REMARK H PARENT 14 7 1 19 1 20 1 21 19 31 81 50 47 61
REMARK Flexibility Score: inf
ROOT
ATOM      1  C   UNL A   1      37.960  24.037  26.236  1.00  0.00     0.023 C 
ENDROOT
BRANCH   1   2
ATOM      2  C   UNL A   1      37.351  23.216  25.100  1.00  0.00     0.023 C 
BRANCH   2   3
ATOM      3  C   UNL A   1      36.705  21.885  25.469  1.00  0.00     0.116 C 
BRANCH   3   4
ATOM      4  N   UNL A   1      35.872  21.897  26.655  1.00  0.00    -0.352 N 
ATOM      5  C   UNL A   1      34.505  21.749  26.796  1.00  0.00     0.254 C 
ATOM      6  O   UNL A   1      34.071  21.726  27.946  1.00  0.00    -0.269 OA
ATOM      7  H   UNL A   1      36.360  22.033  27.498  1.00  0.00     0.163 HD
BRANCH   5   8
ATOM      8  C   UNL A   1      33.612  21.715  25.631  1.00  0.00     0.073 A 
ATOM      9  C   UNL A   1      32.356  22.439  23.827  1.00  0.00     0.086 A 
ATOM     10  C   UNL A   1      33.025  22.854  24.984  1.00  0.00     0.022 A 
ATOM     11  N   UNL A   1      32.496  21.056  23.775  1.00  0.00    -0.314 N 
ATOM     12  C   UNL A   1      33.042  20.624  24.991  1.00  0.00     0.059 A 
ATOM     13  C   UNL A   1      32.188  20.139  22.759  1.00  0.00     0.092 A 
ATOM     14  C   UNL A   1      32.967  19.224  25.274  1.00  0.00     0.027 A 
ATOM     15  C   UNL A   1      32.284  18.819  22.980  1.00  0.00     0.018 A 
ATOM     16  C   UNL A   1      32.631  18.357  24.306  1.00  0.00     0.004 A 
BRANCH   9  17
ATOM     17  C   UNL A   1      31.660  23.342  22.844  1.00  0.00     0.315 C 
BRANCH  17  18
ATOM     18  N   UNL A   1      30.312  23.770  23.167  1.00  0.00    -0.353 N 
ATOM     19  H   UNL A   1      29.957  23.215  23.948  1.00  0.00     0.344 HD
ATOM     20  H   UNL A   1      29.708  23.637  22.356  1.00  0.00     0.344 HD
ATOM     21  H   UNL A   1      30.320  24.756  23.428  1.00  0.00     0.344 HD
ENDBRANCH  17  18
ENDBRANCH   9  17
BRANCH  10  22
ATOM     22  C   UNL A   1      33.068  24.255  25.389  1.00  0.00    -0.016 A 
ATOM     23  C   UNL A   1      34.117  25.088  24.994  1.00  0.00     0.009 A 
ATOM     24  C   UNL A   1      32.035  24.775  26.182  1.00  0.00     0.009 A 
ATOM     25  C   UNL A   1      34.123  26.433  25.379  1.00  0.00     0.001 A 
ATOM     26  C   UNL A   1      32.038  26.118  26.558  1.00  0.00     0.001 A 
ATOM     27  C   UNL A   1      33.082  26.947  26.155  1.00  0.00     0.000 A 
ENDBRANCH  10  22
ENDBRANCH   5   8
ENDBRANCH   3   4
ENDBRANCH   2   3
ENDBRANCH   1   2
BRANCH   1  28
ATOM     28  C   UNL A   1      39.217  23.481  26.898  1.00  0.00     0.116 C 
BRANCH  28  29
ATOM     29  N   UNL A   1      40.454  23.821  26.211  1.00  0.00    -0.352 N 
ATOM     30  C   UNL A   1      41.285  24.910  26.351  1.00  0.00     0.251 C 
ATOM     31  H   UNL A   1      40.744  23.165  25.536  1.00  0.00     0.163 HD
ATOM     32  O   UNL A   1      42.262  25.020  25.614  1.00  0.00    -0.269 OA
BRANCH  30  33
ATOM     33  C   UNL A   1      40.988  25.968  27.344  1.00  0.00     0.039 A 
ATOM     34  C   UNL A   1      40.111  25.677  28.395  1.00  0.00     0.014 A 
ATOM     35  C   UNL A   1      41.571  27.234  27.260  1.00  0.00     0.014 A 
ATOM     36  C   UNL A   1      39.903  26.617  29.410  1.00  0.00     0.010 A 
ATOM     37  C   UNL A   1      41.432  28.133  28.316  1.00  0.00     0.010 A 
ATOM     38  C   UNL A   1      40.602  27.835  29.406  1.00  0.00    -0.014 A 
BRANCH  38  39
ATOM     39  C   UNL A   1      40.488  28.797  30.536  1.00  0.00     0.031 A 
ATOM     40  C   UNL A   1      41.369  28.653  31.749  1.00  0.00     0.074 A 
ATOM     41  C   UNL A   1      39.542  29.759  30.504  1.00  0.00     0.049 A 
ATOM     42  N   UNL A   1      41.371  29.350  32.857  1.00  0.00    -0.248 NA
ATOM     43  C   UNL A   1      42.357  27.563  31.728  1.00  0.00     0.031 C 
ATOM     44  C   UNL A   1      38.582  29.967  29.418  1.00  0.00     0.029 A 
ATOM     45  N   UNL A   1      39.224  30.736  31.414  1.00  0.00    -0.354 N 
ATOM     46  C   UNL A   1      42.341  28.773  33.668  1.00  0.00     0.074 A 
ATOM     47  C   UNL A   1      42.869  27.634  32.948  1.00  0.00     0.031 C 
ATOM     48  C   UNL A   1      37.802  31.020  29.712  1.00  0.00     0.029 A 
ATOM     49  C   UNL A   1      38.182  31.544  31.020  1.00  0.00     0.049 A 
ATOM     50  H   UNL A   1      39.698  30.850  32.270  1.00  0.00     0.167 HD
ATOM     51  C   UNL A   1      42.775  29.170  34.889  1.00  0.00     0.037 A 
ATOM     52  C   UNL A   1      37.596  32.585  31.642  1.00  0.00     0.037 A 
ATOM     53  C   UNL A   1      42.274  30.324  35.588  1.00  0.00     0.049 A 
ATOM     54  C   UNL A   1      38.108  33.022  32.988  1.00  0.00     0.074 A 
ATOM     55  C   UNL A   1      42.696  30.850  36.796  1.00  0.00     0.029 A 
ATOM     56  N   UNL A   1      41.240  31.134  35.140  1.00  0.00    -0.354 N 
ATOM     57  N   UNL A   1      39.077  32.507  33.707  1.00  0.00    -0.248 NA
ATOM     58  C   UNL A   1      37.455  34.185  33.604  1.00  0.00     0.031 C 
ATOM     59  C   UNL A   1      41.894  31.956  37.098  1.00  0.00     0.029 A 
ATOM     60  C   UNL A   1      41.000  32.146  36.056  1.00  0.00     0.049 A 
ATOM     61  H   UNL A   1      40.750  31.010  34.296  1.00  0.00     0.167 HD
ATOM     62  C   UNL A   1      39.164  33.296  34.848  1.00  0.00     0.074 A 
ATOM     63  C   UNL A   1      38.161  34.332  34.717  1.00  0.00     0.031 C 
ATOM     64  C   UNL A   1      40.000  33.173  35.910  1.00  0.00     0.037 A 
BRANCH  51  65
ATOM     65  C   UNL A   1      43.858  28.354  35.541  1.00  0.00     0.058 A 
ATOM     66  C   UNL A   1      45.216  28.594  35.278  1.00  0.00     0.135 A 
ATOM     67  C   UNL A   1      43.538  27.340  36.457  1.00  0.00     0.135 A 
ATOM     68  F   UNL A   1      45.578  29.542  34.400  1.00  0.00    -0.206 F 
ATOM     69  C   UNL A   1      46.218  27.834  35.874  1.00  0.00     0.059 A 
ATOM     70  C   UNL A   1      44.525  26.586  37.087  1.00  0.00     0.059 A 
ATOM     71  F   UNL A   1      42.255  27.068  36.746  1.00  0.00    -0.206 F 
ATOM     72  C   UNL A   1      45.861  26.830  36.775  1.00  0.00     0.060 A 
BRANCH  72  73
ATOM     73  S   UNL A   1      47.174  25.853  37.539  1.00  0.00     0.124 S 
ATOM     74  O   UNL A   1      46.497  24.578  37.756  1.00  0.00    -0.237 OA
ATOM     75  O   UNL A   1      48.206  25.854  36.508  1.00  0.00    -0.237 OA
ATOM     76  O   UNL A   1      47.498  26.605  38.747  1.00  0.00    -0.744 OA
ENDBRANCH  72  73
ENDBRANCH  51  65
BRANCH  52  77
ATOM     77  C   UNL A   1      36.476  33.311  30.984  1.00  0.00     0.058 A 
ATOM     78  C   UNL A   1      36.708  34.141  29.877  1.00  0.00     0.135 A 
ATOM     79  C   UNL A   1      35.155  33.184  31.439  1.00  0.00     0.135 A 
ATOM     80  F   UNL A   1      37.955  34.300  29.408  1.00  0.00    -0.206 F 
ATOM     81  C   UNL A   1      35.674  34.832  29.254  1.00  0.00     0.059 A 
ATOM     82  C   UNL A   1      34.100  33.847  30.818  1.00  0.00     0.059 A 
ATOM     83  F   UNL A   1      34.877  32.390  32.485  1.00  0.00    -0.206 F 
ATOM     84  C   UNL A   1      34.372  34.677  29.730  1.00  0.00     0.060 A 
BRANCH  84  85
ATOM     85  S   UNL A   1      33.030  35.539  28.884  1.00  0.00     0.124 S 
ATOM     86  O   UNL A   1      32.412  34.454  28.130  1.00  0.00    -0.237 OA
ATOM     87  O   UNL A   1      32.250  36.067  29.999  1.00  0.00    -0.237 OA
ATOM     88  O   UNL A   1      33.728  36.545  28.087  1.00  0.00    -0.744 OA
ENDBRANCH  84  85
ENDBRANCH  52  77
BRANCH  64  89
ATOM     89  C   UNL A   1      39.885  34.200  37.002  1.00  0.00     0.058 A 
ATOM     90  C   UNL A   1      40.448  35.477  36.873  1.00  0.00     0.135 A 
ATOM     91  C   UNL A   1      39.163  33.915  38.172  1.00  0.00     0.135 A 
ATOM     92  F   UNL A   1      41.154  35.798  35.777  1.00  0.00    -0.206 F 
ATOM     93  C   UNL A   1      40.320  36.432  37.877  1.00  0.00     0.059 A 
ATOM     94  C   UNL A   1      38.999  34.863  39.177  1.00  0.00     0.059 A 
ATOM     95  F   UNL A   1      38.595  32.710  38.340  1.00  0.00    -0.206 F 
ATOM     96  C   UNL A   1      39.592  36.115  39.025  1.00  0.00     0.060 A 
BRANCH  96  97
ATOM     97  S   UNL A   1      39.407  37.373  40.308  1.00  0.00     0.124 S 
ATOM     98  O   UNL A   1      38.680  38.416  39.594  1.00  0.00    -0.237 OA
ATOM     99  O   UNL A   1      38.653  36.663  41.336  1.00  0.00    -0.237 OA
ATOM    100  O   UNL A   1      40.785  37.698  40.664  1.00  0.00    -0.744 OA
ENDBRANCH  96  97
ENDBRANCH  64  89
ENDBRANCH  38  39
ENDBRANCH  30  33
ENDBRANCH  28  29
ENDBRANCH   1  28
TORSDOF 17
ENDMDL
