MODEL 1
REMARK VINA RESULT:     -10.8      0.000      0.000
REMARK SMILES O=C(NCCCCNC(=O)[C@H]1Sc2[nH]c(=O)sc2[C@H]2c3cc(Br)cc(Br)c3OC(=O)[C@H]21)c1ccc(-c2c3nc(c(-c4c(F)cc(S(=O)(=O)[O-])cc4F)c4ccc([nH]4)c(-c4c(F)cc(S(=O)(=O)[O-])cc4F)c4nc(c(-c5c(F)cc(S(=O)(=O)[O-])cc5F)c5ccc2[nH]5)C=C4)C=C3)cc1
REMARK SMILES IDX 4 1 3 2 1 3 2 4 32 6 33 7 97 8 34 9 96 10 35 11 36 12 37 13
REMARK SMILES IDX 90 14 38 15 95 16 89 17 91 18 39 19 94 20 88 21 87 22 40 24
REMARK SMILES IDX 74 25 53 26 73 27 54 28 57 29 72 30 92 31 55 32 56 33 71 35
REMARK SMILES IDX 93 36 58 37 41 38 42 39 51 40 43 41 44 42 50 43 52 44 45 45
REMARK SMILES IDX 46 46 47 47 48 48 49 49 75 50 76 51 85 52 77 53 78 54 84 55
REMARK SMILES IDX 86 56 79 57 80 58 81 59 82 60 83 61 59 62 60 63 69 64 61 65
REMARK SMILES IDX 62 66 68 67 70 68 63 69 64 70 65 71 66 72 67 73 5 74 6 75
REMARK SMILES IDX 7 76 8 77 9 78 10 80 11 81 12 82 31 83 13 84 19 85 29 86
REMARK SMILES IDX 14 87 18 88 20 89 28 90 30 91 15 92 17 94 21 95 27 96 16 97
REMARK SMILES IDX 22 98 25 99 23 100 24 101 26 102
REMARK H PARENT 3 5 91 23 57 34 8 79 14 93
REMARK Flexibility Score: inf
ROOT
ATOM      1  C   UNL A   1      34.928  33.299  30.345  1.00  0.00     0.116 C 
ENDROOT
BRANCH   1   2
ATOM      2  N   UNL A   1      34.495  32.501  29.218  1.00  0.00    -0.352 N 
ATOM      3  O   UNL A   1      34.365  31.003  27.596  1.00  0.00    -0.269 OA
ATOM      4  C   UNL A   1      35.057  31.484  28.497  1.00  0.00     0.251 C 
ATOM      5  H   UNL A   1      33.596  32.745  28.897  1.00  0.00     0.163 HD
BRANCH   4   6
ATOM      6  C   UNL A   1      36.442  30.980  28.692  1.00  0.00     0.039 A 
ATOM      7  C   UNL A   1      37.546  31.772  29.009  1.00  0.00     0.014 A 
ATOM      8  C   UNL A   1      36.621  29.592  28.552  1.00  0.00     0.014 A 
ATOM      9  C   UNL A   1      38.817  31.212  29.077  1.00  0.00     0.010 A 
ATOM     10  C   UNL A   1      37.885  29.022  28.658  1.00  0.00     0.010 A 
ATOM     11  C   UNL A   1      38.988  29.842  28.880  1.00  0.00    -0.014 A 
BRANCH  11  12
ATOM     12  C   UNL A   1      40.333  29.297  29.045  1.00  0.00     0.031 A 
ATOM     13  C   UNL A   1      40.779  29.111  30.461  1.00  0.00     0.074 A 
ATOM     14  C   UNL A   1      41.069  28.842  28.012  1.00  0.00     0.049 A 
ATOM     15  N   UNL A   1      41.815  29.604  31.061  1.00  0.00    -0.248 NA
ATOM     16  C   UNL A   1      39.891  28.339  31.348  1.00  0.00     0.031 C 
ATOM     17  C   UNL A   1      40.655  28.668  26.617  1.00  0.00     0.029 A 
ATOM     18  N   UNL A   1      42.324  28.316  28.027  1.00  0.00    -0.354 N 
ATOM     19  C   UNL A   1      41.814  29.057  32.346  1.00  0.00     0.074 A 
ATOM     20  C   UNL A   1      40.545  28.396  32.507  1.00  0.00     0.031 C 
ATOM     21  C   UNL A   1      41.542  27.864  25.990  1.00  0.00     0.029 A 
ATOM     22  C   UNL A   1      42.644  27.581  26.894  1.00  0.00     0.049 A 
ATOM     23  H   UNL A   1      42.950  28.446  28.776  1.00  0.00     0.167 HD
ATOM     24  C   UNL A   1      42.925  29.019  33.134  1.00  0.00     0.037 A 
ATOM     25  C   UNL A   1      43.691  26.729  26.754  1.00  0.00     0.037 A 
ATOM     26  C   UNL A   1      43.933  29.941  32.694  1.00  0.00     0.049 A 
ATOM     27  C   UNL A   1      44.689  27.076  27.801  1.00  0.00     0.074 A 
ATOM     28  C   UNL A   1      43.999  31.314  32.548  1.00  0.00     0.029 A 
ATOM     29  N   UNL A   1      45.007  29.447  31.997  1.00  0.00    -0.354 N 
ATOM     30  N   UNL A   1      45.360  28.194  27.835  1.00  0.00    -0.248 NA
ATOM     31  C   UNL A   1      44.630  26.346  29.059  1.00  0.00     0.031 C 
ATOM     32  C   UNL A   1      44.786  31.524  31.379  1.00  0.00     0.029 A 
ATOM     33  C   UNL A   1      45.185  30.270  30.913  1.00  0.00     0.049 A 
ATOM     34  H   UNL A   1      45.546  28.656  32.229  1.00  0.00     0.167 HD
ATOM     35  C   UNL A   1      45.455  28.513  29.182  1.00  0.00     0.074 A 
ATOM     36  C   UNL A   1      45.066  27.296  29.889  1.00  0.00     0.031 C 
ATOM     37  C   UNL A   1      45.579  29.807  29.603  1.00  0.00     0.037 A 
BRANCH  24  38
ATOM     38  C   UNL A   1      43.218  27.916  34.122  1.00  0.00     0.058 A 
ATOM     39  C   UNL A   1      43.405  28.216  35.485  1.00  0.00     0.135 A 
ATOM     40  C   UNL A   1      43.597  26.615  33.724  1.00  0.00     0.135 A 
ATOM     41  F   UNL A   1      43.097  29.432  35.966  1.00  0.00    -0.206 F 
ATOM     42  C   UNL A   1      43.978  27.308  36.378  1.00  0.00     0.059 A 
ATOM     43  C   UNL A   1      44.119  25.676  34.606  1.00  0.00     0.059 A 
ATOM     44  F   UNL A   1      43.569  26.231  32.441  1.00  0.00    -0.206 F 
ATOM     45  C   UNL A   1      44.345  26.044  35.922  1.00  0.00     0.060 A 
BRANCH  45  46
ATOM     46  S   UNL A   1      45.195  24.912  37.039  1.00  0.00     0.124 S 
ATOM     47  O   UNL A   1      44.624  23.630  36.644  1.00  0.00    -0.237 OA
ATOM     48  O   UNL A   1      46.593  25.128  36.683  1.00  0.00    -0.237 OA
ATOM     49  O   UNL A   1      44.810  25.396  38.362  1.00  0.00    -0.744 OA
ENDBRANCH  45  46
ENDBRANCH  24  38
BRANCH  25  50
ATOM     50  C   UNL A   1      43.698  25.418  26.052  1.00  0.00     0.058 A 
ATOM     51  C   UNL A   1      44.713  25.089  25.135  1.00  0.00     0.135 A 
ATOM     52  C   UNL A   1      42.876  24.352  26.475  1.00  0.00     0.135 A 
ATOM     53  F   UNL A   1      45.556  26.036  24.698  1.00  0.00    -0.206 F 
ATOM     54  C   UNL A   1      44.932  23.776  24.704  1.00  0.00     0.059 A 
ATOM     55  C   UNL A   1      43.067  23.038  26.048  1.00  0.00     0.059 A 
ATOM     56  F   UNL A   1      41.918  24.536  27.396  1.00  0.00    -0.206 F 
ATOM     57  C   UNL A   1      44.115  22.753  25.184  1.00  0.00     0.060 A 
BRANCH  57  58
ATOM     58  S   UNL A   1      44.502  21.036  24.770  1.00  0.00     0.124 S 
ATOM     59  O   UNL A   1      45.794  20.852  25.421  1.00  0.00    -0.237 OA
ATOM     60  O   UNL A   1      43.380  20.317  25.365  1.00  0.00    -0.237 OA
ATOM     61  O   UNL A   1      44.533  21.038  23.310  1.00  0.00    -0.744 OA
ENDBRANCH  57  58
ENDBRANCH  25  50
BRANCH  37  62
ATOM     62  C   UNL A   1      45.897  30.866  28.580  1.00  0.00     0.058 A 
ATOM     63  C   UNL A   1      44.942  31.466  27.740  1.00  0.00     0.135 A 
ATOM     64  C   UNL A   1      47.190  31.414  28.573  1.00  0.00     0.135 A 
ATOM     65  F   UNL A   1      43.661  31.074  27.765  1.00  0.00    -0.206 F 
ATOM     66  C   UNL A   1      45.266  32.538  26.906  1.00  0.00     0.059 A 
ATOM     67  C   UNL A   1      47.527  32.501  27.772  1.00  0.00     0.059 A 
ATOM     68  F   UNL A   1      48.131  30.927  29.399  1.00  0.00    -0.206 F 
ATOM     69  C   UNL A   1      46.562  33.053  26.932  1.00  0.00     0.060 A 
BRANCH  69  70
ATOM     70  S   UNL A   1      46.952  34.494  25.917  1.00  0.00     0.124 S 
ATOM     71  O   UNL A   1      48.224  34.111  25.312  1.00  0.00    -0.237 OA
ATOM     72  O   UNL A   1      45.811  34.560  25.009  1.00  0.00    -0.237 OA
ATOM     73  O   UNL A   1      47.029  35.585  26.887  1.00  0.00    -0.744 OA
ENDBRANCH  69  70
ENDBRANCH  37  62
ENDBRANCH  11  12
ENDBRANCH   4   6
ENDBRANCH   1   2
BRANCH   1  74
ATOM     74  C   UNL A   1      34.637  32.667  31.702  1.00  0.00     0.023 C 
BRANCH  74  75
ATOM     75  C   UNL A   1      35.538  31.475  32.039  1.00  0.00     0.023 C 
BRANCH  75  76
ATOM     76  C   UNL A   1      36.444  31.652  33.265  1.00  0.00     0.116 C 
BRANCH  76  77
ATOM     77  N   UNL A   1      36.741  33.041  33.583  1.00  0.00    -0.355 N 
ATOM     78  C   UNL A   1      37.787  33.837  33.213  1.00  0.00     0.234 C 
ATOM     79  H   UNL A   1      36.076  33.481  34.162  1.00  0.00     0.163 HD
ATOM     80  O   UNL A   1      37.885  34.953  33.731  1.00  0.00    -0.274 OA
BRANCH  78  81
ATOM     81  C   UNL A   1      38.786  33.347  32.156  1.00  0.00     0.157 C 
ATOM     82  S   UNL A   1      38.742  34.595  30.790  1.00  0.00    -0.093 SA
ATOM     83  C   UNL A   1      40.143  32.823  32.698  1.00  0.00     0.135 C 
ATOM     84  C   UNL A   1      40.323  34.587  30.203  1.00  0.00     0.091 A 
ATOM     85  C   UNL A   1      41.447  33.486  32.179  1.00  0.00     0.082 C 
ATOM     86  C   UNL A   1      40.245  32.677  34.228  1.00  0.00     0.317 C 
ATOM     87  N   UNL A   1      40.597  35.211  29.022  1.00  0.00    -0.307 N 
ATOM     88  C   UNL A   1      41.396  34.105  30.824  1.00  0.00     0.049 A 
ATOM     89  C   UNL A   1      42.013  34.377  33.272  1.00  0.00     0.007 A 
ATOM     90  O   UNL A   1      41.540  32.507  34.660  1.00  0.00    -0.425 OA
ATOM     91  O   UNL A   1      39.312  32.582  35.006  1.00  0.00    -0.251 OA
ATOM     92  C   UNL A   1      41.908  35.241  28.643  1.00  0.00     0.305 A 
ATOM     93  H   UNL A   1      39.887  35.617  28.474  1.00  0.00     0.171 HD
ATOM     94  S   UNL A   1      42.835  34.338  29.843  1.00  0.00    -0.078 S 
ATOM     95  C   UNL A   1      42.442  35.698  33.147  1.00  0.00     0.024 A 
ATOM     96  C   UNL A   1      42.087  33.773  34.535  1.00  0.00     0.148 A 
ATOM     97  O   UNL A   1      42.385  35.796  27.660  1.00  0.00    -0.257 OA
ATOM     98  C   UNL A   1      42.966  36.366  34.260  1.00  0.00     0.019 A 
ATOM     99  C   UNL A   1      42.644  34.419  35.636  1.00  0.00     0.062 A 
ATOM    100  Br  UNL A   1      43.516  38.166  34.083  1.00  0.00    -0.051 Br
ATOM    101  C   UNL A   1      43.085  35.729  35.498  1.00  0.00     0.035 A 
ATOM    102  Br  UNL A   1      42.780  33.564  37.317  1.00  0.00    -0.047 Br
ENDBRANCH  78  81
ENDBRANCH  76  77
ENDBRANCH  75  76
ENDBRANCH  74  75
ENDBRANCH   1  74
TORSDOF 14
ENDMDL
MODEL 2
REMARK VINA RESULT:     -10.6      5.562     12.198
REMARK SMILES O=C(NCCCCNC(=O)[C@H]1Sc2[nH]c(=O)sc2[C@H]2c3cc(Br)cc(Br)c3OC(=O)[C@H]21)c1ccc(-c2c3nc(c(-c4c(F)cc(S(=O)(=O)[O-])cc4F)c4ccc([nH]4)c(-c4c(F)cc(S(=O)(=O)[O-])cc4F)c4nc(c(-c5c(F)cc(S(=O)(=O)[O-])cc5F)c5ccc2[nH]5)C=C4)C=C3)cc1
REMARK SMILES IDX 4 1 3 2 1 3 2 4 32 6 33 7 97 8 34 9 96 10 35 11 36 12 37 13
REMARK SMILES IDX 90 14 38 15 95 16 89 17 91 18 39 19 94 20 88 21 87 22 40 24
REMARK SMILES IDX 74 25 53 26 73 27 54 28 57 29 72 30 92 31 55 32 56 33 71 35
REMARK SMILES IDX 93 36 58 37 41 38 42 39 51 40 43 41 44 42 50 43 52 44 45 45
REMARK SMILES IDX 46 46 47 47 48 48 49 49 75 50 76 51 85 52 77 53 78 54 84 55
REMARK SMILES IDX 86 56 79 57 80 58 81 59 82 60 83 61 59 62 60 63 69 64 61 65
REMARK SMILES IDX 62 66 68 67 70 68 63 69 64 70 65 71 66 72 67 73 5 74 6 75
REMARK SMILES IDX 7 76 8 77 9 78 10 80 11 81 12 82 31 83 13 84 19 85 29 86
REMARK SMILES IDX 14 87 18 88 20 89 28 90 30 91 15 92 17 94 21 95 27 96 16 97
REMARK SMILES IDX 22 98 25 99 23 100 24 101 26 102
REMARK H PARENT 3 5 91 23 57 34 8 79 14 93
REMARK Flexibility Score: inf
ROOT
ATOM      1  C   UNL A   1      41.544  20.892  26.666  1.00  0.00     0.116 C 
ENDROOT
BRANCH   1   2
ATOM      2  N   UNL A   1      42.316  21.401  25.552  1.00  0.00    -0.352 N 
ATOM      3  O   UNL A   1      43.516  22.676  24.202  1.00  0.00    -0.269 OA
ATOM      4  C   UNL A   1      42.884  22.610  25.259  1.00  0.00     0.251 C 
ATOM      5  H   UNL A   1      42.465  20.728  24.849  1.00  0.00     0.163 HD
BRANCH   4   6
ATOM      6  C   UNL A   1      42.734  23.833  26.089  1.00  0.00     0.039 A 
ATOM      7  C   UNL A   1      43.293  24.019  27.353  1.00  0.00     0.014 A 
ATOM      8  C   UNL A   1      41.974  24.874  25.525  1.00  0.00     0.014 A 
ATOM      9  C   UNL A   1      43.013  25.167  28.085  1.00  0.00     0.010 A 
ATOM     10  C   UNL A   1      41.723  26.041  26.238  1.00  0.00     0.010 A 
ATOM     11  C   UNL A   1      42.211  26.167  27.536  1.00  0.00    -0.014 A 
BRANCH  11  12
ATOM     12  C   UNL A   1      42.019  27.386  28.318  1.00  0.00     0.031 A 
ATOM     13  C   UNL A   1      43.115  28.398  28.205  1.00  0.00     0.074 A 
ATOM     14  C   UNL A   1      40.872  27.663  28.970  1.00  0.00     0.049 A 
ATOM     15  N   UNL A   1      43.844  28.918  29.140  1.00  0.00    -0.248 NA
ATOM     16  C   UNL A   1      43.505  28.816  26.847  1.00  0.00     0.031 C 
ATOM     17  C   UNL A   1      39.606  26.926  28.920  1.00  0.00     0.029 A 
ATOM     18  N   UNL A   1      40.565  28.750  29.727  1.00  0.00    -0.354 N 
ATOM     19  C   UNL A   1      44.658  29.864  28.514  1.00  0.00     0.074 A 
ATOM     20  C   UNL A   1      44.500  29.665  27.097  1.00  0.00     0.031 C 
ATOM     21  C   UNL A   1      38.620  27.710  29.411  1.00  0.00     0.029 A 
ATOM     22  C   UNL A   1      39.204  28.937  29.925  1.00  0.00     0.049 A 
ATOM     23  H   UNL A   1      41.248  29.351  30.103  1.00  0.00     0.167 HD
ATOM     24  C   UNL A   1      45.269  30.876  29.192  1.00  0.00     0.037 A 
ATOM     25  C   UNL A   1      38.603  30.062  30.389  1.00  0.00     0.037 A 
ATOM     26  C   UNL A   1      45.333  30.623  30.603  1.00  0.00     0.049 A 
ATOM     27  C   UNL A   1      39.639  30.859  31.098  1.00  0.00     0.074 A 
ATOM     28  C   UNL A   1      45.918  29.650  31.390  1.00  0.00     0.029 A 
ATOM     29  N   UNL A   1      44.441  31.269  31.422  1.00  0.00    -0.354 N 
ATOM     30  N   UNL A   1      40.223  30.488  32.204  1.00  0.00    -0.248 NA
ATOM     31  C   UNL A   1      40.337  31.886  30.340  1.00  0.00     0.031 C 
ATOM     32  C   UNL A   1      44.999  29.437  32.459  1.00  0.00     0.029 A 
ATOM     33  C   UNL A   1      43.936  30.323  32.277  1.00  0.00     0.049 A 
ATOM     34  H   UNL A   1      44.209  32.226  31.400  1.00  0.00     0.167 HD
ATOM     35  C   UNL A   1      41.535  30.920  32.078  1.00  0.00     0.074 A 
ATOM     36  C   UNL A   1      41.523  31.850  30.952  1.00  0.00     0.031 C 
ATOM     37  C   UNL A   1      42.561  30.286  32.721  1.00  0.00     0.037 A 
BRANCH  24  38
ATOM     38  C   UNL A   1      45.529  32.243  28.606  1.00  0.00     0.058 A 
ATOM     39  C   UNL A   1      46.838  32.765  28.577  1.00  0.00     0.135 A 
ATOM     40  C   UNL A   1      44.497  33.166  28.330  1.00  0.00     0.135 A 
ATOM     41  F   UNL A   1      47.893  31.979  28.846  1.00  0.00    -0.206 F 
ATOM     42  C   UNL A   1      47.097  34.118  28.345  1.00  0.00     0.059 A 
ATOM     43  C   UNL A   1      44.734  34.505  28.043  1.00  0.00     0.059 A 
ATOM     44  F   UNL A   1      43.203  32.829  28.424  1.00  0.00    -0.206 F 
ATOM     45  C   UNL A   1      46.034  34.982  28.094  1.00  0.00     0.060 A 
BRANCH  45  46
ATOM     46  S   UNL A   1      46.352  36.747  27.914  1.00  0.00     0.124 S 
ATOM     47  O   UNL A   1      46.509  36.870  26.470  1.00  0.00    -0.237 OA
ATOM     48  O   UNL A   1      45.141  37.332  28.478  1.00  0.00    -0.237 OA
ATOM     49  O   UNL A   1      47.564  36.951  28.702  1.00  0.00    -0.744 OA
ENDBRANCH  45  46
ENDBRANCH  24  38
BRANCH  25  50
ATOM     50  C   UNL A   1      37.323  30.658  29.922  1.00  0.00     0.058 A 
ATOM     51  C   UNL A   1      36.455  31.310  30.816  1.00  0.00     0.135 A 
ATOM     52  C   UNL A   1      37.059  30.853  28.549  1.00  0.00     0.135 A 
ATOM     53  F   UNL A   1      36.646  31.200  32.140  1.00  0.00    -0.206 F 
ATOM     54  C   UNL A   1      35.421  32.145  30.378  1.00  0.00     0.059 A 
ATOM     55  C   UNL A   1      36.027  31.669  28.089  1.00  0.00     0.059 A 
ATOM     56  F   UNL A   1      37.860  30.333  27.608  1.00  0.00    -0.206 F 
ATOM     57  C   UNL A   1      35.229  32.335  29.009  1.00  0.00     0.060 A 
BRANCH  57  58
ATOM     58  S   UNL A   1      34.012  33.545  28.441  1.00  0.00     0.124 S 
ATOM     59  O   UNL A   1      33.032  32.698  27.770  1.00  0.00    -0.237 OA
ATOM     60  O   UNL A   1      33.577  34.153  29.694  1.00  0.00    -0.237 OA
ATOM     61  O   UNL A   1      34.786  34.419  27.564  1.00  0.00    -0.744 OA
ENDBRANCH  57  58
ENDBRANCH  25  50
BRANCH  37  62
ATOM     62  C   UNL A   1      42.225  29.284  33.794  1.00  0.00     0.058 A 
ATOM     63  C   UNL A   1      41.890  27.941  33.545  1.00  0.00     0.135 A 
ATOM     64  C   UNL A   1      42.419  29.657  35.134  1.00  0.00     0.135 A 
ATOM     65  F   UNL A   1      41.791  27.478  32.291  1.00  0.00    -0.206 F 
ATOM     66  C   UNL A   1      41.720  27.021  34.581  1.00  0.00     0.059 A 
ATOM     67  C   UNL A   1      42.284  28.749  36.180  1.00  0.00     0.059 A 
ATOM     68  F   UNL A   1      42.802  30.909  35.433  1.00  0.00    -0.206 F 
ATOM     69  C   UNL A   1      41.924  27.434  35.898  1.00  0.00     0.060 A 
BRANCH  69  70
ATOM     70  S   UNL A   1      41.790  26.219  37.227  1.00  0.00     0.124 S 
ATOM     71  O   UNL A   1      41.916  24.957  36.506  1.00  0.00    -0.237 OA
ATOM     72  O   UNL A   1      42.911  26.572  38.092  1.00  0.00    -0.237 OA
ATOM     73  O   UNL A   1      40.469  26.480  37.797  1.00  0.00    -0.744 OA
ENDBRANCH  69  70
ENDBRANCH  37  62
ENDBRANCH  11  12
ENDBRANCH   4   6
ENDBRANCH   1   2
BRANCH   1  74
ATOM     74  C   UNL A   1      40.350  21.763  27.043  1.00  0.00     0.023 C 
BRANCH  74  75
ATOM     75  C   UNL A   1      39.278  21.855  25.953  1.00  0.00     0.023 C 
BRANCH  75  76
ATOM     76  C   UNL A   1      38.663  23.245  25.742  1.00  0.00     0.116 C 
BRANCH  76  77
ATOM     77  N   UNL A   1      37.501  23.510  26.579  1.00  0.00    -0.355 N 
ATOM     78  C   UNL A   1      36.173  23.283  26.358  1.00  0.00     0.234 C 
ATOM     79  H   UNL A   1      37.707  23.920  27.450  1.00  0.00     0.163 HD
ATOM     80  O   UNL A   1      35.360  23.727  27.174  1.00  0.00    -0.274 OA
BRANCH  78  81
ATOM     81  C   UNL A   1      35.727  22.471  25.134  1.00  0.00     0.157 C 
ATOM     82  S   UNL A   1      35.451  20.743  25.738  1.00  0.00    -0.093 SA
ATOM     83  C   UNL A   1      34.685  23.156  24.209  1.00  0.00     0.135 C 
ATOM     84  C   UNL A   1      34.190  20.187  24.765  1.00  0.00     0.091 A 
ATOM     85  C   UNL A   1      33.346  22.419  23.939  1.00  0.00     0.082 C 
ATOM     86  C   UNL A   1      34.376  24.632  24.521  1.00  0.00     0.317 C 
ATOM     87  N   UNL A   1      33.889  18.857  24.765  1.00  0.00    -0.307 N 
ATOM     88  C   UNL A   1      33.361  20.932  24.040  1.00  0.00     0.049 A 
ATOM     89  C   UNL A   1      32.242  23.105  24.724  1.00  0.00     0.007 A 
ATOM     90  O   UNL A   1      33.247  25.086  23.879  1.00  0.00    -0.425 OA
ATOM     91  O   UNL A   1      35.085  25.399  25.150  1.00  0.00    -0.251 OA
ATOM     92  C   UNL A   1      32.807  18.482  24.021  1.00  0.00     0.305 A 
ATOM     93  H   UNL A   1      34.422  18.204  25.272  1.00  0.00     0.171 HD
ATOM     94  S   UNL A   1      32.188  19.922  23.209  1.00  0.00    -0.078 S 
ATOM     95  C   UNL A   1      31.287  22.502  25.543  1.00  0.00     0.024 A 
ATOM     96  C   UNL A   1      32.216  24.501  24.595  1.00  0.00     0.148 A 
ATOM     97  O   UNL A   1      32.322  17.360  23.926  1.00  0.00    -0.257 OA
ATOM     98  C   UNL A   1      30.317  23.289  26.175  1.00  0.00     0.019 A 
ATOM     99  C   UNL A   1      31.230  25.285  25.190  1.00  0.00     0.062 A 
ATOM    100  Br  UNL A   1      29.049  22.460  27.306  1.00  0.00    -0.051 Br
ATOM    101  C   UNL A   1      30.272  24.673  25.990  1.00  0.00     0.035 A 
ATOM    102  Br  UNL A   1      31.187  27.160  24.958  1.00  0.00    -0.047 Br
ENDBRANCH  78  81
ENDBRANCH  76  77
ENDBRANCH  75  76
ENDBRANCH  74  75
ENDBRANCH   1  74
TORSDOF 14
ENDMDL
MODEL 3
REMARK VINA RESULT:     -10.5      5.859     12.227
REMARK SMILES O=C(NCCCCNC(=O)[C@H]1Sc2[nH]c(=O)sc2[C@H]2c3cc(Br)cc(Br)c3OC(=O)[C@H]21)c1ccc(-c2c3nc(c(-c4c(F)cc(S(=O)(=O)[O-])cc4F)c4ccc([nH]4)c(-c4c(F)cc(S(=O)(=O)[O-])cc4F)c4nc(c(-c5c(F)cc(S(=O)(=O)[O-])cc5F)c5ccc2[nH]5)C=C4)C=C3)cc1
REMARK SMILES IDX 4 1 3 2 1 3 2 4 32 6 33 7 97 8 34 9 96 10 35 11 36 12 37 13
REMARK SMILES IDX 90 14 38 15 95 16 89 17 91 18 39 19 94 20 88 21 87 22 40 24
REMARK SMILES IDX 74 25 53 26 73 27 54 28 57 29 72 30 92 31 55 32 56 33 71 35
REMARK SMILES IDX 93 36 58 37 41 38 42 39 51 40 43 41 44 42 50 43 52 44 45 45
REMARK SMILES IDX 46 46 47 47 48 48 49 49 75 50 76 51 85 52 77 53 78 54 84 55
REMARK SMILES IDX 86 56 79 57 80 58 81 59 82 60 83 61 59 62 60 63 69 64 61 65
REMARK SMILES IDX 62 66 68 67 70 68 63 69 64 70 65 71 66 72 67 73 5 74 6 75
REMARK SMILES IDX 7 76 8 77 9 78 10 80 11 81 12 82 31 83 13 84 19 85 29 86
REMARK SMILES IDX 14 87 18 88 20 89 28 90 30 91 15 92 17 94 21 95 27 96 16 97
REMARK SMILES IDX 22 98 25 99 23 100 24 101 26 102
REMARK H PARENT 3 5 91 23 57 34 8 79 14 93
REMARK Flexibility Score: inf
ROOT
ATOM      1  C   UNL A   1      41.278  21.254  26.349  1.00  0.00     0.116 C 
ENDROOT
BRANCH   1   2
ATOM      2  N   UNL A   1      42.240  21.739  25.381  1.00  0.00    -0.352 N 
ATOM      3  O   UNL A   1      43.671  22.982  24.243  1.00  0.00    -0.269 OA
ATOM      4  C   UNL A   1      42.863  22.938  25.174  1.00  0.00     0.251 C 
ATOM      5  H   UNL A   1      42.503  21.053  24.725  1.00  0.00     0.163 HD
BRANCH   4   6
ATOM      6  C   UNL A   1      42.581  24.177  25.945  1.00  0.00     0.039 A 
ATOM      7  C   UNL A   1      41.878  25.281  25.462  1.00  0.00     0.014 A 
ATOM      8  C   UNL A   1      43.061  24.205  27.267  1.00  0.00     0.014 A 
ATOM      9  C   UNL A   1      41.751  26.429  26.235  1.00  0.00     0.010 A 
ATOM     10  C   UNL A   1      42.901  25.337  28.059  1.00  0.00     0.010 A 
ATOM     11  C   UNL A   1      42.281  26.464  27.525  1.00  0.00    -0.014 A 
BRANCH  11  12
ATOM     12  C   UNL A   1      42.045  27.665  28.321  1.00  0.00     0.031 A 
ATOM     13  C   UNL A   1      43.113  28.709  28.238  1.00  0.00     0.074 A 
ATOM     14  C   UNL A   1      40.883  27.900  28.962  1.00  0.00     0.049 A 
ATOM     15  N   UNL A   1      43.815  29.235  29.190  1.00  0.00    -0.248 NA
ATOM     16  C   UNL A   1      43.509  29.158  26.892  1.00  0.00     0.031 C 
ATOM     17  C   UNL A   1      39.639  27.129  28.884  1.00  0.00     0.029 A 
ATOM     18  N   UNL A   1      40.535  28.966  29.731  1.00  0.00    -0.354 N 
ATOM     19  C   UNL A   1      44.610  30.213  28.590  1.00  0.00     0.074 A 
ATOM     20  C   UNL A   1      44.477  30.031  27.168  1.00  0.00     0.031 C 
ATOM     21  C   UNL A   1      38.625  27.877  29.373  1.00  0.00     0.029 A 
ATOM     22  C   UNL A   1      39.166  29.112  29.913  1.00  0.00     0.049 A 
ATOM     23  H   UNL A   1      41.195  29.581  30.124  1.00  0.00     0.167 HD
ATOM     24  C   UNL A   1      45.183  31.232  29.290  1.00  0.00     0.037 A 
ATOM     25  C   UNL A   1      38.528  30.212  30.385  1.00  0.00     0.037 A 
ATOM     26  C   UNL A   1      45.236  30.959  30.699  1.00  0.00     0.049 A 
ATOM     27  C   UNL A   1      39.531  31.027  31.120  1.00  0.00     0.074 A 
ATOM     28  C   UNL A   1      45.838  29.991  31.480  1.00  0.00     0.029 A 
ATOM     29  N   UNL A   1      44.315  31.568  31.514  1.00  0.00    -0.354 N 
ATOM     30  N   UNL A   1      40.111  30.656  32.228  1.00  0.00    -0.248 NA
ATOM     31  C   UNL A   1      40.210  32.085  30.387  1.00  0.00     0.031 C 
ATOM     32  C   UNL A   1      44.911  29.737  32.532  1.00  0.00     0.029 A 
ATOM     33  C   UNL A   1      43.826  30.595  32.349  1.00  0.00     0.049 A 
ATOM     34  H   UNL A   1      44.056  32.518  31.503  1.00  0.00     0.167 HD
ATOM     35  C   UNL A   1      41.412  31.127  32.127  1.00  0.00     0.074 A 
ATOM     36  C   UNL A   1      41.388  32.073  31.014  1.00  0.00     0.031 C 
ATOM     37  C   UNL A   1      42.447  30.513  32.774  1.00  0.00     0.037 A 
BRANCH  24  38
ATOM     38  C   UNL A   1      45.412  32.614  28.729  1.00  0.00     0.058 A 
ATOM     39  C   UNL A   1      46.704  33.176  28.732  1.00  0.00     0.135 A 
ATOM     40  C   UNL A   1      44.357  33.509  28.445  1.00  0.00     0.135 A 
ATOM     41  F   UNL A   1      47.778  32.419  29.010  1.00  0.00    -0.206 F 
ATOM     42  C   UNL A   1      46.926  34.539  28.523  1.00  0.00     0.059 A 
ATOM     43  C   UNL A   1      44.559  34.859  28.181  1.00  0.00     0.059 A 
ATOM     44  F   UNL A   1      43.073  33.131  28.509  1.00  0.00    -0.206 F 
ATOM     45  C   UNL A   1      45.842  35.374  28.263  1.00  0.00     0.060 A 
BRANCH  45  46
ATOM     46  S   UNL A   1      46.109  37.151  28.114  1.00  0.00     0.124 S 
ATOM     47  O   UNL A   1      45.262  37.664  29.184  1.00  0.00    -0.237 OA
ATOM     48  O   UNL A   1      47.548  37.260  28.328  1.00  0.00    -0.237 OA
ATOM     49  O   UNL A   1      45.660  37.444  26.756  1.00  0.00    -0.744 OA
ENDBRANCH  45  46
ENDBRANCH  24  38
BRANCH  25  50
ATOM     50  C   UNL A   1      37.237  30.779  29.909  1.00  0.00     0.058 A 
ATOM     51  C   UNL A   1      36.346  31.405  30.799  1.00  0.00     0.135 A 
ATOM     52  C   UNL A   1      36.981  30.974  28.536  1.00  0.00     0.135 A 
ATOM     53  F   UNL A   1      36.528  31.294  32.124  1.00  0.00    -0.206 F 
ATOM     54  C   UNL A   1      35.296  32.217  30.356  1.00  0.00     0.059 A 
ATOM     55  C   UNL A   1      35.933  31.767  28.070  1.00  0.00     0.059 A 
ATOM     56  F   UNL A   1      37.802  30.478  27.599  1.00  0.00    -0.206 F 
ATOM     57  C   UNL A   1      35.111  32.408  28.986  1.00  0.00     0.060 A 
BRANCH  57  58
ATOM     58  S   UNL A   1      33.870  33.592  28.412  1.00  0.00     0.124 S 
ATOM     59  O   UNL A   1      33.330  34.097  29.670  1.00  0.00    -0.237 OA
ATOM     60  O   UNL A   1      34.676  34.531  27.641  1.00  0.00    -0.237 OA
ATOM     61  O   UNL A   1      32.954  32.769  27.626  1.00  0.00    -0.744 OA
ENDBRANCH  57  58
ENDBRANCH  25  50
BRANCH  37  62
ATOM     62  C   UNL A   1      42.125  29.485  33.827  1.00  0.00     0.058 A 
ATOM     63  C   UNL A   1      41.755  28.158  33.550  1.00  0.00     0.135 A 
ATOM     64  C   UNL A   1      42.370  29.814  35.170  1.00  0.00     0.135 A 
ATOM     65  F   UNL A   1      41.606  27.734  32.287  1.00  0.00    -0.206 F 
ATOM     66  C   UNL A   1      41.599  27.210  34.563  1.00  0.00     0.059 A 
ATOM     67  C   UNL A   1      42.251  28.878  36.193  1.00  0.00     0.059 A 
ATOM     68  F   UNL A   1      42.788  31.049  35.494  1.00  0.00    -0.206 F 
ATOM     69  C   UNL A   1      41.855  27.579  35.884  1.00  0.00     0.060 A 
BRANCH  69  70
ATOM     70  S   UNL A   1      41.738  26.328  37.181  1.00  0.00     0.124 S 
ATOM     71  O   UNL A   1      40.418  26.589  37.744  1.00  0.00    -0.237 OA
ATOM     72  O   UNL A   1      41.876  25.083  36.432  1.00  0.00    -0.237 OA
ATOM     73  O   UNL A   1      42.862  26.642  38.061  1.00  0.00    -0.744 OA
ENDBRANCH  69  70
ENDBRANCH  37  62
ENDBRANCH  11  12
ENDBRANCH   4   6
ENDBRANCH   1   2
BRANCH   1  74
ATOM     74  C   UNL A   1      39.873  21.821  26.165  1.00  0.00     0.023 C 
BRANCH  74  75
ATOM     75  C   UNL A   1      39.567  23.025  27.059  1.00  0.00     0.023 C 
BRANCH  75  76
ATOM     76  C   UNL A   1      38.373  23.887  26.627  1.00  0.00     0.116 C 
BRANCH  76  77
ATOM     77  N   UNL A   1      37.985  23.701  25.236  1.00  0.00    -0.355 N 
ATOM     78  C   UNL A   1      36.750  23.634  24.656  1.00  0.00     0.234 C 
ATOM     79  H   UNL A   1      38.737  23.608  24.608  1.00  0.00     0.163 HD
ATOM     80  O   UNL A   1      36.679  23.330  23.463  1.00  0.00    -0.274 OA
BRANCH  78  81
ATOM     81  C   UNL A   1      35.497  23.960  25.482  1.00  0.00     0.157 C 
ATOM     82  S   UNL A   1      34.583  25.261  24.534  1.00  0.00    -0.093 SA
ATOM     83  C   UNL A   1      34.740  22.742  26.074  1.00  0.00     0.135 C 
ATOM     84  C   UNL A   1      32.966  24.932  24.880  1.00  0.00     0.091 A 
ATOM     85  C   UNL A   1      33.240  22.565  25.717  1.00  0.00     0.082 C 
ATOM     86  C   UNL A   1      35.441  21.378  25.929  1.00  0.00     0.317 C 
ATOM     87  N   UNL A   1      32.015  25.850  24.546  1.00  0.00    -0.307 N 
ATOM     88  C   UNL A   1      32.477  23.799  25.376  1.00  0.00     0.049 A 
ATOM     89  C   UNL A   1      33.104  21.429  24.718  1.00  0.00     0.007 A 
ATOM     90  O   UNL A   1      34.602  20.319  26.191  1.00  0.00    -0.425 OA
ATOM     91  O   UNL A   1      36.630  21.197  25.736  1.00  0.00    -0.251 OA
ATOM     92  C   UNL A   1      30.718  25.490  24.777  1.00  0.00     0.305 A 
ATOM     93  H   UNL A   1      32.250  26.724  24.160  1.00  0.00     0.171 HD
ATOM     94  S   UNL A   1      30.731  23.902  25.547  1.00  0.00    -0.078 S 
ATOM     95  C   UNL A   1      32.388  21.438  23.521  1.00  0.00     0.024 A 
ATOM     96  C   UNL A   1      33.799  20.262  25.065  1.00  0.00     0.148 A 
ATOM     97  O   UNL A   1      29.709  26.127  24.499  1.00  0.00    -0.257 OA
ATOM     98  C   UNL A   1      32.347  20.285  22.728  1.00  0.00     0.019 A 
ATOM     99  C   UNL A   1      33.730  19.100  24.300  1.00  0.00     0.062 A 
ATOM    100  Br  UNL A   1      31.397  20.321  21.094  1.00  0.00    -0.051 Br
ATOM    101  C   UNL A   1      32.999  19.112  23.118  1.00  0.00     0.035 A 
ATOM    102  Br  UNL A   1      34.634  17.522  24.817  1.00  0.00    -0.047 Br
ENDBRANCH  78  81
ENDBRANCH  76  77
ENDBRANCH  75  76
ENDBRANCH  74  75
ENDBRANCH   1  74
TORSDOF 14
ENDMDL
