MODEL 1
REMARK VINA RESULT:     -14.3      0.000      0.000
REMARK SMILES Cc1ccc(CN(CC(=O)NCCCCNC(=O)c2ccc(-c3c4nc(c(-c5c(F)cc(S(=O)(=O)[O-])cc5F)c5ccc([nH]5)c(-c5c(F)cc(S(=O)(=O)[O-])cc5F)c5nc(c(-c6c(F)cc(S(=O)(=O)[O-])cc6F)c6ccc3[nH]6)C=C5)C=C4)cc2)C(=O)c2cc3c(s2)CCOC3)cc1
REMARK SMILES IDX 13 1 12 2 11 3 9 4 10 5 8 7 7 8 6 9 5 10 1 11 2 12 3 13
REMARK SMILES IDX 97 14 4 15 96 16 85 17 86 18 87 19 88 20 91 21 89 22 90 23
REMARK SMILES IDX 95 24 92 25 94 26 93 27 14 28 15 29 16 30 17 31 18 33 19 34
REMARK SMILES IDX 20 35 84 36 21 37 83 38 22 39 23 40 24 41 77 42 25 43 82 44
REMARK SMILES IDX 76 45 78 46 26 47 81 48 75 49 74 50 27 52 61 53 40 54 60 55
REMARK SMILES IDX 41 56 44 57 59 58 79 59 42 60 43 61 58 63 80 64 45 65 28 66
REMARK SMILES IDX 29 67 38 68 30 69 31 70 37 71 39 72 32 73 33 74 34 75 35 76
REMARK SMILES IDX 36 77 62 78 63 79 72 80 64 81 65 82 71 83 73 84 66 85 67 86
REMARK SMILES IDX 68 87 69 88 70 89 46 90 47 91 56 92 48 93 49 94 55 95 57 96
REMARK SMILES IDX 50 97 51 98 52 99 53 100 54 101
REMARK H PARENT 11 6 16 32 78 51 44 62
REMARK Flexibility Score: inf
ROOT
ATOM      1  C   UNL A   1      36.625  22.879  24.042  1.00  0.00     0.023 C 
ENDROOT
BRANCH   1   2
ATOM      2  C   UNL A   1      35.114  22.676  24.224  1.00  0.00     0.116 C 
BRANCH   2   3
ATOM      3  N   UNL A   1      34.301  22.985  23.058  1.00  0.00    -0.355 N 
ATOM      4  C   UNL A   1      33.657  24.125  22.690  1.00  0.00     0.239 C 
ATOM      5  O   UNL A   1      33.343  24.231  21.498  1.00  0.00    -0.273 OA
ATOM      6  H   UNL A   1      34.198  22.237  22.425  1.00  0.00     0.163 HD
BRANCH   4   7
ATOM      7  C   UNL A   1      33.403  25.304  23.645  1.00  0.00     0.220 C 
BRANCH   7   8
ATOM      8  N   UNL A   1      32.121  25.316  24.352  1.00  0.00    -0.324 N 
BRANCH   8   9
ATOM      9  C   UNL A   1      32.155  25.492  25.803  1.00  0.00     0.156 C 
BRANCH   9  10
ATOM     10  C   UNL A   1      32.492  26.894  26.245  1.00  0.00    -0.029 A 
ATOM     11  C   UNL A   1      33.584  30.883  27.469  1.00  0.00     0.044 C 
ATOM     12  C   UNL A   1      33.204  29.503  27.030  1.00  0.00    -0.051 A 
ATOM     13  C   UNL A   1      31.888  29.047  27.181  1.00  0.00     0.004 A 
ATOM     14  C   UNL A   1      34.161  28.646  26.479  1.00  0.00     0.004 A 
ATOM     15  C   UNL A   1      31.532  27.753  26.789  1.00  0.00     0.006 A 
ATOM     16  C   UNL A   1      33.807  27.356  26.090  1.00  0.00     0.006 A 
ENDBRANCH   9  10
ENDBRANCH   8   9
BRANCH   8  17
ATOM     17  C   UNL A   1      30.865  25.262  23.719  1.00  0.00     0.264 C 
ATOM     18  O   UNL A   1      30.359  24.181  23.416  1.00  0.00    -0.268 OA
BRANCH  17  19
ATOM     19  C   UNL A   1      30.152  26.512  23.488  1.00  0.00     0.093 A 
ATOM     20  C   UNL A   1      28.869  26.906  23.828  1.00  0.00     0.032 A 
ATOM     21  S   UNL A   1      30.996  27.784  22.690  1.00  0.00    -0.135 S 
ATOM     22  C   UNL A   1      28.512  28.153  23.235  1.00  0.00    -0.008 A 
ATOM     23  C   UNL A   1      29.600  28.741  22.631  1.00  0.00     0.013 A 
ATOM     24  C   UNL A   1      27.155  28.791  23.184  1.00  0.00     0.196 C 
ATOM     25  C   UNL A   1      29.527  30.080  21.978  1.00  0.00     0.075 C 
ATOM     26  O   UNL A   1      27.192  30.157  22.705  1.00  0.00    -0.376 OA
ATOM     27  C   UNL A   1      28.063  30.317  21.570  1.00  0.00     0.166 C 
ENDBRANCH  17  19
ENDBRANCH   8  17
ENDBRANCH   7   8
ENDBRANCH   4   7
ENDBRANCH   2   3
ENDBRANCH   1   2
BRANCH   1  28
ATOM     28  C   UNL A   1      37.521  22.363  25.163  1.00  0.00     0.023 C 
BRANCH  28  29
ATOM     29  C   UNL A   1      38.034  23.448  26.091  1.00  0.00     0.116 C 
BRANCH  29  30
ATOM     30  N   UNL A   1      39.231  23.102  26.838  1.00  0.00    -0.352 N 
ATOM     31  C   UNL A   1      40.125  23.980  27.435  1.00  0.00     0.251 C 
ATOM     32  H   UNL A   1      39.429  22.142  26.931  1.00  0.00     0.163 HD
ATOM     33  O   UNL A   1      41.229  23.632  27.815  1.00  0.00    -0.269 OA
BRANCH  31  34
ATOM     34  C   UNL A   1      39.628  25.348  27.706  1.00  0.00     0.039 A 
ATOM     35  C   UNL A   1      40.109  26.371  26.881  1.00  0.00     0.014 A 
ATOM     36  C   UNL A   1      38.987  25.637  28.908  1.00  0.00     0.014 A 
ATOM     37  C   UNL A   1      40.130  27.679  27.355  1.00  0.00     0.010 A 
ATOM     38  C   UNL A   1      39.093  26.917  29.415  1.00  0.00     0.010 A 
ATOM     39  C   UNL A   1      39.714  27.925  28.662  1.00  0.00    -0.014 A 
BRANCH  39  40
ATOM     40  C   UNL A   1      39.941  29.185  29.359  1.00  0.00     0.031 A 
ATOM     41  C   UNL A   1      38.941  30.272  29.247  1.00  0.00     0.074 A 
ATOM     42  C   UNL A   1      41.013  29.330  30.169  1.00  0.00     0.049 A 
ATOM     43  N   UNL A   1      39.136  31.488  29.630  1.00  0.00    -0.248 NA
ATOM     44  C   UNL A   1      37.650  30.083  28.590  1.00  0.00     0.031 C 
ATOM     45  C   UNL A   1      41.210  30.343  31.202  1.00  0.00     0.029 A 
ATOM     46  N   UNL A   1      42.255  28.702  30.061  1.00  0.00    -0.354 N 
ATOM     47  C   UNL A   1      37.936  32.154  29.546  1.00  0.00     0.074 A 
ATOM     48  C   UNL A   1      37.093  31.284  28.770  1.00  0.00     0.031 C 
ATOM     49  C   UNL A   1      42.520  30.443  31.472  1.00  0.00     0.029 A 
ATOM     50  C   UNL A   1      43.226  29.617  30.509  1.00  0.00     0.049 A 
ATOM     51  H   UNL A   1      42.420  27.788  29.733  1.00  0.00     0.167 HD
ATOM     52  C   UNL A   1      37.773  33.300  30.267  1.00  0.00     0.037 A 
ATOM     53  C   UNL A   1      44.198  30.081  29.667  1.00  0.00     0.037 A 
ATOM     54  C   UNL A   1      39.079  33.817  30.695  1.00  0.00     0.049 A 
ATOM     55  C   UNL A   1      44.140  31.571  29.414  1.00  0.00     0.074 A 
ATOM     56  C   UNL A   1      39.755  33.824  31.903  1.00  0.00     0.029 A 
ATOM     57  N   UNL A   1      40.008  34.189  29.724  1.00  0.00    -0.354 N 
ATOM     58  N   UNL A   1      43.121  32.327  29.718  1.00  0.00    -0.248 NA
ATOM     59  C   UNL A   1      45.222  32.326  28.786  1.00  0.00     0.031 C 
ATOM     60  C   UNL A   1      41.127  34.087  31.632  1.00  0.00     0.029 A 
ATOM     61  C   UNL A   1      41.275  34.287  30.268  1.00  0.00     0.049 A 
ATOM     62  H   UNL A   1      39.791  34.360  28.779  1.00  0.00     0.167 HD
ATOM     63  C   UNL A   1      43.359  33.611  29.304  1.00  0.00     0.074 A 
ATOM     64  C   UNL A   1      44.704  33.567  28.760  1.00  0.00     0.031 C 
ATOM     65  C   UNL A   1      42.424  34.602  29.426  1.00  0.00     0.037 A 
BRANCH  52  66
ATOM     66  C   UNL A   1      36.437  33.829  30.789  1.00  0.00     0.058 A 
ATOM     67  C   UNL A   1      35.444  34.275  29.883  1.00  0.00     0.135 A 
ATOM     68  C   UNL A   1      36.111  34.062  32.145  1.00  0.00     0.135 A 
ATOM     69  F   UNL A   1      35.591  34.117  28.559  1.00  0.00    -0.206 F 
ATOM     70  C   UNL A   1      34.272  34.934  30.284  1.00  0.00     0.059 A 
ATOM     71  C   UNL A   1      34.939  34.693  32.570  1.00  0.00     0.059 A 
ATOM     72  F   UNL A   1      36.924  33.739  33.152  1.00  0.00    -0.206 F 
ATOM     73  C   UNL A   1      34.033  35.151  31.634  1.00  0.00     0.060 A 
BRANCH  73  74
ATOM     74  S   UNL A   1      32.563  36.049  32.159  1.00  0.00     0.124 S 
ATOM     75  O   UNL A   1      31.670  34.963  32.551  1.00  0.00    -0.237 OA
ATOM     76  O   UNL A   1      33.076  36.878  33.244  1.00  0.00    -0.237 OA
ATOM     77  O   UNL A   1      32.162  36.778  30.959  1.00  0.00    -0.744 OA
ENDBRANCH  73  74
ENDBRANCH  52  66
BRANCH  53  78
ATOM     78  C   UNL A   1      44.673  29.047  28.707  1.00  0.00     0.058 A 
ATOM     79  C   UNL A   1      44.087  29.045  27.427  1.00  0.00     0.135 A 
ATOM     80  C   UNL A   1      45.930  28.443  28.847  1.00  0.00     0.135 A 
ATOM     81  F   UNL A   1      42.876  29.596  27.241  1.00  0.00    -0.206 F 
ATOM     82  C   UNL A   1      44.791  28.633  26.302  1.00  0.00     0.059 A 
ATOM     83  C   UNL A   1      46.653  28.014  27.731  1.00  0.00     0.059 A 
ATOM     84  F   UNL A   1      46.535  28.410  30.044  1.00  0.00    -0.206 F 
ATOM     85  C   UNL A   1      46.103  28.192  26.461  1.00  0.00     0.060 A 
BRANCH  85  86
ATOM     86  S   UNL A   1      47.124  28.067  24.973  1.00  0.00     0.124 S 
ATOM     87  O   UNL A   1      46.622  29.173  24.166  1.00  0.00    -0.237 OA
ATOM     88  O   UNL A   1      48.464  28.247  25.531  1.00  0.00    -0.237 OA
ATOM     89  O   UNL A   1      46.822  26.731  24.473  1.00  0.00    -0.744 OA
ENDBRANCH  85  86
ENDBRANCH  53  78
BRANCH  65  90
ATOM     90  C   UNL A   1      42.539  35.985  28.826  1.00  0.00     0.058 A 
ATOM     91  C   UNL A   1      43.274  37.037  29.402  1.00  0.00     0.135 A 
ATOM     92  C   UNL A   1      41.997  36.253  27.546  1.00  0.00     0.135 A 
ATOM     93  F   UNL A   1      43.934  36.873  30.558  1.00  0.00    -0.206 F 
ATOM     94  C   UNL A   1      43.398  38.287  28.792  1.00  0.00     0.059 A 
ATOM     95  C   UNL A   1      42.156  37.474  26.895  1.00  0.00     0.059 A 
ATOM     96  F   UNL A   1      41.297  35.322  26.878  1.00  0.00    -0.206 F 
ATOM     97  C   UNL A   1      42.834  38.498  27.539  1.00  0.00     0.060 A 
BRANCH  97  98
ATOM     98  S   UNL A   1      43.032  40.090  26.715  1.00  0.00     0.124 S 
ATOM     99  O   UNL A   1      41.735  40.245  26.065  1.00  0.00    -0.237 OA
ATOM    100  O   UNL A   1      43.293  41.003  27.825  1.00  0.00    -0.237 OA
ATOM    101  O   UNL A   1      44.165  39.861  25.824  1.00  0.00    -0.744 OA
ENDBRANCH  97  98
ENDBRANCH  65  90
ENDBRANCH  39  40
ENDBRANCH  31  34
ENDBRANCH  29  30
ENDBRANCH  28  29
ENDBRANCH   1  28
TORSDOF 19
ENDMDL
MODEL 2
REMARK VINA RESULT:     -14.0      1.057      1.767
REMARK SMILES Cc1ccc(CN(CC(=O)NCCCCNC(=O)c2ccc(-c3c4nc(c(-c5c(F)cc(S(=O)(=O)[O-])cc5F)c5ccc([nH]5)c(-c5c(F)cc(S(=O)(=O)[O-])cc5F)c5nc(c(-c6c(F)cc(S(=O)(=O)[O-])cc6F)c6ccc3[nH]6)C=C5)C=C4)cc2)C(=O)c2cc3c(s2)CCOC3)cc1
REMARK SMILES IDX 13 1 12 2 11 3 9 4 10 5 8 7 7 8 6 9 5 10 1 11 2 12 3 13
REMARK SMILES IDX 97 14 4 15 96 16 85 17 86 18 87 19 88 20 91 21 89 22 90 23
REMARK SMILES IDX 95 24 92 25 94 26 93 27 14 28 15 29 16 30 17 31 18 33 19 34
REMARK SMILES IDX 20 35 84 36 21 37 83 38 22 39 23 40 24 41 77 42 25 43 82 44
REMARK SMILES IDX 76 45 78 46 26 47 81 48 75 49 74 50 27 52 61 53 40 54 60 55
REMARK SMILES IDX 41 56 44 57 59 58 79 59 42 60 43 61 58 63 80 64 45 65 28 66
REMARK SMILES IDX 29 67 38 68 30 69 31 70 37 71 39 72 32 73 33 74 34 75 35 76
REMARK SMILES IDX 36 77 62 78 63 79 72 80 64 81 65 82 71 83 73 84 66 85 67 86
REMARK SMILES IDX 68 87 69 88 70 89 46 90 47 91 56 92 48 93 49 94 55 95 57 96
REMARK SMILES IDX 50 97 51 98 52 99 53 100 54 101
REMARK H PARENT 11 6 16 32 78 51 44 62
REMARK Flexibility Score: inf
ROOT
ATOM      1  C   UNL A   1      36.157  21.733  25.694  1.00  0.00     0.023 C 
ENDROOT
BRANCH   1   2
ATOM      2  C   UNL A   1      34.881  22.556  25.464  1.00  0.00     0.116 C 
BRANCH   2   3
ATOM      3  N   UNL A   1      34.398  22.584  24.093  1.00  0.00    -0.355 N 
ATOM      4  C   UNL A   1      33.935  23.608  23.326  1.00  0.00     0.239 C 
ATOM      5  O   UNL A   1      33.929  23.432  22.102  1.00  0.00    -0.273 OA
ATOM      6  H   UNL A   1      34.408  21.710  23.641  1.00  0.00     0.163 HD
BRANCH   4   7
ATOM      7  C   UNL A   1      33.526  24.978  23.895  1.00  0.00     0.220 C 
BRANCH   7   8
ATOM      8  N   UNL A   1      32.178  25.084  24.456  1.00  0.00    -0.324 N 
BRANCH   8   9
ATOM      9  C   UNL A   1      32.065  25.331  25.892  1.00  0.00     0.156 C 
BRANCH   9  10
ATOM     10  C   UNL A   1      32.432  26.734  26.306  1.00  0.00    -0.029 A 
ATOM     11  C   UNL A   1      33.605  30.727  27.440  1.00  0.00     0.044 C 
ATOM     12  C   UNL A   1      33.196  29.346  27.032  1.00  0.00    -0.051 A 
ATOM     13  C   UNL A   1      31.893  28.890  27.277  1.00  0.00     0.004 A 
ATOM     14  C   UNL A   1      34.112  28.488  26.418  1.00  0.00     0.004 A 
ATOM     15  C   UNL A   1      31.512  27.595  26.914  1.00  0.00     0.006 A 
ATOM     16  C   UNL A   1      33.733  27.197  26.058  1.00  0.00     0.006 A 
ENDBRANCH   9  10
ENDBRANCH   8   9
BRANCH   8  17
ATOM     17  C   UNL A   1      30.996  25.057  23.692  1.00  0.00     0.264 C 
ATOM     18  O   UNL A   1      30.555  23.993  23.255  1.00  0.00    -0.268 OA
BRANCH  17  19
ATOM     19  C   UNL A   1      30.276  26.307  23.486  1.00  0.00     0.093 A 
ATOM     20  C   UNL A   1      28.998  26.693  23.852  1.00  0.00     0.032 A 
ATOM     21  S   UNL A   1      31.102  27.589  22.686  1.00  0.00    -0.135 S 
ATOM     22  C   UNL A   1      28.627  27.945  23.277  1.00  0.00    -0.008 A 
ATOM     23  C   UNL A   1      29.703  28.542  22.660  1.00  0.00     0.013 A 
ATOM     24  C   UNL A   1      27.268  28.579  23.255  1.00  0.00     0.196 C 
ATOM     25  C   UNL A   1      29.615  29.887  22.021  1.00  0.00     0.075 C 
ATOM     26  O   UNL A   1      27.293  29.950  22.789  1.00  0.00    -0.376 OA
ATOM     27  C   UNL A   1      28.144  30.124  21.641  1.00  0.00     0.166 C 
ENDBRANCH  17  19
ENDBRANCH   8  17
ENDBRANCH   7   8
ENDBRANCH   4   7
ENDBRANCH   2   3
ENDBRANCH   1   2
BRANCH   1  28
ATOM     28  C   UNL A   1      37.460  22.337  25.181  1.00  0.00     0.023 C 
BRANCH  28  29
ATOM     29  C   UNL A   1      38.010  23.449  26.055  1.00  0.00     0.116 C 
BRANCH  29  30
ATOM     30  N   UNL A   1      39.159  23.080  26.865  1.00  0.00    -0.352 N 
ATOM     31  C   UNL A   1      40.066  23.942  27.467  1.00  0.00     0.251 C 
ATOM     32  H   UNL A   1      39.311  22.117  27.001  1.00  0.00     0.163 HD
ATOM     33  O   UNL A   1      41.136  23.562  27.907  1.00  0.00    -0.269 OA
BRANCH  31  34
ATOM     34  C   UNL A   1      39.619  25.339  27.667  1.00  0.00     0.039 A 
ATOM     35  C   UNL A   1      40.213  26.315  26.859  1.00  0.00     0.014 A 
ATOM     36  C   UNL A   1      38.901  25.691  28.807  1.00  0.00     0.014 A 
ATOM     37  C   UNL A   1      40.264  27.633  27.303  1.00  0.00     0.010 A 
ATOM     38  C   UNL A   1      39.032  26.978  29.292  1.00  0.00     0.010 A 
ATOM     39  C   UNL A   1      39.760  27.934  28.567  1.00  0.00    -0.014 A 
BRANCH  39  40
ATOM     40  C   UNL A   1      39.995  29.200  29.251  1.00  0.00     0.031 A 
ATOM     41  C   UNL A   1      38.988  30.281  29.153  1.00  0.00     0.074 A 
ATOM     42  C   UNL A   1      41.083  29.355  30.037  1.00  0.00     0.049 A 
ATOM     43  N   UNL A   1      39.185  31.500  29.524  1.00  0.00    -0.248 NA
ATOM     44  C   UNL A   1      37.684  30.081  28.525  1.00  0.00     0.031 C 
ATOM     45  C   UNL A   1      41.297  30.376  31.058  1.00  0.00     0.029 A 
ATOM     46  N   UNL A   1      42.326  28.732  29.907  1.00  0.00    -0.354 N 
ATOM     47  C   UNL A   1      37.980  32.160  29.461  1.00  0.00     0.074 A 
ATOM     48  C   UNL A   1      37.124  31.280  28.709  1.00  0.00     0.031 C 
ATOM     49  C   UNL A   1      42.612  30.485  31.300  1.00  0.00     0.029 A 
ATOM     50  C   UNL A   1      43.302  29.656  30.328  1.00  0.00     0.049 A 
ATOM     51  H   UNL A   1      42.489  27.818  29.581  1.00  0.00     0.167 HD
ATOM     52  C   UNL A   1      37.827  33.310  30.178  1.00  0.00     0.037 A 
ATOM     53  C   UNL A   1      44.253  30.118  29.462  1.00  0.00     0.037 A 
ATOM     54  C   UNL A   1      39.138  33.836  30.575  1.00  0.00     0.049 A 
ATOM     55  C   UNL A   1      44.182  31.606  29.201  1.00  0.00     0.074 A 
ATOM     56  C   UNL A   1      39.840  33.855  31.768  1.00  0.00     0.029 A 
ATOM     57  N   UNL A   1      40.045  34.206  29.581  1.00  0.00    -0.354 N 
ATOM     58  N   UNL A   1      43.166  32.359  29.522  1.00  0.00    -0.248 NA
ATOM     59  C   UNL A   1      45.247  32.363  28.545  1.00  0.00     0.031 C 
ATOM     60  C   UNL A   1      41.204  34.122  31.466  1.00  0.00     0.029 A 
ATOM     61  C   UNL A   1      41.322  34.314  30.098  1.00  0.00     0.049 A 
ATOM     62  H   UNL A   1      39.806  34.369  28.640  1.00  0.00     0.167 HD
ATOM     63  C   UNL A   1      43.389  33.642  29.094  1.00  0.00     0.074 A 
ATOM     64  C   UNL A   1      44.722  33.600  28.522  1.00  0.00     0.031 C 
ATOM     65  C   UNL A   1      42.451  34.629  29.229  1.00  0.00     0.037 A 
BRANCH  52  66
ATOM     66  C   UNL A   1      36.499  33.836  30.725  1.00  0.00     0.058 A 
ATOM     67  C   UNL A   1      35.482  34.263  29.837  1.00  0.00     0.135 A 
ATOM     68  C   UNL A   1      36.203  34.083  32.085  1.00  0.00     0.135 A 
ATOM     69  F   UNL A   1      35.599  34.091  28.512  1.00  0.00    -0.206 F 
ATOM     70  C   UNL A   1      34.315  34.919  30.258  1.00  0.00     0.059 A 
ATOM     71  C   UNL A   1      35.037  34.710  32.530  1.00  0.00     0.059 A 
ATOM     72  F   UNL A   1      37.041  33.778  33.077  1.00  0.00    -0.206 F 
ATOM     73  C   UNL A   1      34.106  35.151  31.610  1.00  0.00     0.060 A 
BRANCH  73  74
ATOM     74  S   UNL A   1      32.642  36.044  32.159  1.00  0.00     0.124 S 
ATOM     75  O   UNL A   1      31.758  34.957  32.565  1.00  0.00    -0.237 OA
ATOM     76  O   UNL A   1      33.170  36.875  33.236  1.00  0.00    -0.237 OA
ATOM     77  O   UNL A   1      32.219  36.773  30.966  1.00  0.00    -0.744 OA
ENDBRANCH  73  74
ENDBRANCH  52  66
BRANCH  53  78
ATOM     78  C   UNL A   1      44.713  29.081  28.499  1.00  0.00     0.058 A 
ATOM     79  C   UNL A   1      45.631  28.126  28.976  1.00  0.00     0.135 A 
ATOM     80  C   UNL A   1      43.953  28.745  27.370  1.00  0.00     0.135 A 
ATOM     81  F   UNL A   1      46.395  28.404  30.045  1.00  0.00    -0.206 F 
ATOM     82  C   UNL A   1      45.662  26.830  28.476  1.00  0.00     0.059 A 
ATOM     83  C   UNL A   1      43.975  27.451  26.845  1.00  0.00     0.059 A 
ATOM     84  F   UNL A   1      43.067  29.617  26.867  1.00  0.00    -0.206 F 
ATOM     85  C   UNL A   1      44.773  26.485  27.461  1.00  0.00     0.060 A 
BRANCH  85  86
ATOM     86  S   UNL A   1      44.537  24.723  27.124  1.00  0.00     0.124 S 
ATOM     87  O   UNL A   1      44.290  24.189  28.459  1.00  0.00    -0.237 OA
ATOM     88  O   UNL A   1      43.379  24.755  26.231  1.00  0.00    -0.237 OA
ATOM     89  O   UNL A   1      45.799  24.330  26.509  1.00  0.00    -0.744 OA
ENDBRANCH  85  86
ENDBRANCH  53  78
BRANCH  65  90
ATOM     90  C   UNL A   1      42.546  36.008  28.618  1.00  0.00     0.058 A 
ATOM     91  C   UNL A   1      42.005  36.357  27.368  1.00  0.00     0.135 A 
ATOM     92  C   UNL A   1      43.094  37.081  29.364  1.00  0.00     0.135 A 
ATOM     93  F   UNL A   1      41.355  35.457  26.615  1.00  0.00    -0.206 F 
ATOM     94  C   UNL A   1      42.070  37.656  26.858  1.00  0.00     0.059 A 
ATOM     95  C   UNL A   1      43.119  38.393  28.898  1.00  0.00     0.059 A 
ATOM     96  F   UNL A   1      43.618  36.884  30.583  1.00  0.00    -0.206 F 
ATOM     97  C   UNL A   1      42.630  38.668  27.630  1.00  0.00     0.060 A 
BRANCH  97  98
ATOM     98  S   UNL A   1      42.672  40.361  27.008  1.00  0.00     0.124 S 
ATOM     99  O   UNL A   1      43.278  41.068  28.130  1.00  0.00    -0.237 OA
ATOM    100  O   UNL A   1      43.502  40.250  25.811  1.00  0.00    -0.237 OA
ATOM    101  O   UNL A   1      41.265  40.655  26.758  1.00  0.00    -0.744 OA
ENDBRANCH  97  98
ENDBRANCH  65  90
ENDBRANCH  39  40
ENDBRANCH  31  34
ENDBRANCH  29  30
ENDBRANCH  28  29
ENDBRANCH   1  28
TORSDOF 19
ENDMDL
MODEL 3
REMARK VINA RESULT:     -13.7      5.098     11.518
REMARK SMILES Cc1ccc(CN(CC(=O)NCCCCNC(=O)c2ccc(-c3c4nc(c(-c5c(F)cc(S(=O)(=O)[O-])cc5F)c5ccc([nH]5)c(-c5c(F)cc(S(=O)(=O)[O-])cc5F)c5nc(c(-c6c(F)cc(S(=O)(=O)[O-])cc6F)c6ccc3[nH]6)C=C5)C=C4)cc2)C(=O)c2cc3c(s2)CCOC3)cc1
REMARK SMILES IDX 13 1 12 2 11 3 9 4 10 5 8 7 7 8 6 9 5 10 1 11 2 12 3 13
REMARK SMILES IDX 97 14 4 15 96 16 85 17 86 18 87 19 88 20 91 21 89 22 90 23
REMARK SMILES IDX 95 24 92 25 94 26 93 27 14 28 15 29 16 30 17 31 18 33 19 34
REMARK SMILES IDX 20 35 84 36 21 37 83 38 22 39 23 40 24 41 77 42 25 43 82 44
REMARK SMILES IDX 76 45 78 46 26 47 81 48 75 49 74 50 27 52 61 53 40 54 60 55
REMARK SMILES IDX 41 56 44 57 59 58 79 59 42 60 43 61 58 63 80 64 45 65 28 66
REMARK SMILES IDX 29 67 38 68 30 69 31 70 37 71 39 72 32 73 33 74 34 75 35 76
REMARK SMILES IDX 36 77 62 78 63 79 72 80 64 81 65 82 71 83 73 84 66 85 67 86
REMARK SMILES IDX 68 87 69 88 70 89 46 90 47 91 56 92 48 93 49 94 55 95 57 96
REMARK SMILES IDX 50 97 51 98 52 99 53 100 54 101
REMARK H PARENT 11 6 16 32 78 51 44 62
REMARK Flexibility Score: inf
ROOT
ATOM      1  C   UNL A   1      32.849  29.377  25.078  1.00  0.00     0.023 C 
ENDROOT
BRANCH   1   2
ATOM      2  C   UNL A   1      32.757  27.857  24.888  1.00  0.00     0.116 C 
BRANCH   2   3
ATOM      3  N   UNL A   1      31.832  27.174  25.777  1.00  0.00    -0.355 N 
ATOM      4  C   UNL A   1      31.374  25.892  25.784  1.00  0.00     0.239 C 
ATOM      5  O   UNL A   1      30.884  25.478  26.842  1.00  0.00    -0.273 OA
ATOM      6  H   UNL A   1      31.473  27.737  26.501  1.00  0.00     0.163 HD
BRANCH   4   7
ATOM      7  C   UNL A   1      31.529  24.928  24.595  1.00  0.00     0.220 C 
BRANCH   7   8
ATOM      8  N   UNL A   1      32.672  24.015  24.630  1.00  0.00    -0.324 N 
BRANCH   8   9
ATOM      9  C   UNL A   1      33.849  24.381  23.844  1.00  0.00     0.156 C 
BRANCH   9  10
ATOM     10  C   UNL A   1      35.136  23.777  24.348  1.00  0.00    -0.029 A 
ATOM     11  C   UNL A   1      38.803  22.119  25.901  1.00  0.00     0.044 C 
ATOM     12  C   UNL A   1      37.522  22.685  25.370  1.00  0.00    -0.051 A 
ATOM     13  C   UNL A   1      37.052  22.310  24.105  1.00  0.00     0.004 A 
ATOM     14  C   UNL A   1      36.789  23.606  26.123  1.00  0.00     0.004 A 
ATOM     15  C   UNL A   1      35.866  22.848  23.597  1.00  0.00     0.006 A 
ATOM     16  C   UNL A   1      35.608  24.145  25.616  1.00  0.00     0.006 A 
ENDBRANCH   9  10
ENDBRANCH   8   9
BRANCH   8  17
ATOM     17  C   UNL A   1      32.744  22.865  25.439  1.00  0.00     0.264 C 
ATOM     18  O   UNL A   1      32.599  22.944  26.659  1.00  0.00    -0.268 OA
BRANCH  17  19
ATOM     19  C   UNL A   1      32.935  21.574  24.790  1.00  0.00     0.093 A 
ATOM     20  C   UNL A   1      32.417  21.061  23.613  1.00  0.00     0.032 A 
ATOM     21  S   UNL A   1      34.003  20.448  25.536  1.00  0.00    -0.135 S 
ATOM     22  C   UNL A   1      32.715  19.675  23.451  1.00  0.00    -0.008 A 
ATOM     23  C   UNL A   1      33.604  19.247  24.411  1.00  0.00     0.013 A 
ATOM     24  C   UNL A   1      32.149  18.726  22.436  1.00  0.00     0.196 C 
ATOM     25  C   UNL A   1      34.133  17.853  24.447  1.00  0.00     0.075 C 
ATOM     26  O   UNL A   1      32.837  17.452  22.411  1.00  0.00    -0.376 OA
ATOM     27  C   UNL A   1      33.113  16.952  23.732  1.00  0.00     0.166 C 
ENDBRANCH  17  19
ENDBRANCH   8  17
ENDBRANCH   7   8
ENDBRANCH   4   7
ENDBRANCH   2   3
ENDBRANCH   1   2
BRANCH   1  28
ATOM     28  C   UNL A   1      33.010  29.877  26.511  1.00  0.00     0.023 C 
BRANCH  28  29
ATOM     29  C   UNL A   1      34.400  29.669  27.083  1.00  0.00     0.116 C 
BRANCH  29  30
ATOM     30  N   UNL A   1      35.095  30.887  27.465  1.00  0.00    -0.352 N 
ATOM     31  C   UNL A   1      36.314  30.982  28.121  1.00  0.00     0.251 C 
ATOM     32  H   UNL A   1      34.654  31.736  27.232  1.00  0.00     0.163 HD
ATOM     33  O   UNL A   1      36.703  32.016  28.632  1.00  0.00    -0.269 OA
BRANCH  31  34
ATOM     34  C   UNL A   1      37.188  29.788  28.069  1.00  0.00     0.039 A 
ATOM     35  C   UNL A   1      37.261  29.006  29.227  1.00  0.00     0.014 A 
ATOM     36  C   UNL A   1      38.125  29.648  27.047  1.00  0.00     0.014 A 
ATOM     37  C   UNL A   1      38.390  28.225  29.454  1.00  0.00     0.010 A 
ATOM     38  C   UNL A   1      39.285  28.948  27.314  1.00  0.00     0.010 A 
ATOM     39  C   UNL A   1      39.441  28.282  28.540  1.00  0.00    -0.014 A 
BRANCH  39  40
ATOM     40  C   UNL A   1      40.767  27.735  28.797  1.00  0.00     0.031 A 
ATOM     41  C   UNL A   1      41.042  26.312  28.489  1.00  0.00     0.074 A 
ATOM     42  C   UNL A   1      41.762  28.540  29.233  1.00  0.00     0.049 A 
ATOM     43  N   UNL A   1      42.093  25.671  28.873  1.00  0.00    -0.248 NA
ATOM     44  C   UNL A   1      40.082  25.464  27.787  1.00  0.00     0.031 C 
ATOM     45  C   UNL A   1      43.196  28.270  29.198  1.00  0.00     0.029 A 
ATOM     46  N   UNL A   1      41.646  29.694  30.009  1.00  0.00    -0.354 N 
ATOM     47  C   UNL A   1      42.093  24.448  28.245  1.00  0.00     0.074 A 
ATOM     48  C   UNL A   1      40.766  24.320  27.701  1.00  0.00     0.031 C 
ATOM     49  C   UNL A   1      43.812  29.062  30.088  1.00  0.00     0.029 A 
ATOM     50  C   UNL A   1      42.780  29.751  30.842  1.00  0.00     0.049 A 
ATOM     51  H   UNL A   1      40.909  30.346  29.980  1.00  0.00     0.167 HD
ATOM     52  C   UNL A   1      43.268  23.762  28.150  1.00  0.00     0.037 A 
ATOM     53  C   UNL A   1      42.658  29.696  32.202  1.00  0.00     0.037 A 
ATOM     54  C   UNL A   1      44.245  24.301  29.104  1.00  0.00     0.049 A 
ATOM     55  C   UNL A   1      43.308  28.485  32.834  1.00  0.00     0.074 A 
ATOM     56  C   UNL A   1      45.361  25.110  28.975  1.00  0.00     0.029 A 
ATOM     57  N   UNL A   1      43.959  24.242  30.468  1.00  0.00    -0.354 N 
ATOM     58  N   UNL A   1      43.708  27.436  32.169  1.00  0.00    -0.248 NA
ATOM     59  C   UNL A   1      43.549  28.355  34.270  1.00  0.00     0.031 C 
ATOM     60  C   UNL A   1      45.669  25.633  30.262  1.00  0.00     0.029 A 
ATOM     61  C   UNL A   1      44.773  25.105  31.177  1.00  0.00     0.049 A 
ATOM     62  H   UNL A   1      43.271  23.665  30.870  1.00  0.00     0.167 HD
ATOM     63  C   UNL A   1      44.195  26.495  33.038  1.00  0.00     0.074 A 
ATOM     64  C   UNL A   1      44.108  27.134  34.339  1.00  0.00     0.031 C 
ATOM     65  C   UNL A   1      44.612  25.262  32.619  1.00  0.00     0.037 A 
BRANCH  52  66
ATOM     66  C   UNL A   1      43.620  22.767  27.044  1.00  0.00     0.058 A 
ATOM     67  C   UNL A   1      42.923  21.539  26.942  1.00  0.00     0.135 A 
ATOM     68  C   UNL A   1      44.706  22.878  26.145  1.00  0.00     0.135 A 
ATOM     69  F   UNL A   1      41.857  21.278  27.714  1.00  0.00    -0.206 F 
ATOM     70  C   UNL A   1      43.302  20.505  26.072  1.00  0.00     0.059 A 
ATOM     71  C   UNL A   1      45.087  21.873  25.253  1.00  0.00     0.059 A 
ATOM     72  F   UNL A   1      45.504  23.945  26.100  1.00  0.00    -0.206 F 
ATOM     73  C   UNL A   1      44.398  20.677  25.237  1.00  0.00     0.060 A 
BRANCH  73  74
ATOM     74  S   UNL A   1      44.933  19.336  24.160  1.00  0.00     0.124 S 
ATOM     75  O   UNL A   1      44.255  18.186  24.749  1.00  0.00    -0.237 OA
ATOM     76  O   UNL A   1      44.442  19.769  22.857  1.00  0.00    -0.237 OA
ATOM     77  O   UNL A   1      46.386  19.340  24.307  1.00  0.00    -0.744 OA
ENDBRANCH  73  74
ENDBRANCH  52  66
BRANCH  53  78
ATOM     78  C   UNL A   1      41.447  30.401  32.704  1.00  0.00     0.058 A 
ATOM     79  C   UNL A   1      40.312  29.611  32.975  1.00  0.00     0.135 A 
ATOM     80  C   UNL A   1      41.538  31.647  33.339  1.00  0.00     0.135 A 
ATOM     81  F   UNL A   1      40.168  28.416  32.381  1.00  0.00    -0.206 F 
ATOM     82  C   UNL A   1      39.405  29.954  33.970  1.00  0.00     0.059 A 
ATOM     83  C   UNL A   1      40.632  32.017  34.336  1.00  0.00     0.059 A 
ATOM     84  F   UNL A   1      42.593  32.445  33.114  1.00  0.00    -0.206 F 
ATOM     85  C   UNL A   1      39.621  31.124  34.695  1.00  0.00     0.060 A 
BRANCH  85  86
ATOM     86  S   UNL A   1      38.693  31.332  36.234  1.00  0.00     0.124 S 
ATOM     87  O   UNL A   1      37.480  31.996  35.770  1.00  0.00    -0.237 OA
ATOM     88  O   UNL A   1      38.530  29.942  36.659  1.00  0.00    -0.237 OA
ATOM     89  O   UNL A   1      39.585  32.144  37.054  1.00  0.00    -0.744 OA
ENDBRANCH  85  86
ENDBRANCH  53  78
BRANCH  65  90
ATOM     90  C   UNL A   1      44.980  24.113  33.530  1.00  0.00     0.058 A 
ATOM     91  C   UNL A   1      44.145  23.011  33.787  1.00  0.00     0.135 A 
ATOM     92  C   UNL A   1      46.280  24.031  34.083  1.00  0.00     0.135 A 
ATOM     93  F   UNL A   1      42.930  22.912  33.226  1.00  0.00    -0.206 F 
ATOM     94  C   UNL A   1      44.539  21.942  34.595  1.00  0.00     0.059 A 
ATOM     95  C   UNL A   1      46.714  22.949  34.845  1.00  0.00     0.059 A 
ATOM     96  F   UNL A   1      47.182  25.006  33.888  1.00  0.00    -0.206 F 
ATOM     97  C   UNL A   1      45.826  21.921  35.123  1.00  0.00     0.060 A 
BRANCH  97  98
ATOM     98  S   UNL A   1      46.368  20.522  36.124  1.00  0.00     0.124 S 
ATOM     99  O   UNL A   1      46.242  21.064  37.473  1.00  0.00    -0.237 OA
ATOM    100  O   UNL A   1      45.411  19.477  35.774  1.00  0.00    -0.237 OA
ATOM    101  O   UNL A   1      47.732  20.292  35.658  1.00  0.00    -0.744 OA
ENDBRANCH  97  98
ENDBRANCH  65  90
ENDBRANCH  39  40
ENDBRANCH  31  34
ENDBRANCH  29  30
ENDBRANCH  28  29
ENDBRANCH   1  28
TORSDOF 19
ENDMDL
