MODEL 1
REMARK VINA RESULT:     -12.1      0.000      0.000
REMARK SMILES CS(=O)(=O)[C@@H]1CCC[C@@H](Sc2ccc(C(=O)NCCCCNC(=O)c3ccc(-c4c5nc(c(-c6c(F)cc(S(=O)(=O)[O-])cc6F)c6ccc([nH]6)c(-c6c(F)cc(S(=O)(=O)[O-])cc6F)c6nc(c(-c7c(F)cc(S(=O)(=O)[O-])cc7F)c7ccc4[nH]7)C=C6)C=C5)cc3)cn2)C1
REMARK SMILES IDX 19 1 18 2 17 3 15 4 16 5 14 7 11 8 12 9 92 10 13 11 91 12
REMARK SMILES IDX 10 13 9 14 5 15 6 16 93 17 7 18 8 19 2 20 1 21 3 22 4 23
REMARK SMILES IDX 20 24 21 25 22 26 23 27 24 29 25 30 26 31 90 32 27 33 89 34
REMARK SMILES IDX 28 35 29 36 30 37 83 38 31 39 88 40 82 41 84 42 32 43 87 44
REMARK SMILES IDX 81 45 80 46 33 48 67 49 46 50 66 51 47 52 50 53 65 54 85 55
REMARK SMILES IDX 48 56 49 57 64 59 86 60 51 61 34 62 35 63 44 64 36 65 37 66
REMARK SMILES IDX 43 67 45 68 38 69 39 70 40 71 41 72 42 73 68 74 69 75 78 76
REMARK SMILES IDX 70 77 71 78 77 79 79 80 72 81 73 82 74 83 75 84 76 85 52 86
REMARK SMILES IDX 53 87 62 88 54 89 55 90 61 91 63 92 56 93 57 94 58 95 59 96
REMARK SMILES IDX 60 97
REMARK H PARENT 17 6 22 28 84 47 50 58
REMARK Flexibility Score: inf
ROOT
ATOM      1  C   UNL A   1      36.986  22.301  25.972  1.00  0.00     0.023 C 
ENDROOT
BRANCH   1   2
ATOM      2  C   UNL A   1      35.565  22.045  26.499  1.00  0.00     0.116 C 
BRANCH   2   3
ATOM      3  N   UNL A   1      34.872  21.006  25.738  1.00  0.00    -0.352 N 
ATOM      4  C   UNL A   1      34.007  21.010  24.659  1.00  0.00     0.252 C 
ATOM      5  O   UNL A   1      33.664  19.928  24.184  1.00  0.00    -0.269 OA
ATOM      6  H   UNL A   1      35.064  20.099  26.068  1.00  0.00     0.163 HD
BRANCH   4   7
ATOM      7  C   UNL A   1      33.496  22.244  24.021  1.00  0.00     0.058 A 
ATOM      8  C   UNL A   1      32.605  24.656  22.911  1.00  0.00     0.096 A 
ATOM      9  C   UNL A   1      31.807  23.865  23.676  1.00  0.00     0.036 A 
ATOM     10  N   UNL A   1      33.893  24.302  22.725  1.00  0.00    -0.249 NA
ATOM     11  C   UNL A   1      32.182  22.611  24.097  1.00  0.00     0.018 A 
ATOM     12  C   UNL A   1      34.320  23.128  23.321  1.00  0.00     0.126 A 
BRANCH   8  13
ATOM     13  S   UNL A   1      31.907  26.088  22.110  1.00  0.00    -0.103 SA
BRANCH  13  14
ATOM     14  C   UNL A   1      30.631  26.916  23.269  1.00  0.00     0.054 C 
ATOM     15  C   UNL A   1      31.580  28.501  25.077  1.00  0.00     0.109 C 
ATOM     16  C   UNL A   1      30.759  29.669  24.507  1.00  0.00     0.020 C 
ATOM     17  C   UNL A   1      30.978  27.134  24.761  1.00  0.00     0.034 C 
ATOM     18  C   UNL A   1      30.198  29.504  23.086  1.00  0.00     0.002 C 
ATOM     19  C   UNL A   1      29.814  28.079  22.673  1.00  0.00     0.015 C 
BRANCH  15  20
ATOM     20  S   UNL A   1      32.070  28.752  26.790  1.00  0.00     0.150 S 
ATOM     21  C   UNL A   1      33.780  28.301  26.919  1.00  0.00     0.158 C 
ATOM     22  O   UNL A   1      31.322  27.790  27.575  1.00  0.00    -0.229 OA
ATOM     23  O   UNL A   1      31.975  30.172  27.085  1.00  0.00    -0.229 OA
ENDBRANCH  15  20
ENDBRANCH  13  14
ENDBRANCH   8  13
ENDBRANCH   4   7
ENDBRANCH   2   3
ENDBRANCH   1   2
BRANCH   1  24
ATOM     24  C   UNL A   1      37.306  23.786  25.776  1.00  0.00     0.023 C 
BRANCH  24  25
ATOM     25  C   UNL A   1      38.445  24.314  26.645  1.00  0.00     0.116 C 
BRANCH  25  26
ATOM     26  N   UNL A   1      39.746  24.268  25.997  1.00  0.00    -0.352 N 
ATOM     27  C   UNL A   1      40.889  24.956  26.339  1.00  0.00     0.251 C 
ATOM     28  H   UNL A   1      39.819  23.672  25.217  1.00  0.00     0.163 HD
ATOM     29  O   UNL A   1      41.887  24.889  25.630  1.00  0.00    -0.269 OA
BRANCH  27  30
ATOM     30  C   UNL A   1      40.880  25.812  27.548  1.00  0.00     0.039 A 
ATOM     31  C   UNL A   1      41.865  26.790  27.690  1.00  0.00     0.014 A 
ATOM     32  C   UNL A   1      39.871  25.682  28.506  1.00  0.00     0.014 A 
ATOM     33  C   UNL A   1      41.798  27.684  28.762  1.00  0.00     0.010 A 
ATOM     34  C   UNL A   1      39.762  26.623  29.527  1.00  0.00     0.010 A 
ATOM     35  C   UNL A   1      40.724  27.635  29.666  1.00  0.00    -0.014 A 
BRANCH  35  36
ATOM     36  C   UNL A   1      40.588  28.637  30.757  1.00  0.00     0.031 A 
ATOM     37  C   UNL A   1      41.435  28.527  31.997  1.00  0.00     0.074 A 
ATOM     38  C   UNL A   1      39.659  29.609  30.658  1.00  0.00     0.049 A 
ATOM     39  N   UNL A   1      41.424  29.271  33.073  1.00  0.00    -0.248 NA
ATOM     40  C   UNL A   1      42.403  27.419  32.045  1.00  0.00     0.031 C 
ATOM     41  C   UNL A   1      38.738  29.788  29.534  1.00  0.00     0.029 A 
ATOM     42  N   UNL A   1      39.327  30.626  31.520  1.00  0.00    -0.354 N 
ATOM     43  C   UNL A   1      42.370  28.717  33.929  1.00  0.00     0.074 A 
ATOM     44  C   UNL A   1      42.895  27.541  33.271  1.00  0.00     0.031 C 
ATOM     45  C   UNL A   1      37.965  30.862  29.762  1.00  0.00     0.029 A 
ATOM     46  C   UNL A   1      38.302  31.424  31.067  1.00  0.00     0.049 A 
ATOM     47  H   UNL A   1      39.779  30.769  32.382  1.00  0.00     0.167 HD
ATOM     48  C   UNL A   1      42.781  29.162  35.140  1.00  0.00     0.037 A 
ATOM     49  C   UNL A   1      37.697  32.483  31.638  1.00  0.00     0.037 A 
ATOM     50  C   UNL A   1      42.268  30.347  35.778  1.00  0.00     0.049 A 
ATOM     51  C   UNL A   1      38.170  32.958  32.986  1.00  0.00     0.074 A 
ATOM     52  C   UNL A   1      42.663  30.916  36.976  1.00  0.00     0.029 A 
ATOM     53  N   UNL A   1      41.246  31.141  35.278  1.00  0.00    -0.354 N 
ATOM     54  N   UNL A   1      39.118  32.465  33.747  1.00  0.00    -0.248 NA
ATOM     55  C   UNL A   1      37.499  34.138  33.549  1.00  0.00     0.031 C 
ATOM     56  C   UNL A   1      41.843  32.020  37.228  1.00  0.00     0.029 A 
ATOM     57  C   UNL A   1      40.979  32.178  36.156  1.00  0.00     0.049 A 
ATOM     58  H   UNL A   1      40.778  30.989  34.424  1.00  0.00     0.167 HD
ATOM     59  C   UNL A   1      39.177  33.291  34.865  1.00  0.00     0.074 A 
ATOM     60  C   UNL A   1      38.179  34.324  34.673  1.00  0.00     0.031 C 
ATOM     61  C   UNL A   1      39.986  33.204  35.950  1.00  0.00     0.037 A 
BRANCH  48  62
ATOM     62  C   UNL A   1      43.839  28.367  35.856  1.00  0.00     0.058 A 
ATOM     63  C   UNL A   1      43.510  27.328  36.744  1.00  0.00     0.135 A 
ATOM     64  C   UNL A   1      45.201  28.616  35.620  1.00  0.00     0.135 A 
ATOM     65  F   UNL A   1      42.225  27.055  37.020  1.00  0.00    -0.206 F 
ATOM     66  C   UNL A   1      44.492  26.585  37.391  1.00  0.00     0.059 A 
ATOM     67  C   UNL A   1      46.200  27.863  36.232  1.00  0.00     0.059 A 
ATOM     68  F   UNL A   1      45.574  29.596  34.783  1.00  0.00    -0.206 F 
ATOM     69  C   UNL A   1      45.834  26.858  37.127  1.00  0.00     0.060 A 
BRANCH  69  70
ATOM     70  S   UNL A   1      47.094  25.875  37.967  1.00  0.00     0.124 S 
ATOM     71  O   UNL A   1      48.171  26.848  38.116  1.00  0.00    -0.237 OA
ATOM     72  O   UNL A   1      46.415  25.488  39.200  1.00  0.00    -0.237 OA
ATOM     73  O   UNL A   1      47.358  24.787  37.030  1.00  0.00    -0.744 OA
ENDBRANCH  69  70
ENDBRANCH  48  62
BRANCH  49  74
ATOM     74  C   UNL A   1      36.587  33.178  30.929  1.00  0.00     0.058 A 
ATOM     75  C   UNL A   1      35.258  33.051  31.362  1.00  0.00     0.135 A 
ATOM     76  C   UNL A   1      36.832  33.991  29.812  1.00  0.00     0.135 A 
ATOM     77  F   UNL A   1      34.968  32.280  32.421  1.00  0.00    -0.206 F 
ATOM     78  C   UNL A   1      34.211  33.690  30.705  1.00  0.00     0.059 A 
ATOM     79  C   UNL A   1      35.807  34.664  29.155  1.00  0.00     0.059 A 
ATOM     80  F   UNL A   1      38.087  34.159  29.365  1.00  0.00    -0.206 F 
ATOM     81  C   UNL A   1      34.497  34.499  29.603  1.00  0.00     0.060 A 
BRANCH  81  82
ATOM     82  S   UNL A   1      33.136  35.363  28.788  1.00  0.00     0.124 S 
ATOM     83  O   UNL A   1      32.380  35.862  29.931  1.00  0.00    -0.237 OA
ATOM     84  O   UNL A   1      33.842  36.368  28.000  1.00  0.00    -0.237 OA
ATOM     85  O   UNL A   1      32.487  34.310  28.012  1.00  0.00    -0.744 OA
ENDBRANCH  81  82
ENDBRANCH  49  74
BRANCH  61  86
ATOM     86  C   UNL A   1      39.857  34.274  37.001  1.00  0.00     0.058 A 
ATOM     87  C   UNL A   1      40.464  35.531  36.860  1.00  0.00     0.135 A 
ATOM     88  C   UNL A   1      39.071  34.052  38.144  1.00  0.00     0.135 A 
ATOM     89  F   UNL A   1      41.231  35.796  35.790  1.00  0.00    -0.206 F 
ATOM     90  C   UNL A   1      40.320  36.521  37.827  1.00  0.00     0.059 A 
ATOM     91  C   UNL A   1      38.885  35.038  39.108  1.00  0.00     0.059 A 
ATOM     92  F   UNL A   1      38.457  32.872  38.325  1.00  0.00    -0.206 F 
ATOM     93  C   UNL A   1      39.526  36.265  38.947  1.00  0.00     0.060 A 
BRANCH  93  94
ATOM     94  S   UNL A   1      39.324  37.569  40.180  1.00  0.00     0.124 S 
ATOM     95  O   UNL A   1      40.661  38.150  40.216  1.00  0.00    -0.237 OA
ATOM     96  O   UNL A   1      38.287  38.404  39.582  1.00  0.00    -0.237 OA
ATOM     97  O   UNL A   1      38.921  36.844  41.380  1.00  0.00    -0.744 OA
ENDBRANCH  93  94
ENDBRANCH  61  86
ENDBRANCH  35  36
ENDBRANCH  27  30
ENDBRANCH  25  26
ENDBRANCH  24  25
ENDBRANCH   1  24
TORSDOF 17
ENDMDL
MODEL 2
REMARK VINA RESULT:     -11.9      6.618     12.605
REMARK SMILES CS(=O)(=O)[C@@H]1CCC[C@@H](Sc2ccc(C(=O)NCCCCNC(=O)c3ccc(-c4c5nc(c(-c6c(F)cc(S(=O)(=O)[O-])cc6F)c6ccc([nH]6)c(-c6c(F)cc(S(=O)(=O)[O-])cc6F)c6nc(c(-c7c(F)cc(S(=O)(=O)[O-])cc7F)c7ccc4[nH]7)C=C6)C=C5)cc3)cn2)C1
REMARK SMILES IDX 19 1 18 2 17 3 15 4 16 5 14 7 11 8 12 9 92 10 13 11 91 12
REMARK SMILES IDX 10 13 9 14 5 15 6 16 93 17 7 18 8 19 2 20 1 21 3 22 4 23
REMARK SMILES IDX 20 24 21 25 22 26 23 27 24 29 25 30 26 31 90 32 27 33 89 34
REMARK SMILES IDX 28 35 29 36 30 37 83 38 31 39 88 40 82 41 84 42 32 43 87 44
REMARK SMILES IDX 81 45 80 46 33 48 67 49 46 50 66 51 47 52 50 53 65 54 85 55
REMARK SMILES IDX 48 56 49 57 64 59 86 60 51 61 34 62 35 63 44 64 36 65 37 66
REMARK SMILES IDX 43 67 45 68 38 69 39 70 40 71 41 72 42 73 68 74 69 75 78 76
REMARK SMILES IDX 70 77 71 78 77 79 79 80 72 81 73 82 74 83 75 84 76 85 52 86
REMARK SMILES IDX 53 87 62 88 54 89 55 90 61 91 63 92 56 93 57 94 58 95 59 96
REMARK SMILES IDX 60 97
REMARK H PARENT 17 6 22 28 84 47 50 58
REMARK Flexibility Score: inf
ROOT
ATOM      1  C   UNL A   1      35.879  34.842  32.365  1.00  0.00     0.023 C 
ENDROOT
BRANCH   1   2
ATOM      2  C   UNL A   1      34.645  34.467  31.530  1.00  0.00     0.116 C 
BRANCH   2   3
ATOM      3  N   UNL A   1      34.593  35.197  30.263  1.00  0.00    -0.352 N 
ATOM      4  C   UNL A   1      34.512  34.826  28.934  1.00  0.00     0.252 C 
ATOM      5  O   UNL A   1      34.390  35.711  28.088  1.00  0.00    -0.269 OA
ATOM      6  H   UNL A   1      34.622  36.173  30.384  1.00  0.00     0.163 HD
BRANCH   4   7
ATOM      7  C   UNL A   1      34.531  33.419  28.472  1.00  0.00     0.058 A 
ATOM      8  C   UNL A   1      34.631  30.805  27.475  1.00  0.00     0.096 A 
ATOM      9  C   UNL A   1      33.482  31.531  27.504  1.00  0.00     0.036 A 
ATOM     10  N   UNL A   1      35.781  31.380  27.884  1.00  0.00    -0.249 NA
ATOM     11  C   UNL A   1      33.388  32.752  28.130  1.00  0.00     0.018 A 
ATOM     12  C   UNL A   1      35.711  32.687  28.330  1.00  0.00     0.126 A 
BRANCH   8  13
ATOM     13  S   UNL A   1      34.571  29.093  26.978  1.00  0.00    -0.103 SA
BRANCH  13  14
ATOM     14  C   UNL A   1      32.994  28.779  25.943  1.00  0.00     0.054 C 
ATOM     15  C   UNL A   1      33.139  26.901  24.172  1.00  0.00     0.109 C 
ATOM     16  C   UNL A   1      31.983  26.149  24.851  1.00  0.00     0.020 C 
ATOM     17  C   UNL A   1      33.121  28.402  24.447  1.00  0.00     0.034 C 
ATOM     18  C   UNL A   1      31.632  26.555  26.292  1.00  0.00     0.002 C 
ATOM     19  C   UNL A   1      31.846  28.030  26.648  1.00  0.00     0.015 C 
BRANCH  15  20
ATOM     20  S   UNL A   1      33.369  26.434  22.450  1.00  0.00     0.150 S 
ATOM     21  C   UNL A   1      31.757  26.175  21.755  1.00  0.00     0.158 C 
ATOM     22  O   UNL A   1      34.033  25.146  22.459  1.00  0.00    -0.229 OA
ATOM     23  O   UNL A   1      33.965  27.560  21.750  1.00  0.00    -0.229 OA
ENDBRANCH  15  20
ENDBRANCH  13  14
ENDBRANCH   8  13
ENDBRANCH   4   7
ENDBRANCH   2   3
ENDBRANCH   1   2
BRANCH   1  24
ATOM     24  C   UNL A   1      36.633  33.629  32.919  1.00  0.00     0.023 C 
BRANCH  24  25
ATOM     25  C   UNL A   1      37.143  32.655  31.860  1.00  0.00     0.116 C 
BRANCH  25  26
ATOM     26  N   UNL A   1      36.346  31.443  31.747  1.00  0.00    -0.352 N 
ATOM     27  C   UNL A   1      36.712  30.237  31.192  1.00  0.00     0.251 C 
ATOM     28  H   UNL A   1      35.433  31.491  32.112  1.00  0.00     0.163 HD
ATOM     29  O   UNL A   1      35.889  29.334  31.078  1.00  0.00    -0.269 OA
BRANCH  27  30
ATOM     30  C   UNL A   1      38.095  30.063  30.694  1.00  0.00     0.039 A 
ATOM     31  C   UNL A   1      39.086  29.646  31.585  1.00  0.00     0.014 A 
ATOM     32  C   UNL A   1      38.398  30.258  29.344  1.00  0.00     0.014 A 
ATOM     33  C   UNL A   1      40.367  29.359  31.106  1.00  0.00     0.010 A 
ATOM     34  C   UNL A   1      39.651  29.894  28.857  1.00  0.00     0.010 A 
ATOM     35  C   UNL A   1      40.650  29.441  29.732  1.00  0.00    -0.014 A 
BRANCH  35  36
ATOM     36  C   UNL A   1      41.979  29.049  29.194  1.00  0.00     0.031 A 
ATOM     37  C   UNL A   1      43.081  30.070  29.081  1.00  0.00     0.074 A 
ATOM     38  C   UNL A   1      42.176  27.792  28.749  1.00  0.00     0.049 A 
ATOM     39  N   UNL A   1      44.287  29.932  28.592  1.00  0.00    -0.248 NA
ATOM     40  C   UNL A   1      42.780  31.430  29.557  1.00  0.00     0.031 C 
ATOM     41  C   UNL A   1      41.170  26.727  28.751  1.00  0.00     0.029 A 
ATOM     42  N   UNL A   1      43.285  27.196  28.200  1.00  0.00    -0.354 N 
ATOM     43  C   UNL A   1      44.882  31.185  28.688  1.00  0.00     0.074 A 
ATOM     44  C   UNL A   1      43.886  32.084  29.229  1.00  0.00     0.031 C 
ATOM     45  C   UNL A   1      41.714  25.605  28.253  1.00  0.00     0.029 A 
ATOM     46  C   UNL A   1      43.092  25.878  27.856  1.00  0.00     0.049 A 
ATOM     47  H   UNL A   1      44.137  27.668  28.065  1.00  0.00     0.167 HD
ATOM     48  C   UNL A   1      46.149  31.548  28.378  1.00  0.00     0.037 A 
ATOM     49  C   UNL A   1      43.926  24.991  27.279  1.00  0.00     0.037 A 
ATOM     50  C   UNL A   1      47.142  30.641  27.860  1.00  0.00     0.049 A 
ATOM     51  C   UNL A   1      45.330  25.418  26.942  1.00  0.00     0.074 A 
ATOM     52  C   UNL A   1      48.471  30.896  27.573  1.00  0.00     0.029 A 
ATOM     53  N   UNL A   1      46.914  29.309  27.545  1.00  0.00    -0.354 N 
ATOM     54  N   UNL A   1      45.898  26.589  27.110  1.00  0.00    -0.248 NA
ATOM     55  C   UNL A   1      46.209  24.403  26.346  1.00  0.00     0.031 C 
ATOM     56  C   UNL A   1      49.032  29.736  27.031  1.00  0.00     0.029 A 
ATOM     57  C   UNL A   1      48.071  28.738  27.041  1.00  0.00     0.049 A 
ATOM     58  H   UNL A   1      46.057  28.839  27.662  1.00  0.00     0.167 HD
ATOM     59  C   UNL A   1      47.209  26.443  26.667  1.00  0.00     0.074 A 
ATOM     60  C   UNL A   1      47.352  25.066  26.238  1.00  0.00     0.031 C 
ATOM     61  C   UNL A   1      48.203  27.364  26.623  1.00  0.00     0.037 A 
BRANCH  48  62
ATOM     62  C   UNL A   1      46.539  32.986  28.592  1.00  0.00     0.058 A 
ATOM     63  C   UNL A   1      47.037  33.442  29.824  1.00  0.00     0.135 A 
ATOM     64  C   UNL A   1      46.457  33.911  27.538  1.00  0.00     0.135 A 
ATOM     65  F   UNL A   1      47.124  32.606  30.871  1.00  0.00    -0.206 F 
ATOM     66  C   UNL A   1      47.412  34.769  30.011  1.00  0.00     0.059 A 
ATOM     67  C   UNL A   1      46.857  35.235  27.694  1.00  0.00     0.059 A 
ATOM     68  F   UNL A   1      45.988  33.531  26.340  1.00  0.00    -0.206 F 
ATOM     69  C   UNL A   1      47.321  35.658  28.940  1.00  0.00     0.060 A 
BRANCH  69  70
ATOM     70  S   UNL A   1      47.824  37.372  29.198  1.00  0.00     0.124 S 
ATOM     71  O   UNL A   1      49.226  37.211  29.569  1.00  0.00    -0.237 OA
ATOM     72  O   UNL A   1      47.580  37.968  27.888  1.00  0.00    -0.237 OA
ATOM     73  O   UNL A   1      46.941  37.829  30.267  1.00  0.00    -0.744 OA
ENDBRANCH  69  70
ENDBRANCH  48  62
BRANCH  49  74
ATOM     74  C   UNL A   1      43.461  23.605  26.999  1.00  0.00     0.058 A 
ATOM     75  C   UNL A   1      43.054  23.222  25.712  1.00  0.00     0.135 A 
ATOM     76  C   UNL A   1      43.423  22.631  28.010  1.00  0.00     0.135 A 
ATOM     77  F   UNL A   1      43.063  24.117  24.712  1.00  0.00    -0.206 F 
ATOM     78  C   UNL A   1      42.610  21.932  25.439  1.00  0.00     0.059 A 
ATOM     79  C   UNL A   1      43.013  21.326  27.755  1.00  0.00     0.059 A 
ATOM     80  F   UNL A   1      43.817  22.939  29.256  1.00  0.00    -0.206 F 
ATOM     81  C   UNL A   1      42.598  20.988  26.468  1.00  0.00     0.060 A 
BRANCH  81  82
ATOM     82  S   UNL A   1      42.068  19.303  26.090  1.00  0.00     0.124 S 
ATOM     83  O   UNL A   1      42.941  18.966  24.973  1.00  0.00    -0.237 OA
ATOM     84  O   UNL A   1      42.339  18.610  27.346  1.00  0.00    -0.237 OA
ATOM     85  O   UNL A   1      40.654  19.462  25.763  1.00  0.00    -0.744 OA
ENDBRANCH  81  82
ENDBRANCH  49  74
BRANCH  61  86
ATOM     86  C   UNL A   1      49.551  26.909  26.128  1.00  0.00     0.058 A 
ATOM     87  C   UNL A   1      50.458  26.235  26.960  1.00  0.00     0.135 A 
ATOM     88  C   UNL A   1      49.917  27.109  24.787  1.00  0.00     0.135 A 
ATOM     89  F   UNL A   1      50.162  26.022  28.252  1.00  0.00    -0.206 F 
ATOM     90  C   UNL A   1      51.692  25.799  26.487  1.00  0.00     0.059 A 
ATOM     91  C   UNL A   1      51.131  26.652  24.284  1.00  0.00     0.059 A 
ATOM     92  F   UNL A   1      49.083  27.737  23.944  1.00  0.00    -0.206 F 
ATOM     93  C   UNL A   1      52.018  26.011  25.146  1.00  0.00     0.060 A 
BRANCH  93  94
ATOM     94  S   UNL A   1      53.610  25.413  24.538  1.00  0.00     0.124 S 
ATOM     95  O   UNL A   1      53.552  25.799  23.133  1.00  0.00    -0.237 OA
ATOM     96  O   UNL A   1      54.557  26.159  25.361  1.00  0.00    -0.237 OA
ATOM     97  O   UNL A   1      53.557  23.978  24.798  1.00  0.00    -0.744 OA
ENDBRANCH  93  94
ENDBRANCH  61  86
ENDBRANCH  35  36
ENDBRANCH  27  30
ENDBRANCH  25  26
ENDBRANCH  24  25
ENDBRANCH   1  24
TORSDOF 17
ENDMDL
MODEL 3
REMARK VINA RESULT:     -11.9      1.301      2.011
REMARK SMILES CS(=O)(=O)[C@@H]1CCC[C@@H](Sc2ccc(C(=O)NCCCCNC(=O)c3ccc(-c4c5nc(c(-c6c(F)cc(S(=O)(=O)[O-])cc6F)c6ccc([nH]6)c(-c6c(F)cc(S(=O)(=O)[O-])cc6F)c6nc(c(-c7c(F)cc(S(=O)(=O)[O-])cc7F)c7ccc4[nH]7)C=C6)C=C5)cc3)cn2)C1
REMARK SMILES IDX 19 1 18 2 17 3 15 4 16 5 14 7 11 8 12 9 92 10 13 11 91 12
REMARK SMILES IDX 10 13 9 14 5 15 6 16 93 17 7 18 8 19 2 20 1 21 3 22 4 23
REMARK SMILES IDX 20 24 21 25 22 26 23 27 24 29 25 30 26 31 90 32 27 33 89 34
REMARK SMILES IDX 28 35 29 36 30 37 83 38 31 39 88 40 82 41 84 42 32 43 87 44
REMARK SMILES IDX 81 45 80 46 33 48 67 49 46 50 66 51 47 52 50 53 65 54 85 55
REMARK SMILES IDX 48 56 49 57 64 59 86 60 51 61 34 62 35 63 44 64 36 65 37 66
REMARK SMILES IDX 43 67 45 68 38 69 39 70 40 71 41 72 42 73 68 74 69 75 78 76
REMARK SMILES IDX 70 77 71 78 77 79 79 80 72 81 73 82 74 83 75 84 76 85 52 86
REMARK SMILES IDX 53 87 62 88 54 89 55 90 61 91 63 92 56 93 57 94 58 95 59 96
REMARK SMILES IDX 60 97
REMARK H PARENT 17 6 22 28 84 47 50 58
REMARK Flexibility Score: inf
ROOT
ATOM      1  C   UNL A   1      38.660  23.143  25.853  1.00  0.00     0.023 C 
ENDROOT
BRANCH   1   2
ATOM      2  C   UNL A   1      37.162  23.017  26.170  1.00  0.00     0.116 C 
BRANCH   2   3
ATOM      3  N   UNL A   1      36.636  21.693  25.836  1.00  0.00    -0.352 N 
ATOM      4  C   UNL A   1      35.468  21.232  25.260  1.00  0.00     0.252 C 
ATOM      5  O   UNL A   1      35.369  20.028  25.027  1.00  0.00    -0.269 OA
ATOM      6  H   UNL A   1      37.255  20.966  26.077  1.00  0.00     0.163 HD
BRANCH   4   7
ATOM      7  C   UNL A   1      34.340  22.111  24.875  1.00  0.00     0.058 A 
ATOM      8  C   UNL A   1      32.115  23.673  24.204  1.00  0.00     0.096 A 
ATOM      9  C   UNL A   1      32.813  22.962  23.279  1.00  0.00     0.036 A 
ATOM     10  N   UNL A   1      32.465  23.579  25.503  1.00  0.00    -0.249 NA
ATOM     11  C   UNL A   1      33.993  22.318  23.570  1.00  0.00     0.018 A 
ATOM     12  C   UNL A   1      33.540  22.766  25.813  1.00  0.00     0.126 A 
BRANCH   8  13
ATOM     13  S   UNL A   1      30.817  24.770  23.665  1.00  0.00    -0.103 SA
BRANCH  13  14
ATOM     14  C   UNL A   1      31.577  26.408  23.036  1.00  0.00     0.054 C 
ATOM     15  C   UNL A   1      30.188  28.549  23.445  1.00  0.00     0.109 C 
ATOM     16  C   UNL A   1      31.337  29.158  24.266  1.00  0.00     0.020 C 
ATOM     17  C   UNL A   1      30.659  27.501  22.440  1.00  0.00     0.034 C 
ATOM     18  C   UNL A   1      32.424  28.196  24.771  1.00  0.00     0.002 C 
ATOM     19  C   UNL A   1      32.733  26.994  23.871  1.00  0.00     0.015 C 
BRANCH  15  20
ATOM     20  S   UNL A   1      29.052  29.785  22.797  1.00  0.00     0.150 S 
ATOM     21  C   UNL A   1      27.414  29.124  22.948  1.00  0.00     0.158 C 
ATOM     22  O   UNL A   1      29.331  29.896  21.379  1.00  0.00    -0.229 OA
ATOM     23  O   UNL A   1      29.124  30.959  23.652  1.00  0.00    -0.229 OA
ENDBRANCH  15  20
ENDBRANCH  13  14
ENDBRANCH   8  13
ENDBRANCH   4   7
ENDBRANCH   2   3
ENDBRANCH   1   2
BRANCH   1  24
ATOM     24  C   UNL A   1      39.563  22.465  26.888  1.00  0.00     0.023 C 
BRANCH  24  25
ATOM     25  C   UNL A   1      40.887  23.178  27.147  1.00  0.00     0.116 C 
BRANCH  25  26
ATOM     26  N   UNL A   1      41.347  23.985  26.027  1.00  0.00    -0.352 N 
ATOM     27  C   UNL A   1      41.609  25.336  26.007  1.00  0.00     0.251 C 
ATOM     28  H   UNL A   1      41.490  23.505  25.179  1.00  0.00     0.163 HD
ATOM     29  O   UNL A   1      41.895  25.895  24.953  1.00  0.00    -0.269 OA
BRANCH  27  30
ATOM     30  C   UNL A   1      41.495  26.111  27.264  1.00  0.00     0.039 A 
ATOM     31  C   UNL A   1      42.522  26.992  27.610  1.00  0.00     0.014 A 
ATOM     32  C   UNL A   1      40.356  26.007  28.066  1.00  0.00     0.014 A 
ATOM     33  C   UNL A   1      42.373  27.819  28.726  1.00  0.00     0.010 A 
ATOM     34  C   UNL A   1      40.176  26.888  29.129  1.00  0.00     0.010 A 
ATOM     35  C   UNL A   1      41.183  27.804  29.472  1.00  0.00    -0.014 A 
BRANCH  35  36
ATOM     36  C   UNL A   1      40.970  28.743  30.605  1.00  0.00     0.031 A 
ATOM     37  C   UNL A   1      41.793  28.613  31.860  1.00  0.00     0.074 A 
ATOM     38  C   UNL A   1      39.997  29.672  30.530  1.00  0.00     0.049 A 
ATOM     39  N   UNL A   1      41.720  29.302  32.970  1.00  0.00    -0.248 NA
ATOM     40  C   UNL A   1      42.814  27.553  31.880  1.00  0.00     0.031 C 
ATOM     41  C   UNL A   1      39.094  29.861  29.391  1.00  0.00     0.029 A 
ATOM     42  N   UNL A   1      39.594  30.627  31.430  1.00  0.00    -0.354 N 
ATOM     43  C   UNL A   1      42.671  28.753  33.822  1.00  0.00     0.074 A 
ATOM     44  C   UNL A   1      43.270  27.638  33.122  1.00  0.00     0.031 C 
ATOM     45  C   UNL A   1      38.264  30.883  29.652  1.00  0.00     0.029 A 
ATOM     46  C   UNL A   1      38.542  31.396  30.990  1.00  0.00     0.049 A 
ATOM     47  H   UNL A   1      40.018  30.750  32.310  1.00  0.00     0.167 HD
ATOM     48  C   UNL A   1      43.031  29.157  35.063  1.00  0.00     0.037 A 
ATOM     49  C   UNL A   1      37.871  32.395  31.595  1.00  0.00     0.037 A 
ATOM     50  C   UNL A   1      42.445  30.283  35.745  1.00  0.00     0.049 A 
ATOM     51  C   UNL A   1      38.289  32.826  32.976  1.00  0.00     0.074 A 
ATOM     52  C   UNL A   1      42.783  30.811  36.978  1.00  0.00     0.029 A 
ATOM     53  N   UNL A   1      41.396  31.049  35.257  1.00  0.00    -0.354 N 
ATOM     54  N   UNL A   1      39.242  32.342  33.738  1.00  0.00    -0.248 NA
ATOM     55  C   UNL A   1      37.547  33.942  33.579  1.00  0.00     0.031 C 
ATOM     56  C   UNL A   1      41.903  31.859  37.262  1.00  0.00     0.029 A 
ATOM     57  C   UNL A   1      41.057  32.028  36.177  1.00  0.00     0.049 A 
ATOM     58  H   UNL A   1      40.957  30.917  34.385  1.00  0.00     0.167 HD
ATOM     59  C   UNL A   1      39.233  33.114  34.895  1.00  0.00     0.074 A 
ATOM     60  C   UNL A   1      38.189  34.105  34.727  1.00  0.00     0.031 C 
ATOM     61  C   UNL A   1      40.019  33.013  35.995  1.00  0.00     0.037 A 
BRANCH  48  62
ATOM     62  C   UNL A   1      44.111  28.380  35.768  1.00  0.00     0.058 A 
ATOM     63  C   UNL A   1      43.814  27.280  36.589  1.00  0.00     0.135 A 
ATOM     64  C   UNL A   1      45.463  28.711  35.585  1.00  0.00     0.135 A 
ATOM     65  F   UNL A   1      42.538  26.926  36.813  1.00  0.00    -0.206 F 
ATOM     66  C   UNL A   1      44.816  26.554  37.226  1.00  0.00     0.059 A 
ATOM     67  C   UNL A   1      46.484  27.979  36.185  1.00  0.00     0.059 A 
ATOM     68  F   UNL A   1      45.806  29.754  34.812  1.00  0.00    -0.206 F 
ATOM     69  C   UNL A   1      46.149  26.910  37.016  1.00  0.00     0.060 A 
BRANCH  69  70
ATOM     70  S   UNL A   1      47.436  25.949  37.839  1.00  0.00     0.124 S 
ATOM     71  O   UNL A   1      48.170  25.408  36.699  1.00  0.00    -0.237 OA
ATOM     72  O   UNL A   1      48.135  26.969  38.616  1.00  0.00    -0.237 OA
ATOM     73  O   UNL A   1      46.685  24.973  38.622  1.00  0.00    -0.744 OA
ENDBRANCH  69  70
ENDBRANCH  48  62
BRANCH  49  74
ATOM     74  C   UNL A   1      36.745  33.069  30.892  1.00  0.00     0.058 A 
ATOM     75  C   UNL A   1      35.410  32.786  31.222  1.00  0.00     0.135 A 
ATOM     76  C   UNL A   1      36.978  34.018  29.885  1.00  0.00     0.135 A 
ATOM     77  F   UNL A   1      35.132  31.881  32.174  1.00  0.00    -0.206 F 
ATOM     78  C   UNL A   1      34.349  33.404  30.569  1.00  0.00     0.059 A 
ATOM     79  C   UNL A   1      35.935  34.671  29.237  1.00  0.00     0.059 A 
ATOM     80  F   UNL A   1      38.236  34.338  29.541  1.00  0.00    -0.206 F 
ATOM     81  C   UNL A   1      34.622  34.350  29.578  1.00  0.00     0.060 A 
BRANCH  81  82
ATOM     82  S   UNL A   1      33.237  35.182  28.772  1.00  0.00     0.124 S 
ATOM     83  O   UNL A   1      33.922  36.218  28.008  1.00  0.00    -0.237 OA
ATOM     84  O   UNL A   1      32.643  34.100  27.993  1.00  0.00    -0.237 OA
ATOM     85  O   UNL A   1      32.430  35.653  29.894  1.00  0.00    -0.744 OA
ENDBRANCH  81  82
ENDBRANCH  49  74
BRANCH  61  86
ATOM     86  C   UNL A   1      39.813  34.022  37.093  1.00  0.00     0.058 A 
ATOM     87  C   UNL A   1      39.028  33.741  38.222  1.00  0.00     0.135 A 
ATOM     88  C   UNL A   1      40.452  35.271  37.036  1.00  0.00     0.135 A 
ATOM     89  F   UNL A   1      38.389  32.564  38.326  1.00  0.00    -0.206 F 
ATOM     90  C   UNL A   1      38.862  34.672  39.243  1.00  0.00     0.059 A 
ATOM     91  C   UNL A   1      40.328  36.204  38.060  1.00  0.00     0.059 A 
ATOM     92  F   UNL A   1      41.225  35.589  35.985  1.00  0.00    -0.206 F 
ATOM     93  C   UNL A   1      39.519  35.901  39.153  1.00  0.00     0.060 A 
BRANCH  93  94
ATOM     94  S   UNL A   1      39.319  37.088  40.499  1.00  0.00     0.124 S 
ATOM     95  O   UNL A   1      38.573  38.155  39.841  1.00  0.00    -0.237 OA
ATOM     96  O   UNL A   1      38.577  36.314  41.489  1.00  0.00    -0.237 OA
ATOM     97  O   UNL A   1      40.691  37.418  40.869  1.00  0.00    -0.744 OA
ENDBRANCH  93  94
ENDBRANCH  61  86
ENDBRANCH  35  36
ENDBRANCH  27  30
ENDBRANCH  25  26
ENDBRANCH  24  25
ENDBRANCH   1  24
TORSDOF 17
ENDMDL
